MODEL 1
REMARK VINA RESULT:     -12.5      0.000      0.000
REMARK SMILES O=C(Cc1ccccc1)Nc1ccc(C(=O)NCc2ccc(C(=O)NCCCCNC(=O)c3ccc(-c4c5nc(c(-c6c(F)cc(S(=O)(=O)[O-])cc6F)c6ccc([nH]6)c(-c6c(F)cc(S(=O)(=O)[O-])cc6F)c6nc(c(-c7c(F)cc(S(=O)(=O)[O-])cc7F)c7ccc4[nH]7)C=C6)C=C5)cc3)cc2)cc1
REMARK SMILES IDX 26 1 25 2 23 3 24 4 22 6 19 7 20 8 100 9 21 10 99 11 18 12
REMARK SMILES IDX 17 13 15 14 16 15 14 17 11 18 12 19 102 20 13 21 101 22
REMARK SMILES IDX 10 23 1 24 2 25 3 27 4 28 5 29 9 30 6 31 8 32 7 33 27 34
REMARK SMILES IDX 28 35 29 36 30 37 31 38 32 40 33 41 34 42 98 43 35 44 97 45
REMARK SMILES IDX 36 46 37 47 38 48 91 49 39 50 96 51 90 52 92 53 40 54 95 55
REMARK SMILES IDX 89 56 88 57 41 59 75 60 54 61 74 62 55 63 58 64 73 65 93 66
REMARK SMILES IDX 56 67 57 68 72 70 94 71 59 72 42 73 43 74 52 75 44 76 45 77
REMARK SMILES IDX 51 78 53 79 46 80 47 81 48 82 49 83 50 84 76 85 77 86 86 87
REMARK SMILES IDX 78 88 79 89 85 90 87 91 80 92 81 93 82 94 83 95 84 96 60 97
REMARK SMILES IDX 61 98 70 99 62 100 63 101 69 102 71 103 64 104 65 105 66 106
REMARK SMILES IDX 67 107 68 108
REMARK H PARENT 25 5 17 16 10 26 30 39 92 58 58 69
REMARK Flexibility Score: inf
ROOT
ATOM      1  C   UNL A   1      33.595  32.087  27.678  1.00  0.00     0.116 C 
ENDROOT
BRANCH   1   2
ATOM      2  N   UNL A   1      34.363  30.882  27.930  1.00  0.00    -0.352 N 
ATOM      3  C   UNL A   1      34.417  29.673  27.282  1.00  0.00     0.251 C 
ATOM      4  O   UNL A   1      35.244  28.849  27.676  1.00  0.00    -0.269 OA
ATOM      5  H   UNL A   1      34.956  30.942  28.712  1.00  0.00     0.163 HD
BRANCH   3   6
ATOM      6  C   UNL A   1      33.554  29.317  26.119  1.00  0.00     0.039 A 
ATOM      7  C   UNL A   1      31.823  28.842  23.918  1.00  0.00    -0.029 A 
ATOM      8  C   UNL A   1      31.403  29.621  25.002  1.00  0.00     0.006 A 
ATOM      9  C   UNL A   1      33.113  28.293  23.963  1.00  0.00     0.006 A 
ATOM     10  C   UNL A   1      32.260  29.858  26.086  1.00  0.00     0.014 A 
ATOM     11  C   UNL A   1      33.973  28.552  25.034  1.00  0.00     0.014 A 
BRANCH   7  12
ATOM     12  C   UNL A   1      30.900  28.622  22.740  1.00  0.00     0.152 C 
BRANCH  12  13
ATOM     13  N   UNL A   1      29.583  28.178  23.157  1.00  0.00    -0.348 N 
ATOM     14  C   UNL A   1      29.083  27.014  23.671  1.00  0.00     0.251 C 
ATOM     15  O   UNL A   1      27.866  26.978  23.867  1.00  0.00    -0.269 OA
ATOM     16  H   UNL A   1      28.894  28.871  23.044  1.00  0.00     0.164 HD
BRANCH  14  17
ATOM     17  C   UNL A   1      29.898  25.815  24.031  1.00  0.00     0.039 A 
ATOM     18  C   UNL A   1      31.556  23.694  24.916  1.00  0.00     0.041 A 
ATOM     19  C   UNL A   1      31.120  24.667  25.813  1.00  0.00     0.027 A 
ATOM     20  C   UNL A   1      31.096  23.742  23.600  1.00  0.00     0.027 A 
ATOM     21  C   UNL A   1      30.314  25.723  25.371  1.00  0.00     0.016 A 
ATOM     22  C   UNL A   1      30.251  24.776  23.171  1.00  0.00     0.016 A 
BRANCH  18  23
ATOM     23  N   UNL A   1      32.412  22.688  25.403  1.00  0.00    -0.326 N 
ATOM     24  O   UNL A   1      34.078  22.688  23.786  1.00  0.00    -0.274 OA
ATOM     25  C   UNL A   1      33.550  22.201  24.784  1.00  0.00     0.228 C 
ATOM     26  H   UNL A   1      32.177  22.290  26.272  1.00  0.00     0.169 HD
BRANCH  25  27
ATOM     27  C   UNL A   1      34.093  20.911  25.383  1.00  0.00     0.135 C 
BRANCH  27  28
ATOM     28  C   UNL A   1      33.818  19.655  24.593  1.00  0.00    -0.039 A 
ATOM     29  C   UNL A   1      32.660  19.546  23.807  1.00  0.00     0.004 A 
ATOM     30  C   UNL A   1      34.716  18.578  24.633  1.00  0.00     0.004 A 
ATOM     31  C   UNL A   1      32.400  18.380  23.088  1.00  0.00     0.000 A 
ATOM     32  C   UNL A   1      34.461  17.420  23.897  1.00  0.00     0.000 A 
ATOM     33  C   UNL A   1      33.302  17.318  23.130  1.00  0.00     0.000 A 
ENDBRANCH  27  28
ENDBRANCH  25  27
ENDBRANCH  18  23
ENDBRANCH  14  17
ENDBRANCH  12  13
ENDBRANCH   7  12
ENDBRANCH   3   6
ENDBRANCH   1   2
BRANCH   1  34
ATOM     34  C   UNL A   1      34.249  33.307  28.333  1.00  0.00     0.023 C 
BRANCH  34  35
ATOM     35  C   UNL A   1      35.780  33.266  28.375  1.00  0.00     0.023 C 
BRANCH  35  36
ATOM     36  C   UNL A   1      36.393  33.253  29.771  1.00  0.00     0.116 C 
BRANCH  36  37
ATOM     37  N   UNL A   1      35.896  32.170  30.606  1.00  0.00    -0.352 N 
ATOM     38  C   UNL A   1      36.504  30.973  30.906  1.00  0.00     0.251 C 
ATOM     39  H   UNL A   1      35.010  32.313  31.010  1.00  0.00     0.163 HD
ATOM     40  O   UNL A   1      35.901  30.120  31.545  1.00  0.00    -0.269 OA
BRANCH  38  41
ATOM     41  C   UNL A   1      37.872  30.710  30.411  1.00  0.00     0.039 A 
ATOM     42  C   UNL A   1      38.924  30.676  31.329  1.00  0.00     0.014 A 
ATOM     43  C   UNL A   1      38.110  30.469  29.054  1.00  0.00     0.014 A 
ATOM     44  C   UNL A   1      40.207  30.331  30.897  1.00  0.00     0.010 A 
ATOM     45  C   UNL A   1      39.375  30.066  28.636  1.00  0.00     0.010 A 
ATOM     46  C   UNL A   1      40.434  29.987  29.554  1.00  0.00    -0.014 A 
BRANCH  46  47
ATOM     47  C   UNL A   1      41.768  29.527  29.092  1.00  0.00     0.031 A 
ATOM     48  C   UNL A   1      42.905  30.505  28.975  1.00  0.00     0.074 A 
ATOM     49  C   UNL A   1      41.933  28.245  28.712  1.00  0.00     0.049 A 
ATOM     50  N   UNL A   1      44.115  30.311  28.517  1.00  0.00    -0.248 NA
ATOM     51  C   UNL A   1      42.640  31.888  29.405  1.00  0.00     0.031 C 
ATOM     52  C   UNL A   1      40.891  27.214  28.731  1.00  0.00     0.029 A 
ATOM     53  N   UNL A   1      43.035  27.589  28.221  1.00  0.00    -0.354 N 
ATOM     54  C   UNL A   1      44.749  31.547  28.587  1.00  0.00     0.074 A 
ATOM     55  C   UNL A   1      43.777  32.493  29.092  1.00  0.00     0.031 C 
ATOM     56  C   UNL A   1      41.408  26.057  28.287  1.00  0.00     0.029 A 
ATOM     57  C   UNL A   1      42.805  26.267  27.921  1.00  0.00     0.049 A 
ATOM     58  H   UNL A   1      43.908  28.026  28.094  1.00  0.00     0.167 HD
ATOM     59  C   UNL A   1      46.030  31.858  28.277  1.00  0.00     0.037 A 
ATOM     60  C   UNL A   1      43.625  25.333  27.403  1.00  0.00     0.037 A 
ATOM     61  C   UNL A   1      47.002  30.904  27.810  1.00  0.00     0.049 A 
ATOM     62  C   UNL A   1      45.048  25.703  27.081  1.00  0.00     0.074 A 
ATOM     63  C   UNL A   1      48.343  31.108  27.536  1.00  0.00     0.029 A 
ATOM     64  N   UNL A   1      46.740  29.567  27.551  1.00  0.00    -0.354 N 
ATOM     65  N   UNL A   1      45.648  26.862  27.216  1.00  0.00    -0.248 NA
ATOM     66  C   UNL A   1      45.906  24.639  26.542  1.00  0.00     0.031 C 
ATOM     67  C   UNL A   1      48.884  29.903  27.077  1.00  0.00     0.029 A 
ATOM     68  C   UNL A   1      47.890  28.938  27.104  1.00  0.00     0.049 A 
ATOM     69  H   UNL A   1      45.865  29.131  27.667  1.00  0.00     0.167 HD
ATOM     70  C   UNL A   1      46.961  26.659  26.805  1.00  0.00     0.074 A 
ATOM     71  C   UNL A   1      47.070  25.264  26.428  1.00  0.00     0.031 C 
ATOM     72  C   UNL A   1      47.984  27.545  26.746  1.00  0.00     0.037 A 
BRANCH  59  73
ATOM     73  C   UNL A   1      46.463  33.287  28.443  1.00  0.00     0.058 A 
ATOM     74  C   UNL A   1      46.364  34.211  27.392  1.00  0.00     0.135 A 
ATOM     75  C   UNL A   1      46.931  33.752  29.683  1.00  0.00     0.135 A 
ATOM     76  F   UNL A   1      45.939  33.816  26.181  1.00  0.00    -0.206 F 
ATOM     77  C   UNL A   1      46.729  35.543  27.559  1.00  0.00     0.059 A 
ATOM     78  C   UNL A   1      47.279  35.086  29.879  1.00  0.00     0.059 A 
ATOM     79  F   UNL A   1      47.048  32.909  30.721  1.00  0.00    -0.206 F 
ATOM     80  C   UNL A   1      47.183  35.971  28.808  1.00  0.00     0.060 A 
BRANCH  80  81
ATOM     81  S   UNL A   1      47.628  37.709  29.014  1.00  0.00     0.124 S 
ATOM     82  O   UNL A   1      48.296  37.686  30.311  1.00  0.00    -0.237 OA
ATOM     83  O   UNL A   1      48.494  37.949  27.862  1.00  0.00    -0.237 OA
ATOM     84  O   UNL A   1      46.342  38.397  28.981  1.00  0.00    -0.744 OA
ENDBRANCH  80  81
ENDBRANCH  59  73
BRANCH  60  85
ATOM     85  C   UNL A   1      43.131  23.950  27.169  1.00  0.00     0.058 A 
ATOM     86  C   UNL A   1      43.129  23.002  28.204  1.00  0.00     0.135 A 
ATOM     87  C   UNL A   1      42.663  23.543  25.911  1.00  0.00     0.135 A 
ATOM     88  F   UNL A   1      43.571  23.342  29.424  1.00  0.00    -0.206 F 
ATOM     89  C   UNL A   1      42.706  21.694  27.994  1.00  0.00     0.059 A 
ATOM     90  C   UNL A   1      42.212  22.247  25.682  1.00  0.00     0.059 A 
ATOM     91  F   UNL A   1      42.628  24.417  24.892  1.00  0.00    -0.206 F 
ATOM     92  C   UNL A   1      42.252  21.325  26.726  1.00  0.00     0.060 A 
BRANCH  92  93
ATOM     93  S   UNL A   1      41.681  19.632  26.469  1.00  0.00     0.124 S 
ATOM     94  O   UNL A   1      40.260  19.838  26.212  1.00  0.00    -0.237 OA
ATOM     95  O   UNL A   1      42.482  19.206  25.325  1.00  0.00    -0.237 OA
ATOM     96  O   UNL A   1      42.006  18.974  27.732  1.00  0.00    -0.744 OA
ENDBRANCH  92  93
ENDBRANCH  60  85
BRANCH  72  97
ATOM     97  C   UNL A   1      49.319  27.030  26.291  1.00  0.00     0.058 A 
ATOM     98  C   UNL A   1      49.755  27.182  24.966  1.00  0.00     0.135 A 
ATOM     99  C   UNL A   1      50.195  26.423  27.206  1.00  0.00     0.135 A 
ATOM    100  F   UNL A   1      48.952  27.749  24.052  1.00  0.00    -0.206 F 
ATOM    101  C   UNL A   1      51.005  26.731  24.558  1.00  0.00     0.059 A 
ATOM    102  C   UNL A   1      51.460  25.987  26.825  1.00  0.00     0.059 A 
ATOM    103  F   UNL A   1      49.830  26.263  28.488  1.00  0.00    -0.206 F 
ATOM    104  C   UNL A   1      51.852  26.135  25.495  1.00  0.00     0.060 A 
BRANCH 104 105
ATOM    105  S   UNL A   1      53.486  25.585  24.962  1.00  0.00     0.124 S 
ATOM    106  O   UNL A   1      53.244  25.257  23.562  1.00  0.00    -0.237 OA
ATOM    107  O   UNL A   1      54.310  26.767  25.203  1.00  0.00    -0.237 OA
ATOM    108  O   UNL A   1      53.763  24.449  25.835  1.00  0.00    -0.744 OA
ENDBRANCH 104 105
ENDBRANCH  72  97
ENDBRANCH  46  47
ENDBRANCH  38  41
ENDBRANCH  36  37
ENDBRANCH  35  36
ENDBRANCH  34  35
ENDBRANCH   1  34
TORSDOF 20
ENDMDL
MODEL 2
REMARK VINA RESULT:     -12.5      1.306      7.979
REMARK SMILES O=C(Cc1ccccc1)Nc1ccc(C(=O)NCc2ccc(C(=O)NCCCCNC(=O)c3ccc(-c4c5nc(c(-c6c(F)cc(S(=O)(=O)[O-])cc6F)c6ccc([nH]6)c(-c6c(F)cc(S(=O)(=O)[O-])cc6F)c6nc(c(-c7c(F)cc(S(=O)(=O)[O-])cc7F)c7ccc4[nH]7)C=C6)C=C5)cc3)cc2)cc1
REMARK SMILES IDX 26 1 25 2 23 3 24 4 22 6 19 7 20 8 100 9 21 10 99 11 18 12
REMARK SMILES IDX 17 13 15 14 16 15 14 17 11 18 12 19 102 20 13 21 101 22
REMARK SMILES IDX 10 23 1 24 2 25 3 27 4 28 5 29 9 30 6 31 8 32 7 33 27 34
REMARK SMILES IDX 28 35 29 36 30 37 31 38 32 40 33 41 34 42 98 43 35 44 97 45
REMARK SMILES IDX 36 46 37 47 38 48 91 49 39 50 96 51 90 52 92 53 40 54 95 55
REMARK SMILES IDX 89 56 88 57 41 59 75 60 54 61 74 62 55 63 58 64 73 65 93 66
REMARK SMILES IDX 56 67 57 68 72 70 94 71 59 72 42 73 43 74 52 75 44 76 45 77
REMARK SMILES IDX 51 78 53 79 46 80 47 81 48 82 49 83 50 84 76 85 77 86 86 87
REMARK SMILES IDX 78 88 79 89 85 90 87 91 80 92 81 93 82 94 83 95 84 96 60 97
REMARK SMILES IDX 61 98 70 99 62 100 63 101 69 102 71 103 64 104 65 105 66 106
REMARK SMILES IDX 67 107 68 108
REMARK H PARENT 25 5 17 16 10 26 30 39 92 58 58 69
REMARK Flexibility Score: inf
ROOT
ATOM      1  C   UNL A   1      33.832  32.073  27.734  1.00  0.00     0.116 C 
ENDROOT
BRANCH   1   2
ATOM      2  N   UNL A   1      34.519  30.801  27.856  1.00  0.00    -0.352 N 
ATOM      3  C   UNL A   1      34.426  29.633  27.141  1.00  0.00     0.251 C 
ATOM      4  O   UNL A   1      35.214  28.728  27.420  1.00  0.00    -0.269 OA
ATOM      5  H   UNL A   1      35.175  30.769  28.589  1.00  0.00     0.163 HD
BRANCH   3   6
ATOM      6  C   UNL A   1      33.449  29.413  26.036  1.00  0.00     0.039 A 
ATOM      7  C   UNL A   1      31.499  29.190  23.984  1.00  0.00    -0.029 A 
ATOM      8  C   UNL A   1      31.184  29.796  25.205  1.00  0.00     0.006 A 
ATOM      9  C   UNL A   1      32.796  28.684  23.815  1.00  0.00     0.006 A 
ATOM     10  C   UNL A   1      32.149  29.910  26.216  1.00  0.00     0.014 A 
ATOM     11  C   UNL A   1      33.763  28.821  24.816  1.00  0.00     0.014 A 
BRANCH   7  12
ATOM     12  C   UNL A   1      30.457  29.105  22.890  1.00  0.00     0.152 C 
BRANCH  12  13
ATOM     13  N   UNL A   1      29.342  28.258  23.266  1.00  0.00    -0.348 N 
ATOM     14  C   UNL A   1      29.217  26.948  23.639  1.00  0.00     0.251 C 
ATOM     15  O   UNL A   1      28.070  26.543  23.845  1.00  0.00    -0.269 OA
ATOM     16  H   UNL A   1      28.480  28.733  23.249  1.00  0.00     0.164 HD
BRANCH  14  17
ATOM     17  C   UNL A   1      30.354  26.000  23.838  1.00  0.00     0.039 A 
ATOM     18  C   UNL A   1      32.568  24.340  24.446  1.00  0.00     0.041 A 
ATOM     19  C   UNL A   1      31.847  24.955  25.468  1.00  0.00     0.027 A 
ATOM     20  C   UNL A   1      32.129  24.494  23.131  1.00  0.00     0.027 A 
ATOM     21  C   UNL A   1      30.764  25.787  25.166  1.00  0.00     0.016 A 
ATOM     22  C   UNL A   1      31.014  25.292  22.834  1.00  0.00     0.016 A 
BRANCH  18  23
ATOM     23  N   UNL A   1      33.685  23.561  24.805  1.00  0.00    -0.326 N 
ATOM     24  O   UNL A   1      34.914  23.596  22.836  1.00  0.00    -0.274 OA
ATOM     25  C   UNL A   1      34.725  23.177  23.977  1.00  0.00     0.228 C 
ATOM     26  H   UNL A   1      33.729  23.258  25.740  1.00  0.00     0.169 HD
BRANCH  25  27
ATOM     27  C   UNL A   1      35.620  22.087  24.549  1.00  0.00     0.135 C 
BRANCH  27  28
ATOM     28  C   UNL A   1      36.843  22.568  25.292  1.00  0.00    -0.039 A 
ATOM     29  C   UNL A   1      36.885  23.861  25.834  1.00  0.00     0.004 A 
ATOM     30  C   UNL A   1      37.955  21.727  25.451  1.00  0.00     0.004 A 
ATOM     31  C   UNL A   1      38.021  24.309  26.509  1.00  0.00     0.000 A 
ATOM     32  C   UNL A   1      39.082  22.173  26.142  1.00  0.00     0.000 A 
ATOM     33  C   UNL A   1      39.118  23.463  26.667  1.00  0.00     0.000 A 
ENDBRANCH  27  28
ENDBRANCH  25  27
ENDBRANCH  18  23
ENDBRANCH  14  17
ENDBRANCH  12  13
ENDBRANCH   7  12
ENDBRANCH   3   6
ENDBRANCH   1   2
BRANCH   1  34
ATOM     34  C   UNL A   1      34.670  33.213  28.319  1.00  0.00     0.023 C 
BRANCH  34  35
ATOM     35  C   UNL A   1      36.159  32.893  28.482  1.00  0.00     0.023 C 
BRANCH  35  36
ATOM     36  C   UNL A   1      36.640  32.747  29.922  1.00  0.00     0.116 C 
BRANCH  36  37
ATOM     37  N   UNL A   1      36.163  31.533  30.566  1.00  0.00    -0.352 N 
ATOM     38  C   UNL A   1      36.781  30.308  30.647  1.00  0.00     0.251 C 
ATOM     39  H   UNL A   1      35.283  31.598  31.002  1.00  0.00     0.163 HD
ATOM     40  O   UNL A   1      36.194  29.353  31.139  1.00  0.00    -0.269 OA
BRANCH  38  41
ATOM     41  C   UNL A   1      38.143  30.145  30.092  1.00  0.00     0.039 A 
ATOM     42  C   UNL A   1      39.228  30.125  30.971  1.00  0.00     0.014 A 
ATOM     43  C   UNL A   1      38.343  29.982  28.718  1.00  0.00     0.014 A 
ATOM     44  C   UNL A   1      40.511  29.871  30.478  1.00  0.00     0.010 A 
ATOM     45  C   UNL A   1      39.611  29.669  28.237  1.00  0.00     0.010 A 
ATOM     46  C   UNL A   1      40.706  29.606  29.113  1.00  0.00    -0.014 A 
BRANCH  46  47
ATOM     47  C   UNL A   1      42.045  29.242  28.583  1.00  0.00     0.031 A 
ATOM     48  C   UNL A   1      42.326  27.830  28.146  1.00  0.00     0.074 A 
ATOM     49  C   UNL A   1      43.025  30.166  28.565  1.00  0.00     0.049 A 
ATOM     50  N   UNL A   1      43.449  27.303  27.734  1.00  0.00    -0.248 NA
ATOM     51  C   UNL A   1      41.202  26.880  28.204  1.00  0.00     0.031 C 
ATOM     52  C   UNL A   1      42.888  31.556  29.012  1.00  0.00     0.029 A 
ATOM     53  N   UNL A   1      44.336  30.076  28.167  1.00  0.00    -0.354 N 
ATOM     54  C   UNL A   1      43.176  25.961  27.500  1.00  0.00     0.074 A 
ATOM     55  C   UNL A   1      41.789  25.743  27.857  1.00  0.00     0.031 C 
ATOM     56  C   UNL A   1      44.062  32.188  28.850  1.00  0.00     0.029 A 
ATOM     57  C   UNL A   1      45.043  31.246  28.320  1.00  0.00     0.049 A 
ATOM     58  H   UNL A   1      44.733  29.250  27.808  1.00  0.00     0.167 HD
ATOM     59  C   UNL A   1      43.999  25.002  27.014  1.00  0.00     0.037 A 
ATOM     60  C   UNL A   1      46.336  31.525  28.068  1.00  0.00     0.037 A 
ATOM     61  C   UNL A   1      45.366  25.233  26.627  1.00  0.00     0.049 A 
ATOM     62  C   UNL A   1      47.225  30.444  27.515  1.00  0.00     0.074 A 
ATOM     63  C   UNL A   1      46.260  24.343  26.058  1.00  0.00     0.029 A 
ATOM     64  N   UNL A   1      46.036  26.439  26.765  1.00  0.00    -0.354 N 
ATOM     65  N   UNL A   1      46.930  29.197  27.238  1.00  0.00    -0.248 NA
ATOM     66  C   UNL A   1      48.621  30.810  27.234  1.00  0.00     0.031 C 
ATOM     67  C   UNL A   1      47.482  25.001  25.885  1.00  0.00     0.029 A 
ATOM     68  C   UNL A   1      47.337  26.312  26.307  1.00  0.00     0.049 A 
ATOM     69  H   UNL A   1      45.644  27.264  27.134  1.00  0.00     0.167 HD
ATOM     70  C   UNL A   1      48.094  28.636  26.725  1.00  0.00     0.074 A 
ATOM     71  C   UNL A   1      49.095  29.684  26.719  1.00  0.00     0.031 C 
ATOM     72  C   UNL A   1      48.316  27.370  26.297  1.00  0.00     0.037 A 
BRANCH  59  73
ATOM     73  C   UNL A   1      43.444  23.614  26.859  1.00  0.00     0.058 A 
ATOM     74  C   UNL A   1      43.054  23.115  25.607  1.00  0.00     0.135 A 
ATOM     75  C   UNL A   1      43.354  22.753  27.966  1.00  0.00     0.135 A 
ATOM     76  F   UNL A   1      43.104  23.902  24.520  1.00  0.00    -0.206 F 
ATOM     77  C   UNL A   1      42.578  21.817  25.458  1.00  0.00     0.059 A 
ATOM     78  C   UNL A   1      42.904  21.442  27.836  1.00  0.00     0.059 A 
ATOM     79  F   UNL A   1      43.712  23.180  29.186  1.00  0.00    -0.206 F 
ATOM     80  C   UNL A   1      42.509  20.987  26.579  1.00  0.00     0.060 A 
BRANCH  80  81
ATOM     81  S   UNL A   1      41.912  19.296  26.364  1.00  0.00     0.124 S 
ATOM     82  O   UNL A   1      40.478  19.513  26.202  1.00  0.00    -0.237 OA
ATOM     83  O   UNL A   1      42.625  18.863  25.165  1.00  0.00    -0.237 OA
ATOM     84  O   UNL A   1      42.312  18.634  27.601  1.00  0.00    -0.744 OA
ENDBRANCH  80  81
ENDBRANCH  59  73
BRANCH  60  85
ATOM     85  C   UNL A   1      46.870  32.891  28.319  1.00  0.00     0.058 A 
ATOM     86  C   UNL A   1      47.461  33.217  29.549  1.00  0.00     0.135 A 
ATOM     87  C   UNL A   1      46.789  33.897  27.345  1.00  0.00     0.135 A 
ATOM     88  F   UNL A   1      47.557  32.289  30.513  1.00  0.00    -0.206 F 
ATOM     89  C   UNL A   1      47.931  34.498  29.814  1.00  0.00     0.059 A 
ATOM     90  C   UNL A   1      47.274  35.180  27.579  1.00  0.00     0.059 A 
ATOM     91  F   UNL A   1      46.248  33.632  26.146  1.00  0.00    -0.206 F 
ATOM     92  C   UNL A   1      47.830  35.476  28.822  1.00  0.00     0.060 A 
BRANCH  92  93
ATOM     93  S   UNL A   1      48.466  37.130  29.167  1.00  0.00     0.124 S 
ATOM     94  O   UNL A   1      49.884  36.966  28.871  1.00  0.00    -0.237 OA
ATOM     95  O   UNL A   1      47.708  37.953  28.229  1.00  0.00    -0.237 OA
ATOM     96  O   UNL A   1      48.132  37.329  30.574  1.00  0.00    -0.744 OA
ENDBRANCH  92  93
ENDBRANCH  60  85
BRANCH  72  97
ATOM     97  C   UNL A   1      49.680  27.053  25.752  1.00  0.00     0.058 A 
ATOM     98  C   UNL A   1      49.998  27.252  24.400  1.00  0.00     0.135 A 
ATOM     99  C   UNL A   1      50.696  26.594  26.606  1.00  0.00     0.135 A 
ATOM    100  F   UNL A   1      49.059  27.683  23.542  1.00  0.00    -0.206 F 
ATOM    101  C   UNL A   1      51.271  26.986  23.908  1.00  0.00     0.059 A 
ATOM    102  C   UNL A   1      51.983  26.345  26.141  1.00  0.00     0.059 A 
ATOM    103  F   UNL A   1      50.446  26.397  27.910  1.00  0.00    -0.206 F 
ATOM    104  C   UNL A   1      52.257  26.534  24.787  1.00  0.00     0.060 A 
BRANCH 104 105
ATOM    105  S   UNL A   1      53.916  26.225  24.143  1.00  0.00     0.124 S 
ATOM    106  O   UNL A   1      54.625  27.426  24.571  1.00  0.00    -0.237 OA
ATOM    107  O   UNL A   1      54.292  24.990  24.825  1.00  0.00    -0.237 OA
ATOM    108  O   UNL A   1      53.703  26.099  22.705  1.00  0.00    -0.744 OA
ENDBRANCH 104 105
ENDBRANCH  72  97
ENDBRANCH  46  47
ENDBRANCH  38  41
ENDBRANCH  36  37
ENDBRANCH  35  36
ENDBRANCH  34  35
ENDBRANCH   1  34
TORSDOF 20
ENDMDL
MODEL 3
REMARK VINA RESULT:     -12.1      0.797      7.845
REMARK SMILES O=C(Cc1ccccc1)Nc1ccc(C(=O)NCc2ccc(C(=O)NCCCCNC(=O)c3ccc(-c4c5nc(c(-c6c(F)cc(S(=O)(=O)[O-])cc6F)c6ccc([nH]6)c(-c6c(F)cc(S(=O)(=O)[O-])cc6F)c6nc(c(-c7c(F)cc(S(=O)(=O)[O-])cc7F)c7ccc4[nH]7)C=C6)C=C5)cc3)cc2)cc1
REMARK SMILES IDX 26 1 25 2 23 3 24 4 22 6 19 7 20 8 100 9 21 10 99 11 18 12
REMARK SMILES IDX 17 13 15 14 16 15 14 17 11 18 12 19 102 20 13 21 101 22
REMARK SMILES IDX 10 23 1 24 2 25 3 27 4 28 5 29 9 30 6 31 8 32 7 33 27 34
REMARK SMILES IDX 28 35 29 36 30 37 31 38 32 40 33 41 34 42 98 43 35 44 97 45
REMARK SMILES IDX 36 46 37 47 38 48 91 49 39 50 96 51 90 52 92 53 40 54 95 55
REMARK SMILES IDX 89 56 88 57 41 59 75 60 54 61 74 62 55 63 58 64 73 65 93 66
REMARK SMILES IDX 56 67 57 68 72 70 94 71 59 72 42 73 43 74 52 75 44 76 45 77
REMARK SMILES IDX 51 78 53 79 46 80 47 81 48 82 49 83 50 84 76 85 77 86 86 87
REMARK SMILES IDX 78 88 79 89 85 90 87 91 80 92 81 93 82 94 83 95 84 96 60 97
REMARK SMILES IDX 61 98 70 99 62 100 63 101 69 102 71 103 64 104 65 105 66 106
REMARK SMILES IDX 67 107 68 108
REMARK H PARENT 25 5 17 16 10 26 30 39 92 58 58 69
REMARK Flexibility Score: inf
ROOT
ATOM      1  C   UNL A   1      33.913  32.279  27.725  1.00  0.00     0.116 C 
ENDROOT
BRANCH   1   2
ATOM      2  N   UNL A   1      34.519  31.013  28.088  1.00  0.00    -0.352 N 
ATOM      3  C   UNL A   1      34.438  29.761  27.532  1.00  0.00     0.251 C 
ATOM      4  O   UNL A   1      35.148  28.875  28.011  1.00  0.00    -0.269 OA
ATOM      5  H   UNL A   1      35.099  31.060  28.882  1.00  0.00     0.163 HD
BRANCH   3   6
ATOM      6  C   UNL A   1      33.563  29.425  26.372  1.00  0.00     0.039 A 
ATOM      7  C   UNL A   1      31.813  28.989  24.177  1.00  0.00    -0.029 A 
ATOM      8  C   UNL A   1      31.415  29.776  25.264  1.00  0.00     0.006 A 
ATOM      9  C   UNL A   1      33.091  28.413  24.217  1.00  0.00     0.006 A 
ATOM     10  C   UNL A   1      32.281  29.994  26.345  1.00  0.00     0.014 A 
ATOM     11  C   UNL A   1      33.962  28.652  25.284  1.00  0.00     0.014 A 
BRANCH   7  12
ATOM     12  C   UNL A   1      30.881  28.791  23.003  1.00  0.00     0.152 C 
BRANCH  12  13
ATOM     13  N   UNL A   1      29.691  28.048  23.373  1.00  0.00    -0.348 N 
ATOM     14  C   UNL A   1      29.455  26.772  23.807  1.00  0.00     0.251 C 
ATOM     15  O   UNL A   1      28.274  26.463  23.983  1.00  0.00    -0.269 OA
ATOM     16  H   UNL A   1      28.869  28.582  23.293  1.00  0.00     0.164 HD
BRANCH  14  17
ATOM     17  C   UNL A   1      30.510  25.757  24.103  1.00  0.00     0.039 A 
ATOM     18  C   UNL A   1      32.433  23.702  24.432  1.00  0.00     0.041 A 
ATOM     19  C   UNL A   1      32.014  24.076  23.156  1.00  0.00     0.027 A 
ATOM     20  C   UNL A   1      31.949  24.412  25.531  1.00  0.00     0.027 A 
ATOM     21  C   UNL A   1      31.051  25.080  22.996  1.00  0.00     0.016 A 
ATOM     22  C   UNL A   1      31.019  25.449  25.364  1.00  0.00     0.016 A 
BRANCH  18  23
ATOM     23  N   UNL A   1      33.359  22.647  24.537  1.00  0.00    -0.326 N 
ATOM     24  O   UNL A   1      32.096  20.858  23.766  1.00  0.00    -0.274 OA
ATOM     25  C   UNL A   1      33.118  21.308  24.281  1.00  0.00     0.228 C 
ATOM     26  H   UNL A   1      34.270  22.886  24.821  1.00  0.00     0.169 HD
BRANCH  25  27
ATOM     27  C   UNL A   1      34.205  20.364  24.777  1.00  0.00     0.135 C 
BRANCH  27  28
ATOM     28  C   UNL A   1      33.850  18.897  24.770  1.00  0.00    -0.039 A 
ATOM     29  C   UNL A   1      32.760  18.423  25.516  1.00  0.00     0.004 A 
ATOM     30  C   UNL A   1      34.606  17.986  24.017  1.00  0.00     0.004 A 
ATOM     31  C   UNL A   1      32.441  17.065  25.520  1.00  0.00     0.000 A 
ATOM     32  C   UNL A   1      34.273  16.631  24.009  1.00  0.00     0.000 A 
ATOM     33  C   UNL A   1      33.195  16.170  24.763  1.00  0.00     0.000 A 
ENDBRANCH  27  28
ENDBRANCH  25  27
ENDBRANCH  18  23
ENDBRANCH  14  17
ENDBRANCH  12  13
ENDBRANCH   7  12
ENDBRANCH   3   6
ENDBRANCH   1   2
BRANCH   1  34
ATOM     34  C   UNL A   1      34.822  33.455  28.093  1.00  0.00     0.023 C 
BRANCH  34  35
ATOM     35  C   UNL A   1      36.287  33.077  28.335  1.00  0.00     0.023 C 
BRANCH  35  36
ATOM     36  C   UNL A   1      36.737  33.115  29.792  1.00  0.00     0.116 C 
BRANCH  36  37
ATOM     37  N   UNL A   1      36.282  31.968  30.562  1.00  0.00    -0.352 N 
ATOM     38  C   UNL A   1      36.904  30.754  30.739  1.00  0.00     0.251 C 
ATOM     39  H   UNL A   1      35.416  32.075  31.018  1.00  0.00     0.163 HD
ATOM     40  O   UNL A   1      36.333  29.851  31.337  1.00  0.00    -0.269 OA
BRANCH  38  41
ATOM     41  C   UNL A   1      38.248  30.537  30.160  1.00  0.00     0.039 A 
ATOM     42  C   UNL A   1      39.369  30.775  30.958  1.00  0.00     0.014 A 
ATOM     43  C   UNL A   1      38.398  30.073  28.850  1.00  0.00     0.014 A 
ATOM     44  C   UNL A   1      40.642  30.480  30.464  1.00  0.00     0.010 A 
ATOM     45  C   UNL A   1      39.661  29.723  28.382  1.00  0.00     0.010 A 
ATOM     46  C   UNL A   1      40.795  29.918  29.186  1.00  0.00    -0.014 A 
BRANCH  46  47
ATOM     47  C   UNL A   1      42.130  29.511  28.679  1.00  0.00     0.031 A 
ATOM     48  C   UNL A   1      42.372  28.090  28.247  1.00  0.00     0.074 A 
ATOM     49  C   UNL A   1      43.139  30.403  28.675  1.00  0.00     0.049 A 
ATOM     50  N   UNL A   1      43.484  27.527  27.854  1.00  0.00    -0.248 NA
ATOM     51  C   UNL A   1      41.217  27.177  28.288  1.00  0.00     0.031 C 
ATOM     52  C   UNL A   1      43.040  31.797  29.118  1.00  0.00     0.029 A 
ATOM     53  N   UNL A   1      44.453  30.271  28.298  1.00  0.00    -0.354 N 
ATOM     54  C   UNL A   1      43.171  26.193  27.617  1.00  0.00     0.074 A 
ATOM     55  C   UNL A   1      41.773  26.021  27.952  1.00  0.00     0.031 C 
ATOM     56  C   UNL A   1      44.236  32.391  28.974  1.00  0.00     0.029 A 
ATOM     57  C   UNL A   1      45.194  31.417  28.461  1.00  0.00     0.049 A 
ATOM     58  H   UNL A   1      44.829  29.432  27.946  1.00  0.00     0.167 HD
ATOM     59  C   UNL A   1      43.971  25.207  27.145  1.00  0.00     0.037 A 
ATOM     60  C   UNL A   1      46.499  31.654  28.230  1.00  0.00     0.037 A 
ATOM     61  C   UNL A   1      45.351  25.394  26.780  1.00  0.00     0.049 A 
ATOM     62  C   UNL A   1      47.362  30.544  27.692  1.00  0.00     0.074 A 
ATOM     63  C   UNL A   1      46.225  24.475  26.226  1.00  0.00     0.029 A 
ATOM     64  N   UNL A   1      46.057  26.578  26.927  1.00  0.00    -0.354 N 
ATOM     65  N   UNL A   1      47.031  29.306  27.411  1.00  0.00    -0.248 NA
ATOM     66  C   UNL A   1      48.773  30.864  27.433  1.00  0.00     0.031 C 
ATOM     67  C   UNL A   1      47.470  25.093  26.072  1.00  0.00     0.029 A 
ATOM     68  C   UNL A   1      47.360  26.409  26.491  1.00  0.00     0.049 A 
ATOM     69  H   UNL A   1      45.686  27.416  27.289  1.00  0.00     0.167 HD
ATOM     70  C   UNL A   1      48.185  28.708  26.918  1.00  0.00     0.074 A 
ATOM     71  C   UNL A   1      49.219  29.723  26.927  1.00  0.00     0.031 C 
ATOM     72  C   UNL A   1      48.373  27.435  26.494  1.00  0.00     0.037 A 
BRANCH  59  73
ATOM     73  C   UNL A   1      43.375  23.838  26.983  1.00  0.00     0.058 A 
ATOM     74  C   UNL A   1      42.976  23.356  25.727  1.00  0.00     0.135 A 
ATOM     75  C   UNL A   1      43.253  22.976  28.086  1.00  0.00     0.135 A 
ATOM     76  F   UNL A   1      43.056  24.144  24.643  1.00  0.00    -0.206 F 
ATOM     77  C   UNL A   1      42.461  22.073  25.572  1.00  0.00     0.059 A 
ATOM     78  C   UNL A   1      42.762  21.681  27.949  1.00  0.00     0.059 A 
ATOM     79  F   UNL A   1      43.617  23.389  29.309  1.00  0.00    -0.206 F 
ATOM     80  C   UNL A   1      42.360  21.242  26.689  1.00  0.00     0.060 A 
BRANCH  80  81
ATOM     81  S   UNL A   1      41.713  19.571  26.465  1.00  0.00     0.124 S 
ATOM     82  O   UNL A   1      42.089  18.942  27.727  1.00  0.00    -0.237 OA
ATOM     83  O   UNL A   1      40.285  19.812  26.280  1.00  0.00    -0.237 OA
ATOM     84  O   UNL A   1      42.422  19.086  25.286  1.00  0.00    -0.744 OA
ENDBRANCH  80  81
ENDBRANCH  59  73
BRANCH  60  85
ATOM     85  C   UNL A   1      47.073  33.002  28.488  1.00  0.00     0.058 A 
ATOM     86  C   UNL A   1      47.072  33.988  27.489  1.00  0.00     0.135 A 
ATOM     87  C   UNL A   1      47.641  33.329  29.728  1.00  0.00     0.135 A 
ATOM     88  F   UNL A   1      46.544  33.721  26.285  1.00  0.00    -0.206 F 
ATOM     89  C   UNL A   1      47.638  35.240  27.702  1.00  0.00     0.059 A 
ATOM     90  C   UNL A   1      48.191  34.583  29.972  1.00  0.00     0.059 A 
ATOM     91  F   UNL A   1      47.651  32.427  30.723  1.00  0.00    -0.206 F 
ATOM     92  C   UNL A   1      48.199  35.528  28.947  1.00  0.00     0.060 A 
BRANCH  92  93
ATOM     93  S   UNL A   1      48.908  37.165  29.222  1.00  0.00     0.124 S 
ATOM     94  O   UNL A   1      50.289  36.961  28.801  1.00  0.00    -0.237 OA
ATOM     95  O   UNL A   1      48.091  38.005  28.351  1.00  0.00    -0.237 OA
ATOM     96  O   UNL A   1      48.708  37.379  30.653  1.00  0.00    -0.744 OA
ENDBRANCH  92  93
ENDBRANCH  60  85
BRANCH  72  97
ATOM     97  C   UNL A   1      49.734  27.074  25.972  1.00  0.00     0.058 A 
ATOM     98  C   UNL A   1      50.052  27.176  24.610  1.00  0.00     0.135 A 
ATOM     99  C   UNL A   1      50.749  26.669  26.855  1.00  0.00     0.135 A 
ATOM    100  F   UNL A   1      49.115  27.551  23.724  1.00  0.00    -0.206 F 
ATOM    101  C   UNL A   1      51.323  26.869  24.136  1.00  0.00     0.059 A 
ATOM    102  C   UNL A   1      52.034  26.382  26.407  1.00  0.00     0.059 A 
ATOM    103  F   UNL A   1      50.500  26.566  28.170  1.00  0.00    -0.206 F 
ATOM    104  C   UNL A   1      52.308  26.474  25.043  1.00  0.00     0.060 A 
BRANCH 104 105
ATOM    105  S   UNL A   1      53.964  26.113  24.421  1.00  0.00     0.124 S 
ATOM    106  O   UNL A   1      53.831  26.459  23.011  1.00  0.00    -0.237 OA
ATOM    107  O   UNL A   1      54.801  27.006  25.218  1.00  0.00    -0.237 OA
ATOM    108  O   UNL A   1      54.130  24.691  24.707  1.00  0.00    -0.744 OA
ENDBRANCH 104 105
ENDBRANCH  72  97
ENDBRANCH  46  47
ENDBRANCH  38  41
ENDBRANCH  36  37
ENDBRANCH  35  36
ENDBRANCH  34  35
ENDBRANCH   1  34
TORSDOF 20
ENDMDL
