MODEL 1
REMARK VINA RESULT:     -10.6      0.000      0.000
REMARK SMILES CC(C)[C@@H]([NH3+])C(=O)N[C@@H](Cc1ccccc1)C(=O)NCCCCNC(=O)c1ccc(-c2c3nc(c(-c4c(F)cc(S(=O)(=O)[O-])cc4F)c4ccc([nH]4)c(-c4c(F)cc(S(=O)(=O)[O-])cc4F)c4nc(c(-c5c(F)cc(S(=O)(=O)[O-])cc5F)c5ccc2[nH]5)C=C4)C=C3)cc1
REMARK SMILES IDX 21 1 20 2 19 3 17 4 18 5 9 7 8 8 6 9 7 10 4 12 2 13 1 14
REMARK SMILES IDX 3 15 5 16 10 20 11 21 12 22 16 23 13 24 15 25 14 26 22 27
REMARK SMILES IDX 23 28 24 29 25 30 26 32 27 33 28 34 92 35 29 36 91 37 30 38
REMARK SMILES IDX 31 39 32 40 85 41 33 42 90 43 84 44 86 45 34 46 89 47 83 48
REMARK SMILES IDX 82 49 35 51 69 52 48 53 68 54 49 55 52 56 67 57 87 58 50 59
REMARK SMILES IDX 51 60 66 62 88 63 53 64 36 65 37 66 46 67 38 68 39 69 45 70
REMARK SMILES IDX 47 71 40 72 41 73 42 74 43 75 44 76 70 77 71 78 80 79 72 80
REMARK SMILES IDX 73 81 79 82 81 83 74 84 75 85 76 86 77 87 78 88 54 89 55 90
REMARK SMILES IDX 64 91 56 92 57 93 63 94 65 95 58 96 59 97 60 98 61 99 62 100
REMARK H PARENT 19 6 8 11 5 17 5 18 5 19 24 31 86 50 52 61
REMARK Flexibility Score: inf
ROOT
ATOM      1  C   UNL A   1      31.717  26.945  26.315  1.00  0.00     0.023 C 
ENDROOT
BRANCH   1   2
ATOM      2  C   UNL A   1      32.249  25.534  26.506  1.00  0.00     0.116 C 
BRANCH   2   3
ATOM      3  N   UNL A   1      31.268  24.493  26.288  1.00  0.00    -0.354 N 
ATOM      4  C   UNL A   1      31.378  23.322  25.593  1.00  0.00     0.242 C 
ATOM      5  O   UNL A   1      30.636  22.399  25.952  1.00  0.00    -0.273 OA
ATOM      6  H   UNL A   1      30.389  24.651  26.704  1.00  0.00     0.163 HD
BRANCH   4   7
ATOM      7  C   UNL A   1      32.450  23.068  24.502  1.00  0.00     0.175 C 
BRANCH   7   8
ATOM      8  N   UNL A   1      32.919  21.679  24.406  1.00  0.00    -0.339 N 
ATOM      9  C   UNL A   1      33.998  21.070  24.967  1.00  0.00     0.279 C 
ATOM     10  O   UNL A   1      34.075  19.842  24.861  1.00  0.00    -0.268 OA
ATOM     11  H   UNL A   1      32.361  21.093  23.844  1.00  0.00     0.164 HD
BRANCH   9  12
ATOM     12  C   UNL A   1      35.125  21.864  25.668  1.00  0.00     0.273 C 
BRANCH  12  13
ATOM     13  C   UNL A   1      35.544  23.124  24.871  1.00  0.00     0.051 C 
ATOM     14  C   UNL A   1      36.404  24.078  25.707  1.00  0.00     0.014 C 
ATOM     15  C   UNL A   1      36.315  22.743  23.600  1.00  0.00     0.014 C 
ENDBRANCH  12  13
BRANCH  12  16
ATOM     16  N   UNL A   1      34.732  22.153  27.060  1.00  0.00    -0.347 N 
ATOM     17  H   UNL A   1      33.766  22.482  27.079  1.00  0.00     0.345 HD
ATOM     18  H   UNL A   1      35.344  22.872  27.443  1.00  0.00     0.345 HD
ATOM     19  H   UNL A   1      34.814  21.304  27.620  1.00  0.00     0.345 HD
ENDBRANCH  12  16
ENDBRANCH   9  12
ENDBRANCH   7   8
BRANCH   7  20
ATOM     20  C   UNL A   1      32.101  23.691  23.132  1.00  0.00     0.070 C 
BRANCH  20  21
ATOM     21  C   UNL A   1      32.257  25.186  22.990  1.00  0.00    -0.045 A 
ATOM     22  C   UNL A   1      31.130  25.991  22.763  1.00  0.00     0.004 A 
ATOM     23  C   UNL A   1      33.520  25.792  23.055  1.00  0.00     0.004 A 
ATOM     24  C   UNL A   1      31.270  27.366  22.555  1.00  0.00     0.000 A 
ATOM     25  C   UNL A   1      33.659  27.164  22.830  1.00  0.00     0.000 A 
ATOM     26  C   UNL A   1      32.536  27.948  22.572  1.00  0.00     0.000 A 
ENDBRANCH  20  21
ENDBRANCH   7  20
ENDBRANCH   4   7
ENDBRANCH   2   3
ENDBRANCH   1   2
BRANCH   1  27
ATOM     27  C   UNL A   1      32.097  27.934  27.415  1.00  0.00     0.023 C 
BRANCH  27  28
ATOM     28  C   UNL A   1      33.421  28.672  27.230  1.00  0.00     0.116 C 
BRANCH  28  29
ATOM     29  N   UNL A   1      33.413  30.048  27.711  1.00  0.00    -0.352 N 
ATOM     30  C   UNL A   1      34.448  30.767  28.266  1.00  0.00     0.251 C 
ATOM     31  H   UNL A   1      32.557  30.526  27.629  1.00  0.00     0.163 HD
ATOM     32  O   UNL A   1      34.271  31.917  28.658  1.00  0.00    -0.269 OA
BRANCH  30  33
ATOM     33  C   UNL A   1      35.766  30.119  28.422  1.00  0.00     0.039 A 
ATOM     34  C   UNL A   1      36.628  30.065  27.325  1.00  0.00     0.014 A 
ATOM     35  C   UNL A   1      36.177  29.650  29.674  1.00  0.00     0.014 A 
ATOM     36  C   UNL A   1      37.944  29.630  27.506  1.00  0.00     0.010 A 
ATOM     37  C   UNL A   1      37.505  29.282  29.864  1.00  0.00     0.010 A 
ATOM     38  C   UNL A   1      38.407  29.286  28.787  1.00  0.00    -0.014 A 
BRANCH  38  39
ATOM     39  C   UNL A   1      39.837  28.971  29.034  1.00  0.00     0.031 A 
ATOM     40  C   UNL A   1      40.764  30.030  29.561  1.00  0.00     0.074 A 
ATOM     41  C   UNL A   1      40.319  27.759  28.693  1.00  0.00     0.049 A 
ATOM     42  N   UNL A   1      42.058  29.976  29.746  1.00  0.00    -0.248 NA
ATOM     43  C   UNL A   1      40.162  31.331  29.894  1.00  0.00     0.031 C 
ATOM     44  C   UNL A   1      39.536  26.667  28.109  1.00  0.00     0.029 A 
ATOM     45  N   UNL A   1      41.591  27.247  28.770  1.00  0.00    -0.354 N 
ATOM     46  C   UNL A   1      42.429  31.238  30.193  1.00  0.00     0.074 A 
ATOM     47  C   UNL A   1      41.230  32.048  30.214  1.00  0.00     0.031 C 
ATOM     48  C   UNL A   1      40.340  25.612  27.896  1.00  0.00     0.029 A 
ATOM     49  C   UNL A   1      41.699  25.959  28.299  1.00  0.00     0.049 A 
ATOM     50  H   UNL A   1      42.354  27.753  29.130  1.00  0.00     0.167 HD
ATOM     51  C   UNL A   1      43.654  31.676  30.570  1.00  0.00     0.037 A 
ATOM     52  C   UNL A   1      42.772  25.151  28.195  1.00  0.00     0.037 A 
ATOM     53  C   UNL A   1      44.837  30.857  30.586  1.00  0.00     0.049 A 
ATOM     54  C   UNL A   1      44.114  25.646  28.662  1.00  0.00     0.074 A 
ATOM     55  C   UNL A   1      46.108  31.189  31.020  1.00  0.00     0.029 A 
ATOM     56  N   UNL A   1      44.893  29.540  30.154  1.00  0.00    -0.354 N 
ATOM     57  N   UNL A   1      44.433  26.822  29.146  1.00  0.00    -0.248 NA
ATOM     58  C   UNL A   1      45.238  24.704  28.577  1.00  0.00     0.031 C 
ATOM     59  C   UNL A   1      46.941  30.081  30.827  1.00  0.00     0.029 A 
ATOM     60  C   UNL A   1      46.179  29.048  30.303  1.00  0.00     0.049 A 
ATOM     61  H   UNL A   1      44.131  29.030  29.795  1.00  0.00     0.167 HD
ATOM     62  C   UNL A   1      45.789  26.754  29.445  1.00  0.00     0.074 A 
ATOM     63  C   UNL A   1      46.228  25.419  29.096  1.00  0.00     0.031 C 
ATOM     64  C   UNL A   1      46.596  27.712  29.962  1.00  0.00     0.037 A 
BRANCH  51  65
ATOM     65  C   UNL A   1      43.772  33.108  31.009  1.00  0.00     0.058 A 
ATOM     66  C   UNL A   1      43.980  34.143  30.084  1.00  0.00     0.135 A 
ATOM     67  C   UNL A   1      43.654  33.452  32.365  1.00  0.00     0.135 A 
ATOM     68  F   UNL A   1      44.116  33.865  28.778  1.00  0.00    -0.206 F 
ATOM     69  C   UNL A   1      44.095  35.468  30.490  1.00  0.00     0.059 A 
ATOM     70  C   UNL A   1      43.742  34.775  32.791  1.00  0.00     0.059 A 
ATOM     71  F   UNL A   1      43.456  32.500  33.289  1.00  0.00    -0.206 F 
ATOM     72  C   UNL A   1      43.979  35.773  31.848  1.00  0.00     0.060 A 
BRANCH  72  73
ATOM     73  S   UNL A   1      44.132  37.496  32.362  1.00  0.00     0.124 S 
ATOM     74  O   UNL A   1      45.540  37.562  32.739  1.00  0.00    -0.237 OA
ATOM     75  O   UNL A   1      43.767  38.222  31.149  1.00  0.00    -0.237 OA
ATOM     76  O   UNL A   1      43.181  37.606  33.464  1.00  0.00    -0.744 OA
ENDBRANCH  72  73
ENDBRANCH  51  65
BRANCH  52  77
ATOM     77  C   UNL A   1      42.616  23.777  27.651  1.00  0.00     0.058 A 
ATOM     78  C   UNL A   1      42.477  22.677  28.510  1.00  0.00     0.135 A 
ATOM     79  C   UNL A   1      42.591  23.537  26.269  1.00  0.00     0.135 A 
ATOM     80  F   UNL A   1      42.501  22.858  29.839  1.00  0.00    -0.206 F 
ATOM     81  C   UNL A   1      42.332  21.384  28.020  1.00  0.00     0.059 A 
ATOM     82  C   UNL A   1      42.427  22.255  25.755  1.00  0.00     0.059 A 
ATOM     83  F   UNL A   1      42.703  24.559  25.407  1.00  0.00    -0.206 F 
ATOM     84  C   UNL A   1      42.309  21.182  26.639  1.00  0.00     0.060 A 
BRANCH  84  85
ATOM     85  S   UNL A   1      42.067  19.507  26.008  1.00  0.00     0.124 S 
ATOM     86  O   UNL A   1      43.009  19.475  24.896  1.00  0.00    -0.237 OA
ATOM     87  O   UNL A   1      42.418  18.688  27.164  1.00  0.00    -0.237 OA
ATOM     88  O   UNL A   1      40.654  19.489  25.644  1.00  0.00    -0.744 OA
ENDBRANCH  84  85
ENDBRANCH  52  77
BRANCH  64  89
ATOM     89  C   UNL A   1      48.030  27.343  30.214  1.00  0.00     0.058 A 
ATOM     90  C   UNL A   1      49.054  27.739  29.341  1.00  0.00     0.135 A 
ATOM     91  C   UNL A   1      48.387  26.634  31.372  1.00  0.00     0.135 A 
ATOM     92  F   UNL A   1      48.761  28.412  28.218  1.00  0.00    -0.206 F 
ATOM     93  C   UNL A   1      50.386  27.431  29.600  1.00  0.00     0.059 A 
ATOM     94  C   UNL A   1      49.714  26.333  31.661  1.00  0.00     0.059 A 
ATOM     95  F   UNL A   1      47.444  26.241  32.242  1.00  0.00    -0.206 F 
ATOM     96  C   UNL A   1      50.706  26.728  30.763  1.00  0.00     0.060 A 
BRANCH  96  97
ATOM     97  S   UNL A   1      52.440  26.368  31.112  1.00  0.00     0.124 S 
ATOM     98  O   UNL A   1      52.326  25.363  32.164  1.00  0.00    -0.237 OA
ATOM     99  O   UNL A   1      52.928  25.885  29.824  1.00  0.00    -0.237 OA
ATOM    100  O   UNL A   1      52.976  27.660  31.531  1.00  0.00    -0.744 OA
ENDBRANCH  96  97
ENDBRANCH  64  89
ENDBRANCH  38  39
ENDBRANCH  30  33
ENDBRANCH  28  29
ENDBRANCH  27  28
ENDBRANCH   1  27
TORSDOF 20
ENDMDL
MODEL 2
REMARK VINA RESULT:     -10.2      2.998      4.319
REMARK SMILES CC(C)[C@@H]([NH3+])C(=O)N[C@@H](Cc1ccccc1)C(=O)NCCCCNC(=O)c1ccc(-c2c3nc(c(-c4c(F)cc(S(=O)(=O)[O-])cc4F)c4ccc([nH]4)c(-c4c(F)cc(S(=O)(=O)[O-])cc4F)c4nc(c(-c5c(F)cc(S(=O)(=O)[O-])cc5F)c5ccc2[nH]5)C=C4)C=C3)cc1
REMARK SMILES IDX 21 1 20 2 19 3 17 4 18 5 9 7 8 8 6 9 7 10 4 12 2 13 1 14
REMARK SMILES IDX 3 15 5 16 10 20 11 21 12 22 16 23 13 24 15 25 14 26 22 27
REMARK SMILES IDX 23 28 24 29 25 30 26 32 27 33 28 34 92 35 29 36 91 37 30 38
REMARK SMILES IDX 31 39 32 40 85 41 33 42 90 43 84 44 86 45 34 46 89 47 83 48
REMARK SMILES IDX 82 49 35 51 69 52 48 53 68 54 49 55 52 56 67 57 87 58 50 59
REMARK SMILES IDX 51 60 66 62 88 63 53 64 36 65 37 66 46 67 38 68 39 69 45 70
REMARK SMILES IDX 47 71 40 72 41 73 42 74 43 75 44 76 70 77 71 78 80 79 72 80
REMARK SMILES IDX 73 81 79 82 81 83 74 84 75 85 76 86 77 87 78 88 54 89 55 90
REMARK SMILES IDX 64 91 56 92 57 93 63 94 65 95 58 96 59 97 60 98 61 99 62 100
REMARK H PARENT 19 6 8 11 5 17 5 18 5 19 24 31 86 50 52 61
REMARK Flexibility Score: inf
ROOT
ATOM      1  C   UNL A   1      32.779  28.882  23.657  1.00  0.00     0.023 C 
ENDROOT
BRANCH   1   2
ATOM      2  C   UNL A   1      32.016  27.927  22.754  1.00  0.00     0.116 C 
BRANCH   2   3
ATOM      3  N   UNL A   1      32.856  27.045  21.973  1.00  0.00    -0.354 N 
ATOM      4  C   UNL A   1      32.896  25.680  21.943  1.00  0.00     0.242 C 
ATOM      5  O   UNL A   1      33.296  25.167  20.889  1.00  0.00    -0.273 OA
ATOM      6  H   UNL A   1      33.493  27.496  21.373  1.00  0.00     0.163 HD
BRANCH   4   7
ATOM      7  C   UNL A   1      32.355  24.779  23.081  1.00  0.00     0.175 C 
BRANCH   7   8
ATOM      8  N   UNL A   1      31.108  25.246  23.703  1.00  0.00    -0.339 N 
ATOM      9  C   UNL A   1      30.782  25.411  25.012  1.00  0.00     0.279 C 
ATOM     10  O   UNL A   1      29.714  25.981  25.263  1.00  0.00    -0.268 OA
ATOM     11  H   UNL A   1      30.392  25.478  23.066  1.00  0.00     0.164 HD
BRANCH   9  12
ATOM     12  C   UNL A   1      31.664  24.870  26.160  1.00  0.00     0.273 C 
BRANCH  12  13
ATOM     13  C   UNL A   1      31.513  23.340  26.352  1.00  0.00     0.051 C 
ATOM     14  C   UNL A   1      32.590  22.764  27.276  1.00  0.00     0.014 C 
ATOM     15  C   UNL A   1      30.130  22.989  26.917  1.00  0.00     0.014 C 
ENDBRANCH  12  13
BRANCH  12  16
ATOM     16  N   UNL A   1      33.060  25.300  25.954  1.00  0.00    -0.347 N 
ATOM     17  H   UNL A   1      33.168  26.266  26.265  1.00  0.00     0.345 HD
ATOM     18  H   UNL A   1      33.293  25.234  24.963  1.00  0.00     0.345 HD
ATOM     19  H   UNL A   1      33.685  24.698  26.490  1.00  0.00     0.345 HD
ENDBRANCH  12  16
ENDBRANCH   9  12
ENDBRANCH   7   8
BRANCH   7  20
ATOM     20  C   UNL A   1      32.334  23.275  22.726  1.00  0.00     0.070 C 
BRANCH  20  21
ATOM     21  C   UNL A   1      33.292  22.374  23.466  1.00  0.00    -0.045 A 
ATOM     22  C   UNL A   1      32.879  21.097  23.878  1.00  0.00     0.004 A 
ATOM     23  C   UNL A   1      34.592  22.797  23.776  1.00  0.00     0.004 A 
ATOM     24  C   UNL A   1      33.731  20.284  24.629  1.00  0.00     0.000 A 
ATOM     25  C   UNL A   1      35.437  21.988  24.541  1.00  0.00     0.000 A 
ATOM     26  C   UNL A   1      35.003  20.737  24.974  1.00  0.00     0.000 A 
ENDBRANCH  20  21
ENDBRANCH   7  20
ENDBRANCH   4   7
ENDBRANCH   2   3
ENDBRANCH   1   2
BRANCH   1  27
ATOM     27  C   UNL A   1      32.673  28.586  25.151  1.00  0.00     0.023 C 
BRANCH  27  28
ATOM     28  C   UNL A   1      33.840  29.058  26.016  1.00  0.00     0.116 C 
BRANCH  28  29
ATOM     29  N   UNL A   1      33.669  30.392  26.578  1.00  0.00    -0.352 N 
ATOM     30  C   UNL A   1      34.459  31.040  27.501  1.00  0.00     0.251 C 
ATOM     31  H   UNL A   1      32.888  30.896  26.255  1.00  0.00     0.163 HD
ATOM     32  O   UNL A   1      34.159  32.160  27.904  1.00  0.00    -0.269 OA
BRANCH  30  33
ATOM     33  C   UNL A   1      35.652  30.349  28.032  1.00  0.00     0.039 A 
ATOM     34  C   UNL A   1      36.864  30.471  27.352  1.00  0.00     0.014 A 
ATOM     35  C   UNL A   1      35.583  29.660  29.247  1.00  0.00     0.014 A 
ATOM     36  C   UNL A   1      38.035  29.986  27.942  1.00  0.00     0.010 A 
ATOM     37  C   UNL A   1      36.758  29.238  29.861  1.00  0.00     0.010 A 
ATOM     38  C   UNL A   1      37.998  29.414  29.224  1.00  0.00    -0.014 A 
BRANCH  38  39
ATOM     39  C   UNL A   1      39.243  29.033  29.937  1.00  0.00     0.031 A 
ATOM     40  C   UNL A   1      39.676  29.789  31.161  1.00  0.00     0.074 A 
ATOM     41  C   UNL A   1      40.033  28.066  29.426  1.00  0.00     0.049 A 
ATOM     42  N   UNL A   1      40.775  29.671  31.859  1.00  0.00    -0.248 NA
ATOM     43  C   UNL A   1      38.765  30.840  31.646  1.00  0.00     0.031 C 
ATOM     44  C   UNL A   1      39.759  27.303  28.206  1.00  0.00     0.029 A 
ATOM     45  N   UNL A   1      41.240  27.573  29.858  1.00  0.00    -0.354 N 
ATOM     46  C   UNL A   1      40.703  30.644  32.848  1.00  0.00     0.074 A 
ATOM     47  C   UNL A   1      39.468  31.370  32.637  1.00  0.00     0.031 C 
ATOM     48  C   UNL A   1      40.759  26.430  27.998  1.00  0.00     0.029 A 
ATOM     49  C   UNL A   1      41.758  26.590  29.048  1.00  0.00     0.049 A 
ATOM     50  H   UNL A   1      41.691  27.893  30.673  1.00  0.00     0.167 HD
ATOM     51  C   UNL A   1      41.574  30.897  33.853  1.00  0.00     0.037 A 
ATOM     52  C   UNL A   1      42.912  25.899  29.138  1.00  0.00     0.037 A 
ATOM     53  C   UNL A   1      42.782  30.148  34.085  1.00  0.00     0.049 A 
ATOM     54  C   UNL A   1      43.843  26.169  30.288  1.00  0.00     0.074 A 
ATOM     55  C   UNL A   1      43.692  30.281  35.118  1.00  0.00     0.029 A 
ATOM     56  N   UNL A   1      43.244  29.121  33.274  1.00  0.00    -0.354 N 
ATOM     57  N   UNL A   1      43.724  27.047  31.254  1.00  0.00    -0.248 NA
ATOM     58  C   UNL A   1      45.059  25.348  30.366  1.00  0.00     0.031 C 
ATOM     59  C   UNL A   1      44.719  29.351  34.920  1.00  0.00     0.029 A 
ATOM     60  C   UNL A   1      44.430  28.618  33.780  1.00  0.00     0.049 A 
ATOM     61  H   UNL A   1      42.794  28.798  32.460  1.00  0.00     0.167 HD
ATOM     62  C   UNL A   1      44.837  26.869  32.067  1.00  0.00     0.074 A 
ATOM     63  C   UNL A   1      45.614  25.795  31.486  1.00  0.00     0.031 C 
ATOM     64  C   UNL A   1      45.184  27.538  33.194  1.00  0.00     0.037 A 
BRANCH  51  65
ATOM     65  C   UNL A   1      41.246  32.026  34.788  1.00  0.00     0.058 A 
ATOM     66  C   UNL A   1      40.441  31.830  35.920  1.00  0.00     0.135 A 
ATOM     67  C   UNL A   1      41.760  33.313  34.563  1.00  0.00     0.135 A 
ATOM     68  F   UNL A   1      39.912  30.622  36.172  1.00  0.00    -0.206 F 
ATOM     69  C   UNL A   1      40.133  32.876  36.783  1.00  0.00     0.059 A 
ATOM     70  C   UNL A   1      41.484  34.370  35.426  1.00  0.00     0.059 A 
ATOM     71  F   UNL A   1      42.534  33.554  33.493  1.00  0.00    -0.206 F 
ATOM     72  C   UNL A   1      40.656  34.144  36.525  1.00  0.00     0.060 A 
BRANCH  72  73
ATOM     73  S   UNL A   1      40.247  35.493  37.651  1.00  0.00     0.124 S 
ATOM     74  O   UNL A   1      39.019  34.998  38.263  1.00  0.00    -0.237 OA
ATOM     75  O   UNL A   1      41.416  35.540  38.525  1.00  0.00    -0.237 OA
ATOM     76  O   UNL A   1      40.088  36.640  36.762  1.00  0.00    -0.744 OA
ENDBRANCH  72  73
ENDBRANCH  51  65
BRANCH  52  77
ATOM     77  C   UNL A   1      43.238  24.865  28.122  1.00  0.00     0.058 A 
ATOM     78  C   UNL A   1      43.897  25.212  26.932  1.00  0.00     0.135 A 
ATOM     79  C   UNL A   1      42.911  23.516  28.321  1.00  0.00     0.135 A 
ATOM     80  F   UNL A   1      44.223  26.491  26.695  1.00  0.00    -0.206 F 
ATOM     81  C   UNL A   1      44.208  24.259  25.969  1.00  0.00     0.059 A 
ATOM     82  C   UNL A   1      43.230  22.541  27.381  1.00  0.00     0.059 A 
ATOM     83  F   UNL A   1      42.296  23.133  29.451  1.00  0.00    -0.206 F 
ATOM     84  C   UNL A   1      43.871  22.925  26.202  1.00  0.00     0.060 A 
BRANCH  84  85
ATOM     85  S   UNL A   1      44.325  21.684  24.971  1.00  0.00     0.124 S 
ATOM     86  O   UNL A   1      44.145  22.426  23.729  1.00  0.00    -0.237 OA
ATOM     87  O   UNL A   1      45.704  21.376  25.336  1.00  0.00    -0.237 OA
ATOM     88  O   UNL A   1      43.367  20.609  25.212  1.00  0.00    -0.744 OA
ENDBRANCH  84  85
ENDBRANCH  52  77
BRANCH  64  89
ATOM     89  C   UNL A   1      46.441  27.106  33.894  1.00  0.00     0.058 A 
ATOM     90  C   UNL A   1      46.432  26.086  34.857  1.00  0.00     0.135 A 
ATOM     91  C   UNL A   1      47.675  27.682  33.554  1.00  0.00     0.135 A 
ATOM     92  F   UNL A   1      45.275  25.511  35.220  1.00  0.00    -0.206 F 
ATOM     93  C   UNL A   1      47.604  25.661  35.473  1.00  0.00     0.059 A 
ATOM     94  C   UNL A   1      48.863  27.258  34.143  1.00  0.00     0.059 A 
ATOM     95  F   UNL A   1      47.737  28.655  32.632  1.00  0.00    -0.206 F 
ATOM     96  C   UNL A   1      48.815  26.253  35.109  1.00  0.00     0.060 A 
BRANCH  96  97
ATOM     97  S   UNL A   1      50.337  25.666  35.883  1.00  0.00     0.124 S 
ATOM     98  O   UNL A   1      49.995  24.281  36.189  1.00  0.00    -0.237 OA
ATOM     99  O   UNL A   1      51.323  25.856  34.825  1.00  0.00    -0.237 OA
ATOM    100  O   UNL A   1      50.490  26.547  37.037  1.00  0.00    -0.744 OA
ENDBRANCH  96  97
ENDBRANCH  64  89
ENDBRANCH  38  39
ENDBRANCH  30  33
ENDBRANCH  28  29
ENDBRANCH  27  28
ENDBRANCH   1  27
TORSDOF 20
ENDMDL
MODEL 3
REMARK VINA RESULT:     -10.2      2.807      4.114
REMARK SMILES CC(C)[C@@H]([NH3+])C(=O)N[C@@H](Cc1ccccc1)C(=O)NCCCCNC(=O)c1ccc(-c2c3nc(c(-c4c(F)cc(S(=O)(=O)[O-])cc4F)c4ccc([nH]4)c(-c4c(F)cc(S(=O)(=O)[O-])cc4F)c4nc(c(-c5c(F)cc(S(=O)(=O)[O-])cc5F)c5ccc2[nH]5)C=C4)C=C3)cc1
REMARK SMILES IDX 21 1 20 2 19 3 17 4 18 5 9 7 8 8 6 9 7 10 4 12 2 13 1 14
REMARK SMILES IDX 3 15 5 16 10 20 11 21 12 22 16 23 13 24 15 25 14 26 22 27
REMARK SMILES IDX 23 28 24 29 25 30 26 32 27 33 28 34 92 35 29 36 91 37 30 38
REMARK SMILES IDX 31 39 32 40 85 41 33 42 90 43 84 44 86 45 34 46 89 47 83 48
REMARK SMILES IDX 82 49 35 51 69 52 48 53 68 54 49 55 52 56 67 57 87 58 50 59
REMARK SMILES IDX 51 60 66 62 88 63 53 64 36 65 37 66 46 67 38 68 39 69 45 70
REMARK SMILES IDX 47 71 40 72 41 73 42 74 43 75 44 76 70 77 71 78 80 79 72 80
REMARK SMILES IDX 73 81 79 82 81 83 74 84 75 85 76 86 77 87 78 88 54 89 55 90
REMARK SMILES IDX 64 91 56 92 57 93 63 94 65 95 58 96 59 97 60 98 61 99 62 100
REMARK H PARENT 19 6 8 11 5 17 5 18 5 19 24 31 86 50 52 61
REMARK Flexibility Score: inf
ROOT
ATOM      1  C   UNL A   1      32.776  29.827  27.052  1.00  0.00     0.023 C 
ENDROOT
BRANCH   1   2
ATOM      2  C   UNL A   1      32.332  29.681  25.606  1.00  0.00     0.116 C 
BRANCH   2   3
ATOM      3  N   UNL A   1      33.418  29.596  24.654  1.00  0.00    -0.354 N 
ATOM      4  C   UNL A   1      33.829  28.540  23.892  1.00  0.00     0.242 C 
ATOM      5  O   UNL A   1      34.406  28.820  22.833  1.00  0.00    -0.273 OA
ATOM      6  H   UNL A   1      33.939  30.424  24.537  1.00  0.00     0.163 HD
BRANCH   4   7
ATOM      7  C   UNL A   1      33.495  27.063  24.219  1.00  0.00     0.175 C 
BRANCH   7   8
ATOM      8  N   UNL A   1      33.610  26.135  23.085  1.00  0.00    -0.339 N 
ATOM      9  C   UNL A   1      32.703  25.785  22.135  1.00  0.00     0.279 C 
ATOM     10  O   UNL A   1      33.109  25.104  21.188  1.00  0.00    -0.268 OA
ATOM     11  H   UNL A   1      34.488  25.696  22.999  1.00  0.00     0.164 HD
BRANCH   9  12
ATOM     12  C   UNL A   1      31.207  26.162  22.240  1.00  0.00     0.273 C 
BRANCH  12  13
ATOM     13  C   UNL A   1      30.573  25.701  23.575  1.00  0.00     0.051 C 
ATOM     14  C   UNL A   1      29.172  26.284  23.782  1.00  0.00     0.014 C 
ATOM     15  C   UNL A   1      30.491  24.170  23.649  1.00  0.00     0.014 C 
ENDBRANCH  12  13
BRANCH  12  16
ATOM     16  N   UNL A   1      31.043  27.604  21.979  1.00  0.00    -0.347 N 
ATOM     17  H   UNL A   1      31.017  27.767  20.972  1.00  0.00     0.345 HD
ATOM     18  H   UNL A   1      31.828  28.114  22.385  1.00  0.00     0.345 HD
ATOM     19  H   UNL A   1      30.173  27.929  22.399  1.00  0.00     0.345 HD
ENDBRANCH  12  16
ENDBRANCH   9  12
ENDBRANCH   7   8
BRANCH   7  20
ATOM     20  C   UNL A   1      34.176  26.543  25.505  1.00  0.00     0.070 C 
BRANCH  20  21
ATOM     21  C   UNL A   1      34.233  25.048  25.704  1.00  0.00    -0.045 A 
ATOM     22  C   UNL A   1      33.094  24.353  26.141  1.00  0.00     0.004 A 
ATOM     23  C   UNL A   1      35.419  24.333  25.484  1.00  0.00     0.004 A 
ATOM     24  C   UNL A   1      33.155  22.982  26.400  1.00  0.00     0.000 A 
ATOM     25  C   UNL A   1      35.482  22.964  25.760  1.00  0.00     0.000 A 
ATOM     26  C   UNL A   1      34.353  22.292  26.226  1.00  0.00     0.000 A 
ENDBRANCH  20  21
ENDBRANCH   7  20
ENDBRANCH   4   7
ENDBRANCH   2   3
ENDBRANCH   1   2
BRANCH   1  27
ATOM     27  C   UNL A   1      34.091  30.577  27.253  1.00  0.00     0.023 C 
BRANCH  27  28
ATOM     28  C   UNL A   1      35.060  29.980  28.270  1.00  0.00     0.116 C 
BRANCH  28  29
ATOM     29  N   UNL A   1      35.286  30.812  29.445  1.00  0.00    -0.352 N 
ATOM     30  C   UNL A   1      36.446  30.978  30.168  1.00  0.00     0.251 C 
ATOM     31  H   UNL A   1      34.507  31.323  29.764  1.00  0.00     0.163 HD
ATOM     32  O   UNL A   1      36.465  31.695  31.164  1.00  0.00    -0.269 OA
BRANCH  30  33
ATOM     33  C   UNL A   1      37.659  30.245  29.750  1.00  0.00     0.039 A 
ATOM     34  C   UNL A   1      38.054  30.297  28.412  1.00  0.00     0.014 A 
ATOM     35  C   UNL A   1      38.446  29.588  30.700  1.00  0.00     0.014 A 
ATOM     36  C   UNL A   1      39.295  29.773  28.042  1.00  0.00     0.010 A 
ATOM     37  C   UNL A   1      39.709  29.126  30.340  1.00  0.00     0.010 A 
ATOM     38  C   UNL A   1      40.154  29.231  29.012  1.00  0.00    -0.014 A 
BRANCH  38  39
ATOM     39  C   UNL A   1      41.537  28.810  28.673  1.00  0.00     0.031 A 
ATOM     40  C   UNL A   1      42.642  29.826  28.607  1.00  0.00     0.074 A 
ATOM     41  C   UNL A   1      41.777  27.527  28.331  1.00  0.00     0.049 A 
ATOM     42  N   UNL A   1      43.886  29.669  28.234  1.00  0.00    -0.248 NA
ATOM     43  C   UNL A   1      42.295  31.207  28.979  1.00  0.00     0.031 C 
ATOM     44  C   UNL A   1      40.775  26.458  28.290  1.00  0.00     0.029 A 
ATOM     45  N   UNL A   1      42.936  26.908  27.934  1.00  0.00    -0.354 N 
ATOM     46  C   UNL A   1      44.463  30.931  28.302  1.00  0.00     0.074 A 
ATOM     47  C   UNL A   1      43.424  31.849  28.716  1.00  0.00     0.031 C 
ATOM     48  C   UNL A   1      41.366  25.315  27.905  1.00  0.00     0.029 A 
ATOM     49  C   UNL A   1      42.778  25.573  27.644  1.00  0.00     0.049 A 
ATOM     50  H   UNL A   1      43.799  27.375  27.864  1.00  0.00     0.167 HD
ATOM     51  C   UNL A   1      45.747  31.289  28.062  1.00  0.00     0.037 A 
ATOM     52  C   UNL A   1      43.669  24.659  27.209  1.00  0.00     0.037 A 
ATOM     53  C   UNL A   1      46.788  30.367  27.690  1.00  0.00     0.049 A 
ATOM     54  C   UNL A   1      45.099  25.072  26.992  1.00  0.00     0.074 A 
ATOM     55  C   UNL A   1      48.134  30.621  27.496  1.00  0.00     0.029 A 
ATOM     56  N   UNL A   1      46.600  29.012  27.461  1.00  0.00    -0.354 N 
ATOM     57  N   UNL A   1      45.642  26.258  27.128  1.00  0.00    -0.248 NA
ATOM     58  C   UNL A   1      46.038  24.023  26.571  1.00  0.00     0.031 C 
ATOM     59  C   UNL A   1      48.758  29.424  27.125  1.00  0.00     0.029 A 
ATOM     60  C   UNL A   1      47.804  28.419  27.120  1.00  0.00     0.049 A 
ATOM     61  H   UNL A   1      45.738  28.541  27.532  1.00  0.00     0.167 HD
ATOM     62  C   UNL A   1      46.991  26.093  26.833  1.00  0.00     0.074 A 
ATOM     63  C   UNL A   1      47.182  24.692  26.519  1.00  0.00     0.031 C 
ATOM     64  C   UNL A   1      47.979  27.019  26.822  1.00  0.00     0.037 A 
BRANCH  51  65
ATOM     65  C   UNL A   1      46.101  32.741  28.207  1.00  0.00     0.058 A 
ATOM     66  C   UNL A   1      46.569  33.264  29.423  1.00  0.00     0.135 A 
ATOM     67  C   UNL A   1      45.993  33.616  27.115  1.00  0.00     0.135 A 
ATOM     68  F   UNL A   1      46.675  32.472  30.502  1.00  0.00    -0.206 F 
ATOM     69  C   UNL A   1      46.891  34.609  29.560  1.00  0.00     0.059 A 
ATOM     70  C   UNL A   1      46.333  34.962  27.223  1.00  0.00     0.059 A 
ATOM     71  F   UNL A   1      45.548  33.168  25.931  1.00  0.00    -0.206 F 
ATOM     72  C   UNL A   1      46.766  35.452  28.454  1.00  0.00     0.060 A 
BRANCH  72  73
ATOM     73  S   UNL A   1      47.186  37.197  28.645  1.00  0.00     0.124 S 
ATOM     74  O   UNL A   1      47.392  37.289  30.087  1.00  0.00    -0.237 OA
ATOM     75  O   UNL A   1      48.386  37.324  27.824  1.00  0.00    -0.237 OA
ATOM     76  O   UNL A   1      46.005  37.887  28.134  1.00  0.00    -0.744 OA
ENDBRANCH  72  73
ENDBRANCH  51  65
BRANCH  52  77
ATOM     77  C   UNL A   1      43.239  23.256  26.978  1.00  0.00     0.058 A 
ATOM     78  C   UNL A   1      43.109  22.360  28.049  1.00  0.00     0.135 A 
ATOM     79  C   UNL A   1      42.938  22.787  25.690  1.00  0.00     0.135 A 
ATOM     80  F   UNL A   1      43.391  22.762  29.297  1.00  0.00    -0.206 F 
ATOM     81  C   UNL A   1      42.710  21.043  27.852  1.00  0.00     0.059 A 
ATOM     82  C   UNL A   1      42.518  21.479  25.470  1.00  0.00     0.059 A 
ATOM     83  F   UNL A   1      43.031  23.611  24.636  1.00  0.00    -0.206 F 
ATOM     84  C   UNL A   1      42.417  20.610  26.557  1.00  0.00     0.060 A 
BRANCH  84  85
ATOM     85  S   UNL A   1      41.848  18.913  26.314  1.00  0.00     0.124 S 
ATOM     86  O   UNL A   1      40.598  19.124  25.596  1.00  0.00    -0.237 OA
ATOM     87  O   UNL A   1      42.939  18.330  25.539  1.00  0.00    -0.237 OA
ATOM     88  O   UNL A   1      41.719  18.407  27.677  1.00  0.00    -0.744 OA
ENDBRANCH  84  85
ENDBRANCH  52  77
BRANCH  64  89
ATOM     89  C   UNL A   1      49.366  26.545  26.493  1.00  0.00     0.058 A 
ATOM     90  C   UNL A   1      49.881  26.628  25.191  1.00  0.00     0.135 A 
ATOM     91  C   UNL A   1      50.207  26.055  27.505  1.00  0.00     0.135 A 
ATOM     92  F   UNL A   1      49.112  27.083  24.189  1.00  0.00    -0.206 F 
ATOM     93  C   UNL A   1      51.180  26.225  24.899  1.00  0.00     0.059 A 
ATOM     94  C   UNL A   1      51.516  25.667  27.239  1.00  0.00     0.059 A 
ATOM     95  F   UNL A   1      49.763  25.965  28.769  1.00  0.00    -0.206 F 
ATOM     96  C   UNL A   1      51.990  25.747  25.930  1.00  0.00     0.060 A 
BRANCH  96  97
ATOM     97  S   UNL A   1      53.688  25.266  25.549  1.00  0.00     0.124 S 
ATOM     98  O   UNL A   1      53.574  23.813  25.484  1.00  0.00    -0.237 OA
ATOM     99  O   UNL A   1      53.930  25.941  24.279  1.00  0.00    -0.237 OA
ATOM    100  O   UNL A   1      54.449  25.787  26.681  1.00  0.00    -0.744 OA
ENDBRANCH  96  97
ENDBRANCH  64  89
ENDBRANCH  38  39
ENDBRANCH  30  33
ENDBRANCH  28  29
ENDBRANCH  27  28
ENDBRANCH   1  27
TORSDOF 20
ENDMDL
