MODEL 1
REMARK VINA RESULT:     -12.2      0.000      0.000
REMARK SMILES C[C@H]1CCC[C@]1(C(=O)NCCCCNC(=O)c1ccc(-c2c3nc(c(-c4c(F)cc(S(=O)(=O)[O-])cc4F)c4ccc([nH]4)c(-c4c(F)cc(S(=O)(=O)[O-])cc4F)c4nc(c(-c5c(F)cc(S(=O)(=O)[O-])cc5F)c5ccc2[nH]5)C=C4)C=C3)cc1)c1ccc2c(c1)OCO2
REMARK SMILES IDX 12 1 11 2 10 3 9 4 7 5 8 6 6 8 1 9 2 10 3 11 4 12 5 13 83 14
REMARK SMILES IDX 84 15 88 16 85 17 87 18 86 19 89 20 91 21 90 22 13 23 14 24
REMARK SMILES IDX 15 25 16 27 17 28 18 29 82 30 19 31 81 32 20 33 21 34 22 35
REMARK SMILES IDX 75 36 23 37 80 38 74 39 76 40 24 41 79 42 73 43 72 44 25 46
REMARK SMILES IDX 59 47 38 48 58 49 39 50 42 51 57 52 77 53 40 54 41 55 56 57
REMARK SMILES IDX 78 58 43 59 26 60 27 61 36 62 28 63 29 64 35 65 37 66 30 67
REMARK SMILES IDX 31 68 32 69 33 70 34 71 60 72 61 73 70 74 62 75 63 76 69 77
REMARK SMILES IDX 71 78 64 79 65 80 66 81 67 82 68 83 44 84 45 85 54 86 46 87
REMARK SMILES IDX 47 88 53 89 55 90 48 91 49 92 50 93 51 94 52 95
REMARK H PARENT 9 7 14 26 76 45 42 56
REMARK Flexibility Score: inf
ROOT
ATOM      1  C   UNL A   1      33.939  28.317  25.674  1.00  0.00     0.023 C 
ENDROOT
BRANCH   1   2
ATOM      2  C   UNL A   1      33.219  27.162  24.987  1.00  0.00     0.023 C 
BRANCH   2   3
ATOM      3  C   UNL A   1      33.986  25.844  24.964  1.00  0.00     0.116 C 
BRANCH   3   4
ATOM      4  N   UNL A   1      33.674  25.014  23.816  1.00  0.00    -0.355 N 
ATOM      5  C   UNL A   1      33.491  23.671  23.639  1.00  0.00     0.230 C 
ATOM      6  O   UNL A   1      32.925  23.395  22.573  1.00  0.00    -0.274 OA
ATOM      7  H   UNL A   1      33.572  25.529  22.984  1.00  0.00     0.163 HD
BRANCH   5   8
ATOM      8  C   UNL A   1      33.934  22.565  24.668  1.00  0.00     0.077 C 
ATOM      9  C   UNL A   1      36.294  22.619  23.500  1.00  0.00     0.009 C 
ATOM     10  C   UNL A   1      35.486  22.343  24.762  1.00  0.00     0.006 C 
ATOM     11  C   UNL A   1      35.961  23.061  26.017  1.00  0.00     0.005 C 
ATOM     12  C   UNL A   1      34.768  22.988  26.965  1.00  0.00     0.002 C 
ATOM     13  C   UNL A   1      33.508  23.019  26.095  1.00  0.00     0.022 C 
BRANCH   8  14
ATOM     14  C   UNL A   1      33.407  21.116  24.356  1.00  0.00    -0.028 A 
ATOM     15  C   UNL A   1      32.400  20.870  23.386  1.00  0.00     0.009 A 
ATOM     16  C   UNL A   1      34.136  19.996  24.830  1.00  0.00     0.055 A 
ATOM     17  C   UNL A   1      32.143  19.584  22.887  1.00  0.00     0.051 A 
ATOM     18  C   UNL A   1      33.904  18.755  24.277  1.00  0.00     0.166 A 
ATOM     19  C   UNL A   1      32.940  18.554  23.324  1.00  0.00     0.165 A 
ATOM     20  O   UNL A   1      34.639  17.637  24.521  1.00  0.00    -0.454 OA
ATOM     21  O   UNL A   1      32.942  17.279  22.851  1.00  0.00    -0.454 OA
ATOM     22  C   UNL A   1      34.140  16.774  23.480  1.00  0.00     0.468 C 
ENDBRANCH   8  14
ENDBRANCH   5   8
ENDBRANCH   3   4
ENDBRANCH   2   3
ENDBRANCH   1   2
BRANCH   1  23
ATOM     23  C   UNL A   1      33.667  28.446  27.166  1.00  0.00     0.116 C 
BRANCH  23  24
ATOM     24  N   UNL A   1      33.564  29.824  27.629  1.00  0.00    -0.352 N 
ATOM     25  C   UNL A   1      34.548  30.594  28.211  1.00  0.00     0.251 C 
ATOM     26  H   UNL A   1      32.688  30.257  27.513  1.00  0.00     0.163 HD
ATOM     27  O   UNL A   1      34.305  31.715  28.624  1.00  0.00    -0.269 OA
BRANCH  25  28
ATOM     28  C   UNL A   1      35.890  29.998  28.364  1.00  0.00     0.039 A 
ATOM     29  C   UNL A   1      36.789  30.084  27.301  1.00  0.00     0.014 A 
ATOM     30  C   UNL A   1      36.280  29.460  29.593  1.00  0.00     0.014 A 
ATOM     31  C   UNL A   1      38.114  29.697  27.498  1.00  0.00     0.010 A 
ATOM     32  C   UNL A   1      37.615  29.151  29.809  1.00  0.00     0.010 A 
ATOM     33  C   UNL A   1      38.545  29.266  28.764  1.00  0.00    -0.014 A 
BRANCH  33  34
ATOM     34  C   UNL A   1      39.966  28.926  29.017  1.00  0.00     0.031 A 
ATOM     35  C   UNL A   1      40.886  29.961  29.600  1.00  0.00     0.074 A 
ATOM     36  C   UNL A   1      40.437  27.717  28.654  1.00  0.00     0.049 A 
ATOM     37  N   UNL A   1      42.170  29.884  29.834  1.00  0.00    -0.248 NA
ATOM     38  C   UNL A   1      40.292  31.267  29.931  1.00  0.00     0.031 C 
ATOM     39  C   UNL A   1      39.653  26.655  28.017  1.00  0.00     0.029 A 
ATOM     40  N   UNL A   1      41.695  27.178  28.763  1.00  0.00    -0.354 N 
ATOM     41  C   UNL A   1      42.539  31.133  30.321  1.00  0.00     0.074 A 
ATOM     42  C   UNL A   1      41.357  31.966  30.293  1.00  0.00     0.031 C 
ATOM     43  C   UNL A   1      40.440  25.585  27.816  1.00  0.00     0.029 A 
ATOM     44  C   UNL A   1      41.789  25.892  28.283  1.00  0.00     0.049 A 
ATOM     45  H   UNL A   1      42.457  27.666  29.150  1.00  0.00     0.167 HD
ATOM     46  C   UNL A   1      43.747  31.539  30.776  1.00  0.00     0.037 A 
ATOM     47  C   UNL A   1      42.844  25.058  28.230  1.00  0.00     0.037 A 
ATOM     48  C   UNL A   1      44.907  30.692  30.838  1.00  0.00     0.049 A 
ATOM     49  C   UNL A   1      44.167  25.519  28.778  1.00  0.00     0.074 A 
ATOM     50  C   UNL A   1      46.161  30.985  31.343  1.00  0.00     0.029 A 
ATOM     51  N   UNL A   1      44.952  29.381  30.385  1.00  0.00    -0.354 N 
ATOM     52  N   UNL A   1      44.482  26.682  29.297  1.00  0.00    -0.248 NA
ATOM     53  C   UNL A   1      45.274  24.554  28.743  1.00  0.00     0.031 C 
ATOM     54  C   UNL A   1      46.974  29.858  31.169  1.00  0.00     0.029 A 
ATOM     55  C   UNL A   1      46.215  28.853  30.590  1.00  0.00     0.049 A 
ATOM     56  H   UNL A   1      44.197  28.899  29.977  1.00  0.00     0.167 HD
ATOM     57  C   UNL A   1      45.816  26.580  29.674  1.00  0.00     0.074 A 
ATOM     58  C   UNL A   1      46.245  25.238  29.333  1.00  0.00     0.031 C 
ATOM     59  C   UNL A   1      46.616  27.511  30.250  1.00  0.00     0.037 A 
BRANCH  46  60
ATOM     60  C   UNL A   1      43.862  32.959  31.257  1.00  0.00     0.058 A 
ATOM     61  C   UNL A   1      43.623  33.300  32.599  1.00  0.00     0.135 A 
ATOM     62  C   UNL A   1      44.227  33.987  30.374  1.00  0.00     0.135 A 
ATOM     63  F   UNL A   1      43.251  32.358  33.480  1.00  0.00    -0.206 F 
ATOM     64  C   UNL A   1      43.710  34.616  33.040  1.00  0.00     0.059 A 
ATOM     65  C   UNL A   1      44.347  35.307  30.801  1.00  0.00     0.059 A 
ATOM     66  F   UNL A   1      44.464  33.715  29.082  1.00  0.00    -0.206 F 
ATOM     67  C   UNL A   1      44.069  35.613  32.133  1.00  0.00     0.060 A 
BRANCH  67  68
ATOM     68  S   UNL A   1      44.176  37.316  32.721  1.00  0.00     0.124 S 
ATOM     69  O   UNL A   1      44.024  38.062  31.474  1.00  0.00    -0.237 OA
ATOM     70  O   UNL A   1      43.053  37.400  33.648  1.00  0.00    -0.237 OA
ATOM     71  O   UNL A   1      45.498  37.381  33.334  1.00  0.00    -0.744 OA
ENDBRANCH  67  68
ENDBRANCH  46  60
BRANCH  47  72
ATOM     72  C   UNL A   1      42.683  23.688  27.673  1.00  0.00     0.058 A 
ATOM     73  C   UNL A   1      42.468  22.590  28.520  1.00  0.00     0.135 A 
ATOM     74  C   UNL A   1      42.723  23.451  26.292  1.00  0.00     0.135 A 
ATOM     75  F   UNL A   1      42.424  22.767  29.849  1.00  0.00    -0.206 F 
ATOM     76  C   UNL A   1      42.315  21.302  28.018  1.00  0.00     0.059 A 
ATOM     77  C   UNL A   1      42.552  22.175  25.764  1.00  0.00     0.059 A 
ATOM     78  F   UNL A   1      42.907  24.471  25.439  1.00  0.00    -0.206 F 
ATOM     79  C   UNL A   1      42.359  21.104  26.637  1.00  0.00     0.060 A 
BRANCH  79  80
ATOM     80  S   UNL A   1      42.111  19.436  25.991  1.00  0.00     0.124 S 
ATOM     81  O   UNL A   1      42.937  19.460  24.791  1.00  0.00    -0.237 OA
ATOM     82  O   UNL A   1      42.600  18.605  27.088  1.00  0.00    -0.237 OA
ATOM     83  O   UNL A   1      40.670  19.376  25.768  1.00  0.00    -0.744 OA
ENDBRANCH  79  80
ENDBRANCH  47  72
BRANCH  59  84
ATOM     84  C   UNL A   1      48.024  27.103  30.577  1.00  0.00     0.058 A 
ATOM     85  C   UNL A   1      49.076  27.308  29.672  1.00  0.00     0.135 A 
ATOM     86  C   UNL A   1      48.329  26.548  31.829  1.00  0.00     0.135 A 
ATOM     87  F   UNL A   1      48.834  27.831  28.460  1.00  0.00    -0.206 F 
ATOM     88  C   UNL A   1      50.383  26.958  29.990  1.00  0.00     0.059 A 
ATOM     89  C   UNL A   1      49.633  26.212  32.178  1.00  0.00     0.059 A 
ATOM     90  F   UNL A   1      47.358  26.342  32.732  1.00  0.00    -0.206 F 
ATOM     91  C   UNL A   1      50.651  26.409  31.247  1.00  0.00     0.060 A 
BRANCH  91  92
ATOM     92  S   UNL A   1      52.357  25.989  31.663  1.00  0.00     0.124 S 
ATOM     93  O   UNL A   1      53.030  26.193  30.385  1.00  0.00    -0.237 OA
ATOM     94  O   UNL A   1      52.674  26.957  32.708  1.00  0.00    -0.237 OA
ATOM     95  O   UNL A   1      52.264  24.602  32.110  1.00  0.00    -0.744 OA
ENDBRANCH  91  92
ENDBRANCH  59  84
ENDBRANCH  33  34
ENDBRANCH  25  28
ENDBRANCH  23  24
ENDBRANCH   1  23
TORSDOF 15
ENDMDL
MODEL 2
REMARK VINA RESULT:     -12.2      1.133      1.824
REMARK SMILES C[C@H]1CCC[C@]1(C(=O)NCCCCNC(=O)c1ccc(-c2c3nc(c(-c4c(F)cc(S(=O)(=O)[O-])cc4F)c4ccc([nH]4)c(-c4c(F)cc(S(=O)(=O)[O-])cc4F)c4nc(c(-c5c(F)cc(S(=O)(=O)[O-])cc5F)c5ccc2[nH]5)C=C4)C=C3)cc1)c1ccc2c(c1)OCO2
REMARK SMILES IDX 12 1 11 2 10 3 9 4 7 5 8 6 6 8 1 9 2 10 3 11 4 12 5 13 83 14
REMARK SMILES IDX 84 15 88 16 85 17 87 18 86 19 89 20 91 21 90 22 13 23 14 24
REMARK SMILES IDX 15 25 16 27 17 28 18 29 82 30 19 31 81 32 20 33 21 34 22 35
REMARK SMILES IDX 75 36 23 37 80 38 74 39 76 40 24 41 79 42 73 43 72 44 25 46
REMARK SMILES IDX 59 47 38 48 58 49 39 50 42 51 57 52 77 53 40 54 41 55 56 57
REMARK SMILES IDX 78 58 43 59 26 60 27 61 36 62 28 63 29 64 35 65 37 66 30 67
REMARK SMILES IDX 31 68 32 69 33 70 34 71 60 72 61 73 70 74 62 75 63 76 69 77
REMARK SMILES IDX 71 78 64 79 65 80 66 81 67 82 68 83 44 84 45 85 54 86 46 87
REMARK SMILES IDX 47 88 53 89 55 90 48 91 49 92 50 93 51 94 52 95
REMARK H PARENT 9 7 14 26 76 45 42 56
REMARK Flexibility Score: inf
ROOT
ATOM      1  C   UNL A   1      32.593  28.414  26.252  1.00  0.00     0.023 C 
ENDROOT
BRANCH   1   2
ATOM      2  C   UNL A   1      31.462  27.605  26.876  1.00  0.00     0.023 C 
BRANCH   2   3
ATOM      3  C   UNL A   1      30.844  26.547  25.967  1.00  0.00     0.116 C 
BRANCH   3   4
ATOM      4  N   UNL A   1      30.815  25.223  26.557  1.00  0.00    -0.355 N 
ATOM      5  C   UNL A   1      31.656  24.147  26.513  1.00  0.00     0.230 C 
ATOM      6  O   UNL A   1      31.434  23.321  27.408  1.00  0.00    -0.274 OA
ATOM      7  H   UNL A   1      30.016  25.064  27.110  1.00  0.00     0.163 HD
BRANCH   5   8
ATOM      8  C   UNL A   1      32.805  23.952  25.454  1.00  0.00     0.077 C 
ATOM      9  C   UNL A   1      30.906  23.565  23.671  1.00  0.00     0.009 C 
ATOM     10  C   UNL A   1      32.332  24.018  23.957  1.00  0.00     0.006 C 
ATOM     11  C   UNL A   1      32.701  25.399  23.436  1.00  0.00     0.005 C 
ATOM     12  C   UNL A   1      33.951  25.775  24.224  1.00  0.00     0.002 C 
ATOM     13  C   UNL A   1      33.818  25.125  25.604  1.00  0.00     0.022 C 
BRANCH   8  14
ATOM     14  C   UNL A   1      33.537  22.561  25.513  1.00  0.00    -0.028 A 
ATOM     15  C   UNL A   1      32.958  21.379  24.980  1.00  0.00     0.009 A 
ATOM     16  C   UNL A   1      34.915  22.517  25.839  1.00  0.00     0.055 A 
ATOM     17  C   UNL A   1      33.711  20.216  24.754  1.00  0.00     0.051 A 
ATOM     18  C   UNL A   1      35.643  21.383  25.550  1.00  0.00     0.166 A 
ATOM     19  C   UNL A   1      35.059  20.265  25.012  1.00  0.00     0.165 A 
ATOM     20  O   UNL A   1      36.993  21.266  25.659  1.00  0.00    -0.454 OA
ATOM     21  O   UNL A   1      35.971  19.298  24.721  1.00  0.00    -0.454 OA
ATOM     22  C   UNL A   1      37.197  20.022  24.959  1.00  0.00     0.468 C 
ENDBRANCH   8  14
ENDBRANCH   5   8
ENDBRANCH   3   4
ENDBRANCH   2   3
ENDBRANCH   1   2
BRANCH   1  23
ATOM     23  C   UNL A   1      33.725  28.773  27.203  1.00  0.00     0.116 C 
BRANCH  23  24
ATOM     24  N   UNL A   1      33.622  30.115  27.763  1.00  0.00    -0.352 N 
ATOM     25  C   UNL A   1      34.597  30.832  28.421  1.00  0.00     0.251 C 
ATOM     26  H   UNL A   1      32.751  30.563  27.658  1.00  0.00     0.163 HD
ATOM     27  O   UNL A   1      34.353  31.923  28.908  1.00  0.00    -0.269 OA
BRANCH  25  28
ATOM     28  C   UNL A   1      35.931  30.215  28.561  1.00  0.00     0.039 A 
ATOM     29  C   UNL A   1      36.820  30.283  27.488  1.00  0.00     0.014 A 
ATOM     30  C   UNL A   1      36.325  29.674  29.787  1.00  0.00     0.014 A 
ATOM     31  C   UNL A   1      38.141  29.875  27.672  1.00  0.00     0.010 A 
ATOM     32  C   UNL A   1      37.658  29.343  29.989  1.00  0.00     0.010 A 
ATOM     33  C   UNL A   1      38.578  29.440  28.935  1.00  0.00    -0.014 A 
BRANCH  33  34
ATOM     34  C   UNL A   1      39.995  29.078  29.173  1.00  0.00     0.031 A 
ATOM     35  C   UNL A   1      40.936  30.095  29.756  1.00  0.00     0.074 A 
ATOM     36  C   UNL A   1      40.446  27.864  28.798  1.00  0.00     0.049 A 
ATOM     37  N   UNL A   1      42.221  29.998  29.978  1.00  0.00    -0.248 NA
ATOM     38  C   UNL A   1      40.364  31.407  30.101  1.00  0.00     0.031 C 
ATOM     39  C   UNL A   1      39.641  26.819  28.161  1.00  0.00     0.029 A 
ATOM     40  N   UNL A   1      41.696  27.306  28.893  1.00  0.00    -0.354 N 
ATOM     41  C   UNL A   1      42.612  31.237  30.470  1.00  0.00     0.074 A 
ATOM     42  C   UNL A   1      41.442  32.088  30.458  1.00  0.00     0.031 C 
ATOM     43  C   UNL A   1      40.411  25.739  27.945  1.00  0.00     0.029 A 
ATOM     44  C   UNL A   1      41.768  26.023  28.402  1.00  0.00     0.049 A 
ATOM     45  H   UNL A   1      42.470  27.780  29.276  1.00  0.00     0.167 HD
ATOM     46  C   UNL A   1      43.829  31.623  30.918  1.00  0.00     0.037 A 
ATOM     47  C   UNL A   1      42.810  25.173  28.335  1.00  0.00     0.037 A 
ATOM     48  C   UNL A   1      44.977  30.759  30.964  1.00  0.00     0.049 A 
ATOM     49  C   UNL A   1      44.144  25.612  28.875  1.00  0.00     0.074 A 
ATOM     50  C   UNL A   1      46.240  31.029  31.461  1.00  0.00     0.029 A 
ATOM     51  N   UNL A   1      45.000  29.450  30.502  1.00  0.00    -0.354 N 
ATOM     52  N   UNL A   1      44.481  26.766  29.400  1.00  0.00    -0.248 NA
ATOM     53  C   UNL A   1      45.237  24.630  28.825  1.00  0.00     0.031 C 
ATOM     54  C   UNL A   1      47.034  29.892  31.272  1.00  0.00     0.029 A 
ATOM     55  C   UNL A   1      46.256  28.902  30.692  1.00  0.00     0.049 A 
ATOM     56  H   UNL A   1      44.234  28.982  30.097  1.00  0.00     0.167 HD
ATOM     57  C   UNL A   1      45.816  26.642  29.764  1.00  0.00     0.074 A 
ATOM     58  C   UNL A   1      46.222  25.297  29.411  1.00  0.00     0.031 C 
ATOM     59  C   UNL A   1      46.634  27.557  30.340  1.00  0.00     0.037 A 
BRANCH  46  60
ATOM     60  C   UNL A   1      43.970  33.037  31.408  1.00  0.00     0.058 A 
ATOM     61  C   UNL A   1      43.719  33.378  32.747  1.00  0.00     0.135 A 
ATOM     62  C   UNL A   1      44.370  34.061  30.535  1.00  0.00     0.135 A 
ATOM     63  F   UNL A   1      43.313  32.440  33.619  1.00  0.00    -0.206 F 
ATOM     64  C   UNL A   1      43.829  34.689  33.197  1.00  0.00     0.059 A 
ATOM     65  C   UNL A   1      44.513  35.376  30.971  1.00  0.00     0.059 A 
ATOM     66  F   UNL A   1      44.620  33.791  29.245  1.00  0.00    -0.206 F 
ATOM     67  C   UNL A   1      44.223  35.682  32.300  1.00  0.00     0.060 A 
BRANCH  67  68
ATOM     68  S   UNL A   1      44.360  37.380  32.898  1.00  0.00     0.124 S 
ATOM     69  O   UNL A   1      43.143  37.504  33.696  1.00  0.00    -0.237 OA
ATOM     70  O   UNL A   1      45.609  37.348  33.650  1.00  0.00    -0.237 OA
ATOM     71  O   UNL A   1      44.389  38.169  31.672  1.00  0.00    -0.744 OA
ENDBRANCH  67  68
ENDBRANCH  46  60
BRANCH  47  72
ATOM     72  C   UNL A   1      42.624  23.810  27.771  1.00  0.00     0.058 A 
ATOM     73  C   UNL A   1      42.438  22.704  28.613  1.00  0.00     0.135 A 
ATOM     74  C   UNL A   1      42.612  23.588  26.386  1.00  0.00     0.135 A 
ATOM     75  F   UNL A   1      42.446  22.867  29.944  1.00  0.00    -0.206 F 
ATOM     76  C   UNL A   1      42.263  21.422  28.104  1.00  0.00     0.059 A 
ATOM     77  C   UNL A   1      42.417  22.318  25.851  1.00  0.00     0.059 A 
ATOM     78  F   UNL A   1      42.765  24.617  25.538  1.00  0.00    -0.206 F 
ATOM     79  C   UNL A   1      42.254  21.238  26.720  1.00  0.00     0.060 A 
BRANCH  79  80
ATOM     80  S   UNL A   1      41.977  19.577  26.066  1.00  0.00     0.124 S 
ATOM     81  O   UNL A   1      40.558  19.626  25.736  1.00  0.00    -0.237 OA
ATOM     82  O   UNL A   1      42.897  19.535  24.933  1.00  0.00    -0.237 OA
ATOM     83  O   UNL A   1      42.338  18.714  27.187  1.00  0.00    -0.744 OA
ENDBRANCH  79  80
ENDBRANCH  47  72
BRANCH  59  84
ATOM     84  C   UNL A   1      48.039  27.126  30.652  1.00  0.00     0.058 A 
ATOM     85  C   UNL A   1      49.068  27.238  29.706  1.00  0.00     0.135 A 
ATOM     86  C   UNL A   1      48.367  26.645  31.929  1.00  0.00     0.135 A 
ATOM     87  F   UNL A   1      48.804  27.687  28.469  1.00  0.00    -0.206 F 
ATOM     88  C   UNL A   1      50.373  26.867  30.008  1.00  0.00     0.059 A 
ATOM     89  C   UNL A   1      49.670  26.291  32.262  1.00  0.00     0.059 A 
ATOM     90  F   UNL A   1      47.418  26.530  32.872  1.00  0.00    -0.206 F 
ATOM     91  C   UNL A   1      50.664  26.394  31.290  1.00  0.00     0.060 A 
BRANCH  91  92
ATOM     92  S   UNL A   1      52.368  25.946  31.683  1.00  0.00     0.124 S 
ATOM     93  O   UNL A   1      53.026  26.138  30.395  1.00  0.00    -0.237 OA
ATOM     94  O   UNL A   1      52.715  26.911  32.722  1.00  0.00    -0.237 OA
ATOM     95  O   UNL A   1      52.259  24.562  32.134  1.00  0.00    -0.744 OA
ENDBRANCH  91  92
ENDBRANCH  59  84
ENDBRANCH  33  34
ENDBRANCH  25  28
ENDBRANCH  23  24
ENDBRANCH   1  23
TORSDOF 15
ENDMDL
MODEL 3
REMARK VINA RESULT:     -11.9      5.071     10.741
REMARK SMILES C[C@H]1CCC[C@]1(C(=O)NCCCCNC(=O)c1ccc(-c2c3nc(c(-c4c(F)cc(S(=O)(=O)[O-])cc4F)c4ccc([nH]4)c(-c4c(F)cc(S(=O)(=O)[O-])cc4F)c4nc(c(-c5c(F)cc(S(=O)(=O)[O-])cc5F)c5ccc2[nH]5)C=C4)C=C3)cc1)c1ccc2c(c1)OCO2
REMARK SMILES IDX 12 1 11 2 10 3 9 4 7 5 8 6 6 8 1 9 2 10 3 11 4 12 5 13 83 14
REMARK SMILES IDX 84 15 88 16 85 17 87 18 86 19 89 20 91 21 90 22 13 23 14 24
REMARK SMILES IDX 15 25 16 27 17 28 18 29 82 30 19 31 81 32 20 33 21 34 22 35
REMARK SMILES IDX 75 36 23 37 80 38 74 39 76 40 24 41 79 42 73 43 72 44 25 46
REMARK SMILES IDX 59 47 38 48 58 49 39 50 42 51 57 52 77 53 40 54 41 55 56 57
REMARK SMILES IDX 78 58 43 59 26 60 27 61 36 62 28 63 29 64 35 65 37 66 30 67
REMARK SMILES IDX 31 68 32 69 33 70 34 71 60 72 61 73 70 74 62 75 63 76 69 77
REMARK SMILES IDX 71 78 64 79 65 80 66 81 67 82 68 83 44 84 45 85 54 86 46 87
REMARK SMILES IDX 47 88 53 89 55 90 48 91 49 92 50 93 51 94 52 95
REMARK H PARENT 9 7 14 26 76 45 42 56
REMARK Flexibility Score: inf
ROOT
ATOM      1  C   UNL A   1      37.250  23.238  25.774  1.00  0.00     0.023 C 
ENDROOT
BRANCH   1   2
ATOM      2  C   UNL A   1      36.371  23.628  24.591  1.00  0.00     0.023 C 
BRANCH   2   3
ATOM      3  C   UNL A   1      35.138  24.453  24.945  1.00  0.00     0.116 C 
BRANCH   3   4
ATOM      4  N   UNL A   1      33.945  24.048  24.226  1.00  0.00    -0.355 N 
ATOM      5  C   UNL A   1      32.868  24.721  23.721  1.00  0.00     0.230 C 
ATOM      6  O   UNL A   1      32.225  24.058  22.898  1.00  0.00    -0.274 OA
ATOM      7  H   UNL A   1      33.902  23.078  24.066  1.00  0.00     0.163 HD
BRANCH   5   8
ATOM      8  C   UNL A   1      32.467  26.191  24.117  1.00  0.00     0.077 C 
ATOM      9  C   UNL A   1      31.876  25.240  26.501  1.00  0.00     0.009 C 
ATOM     10  C   UNL A   1      32.314  26.434  25.662  1.00  0.00     0.006 C 
ATOM     11  C   UNL A   1      33.581  27.136  26.127  1.00  0.00     0.005 C 
ATOM     12  C   UNL A   1      34.029  27.945  24.914  1.00  0.00     0.002 C 
ATOM     13  C   UNL A   1      33.609  27.152  23.673  1.00  0.00     0.022 C 
BRANCH   8  14
ATOM     14  C   UNL A   1      31.075  26.673  23.564  1.00  0.00    -0.028 A 
ATOM     15  C   UNL A   1      29.848  26.284  24.161  1.00  0.00     0.009 A 
ATOM     16  C   UNL A   1      31.032  27.743  22.634  1.00  0.00     0.055 A 
ATOM     17  C   UNL A   1      28.638  26.936  23.875  1.00  0.00     0.051 A 
ATOM     18  C   UNL A   1      29.842  28.404  22.419  1.00  0.00     0.166 A 
ATOM     19  C   UNL A   1      28.678  28.019  23.031  1.00  0.00     0.165 A 
ATOM     20  O   UNL A   1      29.696  29.540  21.685  1.00  0.00    -0.454 OA
ATOM     21  O   UNL A   1      27.647  28.861  22.751  1.00  0.00    -0.454 OA
ATOM     22  C   UNL A   1      28.355  29.912  22.060  1.00  0.00     0.468 C 
ENDBRANCH   8  14
ENDBRANCH   5   8
ENDBRANCH   3   4
ENDBRANCH   2   3
ENDBRANCH   1   2
BRANCH   1  23
ATOM     23  C   UNL A   1      38.203  24.325  26.251  1.00  0.00     0.116 C 
BRANCH  23  24
ATOM     24  N   UNL A   1      39.611  23.972  26.126  1.00  0.00    -0.352 N 
ATOM     25  C   UNL A   1      40.690  24.580  26.731  1.00  0.00     0.251 C 
ATOM     26  H   UNL A   1      39.816  23.207  25.541  1.00  0.00     0.163 HD
ATOM     27  O   UNL A   1      41.830  24.228  26.479  1.00  0.00    -0.269 OA
BRANCH  25  28
ATOM     28  C   UNL A   1      40.423  25.702  27.652  1.00  0.00     0.039 A 
ATOM     29  C   UNL A   1      39.479  25.532  28.664  1.00  0.00     0.014 A 
ATOM     30  C   UNL A   1      41.188  26.868  27.572  1.00  0.00     0.014 A 
ATOM     31  C   UNL A   1      39.355  26.510  29.651  1.00  0.00     0.010 A 
ATOM     32  C   UNL A   1      41.118  27.801  28.597  1.00  0.00     0.010 A 
ATOM     33  C   UNL A   1      40.202  27.631  29.646  1.00  0.00    -0.014 A 
BRANCH  33  34
ATOM     34  C   UNL A   1      40.143  28.642  30.728  1.00  0.00     0.031 A 
ATOM     35  C   UNL A   1      41.037  28.500  31.929  1.00  0.00     0.074 A 
ATOM     36  C   UNL A   1      39.238  29.638  30.662  1.00  0.00     0.049 A 
ATOM     37  N   UNL A   1      41.091  29.237  33.008  1.00  0.00    -0.248 NA
ATOM     38  C   UNL A   1      41.967  27.360  31.933  1.00  0.00     0.031 C 
ATOM     39  C   UNL A   1      38.273  29.839  29.578  1.00  0.00     0.029 A 
ATOM     40  N   UNL A   1      38.978  30.669  31.530  1.00  0.00    -0.354 N 
ATOM     41  C   UNL A   1      42.045  28.639  33.823  1.00  0.00     0.074 A 
ATOM     42  C   UNL A   1      42.501  27.448  33.141  1.00  0.00     0.031 C 
ATOM     43  C   UNL A   1      37.544  30.938  29.834  1.00  0.00     0.029 A 
ATOM     44  C   UNL A   1      37.970  31.505  31.110  1.00  0.00     0.049 A 
ATOM     45  H   UNL A   1      39.468  30.798  32.375  1.00  0.00     0.167 HD
ATOM     46  C   UNL A   1      42.518  29.061  35.019  1.00  0.00     0.037 A 
ATOM     47  C   UNL A   1      37.453  32.605  31.688  1.00  0.00     0.037 A 
ATOM     48  C   UNL A   1      42.088  30.268  35.671  1.00  0.00     0.049 A 
ATOM     49  C   UNL A   1      38.023  33.076  32.999  1.00  0.00     0.074 A 
ATOM     50  C   UNL A   1      42.550  30.821  36.851  1.00  0.00     0.029 A 
ATOM     51  N   UNL A   1      41.097  31.114  35.192  1.00  0.00    -0.354 N 
ATOM     52  N   UNL A   1      38.972  32.536  33.725  1.00  0.00    -0.248 NA
ATOM     53  C   UNL A   1      37.459  34.310  33.564  1.00  0.00     0.031 C 
ATOM     54  C   UNL A   1      41.819  31.988  37.101  1.00  0.00     0.029 A 
ATOM     55  C   UNL A   1      40.926  32.181  36.058  1.00  0.00     0.049 A 
ATOM     56  H   UNL A   1      40.590  30.975  34.360  1.00  0.00     0.167 HD
ATOM     57  C   UNL A   1      39.138  33.377  34.819  1.00  0.00     0.074 A 
ATOM     58  C   UNL A   1      38.197  34.467  34.654  1.00  0.00     0.031 C 
ATOM     59  C   UNL A   1      39.990  33.259  35.867  1.00  0.00     0.037 A 
BRANCH  46  60
ATOM     60  C   UNL A   1      43.566  28.215  35.685  1.00  0.00     0.058 A 
ATOM     61  C   UNL A   1      44.933  28.386  35.407  1.00  0.00     0.135 A 
ATOM     62  C   UNL A   1      43.206  27.230  36.618  1.00  0.00     0.135 A 
ATOM     63  F   UNL A   1      45.330  29.300  34.507  1.00  0.00    -0.206 F 
ATOM     64  C   UNL A   1      45.902  27.591  36.007  1.00  0.00     0.059 A 
ATOM     65  C   UNL A   1      44.162  26.441  37.251  1.00  0.00     0.059 A 
ATOM     66  F   UNL A   1      41.915  27.023  36.918  1.00  0.00    -0.206 F 
ATOM     67  C   UNL A   1      45.506  26.617  36.925  1.00  0.00     0.060 A 
BRANCH  67  68
ATOM     68  S   UNL A   1      46.776  25.591  37.695  1.00  0.00     0.124 S 
ATOM     69  O   UNL A   1      46.521  24.297  37.068  1.00  0.00    -0.237 OA
ATOM     70  O   UNL A   1      48.008  26.258  37.289  1.00  0.00    -0.237 OA
ATOM     71  O   UNL A   1      46.462  25.672  39.117  1.00  0.00    -0.744 OA
ENDBRANCH  67  68
ENDBRANCH  46  60
BRANCH  47  72
ATOM     72  C   UNL A   1      36.363  33.360  31.013  1.00  0.00     0.058 A 
ATOM     73  C   UNL A   1      35.055  33.338  31.520  1.00  0.00     0.135 A 
ATOM     74  C   UNL A   1      36.608  34.126  29.864  1.00  0.00     0.135 A 
ATOM     75  F   UNL A   1      34.772  32.617  32.615  1.00  0.00    -0.206 F 
ATOM     76  C   UNL A   1      34.023  34.037  30.902  1.00  0.00     0.059 A 
ATOM     77  C   UNL A   1      35.597  34.851  29.240  1.00  0.00     0.059 A 
ATOM     78  F   UNL A   1      37.847  34.194  29.352  1.00  0.00    -0.206 F 
ATOM     79  C   UNL A   1      34.304  34.791  29.761  1.00  0.00     0.060 A 
BRANCH  79  80
ATOM     80  S   UNL A   1      32.969  35.735  28.995  1.00  0.00     0.124 S 
ATOM     81  O   UNL A   1      32.153  36.081  30.152  1.00  0.00    -0.237 OA
ATOM     82  O   UNL A   1      33.691  36.839  28.369  1.00  0.00    -0.237 OA
ATOM     83  O   UNL A   1      32.376  34.779  28.065  1.00  0.00    -0.744 OA
ENDBRANCH  79  80
ENDBRANCH  47  72
BRANCH  59  84
ATOM     84  C   UNL A   1      39.967  34.350  36.899  1.00  0.00     0.058 A 
ATOM     85  C   UNL A   1      40.809  35.468  36.804  1.00  0.00     0.135 A 
ATOM     86  C   UNL A   1      39.056  34.300  37.965  1.00  0.00     0.135 A 
ATOM     87  F   UNL A   1      41.701  35.559  35.805  1.00  0.00    -0.206 F 
ATOM     88  C   UNL A   1      40.763  36.491  37.743  1.00  0.00     0.059 A 
ATOM     89  C   UNL A   1      38.976  35.324  38.903  1.00  0.00     0.059 A 
ATOM     90  F   UNL A   1      38.222  33.256  38.094  1.00  0.00    -0.206 F 
ATOM     91  C   UNL A   1      39.843  36.410  38.790  1.00  0.00     0.060 A 
BRANCH  91  92
ATOM     92  S   UNL A   1      39.768  37.760  39.986  1.00  0.00     0.124 S 
ATOM     93  O   UNL A   1      40.993  38.490  39.681  1.00  0.00    -0.237 OA
ATOM     94  O   UNL A   1      38.523  38.432  39.626  1.00  0.00    -0.237 OA
ATOM     95  O   UNL A   1      39.751  37.071  41.274  1.00  0.00    -0.744 OA
ENDBRANCH  91  92
ENDBRANCH  59  84
ENDBRANCH  33  34
ENDBRANCH  25  28
ENDBRANCH  23  24
ENDBRANCH   1  23
TORSDOF 15
ENDMDL
