MODEL 1
REMARK VINA RESULT:     -10.7      0.000      0.000
REMARK SMILES COC(=O)[C@@H](CC(=O)NCCCCNC(=O)c1ccc(-c2c3nc(c(-c4c(F)cc(S(=O)(=O)[O-])cc4F)c4ccc([nH]4)c(-c4c(F)cc(S(=O)(=O)[O-])cc4F)c4nc(c(-c5c(F)cc(S(=O)(=O)[O-])cc5F)c5ccc2[nH]5)C=C4)C=C3)cc1)C1CCCCC1
REMARK SMILES IDX 11 1 10 2 9 3 7 4 8 5 6 7 5 8 3 9 4 10 2 11 1 12 83 13 84 14
REMARK SMILES IDX 88 15 85 16 87 17 86 18 12 19 13 20 14 21 15 22 16 24 17 25
REMARK SMILES IDX 18 26 82 27 19 28 81 29 20 30 21 31 22 32 75 33 23 34 80 35
REMARK SMILES IDX 74 36 76 37 24 38 79 39 73 40 72 41 25 43 59 44 38 45 58 46
REMARK SMILES IDX 39 47 42 48 57 49 77 50 40 51 41 52 56 54 78 55 43 56 26 57
REMARK SMILES IDX 27 58 36 59 28 60 29 61 35 62 37 63 30 64 31 65 32 66 33 67
REMARK SMILES IDX 34 68 60 69 61 70 70 71 62 72 63 73 69 74 71 75 64 76 65 77
REMARK SMILES IDX 66 78 67 79 68 80 44 81 45 82 54 83 46 84 47 85 53 86 55 87
REMARK SMILES IDX 48 88 49 89 50 90 51 91 52 92
REMARK H PARENT 9 6 14 23 76 42 42 53
REMARK Flexibility Score: inf
ROOT
ATOM      1  C   UNL A   1      36.027  22.779  25.695  1.00  0.00     0.023 C 
ENDROOT
BRANCH   1   2
ATOM      2  C   UNL A   1      35.151  22.143  24.623  1.00  0.00     0.116 C 
BRANCH   2   3
ATOM      3  N   UNL A   1      33.994  21.496  25.202  1.00  0.00    -0.356 N 
ATOM      4  C   UNL A   1      32.781  21.251  24.647  1.00  0.00     0.220 C 
ATOM      5  O   UNL A   1      32.006  20.515  25.265  1.00  0.00    -0.275 OA
ATOM      6  H   UNL A   1      34.103  21.192  26.131  1.00  0.00     0.163 HD
BRANCH   4   7
ATOM      7  C   UNL A   1      32.397  21.802  23.287  1.00  0.00     0.115 C 
BRANCH   7   8
ATOM      8  C   UNL A   1      31.935  23.268  23.112  1.00  0.00     0.111 C 
BRANCH   8   9
ATOM      9  C   UNL A   1      32.911  24.049  22.221  1.00  0.00     0.309 C 
ATOM     10  O   UNL A   1      34.030  23.638  21.932  1.00  0.00    -0.252 OA
BRANCH   9  11
ATOM     11  O   UNL A   1      32.389  25.216  21.763  1.00  0.00    -0.469 OA
ATOM     12  C   UNL A   1      33.234  26.375  21.770  1.00  0.00     0.282 C 
ENDBRANCH   9  11
ENDBRANCH   8   9
BRANCH   8  13
ATOM     13  C   UNL A   1      31.373  24.077  24.338  1.00  0.00     0.004 C 
ATOM     14  C   UNL A   1      32.560  24.799  25.028  1.00  0.00     0.004 C 
ATOM     15  C   UNL A   1      30.246  25.078  24.050  1.00  0.00     0.004 C 
ATOM     16  C   UNL A   1      32.149  25.643  26.230  1.00  0.00     0.000 C 
ATOM     17  C   UNL A   1      29.859  25.916  25.269  1.00  0.00     0.000 C 
ATOM     18  C   UNL A   1      31.058  26.638  25.861  1.00  0.00     0.000 C 
ENDBRANCH   8  13
ENDBRANCH   7   8
ENDBRANCH   4   7
ENDBRANCH   2   3
ENDBRANCH   1   2
BRANCH   1  19
ATOM     19  C   UNL A   1      37.465  23.061  25.279  1.00  0.00     0.023 C 
BRANCH  19  20
ATOM     20  C   UNL A   1      38.275  23.897  26.262  1.00  0.00     0.116 C 
BRANCH  20  21
ATOM     21  N   UNL A   1      39.704  23.610  26.256  1.00  0.00    -0.352 N 
ATOM     22  C   UNL A   1      40.739  24.319  26.833  1.00  0.00     0.251 C 
ATOM     23  H   UNL A   1      39.969  22.794  25.772  1.00  0.00     0.163 HD
ATOM     24  O   UNL A   1      41.895  23.970  26.669  1.00  0.00    -0.269 OA
BRANCH  22  25
ATOM     25  C   UNL A   1      40.422  25.541  27.606  1.00  0.00     0.039 A 
ATOM     26  C   UNL A   1      39.467  25.466  28.621  1.00  0.00     0.014 A 
ATOM     27  C   UNL A   1      41.135  26.722  27.390  1.00  0.00     0.014 A 
ATOM     28  C   UNL A   1      39.322  26.534  29.508  1.00  0.00     0.010 A 
ATOM     29  C   UNL A   1      41.051  27.749  28.323  1.00  0.00     0.010 A 
ATOM     30  C   UNL A   1      40.166  27.651  29.409  1.00  0.00    -0.014 A 
BRANCH  30  31
ATOM     31  C   UNL A   1      40.209  28.696  30.464  1.00  0.00     0.031 A 
ATOM     32  C   UNL A   1      41.135  28.549  31.637  1.00  0.00     0.074 A 
ATOM     33  C   UNL A   1      39.320  29.710  30.425  1.00  0.00     0.049 A 
ATOM     34  N   UNL A   1      41.196  29.260  32.733  1.00  0.00    -0.248 NA
ATOM     35  C   UNL A   1      42.091  27.433  31.590  1.00  0.00     0.031 C 
ATOM     36  C   UNL A   1      38.322  29.926  29.372  1.00  0.00     0.029 A 
ATOM     37  N   UNL A   1      39.094  30.737  31.306  1.00  0.00    -0.354 N 
ATOM     38  C   UNL A   1      42.172  28.660  33.519  1.00  0.00     0.074 A 
ATOM     39  C   UNL A   1      42.651  27.505  32.790  1.00  0.00     0.031 C 
ATOM     40  C   UNL A   1      37.607  31.025  29.659  1.00  0.00     0.029 A 
ATOM     41  C   UNL A   1      38.061  31.567  30.935  1.00  0.00     0.049 A 
ATOM     42  H   UNL A   1      39.621  30.869  32.127  1.00  0.00     0.167 HD
ATOM     43  C   UNL A   1      42.636  29.046  34.730  1.00  0.00     0.037 A 
ATOM     44  C   UNL A   1      37.527  32.634  31.558  1.00  0.00     0.037 A 
ATOM     45  C   UNL A   1      42.192  30.222  35.430  1.00  0.00     0.049 A 
ATOM     46  C   UNL A   1      38.080  33.061  32.888  1.00  0.00     0.074 A 
ATOM     47  C   UNL A   1      42.667  30.749  36.618  1.00  0.00     0.029 A 
ATOM     48  N   UNL A   1      41.169  31.056  35.003  1.00  0.00    -0.354 N 
ATOM     49  N   UNL A   1      39.044  32.514  33.590  1.00  0.00    -0.248 NA
ATOM     50  C   UNL A   1      37.471  34.242  33.514  1.00  0.00     0.031 C 
ATOM     51  C   UNL A   1      41.914  31.888  36.922  1.00  0.00     0.029 A 
ATOM     52  C   UNL A   1      40.988  32.085  35.912  1.00  0.00     0.049 A 
ATOM     53  H   UNL A   1      40.650  30.935  34.175  1.00  0.00     0.167 HD
ATOM     54  C   UNL A   1      39.162  33.288  34.737  1.00  0.00     0.074 A 
ATOM     55  C   UNL A   1      38.184  34.351  34.628  1.00  0.00     0.031 C 
ATOM     56  C   UNL A   1      40.003  33.130  35.788  1.00  0.00     0.037 A 
BRANCH  43  57
ATOM     57  C   UNL A   1      43.693  28.191  35.369  1.00  0.00     0.058 A 
ATOM     58  C   UNL A   1      45.056  28.387  35.100  1.00  0.00     0.135 A 
ATOM     59  C   UNL A   1      43.341  27.174  36.271  1.00  0.00     0.135 A 
ATOM     60  F   UNL A   1      45.444  29.335  34.233  1.00  0.00    -0.206 F 
ATOM     61  C   UNL A   1      46.034  27.586  35.679  1.00  0.00     0.059 A 
ATOM     62  C   UNL A   1      44.304  26.374  36.879  1.00  0.00     0.059 A 
ATOM     63  F   UNL A   1      42.050  26.944  36.560  1.00  0.00    -0.206 F 
ATOM     64  C   UNL A   1      45.647  26.577  36.563  1.00  0.00     0.060 A 
BRANCH  64  65
ATOM     65  S   UNL A   1      46.924  25.537  37.303  1.00  0.00     0.124 S 
ATOM     66  O   UNL A   1      46.133  24.406  37.779  1.00  0.00    -0.237 OA
ATOM     67  O   UNL A   1      47.803  25.262  36.171  1.00  0.00    -0.237 OA
ATOM     68  O   UNL A   1      47.494  26.388  38.341  1.00  0.00    -0.744 OA
ENDBRANCH  64  65
ENDBRANCH  43  57
BRANCH  44  69
ATOM     69  C   UNL A   1      36.410  33.380  30.923  1.00  0.00     0.058 A 
ATOM     70  C   UNL A   1      36.641  34.201  29.810  1.00  0.00     0.135 A 
ATOM     71  C   UNL A   1      35.094  33.267  31.395  1.00  0.00     0.135 A 
ATOM     72  F   UNL A   1      37.885  34.343  29.329  1.00  0.00    -0.206 F 
ATOM     73  C   UNL A   1      35.606  34.892  29.189  1.00  0.00     0.059 A 
ATOM     74  C   UNL A   1      34.039  33.934  30.779  1.00  0.00     0.059 A 
ATOM     75  F   UNL A   1      34.821  32.479  32.447  1.00  0.00    -0.206 F 
ATOM     76  C   UNL A   1      34.307  34.750  29.681  1.00  0.00     0.060 A 
BRANCH  76  77
ATOM     77  S   UNL A   1      32.959  35.599  28.830  1.00  0.00     0.124 S 
ATOM     78  O   UNL A   1      33.685  36.595  28.050  1.00  0.00    -0.237 OA
ATOM     79  O   UNL A   1      32.342  34.518  28.068  1.00  0.00    -0.237 OA
ATOM     80  O   UNL A   1      32.149  36.120  29.927  1.00  0.00    -0.744 OA
ENDBRANCH  76  77
ENDBRANCH  44  69
BRANCH  56  81
ATOM     81  C   UNL A   1      39.904  34.132  36.901  1.00  0.00     0.058 A 
ATOM     82  C   UNL A   1      40.546  35.377  36.819  1.00  0.00     0.135 A 
ATOM     83  C   UNL A   1      39.117  33.867  38.032  1.00  0.00     0.135 A 
ATOM     84  F   UNL A   1      41.317  35.671  35.760  1.00  0.00    -0.206 F 
ATOM     85  C   UNL A   1      40.422  36.323  37.830  1.00  0.00     0.059 A 
ATOM     86  C   UNL A   1      38.964  34.807  39.047  1.00  0.00     0.059 A 
ATOM     87  F   UNL A   1      38.479  32.693  38.151  1.00  0.00    -0.206 F 
ATOM     88  C   UNL A   1      39.628  36.029  38.940  1.00  0.00     0.060 A 
BRANCH  88  89
ATOM     89  S   UNL A   1      39.436  37.280  40.228  1.00  0.00     0.124 S 
ATOM     90  O   UNL A   1      38.633  38.285  39.541  1.00  0.00    -0.237 OA
ATOM     91  O   UNL A   1      38.756  36.541  41.288  1.00  0.00    -0.237 OA
ATOM     92  O   UNL A   1      40.810  37.669  40.528  1.00  0.00    -0.744 OA
ENDBRANCH  88  89
ENDBRANCH  56  81
ENDBRANCH  30  31
ENDBRANCH  22  25
ENDBRANCH  20  21
ENDBRANCH  19  20
ENDBRANCH   1  19
TORSDOF 18
ENDMDL
MODEL 2
REMARK VINA RESULT:     -10.5      1.167      2.110
REMARK SMILES COC(=O)[C@@H](CC(=O)NCCCCNC(=O)c1ccc(-c2c3nc(c(-c4c(F)cc(S(=O)(=O)[O-])cc4F)c4ccc([nH]4)c(-c4c(F)cc(S(=O)(=O)[O-])cc4F)c4nc(c(-c5c(F)cc(S(=O)(=O)[O-])cc5F)c5ccc2[nH]5)C=C4)C=C3)cc1)C1CCCCC1
REMARK SMILES IDX 11 1 10 2 9 3 7 4 8 5 6 7 5 8 3 9 4 10 2 11 1 12 83 13 84 14
REMARK SMILES IDX 88 15 85 16 87 17 86 18 12 19 13 20 14 21 15 22 16 24 17 25
REMARK SMILES IDX 18 26 82 27 19 28 81 29 20 30 21 31 22 32 75 33 23 34 80 35
REMARK SMILES IDX 74 36 76 37 24 38 79 39 73 40 72 41 25 43 59 44 38 45 58 46
REMARK SMILES IDX 39 47 42 48 57 49 77 50 40 51 41 52 56 54 78 55 43 56 26 57
REMARK SMILES IDX 27 58 36 59 28 60 29 61 35 62 37 63 30 64 31 65 32 66 33 67
REMARK SMILES IDX 34 68 60 69 61 70 70 71 62 72 63 73 69 74 71 75 64 76 65 77
REMARK SMILES IDX 66 78 67 79 68 80 44 81 45 82 54 83 46 84 47 85 53 86 55 87
REMARK SMILES IDX 48 88 49 89 50 90 51 91 52 92
REMARK H PARENT 9 6 14 23 76 42 42 53
REMARK Flexibility Score: inf
ROOT
ATOM      1  C   UNL A   1      36.047  23.215  25.472  1.00  0.00     0.023 C 
ENDROOT
BRANCH   1   2
ATOM      2  C   UNL A   1      35.259  23.149  24.169  1.00  0.00     0.116 C 
BRANCH   2   3
ATOM      3  N   UNL A   1      33.867  22.837  24.410  1.00  0.00    -0.356 N 
ATOM      4  C   UNL A   1      32.913  23.587  25.018  1.00  0.00     0.220 C 
ATOM      5  O   UNL A   1      31.744  23.197  24.944  1.00  0.00    -0.275 OA
ATOM      6  H   UNL A   1      33.570  21.957  24.086  1.00  0.00     0.163 HD
BRANCH   4   7
ATOM      7  C   UNL A   1      33.246  24.892  25.717  1.00  0.00     0.115 C 
BRANCH   7   8
ATOM      8  C   UNL A   1      32.322  26.127  25.598  1.00  0.00     0.111 C 
BRANCH   8   9
ATOM      9  C   UNL A   1      31.994  26.429  24.129  1.00  0.00     0.309 C 
ATOM     10  O   UNL A   1      30.847  26.495  23.699  1.00  0.00    -0.252 OA
BRANCH   9  11
ATOM     11  O   UNL A   1      33.102  26.648  23.375  1.00  0.00    -0.469 OA
ATOM     12  C   UNL A   1      33.088  26.189  22.016  1.00  0.00     0.282 C 
ENDBRANCH   9  11
ENDBRANCH   8   9
BRANCH   8  13
ATOM     13  C   UNL A   1      32.574  27.398  26.490  1.00  0.00     0.004 C 
ATOM     14  C   UNL A   1      34.087  27.735  26.438  1.00  0.00     0.004 C 
ATOM     15  C   UNL A   1      31.746  28.649  26.164  1.00  0.00     0.004 C 
ATOM     16  C   UNL A   1      34.469  28.968  27.250  1.00  0.00     0.000 C 
ATOM     17  C   UNL A   1      32.154  29.872  26.986  1.00  0.00     0.000 C 
ATOM     18  C   UNL A   1      33.636  30.177  26.846  1.00  0.00     0.000 C 
ENDBRANCH   8  13
ENDBRANCH   7   8
ENDBRANCH   4   7
ENDBRANCH   2   3
ENDBRANCH   1   2
BRANCH   1  19
ATOM     19  C   UNL A   1      37.541  22.946  25.344  1.00  0.00     0.023 C 
BRANCH  19  20
ATOM     20  C   UNL A   1      38.419  23.658  26.366  1.00  0.00     0.116 C 
BRANCH  20  21
ATOM     21  N   UNL A   1      39.850  23.527  26.119  1.00  0.00    -0.352 N 
ATOM     22  C   UNL A   1      40.880  24.370  26.486  1.00  0.00     0.251 C 
ATOM     23  H   UNL A   1      40.120  22.723  25.618  1.00  0.00     0.163 HD
ATOM     24  O   UNL A   1      42.023  24.141  26.132  1.00  0.00    -0.269 OA
BRANCH  22  25
ATOM     25  C   UNL A   1      40.561  25.586  27.268  1.00  0.00     0.039 A 
ATOM     26  C   UNL A   1      39.677  25.481  28.343  1.00  0.00     0.014 A 
ATOM     27  C   UNL A   1      41.208  26.794  26.998  1.00  0.00     0.014 A 
ATOM     28  C   UNL A   1      39.544  26.552  29.229  1.00  0.00     0.010 A 
ATOM     29  C   UNL A   1      41.140  27.826  27.926  1.00  0.00     0.010 A 
ATOM     30  C   UNL A   1      40.332  27.702  29.067  1.00  0.00    -0.014 A 
BRANCH  30  31
ATOM     31  C   UNL A   1      40.397  28.759  30.109  1.00  0.00     0.031 A 
ATOM     32  C   UNL A   1      41.373  28.642  31.245  1.00  0.00     0.074 A 
ATOM     33  C   UNL A   1      39.487  29.755  30.098  1.00  0.00     0.049 A 
ATOM     34  N   UNL A   1      41.465  29.366  32.330  1.00  0.00    -0.248 NA
ATOM     35  C   UNL A   1      42.349  27.544  31.168  1.00  0.00     0.031 C 
ATOM     36  C   UNL A   1      38.443  29.940  29.085  1.00  0.00     0.029 A 
ATOM     37  N   UNL A   1      39.277  30.787  30.977  1.00  0.00    -0.354 N 
ATOM     38  C   UNL A   1      42.485  28.793  33.080  1.00  0.00     0.074 A 
ATOM     39  C   UNL A   1      42.956  27.640  32.343  1.00  0.00     0.031 C 
ATOM     40  C   UNL A   1      37.718  31.029  29.391  1.00  0.00     0.029 A 
ATOM     41  C   UNL A   1      38.214  31.593  30.641  1.00  0.00     0.049 A 
ATOM     42  H   UNL A   1      39.835  30.938  31.774  1.00  0.00     0.167 HD
ATOM     43  C   UNL A   1      42.991  29.201  34.268  1.00  0.00     0.037 A 
ATOM     44  C   UNL A   1      37.685  32.656  31.275  1.00  0.00     0.037 A 
ATOM     45  C   UNL A   1      42.552  30.375  34.973  1.00  0.00     0.049 A 
ATOM     46  C   UNL A   1      38.284  33.108  32.577  1.00  0.00     0.074 A 
ATOM     47  C   UNL A   1      43.066  30.925  36.135  1.00  0.00     0.029 A 
ATOM     48  N   UNL A   1      41.496  31.185  34.581  1.00  0.00    -0.354 N 
ATOM     49  N   UNL A   1      39.287  32.586  33.243  1.00  0.00    -0.248 NA
ATOM     50  C   UNL A   1      37.678  34.283  33.216  1.00  0.00     0.031 C 
ATOM     51  C   UNL A   1      42.304  32.052  36.460  1.00  0.00     0.029 A 
ATOM     52  C   UNL A   1      41.333  32.220  35.486  1.00  0.00     0.049 A 
ATOM     53  H   UNL A   1      40.946  31.045  33.777  1.00  0.00     0.167 HD
ATOM     54  C   UNL A   1      39.436  33.375  34.377  1.00  0.00     0.074 A 
ATOM     55  C   UNL A   1      38.434  34.417  34.298  1.00  0.00     0.031 C 
ATOM     56  C   UNL A   1      40.324  33.245  35.393  1.00  0.00     0.037 A 
BRANCH  43  57
ATOM     57  C   UNL A   1      44.090  28.373  34.870  1.00  0.00     0.058 A 
ATOM     58  C   UNL A   1      43.812  27.312  35.746  1.00  0.00     0.135 A 
ATOM     59  C   UNL A   1      45.433  28.633  34.558  1.00  0.00     0.135 A 
ATOM     60  F   UNL A   1      42.544  27.034  36.090  1.00  0.00    -0.206 F 
ATOM     61  C   UNL A   1      44.830  26.555  36.317  1.00  0.00     0.059 A 
ATOM     62  C   UNL A   1      46.467  27.874  35.100  1.00  0.00     0.059 A 
ATOM     63  F   UNL A   1      45.753  29.638  33.727  1.00  0.00    -0.206 F 
ATOM     64  C   UNL A   1      46.155  26.848  35.992  1.00  0.00     0.060 A 
BRANCH  64  65
ATOM     65  S   UNL A   1      47.468  25.865  36.744  1.00  0.00     0.124 S 
ATOM     66  O   UNL A   1      47.375  26.281  38.140  1.00  0.00    -0.237 OA
ATOM     67  O   UNL A   1      47.041  24.498  36.463  1.00  0.00    -0.237 OA
ATOM     68  O   UNL A   1      48.666  26.300  36.036  1.00  0.00    -0.744 OA
ENDBRANCH  64  65
ENDBRANCH  43  57
BRANCH  44  69
ATOM     69  C   UNL A   1      36.528  33.373  30.680  1.00  0.00     0.058 A 
ATOM     70  C   UNL A   1      35.241  33.221  31.215  1.00  0.00     0.135 A 
ATOM     71  C   UNL A   1      36.688  34.240  29.589  1.00  0.00     0.135 A 
ATOM     72  F   UNL A   1      35.041  32.397  32.255  1.00  0.00    -0.206 F 
ATOM     73  C   UNL A   1      34.148  33.899  30.685  1.00  0.00     0.059 A 
ATOM     74  C   UNL A   1      35.613  34.943  29.053  1.00  0.00     0.059 A 
ATOM     75  F   UNL A   1      37.904  34.431  29.054  1.00  0.00    -0.206 F 
ATOM     76  C   UNL A   1      34.345  34.759  29.604  1.00  0.00     0.060 A 
BRANCH  76  77
ATOM     77  S   UNL A   1      32.933  35.685  28.962  1.00  0.00     0.124 S 
ATOM     78  O   UNL A   1      32.347  34.722  28.038  1.00  0.00    -0.237 OA
ATOM     79  O   UNL A   1      32.165  35.959  30.172  1.00  0.00    -0.237 OA
ATOM     80  O   UNL A   1      33.555  36.855  28.348  1.00  0.00    -0.744 OA
ENDBRANCH  76  77
ENDBRANCH  44  69
BRANCH  56  81
ATOM     81  C   UNL A   1      40.250  34.256  36.499  1.00  0.00     0.058 A 
ATOM     82  C   UNL A   1      41.024  35.426  36.469  1.00  0.00     0.135 A 
ATOM     83  C   UNL A   1      39.361  34.080  37.571  1.00  0.00     0.135 A 
ATOM     84  F   UNL A   1      41.896  35.633  35.468  1.00  0.00    -0.206 F 
ATOM     85  C   UNL A   1      40.928  36.384  37.471  1.00  0.00     0.059 A 
ATOM     86  C   UNL A   1      39.234  35.035  38.575  1.00  0.00     0.059 A 
ATOM     87  F   UNL A   1      38.595  32.980  37.639  1.00  0.00    -0.206 F 
ATOM     88  C   UNL A   1      40.029  36.180  38.520  1.00  0.00     0.060 A 
BRANCH  88  89
ATOM     89  S   UNL A   1      39.878  37.450  39.795  1.00  0.00     0.124 S 
ATOM     90  O   UNL A   1      41.071  38.253  39.550  1.00  0.00    -0.237 OA
ATOM     91  O   UNL A   1      38.607  38.085  39.459  1.00  0.00    -0.237 OA
ATOM     92  O   UNL A   1      39.879  36.683  41.037  1.00  0.00    -0.744 OA
ENDBRANCH  88  89
ENDBRANCH  56  81
ENDBRANCH  30  31
ENDBRANCH  22  25
ENDBRANCH  20  21
ENDBRANCH  19  20
ENDBRANCH   1  19
TORSDOF 18
ENDMDL
MODEL 3
REMARK VINA RESULT:     -10.4      2.545      8.476
REMARK SMILES COC(=O)[C@@H](CC(=O)NCCCCNC(=O)c1ccc(-c2c3nc(c(-c4c(F)cc(S(=O)(=O)[O-])cc4F)c4ccc([nH]4)c(-c4c(F)cc(S(=O)(=O)[O-])cc4F)c4nc(c(-c5c(F)cc(S(=O)(=O)[O-])cc5F)c5ccc2[nH]5)C=C4)C=C3)cc1)C1CCCCC1
REMARK SMILES IDX 11 1 10 2 9 3 7 4 8 5 6 7 5 8 3 9 4 10 2 11 1 12 83 13 84 14
REMARK SMILES IDX 88 15 85 16 87 17 86 18 12 19 13 20 14 21 15 22 16 24 17 25
REMARK SMILES IDX 18 26 82 27 19 28 81 29 20 30 21 31 22 32 75 33 23 34 80 35
REMARK SMILES IDX 74 36 76 37 24 38 79 39 73 40 72 41 25 43 59 44 38 45 58 46
REMARK SMILES IDX 39 47 42 48 57 49 77 50 40 51 41 52 56 54 78 55 43 56 26 57
REMARK SMILES IDX 27 58 36 59 28 60 29 61 35 62 37 63 30 64 31 65 32 66 33 67
REMARK SMILES IDX 34 68 60 69 61 70 70 71 62 72 63 73 69 74 71 75 64 76 65 77
REMARK SMILES IDX 66 78 67 79 68 80 44 81 45 82 54 83 46 84 47 85 53 86 55 87
REMARK SMILES IDX 48 88 49 89 50 90 51 91 52 92
REMARK H PARENT 9 6 14 23 76 42 42 53
REMARK Flexibility Score: inf
ROOT
ATOM      1  C   UNL A   1      34.961  30.251  28.013  1.00  0.00     0.023 C 
ENDROOT
BRANCH   1   2
ATOM      2  C   UNL A   1      34.744  28.988  27.188  1.00  0.00     0.116 C 
BRANCH   2   3
ATOM      3  N   UNL A   1      34.287  29.303  25.853  1.00  0.00    -0.356 N 
ATOM      4  C   UNL A   1      33.687  28.499  24.940  1.00  0.00     0.220 C 
ATOM      5  O   UNL A   1      33.211  29.030  23.932  1.00  0.00    -0.275 OA
ATOM      6  H   UNL A   1      34.433  30.233  25.565  1.00  0.00     0.163 HD
BRANCH   4   7
ATOM      7  C   UNL A   1      33.542  27.005  25.162  1.00  0.00     0.115 C 
BRANCH   7   8
ATOM      8  C   UNL A   1      34.205  25.980  24.211  1.00  0.00     0.111 C 
BRANCH   8   9
ATOM      9  C   UNL A   1      33.364  25.782  22.943  1.00  0.00     0.309 C 
ATOM     10  O   UNL A   1      33.790  26.009  21.815  1.00  0.00    -0.252 OA
BRANCH   9  11
ATOM     11  O   UNL A   1      32.123  25.298  23.203  1.00  0.00    -0.469 OA
ATOM     12  C   UNL A   1      30.998  26.066  22.756  1.00  0.00     0.282 C 
ENDBRANCH   9  11
ENDBRANCH   8   9
BRANCH   8  13
ATOM     13  C   UNL A   1      34.852  24.667  24.784  1.00  0.00     0.004 C 
ATOM     14  C   UNL A   1      33.910  24.098  25.878  1.00  0.00     0.004 C 
ATOM     15  C   UNL A   1      35.202  23.567  23.771  1.00  0.00     0.004 C 
ATOM     16  C   UNL A   1      34.411  22.803  26.507  1.00  0.00     0.000 C 
ATOM     17  C   UNL A   1      35.694  22.278  24.428  1.00  0.00     0.000 C 
ATOM     18  C   UNL A   1      34.699  21.749  25.448  1.00  0.00     0.000 C 
ENDBRANCH   8  13
ENDBRANCH   7   8
ENDBRANCH   4   7
ENDBRANCH   2   3
ENDBRANCH   1   2
BRANCH   1  19
ATOM     19  C   UNL A   1      33.805  31.243  28.002  1.00  0.00     0.023 C 
BRANCH  19  20
ATOM     20  C   UNL A   1      34.079  32.552  27.272  1.00  0.00     0.116 C 
BRANCH  20  21
ATOM     21  N   UNL A   1      33.225  33.658  27.687  1.00  0.00    -0.352 N 
ATOM     22  C   UNL A   1      33.345  34.492  28.781  1.00  0.00     0.251 C 
ATOM     23  H   UNL A   1      32.451  33.836  27.104  1.00  0.00     0.163 HD
ATOM     24  O   UNL A   1      32.493  35.329  29.019  1.00  0.00    -0.269 OA
BRANCH  22  25
ATOM     25  C   UNL A   1      34.500  34.310  29.691  1.00  0.00     0.039 A 
ATOM     26  C   UNL A   1      34.285  33.724  30.940  1.00  0.00     0.014 A 
ATOM     27  C   UNL A   1      35.792  34.627  29.270  1.00  0.00     0.014 A 
ATOM     28  C   UNL A   1      35.381  33.334  31.712  1.00  0.00     0.010 A 
ATOM     29  C   UNL A   1      36.880  34.162  29.999  1.00  0.00     0.010 A 
ATOM     30  C   UNL A   1      36.684  33.482  31.212  1.00  0.00    -0.014 A 
BRANCH  30  31
ATOM     31  C   UNL A   1      37.856  32.870  31.888  1.00  0.00     0.031 A 
ATOM     32  C   UNL A   1      38.533  31.670  31.290  1.00  0.00     0.074 A 
ATOM     33  C   UNL A   1      38.226  33.320  33.105  1.00  0.00     0.049 A 
ATOM     34  N   UNL A   1      39.454  30.899  31.809  1.00  0.00    -0.248 NA
ATOM     35  C   UNL A   1      38.089  31.259  29.949  1.00  0.00     0.031 C 
ATOM     36  C   UNL A   1      37.603  34.437  33.823  1.00  0.00     0.029 A 
ATOM     37  N   UNL A   1      39.200  32.880  33.965  1.00  0.00    -0.354 N 
ATOM     38  C   UNL A   1      39.676  29.896  30.874  1.00  0.00     0.074 A 
ATOM     39  C   UNL A   1      38.768  30.134  29.772  1.00  0.00     0.031 C 
ATOM     40  C   UNL A   1      38.223  34.604  35.003  1.00  0.00     0.029 A 
ATOM     41  C   UNL A   1      39.253  33.583  35.146  1.00  0.00     0.049 A 
ATOM     42  H   UNL A   1      39.804  32.131  33.757  1.00  0.00     0.167 HD
ATOM     43  C   UNL A   1      40.567  28.877  30.924  1.00  0.00     0.037 A 
ATOM     44  C   UNL A   1      40.032  33.414  36.232  1.00  0.00     0.037 A 
ATOM     45  C   UNL A   1      41.501  28.672  31.999  1.00  0.00     0.049 A 
ATOM     46  C   UNL A   1      41.034  32.295  36.251  1.00  0.00     0.074 A 
ATOM     47  C   UNL A   1      42.506  27.726  32.098  1.00  0.00     0.029 A 
ATOM     48  N   UNL A   1      41.547  29.428  33.161  1.00  0.00    -0.354 N 
ATOM     49  N   UNL A   1      41.270  31.390  35.331  1.00  0.00    -0.248 NA
ATOM     50  C   UNL A   1      41.869  32.170  37.453  1.00  0.00     0.031 C 
ATOM     51  C   UNL A   1      43.143  27.893  33.332  1.00  0.00     0.029 A 
ATOM     52  C   UNL A   1      42.553  28.959  33.990  1.00  0.00     0.049 A 
ATOM     53  H   UNL A   1      40.953  30.186  33.366  1.00  0.00     0.167 HD
ATOM     54  C   UNL A   1      42.285  30.590  35.841  1.00  0.00     0.074 A 
ATOM     55  C   UNL A   1      42.631  31.129  37.141  1.00  0.00     0.031 C 
ATOM     56  C   UNL A   1      42.876  29.506  35.283  1.00  0.00     0.037 A 
BRANCH  43  57
ATOM     57  C   UNL A   1      40.580  27.915  29.771  1.00  0.00     0.058 A 
ATOM     58  C   UNL A   1      41.543  28.003  28.753  1.00  0.00     0.135 A 
ATOM     59  C   UNL A   1      39.631  26.884  29.690  1.00  0.00     0.135 A 
ATOM     60  F   UNL A   1      42.462  28.981  28.776  1.00  0.00    -0.206 F 
ATOM     61  C   UNL A   1      41.546  27.122  27.677  1.00  0.00     0.059 A 
ATOM     62  C   UNL A   1      39.629  25.977  28.634  1.00  0.00     0.059 A 
ATOM     63  F   UNL A   1      38.688  26.757  30.637  1.00  0.00    -0.206 F 
ATOM     64  C   UNL A   1      40.580  26.115  27.624  1.00  0.00     0.060 A 
BRANCH  64  65
ATOM     65  S   UNL A   1      40.589  24.982  26.219  1.00  0.00     0.124 S 
ATOM     66  O   UNL A   1      41.486  23.935  26.700  1.00  0.00    -0.237 OA
ATOM     67  O   UNL A   1      39.183  24.606  26.106  1.00  0.00    -0.237 OA
ATOM     68  O   UNL A   1      41.104  25.800  25.127  1.00  0.00    -0.744 OA
ENDBRANCH  64  65
ENDBRANCH  43  57
BRANCH  44  69
ATOM     69  C   UNL A   1      39.900  34.338  37.388  1.00  0.00     0.058 A 
ATOM     70  C   UNL A   1      39.109  33.991  38.493  1.00  0.00     0.135 A 
ATOM     71  C   UNL A   1      40.578  35.565  37.425  1.00  0.00     0.135 A 
ATOM     72  F   UNL A   1      38.438  32.829  38.498  1.00  0.00    -0.206 F 
ATOM     73  C   UNL A   1      38.988  34.832  39.594  1.00  0.00     0.059 A 
ATOM     74  C   UNL A   1      40.487  36.415  38.522  1.00  0.00     0.059 A 
ATOM     75  F   UNL A   1      41.361  35.932  36.399  1.00  0.00    -0.206 F 
ATOM     76  C   UNL A   1      39.684  36.043  39.599  1.00  0.00     0.060 A 
BRANCH  76  77
ATOM     77  S   UNL A   1      39.573  37.101  41.059  1.00  0.00     0.124 S 
ATOM     78  O   UNL A   1      40.979  37.381  41.325  1.00  0.00    -0.237 OA
ATOM     79  O   UNL A   1      38.779  38.223  40.571  1.00  0.00    -0.237 OA
ATOM     80  O   UNL A   1      38.902  36.249  42.037  1.00  0.00    -0.744 OA
ENDBRANCH  76  77
ENDBRANCH  44  69
BRANCH  56  81
ATOM     81  C   UNL A   1      43.958  28.833  36.076  1.00  0.00     0.058 A 
ATOM     82  C   UNL A   1      45.276  29.316  36.065  1.00  0.00     0.135 A 
ATOM     83  C   UNL A   1      43.665  27.730  36.893  1.00  0.00     0.135 A 
ATOM     84  F   UNL A   1      45.605  30.362  35.292  1.00  0.00    -0.206 F 
ATOM     85  C   UNL A   1      46.271  28.719  36.830  1.00  0.00     0.059 A 
ATOM     86  C   UNL A   1      44.641  27.129  37.681  1.00  0.00     0.059 A 
ATOM     87  F   UNL A   1      42.417  27.237  36.940  1.00  0.00    -0.206 F 
ATOM     88  C   UNL A   1      45.944  27.626  37.636  1.00  0.00     0.060 A 
BRANCH  88  89
ATOM     89  S   UNL A   1      47.233  26.885  38.660  1.00  0.00     0.124 S 
ATOM     90  O   UNL A   1      46.441  26.132  39.627  1.00  0.00    -0.237 OA
ATOM     91  O   UNL A   1      47.983  26.086  37.695  1.00  0.00    -0.237 OA
ATOM     92  O   UNL A   1      47.946  28.041  39.194  1.00  0.00    -0.744 OA
ENDBRANCH  88  89
ENDBRANCH  56  81
ENDBRANCH  30  31
ENDBRANCH  22  25
ENDBRANCH  20  21
ENDBRANCH  19  20
ENDBRANCH   1  19
TORSDOF 18
ENDMDL
