MODEL 1
REMARK VINA RESULT:     -11.8      0.000      0.000
REMARK SMILES C[C@H](NC(=O)N1CC[C@H](C(=O)NCCCCNC(=O)c2ccc(-c3c4nc(c(-c5c(F)cc(S(=O)(=O)[O-])cc5F)c5ccc([nH]5)c(-c5c(F)cc(S(=O)(=O)[O-])cc5F)c5nc(c(-c6c(F)cc(S(=O)(=O)[O-])cc6F)c6ccc3[nH]6)C=C5)C=C4)cc2)[C@@H]1C)[C@@H]1CCCO1
REMARK SMILES IDX 14 1 13 2 12 3 10 4 11 5 9 7 6 8 7 9 86 10 8 11 87 12 4 13
REMARK SMILES IDX 3 14 5 16 2 17 1 18 88 19 89 20 92 21 90 22 91 23 15 24
REMARK SMILES IDX 16 25 17 26 18 27 19 29 20 30 21 31 85 32 22 33 84 34 23 35
REMARK SMILES IDX 24 36 25 37 78 38 26 39 83 40 77 41 79 42 27 43 82 44 76 45
REMARK SMILES IDX 75 46 28 48 62 49 41 50 61 51 42 52 45 53 60 54 80 55 43 56
REMARK SMILES IDX 44 57 59 59 81 60 46 61 29 62 30 63 39 64 31 65 32 66 38 67
REMARK SMILES IDX 40 68 33 69 34 70 35 71 36 72 37 73 63 74 64 75 73 76 65 77
REMARK SMILES IDX 66 78 72 79 74 80 67 81 68 82 69 83 70 84 71 85 47 86 48 87
REMARK SMILES IDX 57 88 49 89 50 90 56 91 58 92 51 93 52 94 53 95 54 96 55 97
REMARK H PARENT 12 6 3 15 17 28 79 47 45 58
REMARK Flexibility Score: inf
ROOT
ATOM      1  C   UNL A   1      38.192  21.935  25.523  1.00  0.00     0.023 C 
ENDROOT
BRANCH   1   2
ATOM      2  C   UNL A   1      37.018  21.837  24.558  1.00  0.00     0.116 C 
BRANCH   2   3
ATOM      3  N   UNL A   1      36.197  20.660  24.785  1.00  0.00    -0.356 N 
ATOM      4  C   UNL A   1      34.834  20.571  24.858  1.00  0.00     0.225 C 
ATOM      5  O   UNL A   1      34.338  19.458  24.992  1.00  0.00    -0.275 OA
ATOM      6  H   UNL A   1      36.687  19.815  24.903  1.00  0.00     0.163 HD
BRANCH   4   7
ATOM      7  C   UNL A   1      34.044  21.865  24.795  1.00  0.00     0.102 C 
ATOM      8  N   UNL A   1      32.213  22.886  25.906  1.00  0.00    -0.321 N 
ATOM      9  C   UNL A   1      31.630  21.916  25.013  1.00  0.00     0.122 C 
ATOM     10  C   UNL A   1      33.636  22.581  26.098  1.00  0.00     0.096 C 
ATOM     11  C   UNL A   1      32.734  21.698  24.000  1.00  0.00     0.037 C 
ATOM     12  C   UNL A   1      33.852  21.878  27.433  1.00  0.00     0.032 C 
BRANCH   8  13
ATOM     13  C   UNL A   1      31.421  23.789  26.539  1.00  0.00     0.317 C 
ATOM     14  N   UNL A   1      31.323  25.058  26.074  1.00  0.00    -0.333 N 
ATOM     15  H   UNL A   1      31.020  25.724  26.732  1.00  0.00     0.165 HD
ATOM     16  O   UNL A   1      30.685  23.477  27.477  1.00  0.00    -0.249 OA
BRANCH  14  17
ATOM     17  C   UNL A   1      31.602  25.584  24.737  1.00  0.00     0.109 C 
ATOM     18  C   UNL A   1      30.369  26.268  24.124  1.00  0.00     0.034 C 
BRANCH  17  19
ATOM     19  C   UNL A   1      32.850  26.496  24.704  1.00  0.00     0.140 C 
ATOM     20  C   UNL A   1      33.624  26.602  26.018  1.00  0.00     0.036 C 
ATOM     21  O   UNL A   1      32.453  27.837  24.339  1.00  0.00    -0.376 OA
ATOM     22  C   UNL A   1      33.953  28.073  26.103  1.00  0.00     0.031 C 
ATOM     23  C   UNL A   1      32.755  28.702  25.438  1.00  0.00     0.160 C 
ENDBRANCH  17  19
ENDBRANCH  14  17
ENDBRANCH   8  13
ENDBRANCH   4   7
ENDBRANCH   2   3
ENDBRANCH   1   2
BRANCH   1  24
ATOM     24  C   UNL A   1      38.364  23.300  26.185  1.00  0.00     0.023 C 
BRANCH  24  25
ATOM     25  C   UNL A   1      39.652  23.471  26.980  1.00  0.00     0.116 C 
BRANCH  25  26
ATOM     26  N   UNL A   1      40.765  23.909  26.153  1.00  0.00    -0.352 N 
ATOM     27  C   UNL A   1      41.494  25.069  26.233  1.00  0.00     0.251 C 
ATOM     28  H   UNL A   1      41.031  23.288  25.437  1.00  0.00     0.163 HD
ATOM     29  O   UNL A   1      42.290  25.352  25.338  1.00  0.00    -0.269 OA
BRANCH  27  30
ATOM     30  C   UNL A   1      41.302  25.980  27.380  1.00  0.00     0.039 A 
ATOM     31  C   UNL A   1      42.121  27.104  27.497  1.00  0.00     0.014 A 
ATOM     32  C   UNL A   1      40.311  25.729  28.332  1.00  0.00     0.014 A 
ATOM     33  C   UNL A   1      41.916  27.997  28.550  1.00  0.00     0.010 A 
ATOM     34  C   UNL A   1      40.044  26.671  29.320  1.00  0.00     0.010 A 
ATOM     35  C   UNL A   1      40.862  27.801  29.458  1.00  0.00    -0.014 A 
BRANCH  35  36
ATOM     36  C   UNL A   1      40.644  28.733  30.593  1.00  0.00     0.031 A 
ATOM     37  C   UNL A   1      41.485  28.601  31.839  1.00  0.00     0.074 A 
ATOM     38  C   UNL A   1      39.679  29.670  30.521  1.00  0.00     0.049 A 
ATOM     39  N   UNL A   1      41.434  29.295  32.947  1.00  0.00    -0.248 NA
ATOM     40  C   UNL A   1      42.494  27.528  31.854  1.00  0.00     0.031 C 
ATOM     41  C   UNL A   1      38.764  29.861  29.393  1.00  0.00     0.029 A 
ATOM     42  N   UNL A   1      39.304  30.640  31.417  1.00  0.00    -0.354 N 
ATOM     43  C   UNL A   1      42.389  28.734  33.788  1.00  0.00     0.074 A 
ATOM     44  C   UNL A   1      42.957  27.603  33.092  1.00  0.00     0.031 C 
ATOM     45  C   UNL A   1      37.956  30.902  29.651  1.00  0.00     0.029 A 
ATOM     46  C   UNL A   1      38.269  31.432  30.975  1.00  0.00     0.049 A 
ATOM     47  H   UNL A   1      39.734  30.758  32.294  1.00  0.00     0.167 HD
ATOM     48  C   UNL A   1      42.783  29.145  35.017  1.00  0.00     0.037 A 
ATOM     49  C   UNL A   1      37.645  32.467  31.571  1.00  0.00     0.037 A 
ATOM     50  C   UNL A   1      42.240  30.295  35.689  1.00  0.00     0.049 A 
ATOM     51  C   UNL A   1      38.113  32.914  32.931  1.00  0.00     0.074 A 
ATOM     52  C   UNL A   1      42.609  30.832  36.909  1.00  0.00     0.029 A 
ATOM     53  N   UNL A   1      41.214  31.089  35.196  1.00  0.00    -0.354 N 
ATOM     54  N   UNL A   1      39.065  32.414  33.683  1.00  0.00    -0.248 NA
ATOM     55  C   UNL A   1      37.433  34.077  33.518  1.00  0.00     0.031 C 
ATOM     56  C   UNL A   1      41.774  31.921  37.177  1.00  0.00     0.029 A 
ATOM     57  C   UNL A   1      40.926  32.101  36.096  1.00  0.00     0.049 A 
ATOM     58  H   UNL A   1      40.758  30.953  34.334  1.00  0.00     0.167 HD
ATOM     59  C   UNL A   1      39.123  33.224  34.814  1.00  0.00     0.074 A 
ATOM     60  C   UNL A   1      38.119  34.254  34.638  1.00  0.00     0.031 C 
ATOM     61  C   UNL A   1      39.932  33.126  35.899  1.00  0.00     0.037 A 
BRANCH  48  62
ATOM     62  C   UNL A   1      43.861  28.355  35.709  1.00  0.00     0.058 A 
ATOM     63  C   UNL A   1      45.218  28.698  35.594  1.00  0.00     0.135 A 
ATOM     64  C   UNL A   1      43.530  27.271  36.538  1.00  0.00     0.135 A 
ATOM     65  F   UNL A   1      45.595  29.713  34.800  1.00  0.00    -0.206 F 
ATOM     66  C   UNL A   1      46.209  27.981  36.256  1.00  0.00     0.059 A 
ATOM     67  C   UNL A   1      44.501  26.560  37.236  1.00  0.00     0.059 A 
ATOM     68  F   UNL A   1      42.249  26.897  36.682  1.00  0.00    -0.206 F 
ATOM     69  C   UNL A   1      45.840  26.917  37.080  1.00  0.00     0.060 A 
BRANCH  69  70
ATOM     70  S   UNL A   1      47.138  26.017  37.956  1.00  0.00     0.124 S 
ATOM     71  O   UNL A   1      48.326  26.776  37.576  1.00  0.00    -0.237 OA
ATOM     72  O   UNL A   1      46.721  26.148  39.348  1.00  0.00    -0.237 OA
ATOM     73  O   UNL A   1      47.051  24.670  37.403  1.00  0.00    -0.744 OA
ENDBRANCH  69  70
ENDBRANCH  48  62
BRANCH  49  74
ATOM     74  C   UNL A   1      36.531  33.171  30.880  1.00  0.00     0.058 A 
ATOM     75  C   UNL A   1      36.771  34.010  29.781  1.00  0.00     0.135 A 
ATOM     76  C   UNL A   1      35.203  33.032  31.313  1.00  0.00     0.135 A 
ATOM     77  F   UNL A   1      38.022  34.181  29.329  1.00  0.00    -0.206 F 
ATOM     78  C   UNL A   1      35.743  34.711  29.157  1.00  0.00     0.059 A 
ATOM     79  C   UNL A   1      34.154  33.698  30.687  1.00  0.00     0.059 A 
ATOM     80  F   UNL A   1      34.913  32.225  32.347  1.00  0.00    -0.206 F 
ATOM     81  C   UNL A   1      34.437  34.548  29.620  1.00  0.00     0.060 A 
BRANCH  81  82
ATOM     82  S   UNL A   1      33.106  35.444  28.789  1.00  0.00     0.124 S 
ATOM     83  O   UNL A   1      32.355  35.972  29.921  1.00  0.00    -0.237 OA
ATOM     84  O   UNL A   1      33.844  36.423  27.997  1.00  0.00    -0.237 OA
ATOM     85  O   UNL A   1      32.434  34.404  28.014  1.00  0.00    -0.744 OA
ENDBRANCH  81  82
ENDBRANCH  49  74
BRANCH  61  86
ATOM     86  C   UNL A   1      39.806  34.192  36.954  1.00  0.00     0.058 A 
ATOM     87  C   UNL A   1      39.070  33.989  38.131  1.00  0.00     0.135 A 
ATOM     88  C   UNL A   1      40.460  35.425  36.794  1.00  0.00     0.135 A 
ATOM     89  F   UNL A   1      38.425  32.829  38.335  1.00  0.00    -0.206 F 
ATOM     90  C   UNL A   1      38.951  34.986  39.094  1.00  0.00     0.059 A 
ATOM     91  C   UNL A   1      40.383  36.423  37.758  1.00  0.00     0.059 A 
ATOM     92  F   UNL A   1      41.190  35.665  35.694  1.00  0.00    -0.206 F 
ATOM     93  C   UNL A   1      39.610  36.202  38.897  1.00  0.00     0.060 A 
BRANCH  93  94
ATOM     94  S   UNL A   1      39.452  37.487  40.155  1.00  0.00     0.124 S 
ATOM     95  O   UNL A   1      40.821  37.983  40.240  1.00  0.00    -0.237 OA
ATOM     96  O   UNL A   1      38.484  38.397  39.551  1.00  0.00    -0.237 OA
ATOM     97  O   UNL A   1      38.973  36.759  41.326  1.00  0.00    -0.744 OA
ENDBRANCH  93  94
ENDBRANCH  61  86
ENDBRANCH  35  36
ENDBRANCH  27  30
ENDBRANCH  25  26
ENDBRANCH  24  25
ENDBRANCH   1  24
TORSDOF 17
ENDMDL
MODEL 2
REMARK VINA RESULT:     -11.8      1.236      1.967
REMARK SMILES C[C@H](NC(=O)N1CC[C@H](C(=O)NCCCCNC(=O)c2ccc(-c3c4nc(c(-c5c(F)cc(S(=O)(=O)[O-])cc5F)c5ccc([nH]5)c(-c5c(F)cc(S(=O)(=O)[O-])cc5F)c5nc(c(-c6c(F)cc(S(=O)(=O)[O-])cc6F)c6ccc3[nH]6)C=C5)C=C4)cc2)[C@@H]1C)[C@@H]1CCCO1
REMARK SMILES IDX 14 1 13 2 12 3 10 4 11 5 9 7 6 8 7 9 86 10 8 11 87 12 4 13
REMARK SMILES IDX 3 14 5 16 2 17 1 18 88 19 89 20 92 21 90 22 91 23 15 24
REMARK SMILES IDX 16 25 17 26 18 27 19 29 20 30 21 31 85 32 22 33 84 34 23 35
REMARK SMILES IDX 24 36 25 37 78 38 26 39 83 40 77 41 79 42 27 43 82 44 76 45
REMARK SMILES IDX 75 46 28 48 62 49 41 50 61 51 42 52 45 53 60 54 80 55 43 56
REMARK SMILES IDX 44 57 59 59 81 60 46 61 29 62 30 63 39 64 31 65 32 66 38 67
REMARK SMILES IDX 40 68 33 69 34 70 35 71 36 72 37 73 63 74 64 75 73 76 65 77
REMARK SMILES IDX 66 78 72 79 74 80 67 81 68 82 69 83 70 84 71 85 47 86 48 87
REMARK SMILES IDX 57 88 49 89 50 90 56 91 58 92 51 93 52 94 53 95 54 96 55 97
REMARK H PARENT 12 6 3 15 17 28 79 47 45 58
REMARK Flexibility Score: inf
ROOT
ATOM      1  C   UNL A   1      37.479  22.061  25.363  1.00  0.00     0.023 C 
ENDROOT
BRANCH   1   2
ATOM      2  C   UNL A   1      36.186  21.480  24.807  1.00  0.00     0.116 C 
BRANCH   2   3
ATOM      3  N   UNL A   1      35.034  21.760  25.646  1.00  0.00    -0.356 N 
ATOM      4  C   UNL A   1      33.834  22.313  25.292  1.00  0.00     0.225 C 
ATOM      5  O   UNL A   1      32.966  22.400  26.153  1.00  0.00    -0.275 OA
ATOM      6  H   UNL A   1      35.130  21.521  26.596  1.00  0.00     0.163 HD
BRANCH   4   7
ATOM      7  C   UNL A   1      33.683  22.799  23.862  1.00  0.00     0.102 C 
ATOM      8  N   UNL A   1      32.938  24.737  22.714  1.00  0.00    -0.321 N 
ATOM      9  C   UNL A   1      31.740  24.046  23.122  1.00  0.00     0.122 C 
ATOM     10  C   UNL A   1      34.077  24.244  23.497  1.00  0.00     0.096 C 
ATOM     11  C   UNL A   1      32.238  22.635  23.351  1.00  0.00     0.037 C 
ATOM     12  C   UNL A   1      34.421  25.227  24.611  1.00  0.00     0.032 C 
BRANCH   8  13
ATOM     13  C   UNL A   1      32.859  25.783  21.852  1.00  0.00     0.317 C 
ATOM     14  N   UNL A   1      32.418  26.990  22.281  1.00  0.00    -0.333 N 
ATOM     15  H   UNL A   1      32.075  27.587  21.578  1.00  0.00     0.165 HD
ATOM     16  O   UNL A   1      33.276  25.717  20.694  1.00  0.00    -0.249 OA
BRANCH  14  17
ATOM     17  C   UNL A   1      32.376  27.538  23.638  1.00  0.00     0.109 C 
ATOM     18  C   UNL A   1      33.454  28.613  23.853  1.00  0.00     0.034 C 
BRANCH  17  19
ATOM     19  C   UNL A   1      30.968  28.039  24.035  1.00  0.00     0.140 C 
ATOM     20  C   UNL A   1      29.807  27.134  23.626  1.00  0.00     0.036 C 
ATOM     21  O   UNL A   1      30.731  29.330  23.428  1.00  0.00    -0.376 OA
ATOM     22  C   UNL A   1      28.771  28.112  23.125  1.00  0.00     0.031 C 
ATOM     23  C   UNL A   1      29.628  29.199  22.527  1.00  0.00     0.160 C 
ENDBRANCH  17  19
ENDBRANCH  14  17
ENDBRANCH   8  13
ENDBRANCH   4   7
ENDBRANCH   2   3
ENDBRANCH   1   2
BRANCH   1  24
ATOM     24  C   UNL A   1      37.457  23.570  25.593  1.00  0.00     0.023 C 
BRANCH  24  25
ATOM     25  C   UNL A   1      38.460  24.079  26.620  1.00  0.00     0.116 C 
BRANCH  25  26
ATOM     26  N   UNL A   1      39.827  24.050  26.126  1.00  0.00    -0.352 N 
ATOM     27  C   UNL A   1      40.885  24.856  26.466  1.00  0.00     0.251 C 
ATOM     28  H   UNL A   1      40.022  23.356  25.456  1.00  0.00     0.163 HD
ATOM     29  O   UNL A   1      41.929  24.800  25.818  1.00  0.00    -0.269 OA
BRANCH  27  30
ATOM     30  C   UNL A   1      40.753  25.803  27.593  1.00  0.00     0.039 A 
ATOM     31  C   UNL A   1      41.632  26.884  27.675  1.00  0.00     0.014 A 
ATOM     32  C   UNL A   1      39.760  25.628  28.560  1.00  0.00     0.014 A 
ATOM     33  C   UNL A   1      41.486  27.811  28.708  1.00  0.00     0.010 A 
ATOM     34  C   UNL A   1      39.554  26.606  29.527  1.00  0.00     0.010 A 
ATOM     35  C   UNL A   1      40.433  27.693  29.630  1.00  0.00    -0.014 A 
BRANCH  35  36
ATOM     36  C   UNL A   1      40.277  28.662  30.745  1.00  0.00     0.031 A 
ATOM     37  C   UNL A   1      41.133  28.524  31.979  1.00  0.00     0.074 A 
ATOM     38  C   UNL A   1      39.352  29.639  30.665  1.00  0.00     0.049 A 
ATOM     39  N   UNL A   1      41.133  29.247  33.070  1.00  0.00    -0.248 NA
ATOM     40  C   UNL A   1      42.095  27.408  32.004  1.00  0.00     0.031 C 
ATOM     41  C   UNL A   1      38.426  29.842  29.549  1.00  0.00     0.029 A 
ATOM     42  N   UNL A   1      39.036  30.647  31.542  1.00  0.00    -0.354 N 
ATOM     43  C   UNL A   1      42.078  28.665  33.909  1.00  0.00     0.074 A 
ATOM     44  C   UNL A   1      42.583  27.493  33.232  1.00  0.00     0.031 C 
ATOM     45  C   UNL A   1      37.669  30.924  29.794  1.00  0.00     0.029 A 
ATOM     46  C   UNL A   1      38.029  31.472  31.099  1.00  0.00     0.049 A 
ATOM     47  H   UNL A   1      39.487  30.767  32.409  1.00  0.00     0.167 HD
ATOM     48  C   UNL A   1      42.512  29.089  35.119  1.00  0.00     0.037 A 
ATOM     49  C   UNL A   1      37.463  32.549  31.678  1.00  0.00     0.037 A 
ATOM     50  C   UNL A   1      42.032  30.279  35.771  1.00  0.00     0.049 A 
ATOM     51  C   UNL A   1      37.974  33.008  33.018  1.00  0.00     0.074 A 
ATOM     52  C   UNL A   1      42.446  30.829  36.970  1.00  0.00     0.029 A 
ATOM     53  N   UNL A   1      41.033  31.105  35.276  1.00  0.00    -0.354 N 
ATOM     54  N   UNL A   1      38.917  32.485  33.766  1.00  0.00    -0.248 NA
ATOM     55  C   UNL A   1      37.357  34.214  33.586  1.00  0.00     0.031 C 
ATOM     56  C   UNL A   1      41.665  31.960  37.224  1.00  0.00     0.029 A 
ATOM     57  C   UNL A   1      40.806  32.151  36.154  1.00  0.00     0.049 A 
ATOM     58  H   UNL A   1      40.556  30.967  34.425  1.00  0.00     0.167 HD
ATOM     59  C   UNL A   1      39.031  33.320  34.874  1.00  0.00     0.074 A 
ATOM     60  C   UNL A   1      38.071  34.388  34.689  1.00  0.00     0.031 C 
ATOM     61  C   UNL A   1      39.854  33.213  35.948  1.00  0.00     0.037 A 
BRANCH  48  62
ATOM     62  C   UNL A   1      43.566  28.270  35.813  1.00  0.00     0.058 A 
ATOM     63  C   UNL A   1      44.937  28.514  35.623  1.00  0.00     0.135 A 
ATOM     64  C   UNL A   1      43.203  27.258  36.717  1.00  0.00     0.135 A 
ATOM     65  F   UNL A   1      45.342  29.456  34.756  1.00  0.00    -0.206 F 
ATOM     66  C   UNL A   1      45.908  27.772  36.287  1.00  0.00     0.059 A 
ATOM     67  C   UNL A   1      44.157  26.524  37.416  1.00  0.00     0.059 A 
ATOM     68  F   UNL A   1      41.908  26.978  36.934  1.00  0.00    -0.206 F 
ATOM     69  C   UNL A   1      45.508  26.782  37.186  1.00  0.00     0.060 A 
BRANCH  69  70
ATOM     70  S   UNL A   1      46.783  25.850  38.060  1.00  0.00     0.124 S 
ATOM     71  O   UNL A   1      46.910  24.667  37.214  1.00  0.00    -0.237 OA
ATOM     72  O   UNL A   1      47.914  26.771  38.035  1.00  0.00    -0.237 OA
ATOM     73  O   UNL A   1      46.195  25.619  39.375  1.00  0.00    -0.744 OA
ENDBRANCH  69  70
ENDBRANCH  48  62
BRANCH  49  74
ATOM     74  C   UNL A   1      36.367  33.284  30.988  1.00  0.00     0.058 A 
ATOM     75  C   UNL A   1      36.619  34.060  29.846  1.00  0.00     0.135 A 
ATOM     76  C   UNL A   1      35.048  33.238  31.464  1.00  0.00     0.135 A 
ATOM     77  F   UNL A   1      37.864  34.141  29.353  1.00  0.00    -0.206 F 
ATOM     78  C   UNL A   1      35.613  34.791  29.222  1.00  0.00     0.059 A 
ATOM     79  C   UNL A   1      34.018  33.934  30.839  1.00  0.00     0.059 A 
ATOM     80  F   UNL A   1      34.746  32.494  32.541  1.00  0.00    -0.206 F 
ATOM     81  C   UNL A   1      34.314  34.721  29.728  1.00  0.00     0.060 A 
BRANCH  81  82
ATOM     82  S   UNL A   1      33.010  35.654  28.896  1.00  0.00     0.124 S 
ATOM     83  O   UNL A   1      32.453  34.647  28.002  1.00  0.00    -0.237 OA
ATOM     84  O   UNL A   1      32.161  36.056  30.014  1.00  0.00    -0.237 OA
ATOM     85  O   UNL A   1      33.736  36.743  28.248  1.00  0.00    -0.744 OA
ENDBRANCH  81  82
ENDBRANCH  49  74
BRANCH  61  86
ATOM     86  C   UNL A   1      39.795  34.309  36.977  1.00  0.00     0.058 A 
ATOM     87  C   UNL A   1      38.958  34.229  38.101  1.00  0.00     0.135 A 
ATOM     88  C   UNL A   1      40.613  35.444  36.849  1.00  0.00     0.135 A 
ATOM     89  F   UNL A   1      38.155  33.167  38.272  1.00  0.00    -0.206 F 
ATOM     90  C   UNL A   1      38.903  35.254  39.040  1.00  0.00     0.059 A 
ATOM     91  C   UNL A   1      40.599  36.465  37.792  1.00  0.00     0.059 A 
ATOM     92  F   UNL A   1      41.443  35.564  35.801  1.00  0.00    -0.206 F 
ATOM     93  C   UNL A   1      39.726  36.370  38.874  1.00  0.00     0.060 A 
BRANCH  93  94
ATOM     94  S   UNL A   1      39.649  37.692  40.101  1.00  0.00     0.124 S 
ATOM     95  O   UNL A   1      38.506  38.465  39.626  1.00  0.00    -0.237 OA
ATOM     96  O   UNL A   1      39.443  36.955  41.343  1.00  0.00    -0.237 OA
ATOM     97  O   UNL A   1      40.946  38.349  39.976  1.00  0.00    -0.744 OA
ENDBRANCH  93  94
ENDBRANCH  61  86
ENDBRANCH  35  36
ENDBRANCH  27  30
ENDBRANCH  25  26
ENDBRANCH  24  25
ENDBRANCH   1  24
TORSDOF 17
ENDMDL
MODEL 3
REMARK VINA RESULT:     -11.7      6.541     12.248
REMARK SMILES C[C@H](NC(=O)N1CC[C@H](C(=O)NCCCCNC(=O)c2ccc(-c3c4nc(c(-c5c(F)cc(S(=O)(=O)[O-])cc5F)c5ccc([nH]5)c(-c5c(F)cc(S(=O)(=O)[O-])cc5F)c5nc(c(-c6c(F)cc(S(=O)(=O)[O-])cc6F)c6ccc3[nH]6)C=C5)C=C4)cc2)[C@@H]1C)[C@@H]1CCCO1
REMARK SMILES IDX 14 1 13 2 12 3 10 4 11 5 9 7 6 8 7 9 86 10 8 11 87 12 4 13
REMARK SMILES IDX 3 14 5 16 2 17 1 18 88 19 89 20 92 21 90 22 91 23 15 24
REMARK SMILES IDX 16 25 17 26 18 27 19 29 20 30 21 31 85 32 22 33 84 34 23 35
REMARK SMILES IDX 24 36 25 37 78 38 26 39 83 40 77 41 79 42 27 43 82 44 76 45
REMARK SMILES IDX 75 46 28 48 62 49 41 50 61 51 42 52 45 53 60 54 80 55 43 56
REMARK SMILES IDX 44 57 59 59 81 60 46 61 29 62 30 63 39 64 31 65 32 66 38 67
REMARK SMILES IDX 40 68 33 69 34 70 35 71 36 72 37 73 63 74 64 75 73 76 65 77
REMARK SMILES IDX 66 78 72 79 74 80 67 81 68 82 69 83 70 84 71 85 47 86 48 87
REMARK SMILES IDX 57 88 49 89 50 90 56 91 58 92 51 93 52 94 53 95 54 96 55 97
REMARK H PARENT 12 6 3 15 17 28 79 47 45 58
REMARK Flexibility Score: inf
ROOT
ATOM      1  C   UNL A   1      33.400  30.521  27.310  1.00  0.00     0.023 C 
ENDROOT
BRANCH   1   2
ATOM      2  C   UNL A   1      32.448  29.491  26.718  1.00  0.00     0.116 C 
BRANCH   2   3
ATOM      3  N   UNL A   1      31.607  30.037  25.667  1.00  0.00    -0.356 N 
ATOM      4  C   UNL A   1      31.062  29.395  24.589  1.00  0.00     0.225 C 
ATOM      5  O   UNL A   1      30.320  30.038  23.855  1.00  0.00    -0.275 OA
ATOM      6  H   UNL A   1      31.402  30.997  25.742  1.00  0.00     0.163 HD
BRANCH   4   7
ATOM      7  C   UNL A   1      31.443  27.943  24.375  1.00  0.00     0.102 C 
ATOM      8  N   UNL A   1      32.345  26.577  22.657  1.00  0.00    -0.321 N 
ATOM      9  C   UNL A   1      30.961  26.775  22.305  1.00  0.00     0.122 C 
ATOM     10  C   UNL A   1      32.750  27.592  23.636  1.00  0.00     0.096 C 
ATOM     11  C   UNL A   1      30.339  27.165  23.630  1.00  0.00     0.037 C 
ATOM     12  C   UNL A   1      33.541  28.702  22.953  1.00  0.00     0.032 C 
BRANCH   8  13
ATOM     13  C   UNL A   1      33.093  25.666  21.983  1.00  0.00     0.317 C 
ATOM     14  N   UNL A   1      33.499  24.528  22.596  1.00  0.00    -0.333 N 
ATOM     15  H   UNL A   1      34.281  24.089  22.191  1.00  0.00     0.165 HD
ATOM     16  O   UNL A   1      33.340  25.775  20.780  1.00  0.00    -0.249 OA
BRANCH  14  17
ATOM     17  C   UNL A   1      32.946  23.855  23.771  1.00  0.00     0.109 C 
ATOM     18  C   UNL A   1      31.688  23.041  23.425  1.00  0.00     0.034 C 
BRANCH  17  19
ATOM     19  C   UNL A   1      33.999  23.007  24.522  1.00  0.00     0.140 C 
ATOM     20  C   UNL A   1      34.266  23.418  25.970  1.00  0.00     0.036 C 
ATOM     21  O   UNL A   1      35.262  23.084  23.822  1.00  0.00    -0.376 OA
ATOM     22  C   UNL A   1      35.768  23.319  26.082  1.00  0.00     0.031 C 
ATOM     23  C   UNL A   1      36.213  23.703  24.693  1.00  0.00     0.160 C 
ENDBRANCH  17  19
ENDBRANCH  14  17
ENDBRANCH   8  13
ENDBRANCH   4   7
ENDBRANCH   2   3
ENDBRANCH   1   2
BRANCH   1  24
ATOM     24  C   UNL A   1      34.798  29.996  27.625  1.00  0.00     0.023 C 
BRANCH  24  25
ATOM     25  C   UNL A   1      35.702  30.974  28.363  1.00  0.00     0.116 C 
BRANCH  25  26
ATOM     26  N   UNL A   1      35.620  30.830  29.808  1.00  0.00    -0.352 N 
ATOM     27  C   UNL A   1      36.538  30.292  30.675  1.00  0.00     0.251 C 
ATOM     28  H   UNL A   1      34.791  31.163  30.221  1.00  0.00     0.163 HD
ATOM     29  O   UNL A   1      36.227  30.093  31.848  1.00  0.00    -0.269 OA
BRANCH  27  30
ATOM     30  C   UNL A   1      37.887  29.936  30.188  1.00  0.00     0.039 A 
ATOM     31  C   UNL A   1      38.820  29.425  31.091  1.00  0.00     0.014 A 
ATOM     32  C   UNL A   1      38.225  30.097  28.841  1.00  0.00     0.014 A 
ATOM     33  C   UNL A   1      40.081  29.039  30.632  1.00  0.00     0.010 A 
ATOM     34  C   UNL A   1      39.443  29.619  28.371  1.00  0.00     0.010 A 
ATOM     35  C   UNL A   1      40.396  29.112  29.265  1.00  0.00    -0.014 A 
BRANCH  35  36
ATOM     36  C   UNL A   1      41.740  28.722  28.766  1.00  0.00     0.031 A 
ATOM     37  C   UNL A   1      42.832  29.759  28.677  1.00  0.00     0.074 A 
ATOM     38  C   UNL A   1      41.970  27.456  28.365  1.00  0.00     0.049 A 
ATOM     39  N   UNL A   1      44.061  29.629  28.246  1.00  0.00    -0.248 NA
ATOM     40  C   UNL A   1      42.491  31.128  29.101  1.00  0.00     0.031 C 
ATOM     41  C   UNL A   1      40.978  26.378  28.349  1.00  0.00     0.029 A 
ATOM     42  N   UNL A   1      43.111  26.861  27.890  1.00  0.00    -0.354 N 
ATOM     43  C   UNL A   1      44.627  30.896  28.333  1.00  0.00     0.074 A 
ATOM     44  C   UNL A   1      43.593  31.794  28.793  1.00  0.00     0.031 C 
ATOM     45  C   UNL A   1      41.563  25.247  27.919  1.00  0.00     0.029 A 
ATOM     46  C   UNL A   1      42.959  25.526  27.594  1.00  0.00     0.049 A 
ATOM     47  H   UNL A   1      43.961  27.344  27.771  1.00  0.00     0.167 HD
ATOM     48  C   UNL A   1      45.904  31.273  28.085  1.00  0.00     0.037 A 
ATOM     49  C   UNL A   1      43.844  24.630  27.116  1.00  0.00     0.037 A 
ATOM     50  C   UNL A   1      46.939  30.366  27.663  1.00  0.00     0.049 A 
ATOM     51  C   UNL A   1      45.262  25.071  26.864  1.00  0.00     0.074 A 
ATOM     52  C   UNL A   1      48.278  30.633  27.440  1.00  0.00     0.029 A 
ATOM     53  N   UNL A   1      46.751  29.016  27.402  1.00  0.00    -0.354 N 
ATOM     54  N   UNL A   1      45.798  26.259  27.017  1.00  0.00    -0.248 NA
ATOM     55  C   UNL A   1      46.201  24.046  26.388  1.00  0.00     0.031 C 
ATOM     56  C   UNL A   1      48.890  29.456  26.999  1.00  0.00     0.029 A 
ATOM     57  C   UNL A   1      47.947  28.441  27.006  1.00  0.00     0.049 A 
ATOM     58  H   UNL A   1      45.895  28.538  27.487  1.00  0.00     0.167 HD
ATOM     59  C   UNL A   1      47.144  26.115  26.693  1.00  0.00     0.074 A 
ATOM     60  C   UNL A   1      47.340  24.722  26.350  1.00  0.00     0.031 C 
ATOM     61  C   UNL A   1      48.128  27.049  26.680  1.00  0.00     0.037 A 
BRANCH  48  62
ATOM     62  C   UNL A   1      46.258  32.723  28.274  1.00  0.00     0.058 A 
ATOM     63  C   UNL A   1      46.730  33.214  29.503  1.00  0.00     0.135 A 
ATOM     64  C   UNL A   1      46.169  33.625  27.202  1.00  0.00     0.135 A 
ATOM     65  F   UNL A   1      46.816  32.401  30.569  1.00  0.00    -0.206 F 
ATOM     66  C   UNL A   1      47.081  34.550  29.668  1.00  0.00     0.059 A 
ATOM     67  C   UNL A   1      46.545  34.959  27.335  1.00  0.00     0.059 A 
ATOM     68  F   UNL A   1      45.721  33.212  26.006  1.00  0.00    -0.206 F 
ATOM     69  C   UNL A   1      46.990  35.414  28.575  1.00  0.00     0.060 A 
BRANCH  69  70
ATOM     70  S   UNL A   1      47.478  37.137  28.800  1.00  0.00     0.124 S 
ATOM     71  O   UNL A   1      48.591  37.249  27.862  1.00  0.00    -0.237 OA
ATOM     72  O   UNL A   1      46.263  37.854  28.430  1.00  0.00    -0.237 OA
ATOM     73  O   UNL A   1      47.839  37.208  30.212  1.00  0.00    -0.744 OA
ENDBRANCH  69  70
ENDBRANCH  48  62
BRANCH  49  74
ATOM     74  C   UNL A   1      43.429  23.222  26.869  1.00  0.00     0.058 A 
ATOM     75  C   UNL A   1      43.160  22.346  27.932  1.00  0.00     0.135 A 
ATOM     76  C   UNL A   1      43.307  22.717  25.565  1.00  0.00     0.135 A 
ATOM     77  F   UNL A   1      43.266  22.777  29.198  1.00  0.00    -0.206 F 
ATOM     78  C   UNL A   1      42.819  21.015  27.715  1.00  0.00     0.059 A 
ATOM     79  C   UNL A   1      42.937  21.399  25.321  1.00  0.00     0.059 A 
ATOM     80  F   UNL A   1      43.532  23.517  24.510  1.00  0.00    -0.206 F 
ATOM     81  C   UNL A   1      42.711  20.550  26.403  1.00  0.00     0.060 A 
BRANCH  81  82
ATOM     82  S   UNL A   1      42.244  18.827  26.130  1.00  0.00     0.124 S 
ATOM     83  O   UNL A   1      43.161  18.439  25.066  1.00  0.00    -0.237 OA
ATOM     84  O   UNL A   1      42.493  18.231  27.439  1.00  0.00    -0.237 OA
ATOM     85  O   UNL A   1      40.836  18.917  25.750  1.00  0.00    -0.744 OA
ENDBRANCH  81  82
ENDBRANCH  49  74
BRANCH  61  86
ATOM     86  C   UNL A   1      49.518  26.585  26.339  1.00  0.00     0.058 A 
ATOM     87  C   UNL A   1      50.059  26.737  25.053  1.00  0.00     0.135 A 
ATOM     88  C   UNL A   1      50.331  26.005  27.327  1.00  0.00     0.135 A 
ATOM     89  F   UNL A   1      49.324  27.285  24.072  1.00  0.00    -0.206 F 
ATOM     90  C   UNL A   1      51.341  26.294  24.747  1.00  0.00     0.059 A 
ATOM     91  C   UNL A   1      51.628  25.585  27.052  1.00  0.00     0.059 A 
ATOM     92  F   UNL A   1      49.870  25.849  28.578  1.00  0.00    -0.206 F 
ATOM     93  C   UNL A   1      52.117  25.715  25.754  1.00  0.00     0.060 A 
BRANCH  93  94
ATOM     94  S   UNL A   1      53.781  25.146  25.346  1.00  0.00     0.124 S 
ATOM     95  O   UNL A   1      53.623  23.698  25.429  1.00  0.00    -0.237 OA
ATOM     96  O   UNL A   1      53.975  25.687  24.004  1.00  0.00    -0.237 OA
ATOM     97  O   UNL A   1      54.610  25.749  26.384  1.00  0.00    -0.744 OA
ENDBRANCH  93  94
ENDBRANCH  61  86
ENDBRANCH  35  36
ENDBRANCH  27  30
ENDBRANCH  25  26
ENDBRANCH  24  25
ENDBRANCH   1  24
TORSDOF 17
ENDMDL
