MODEL 1
REMARK VINA RESULT:     -11.9      0.000      0.000
REMARK SMILES O=C(C[C@H]1CCCCO1)N[C@@H](C(=O)NCCCCNC(=O)c1ccc(-c2c3nc(c(-c4c(F)cc(S(=O)(=O)[O-])cc4F)c4ccc([nH]4)c(-c4c(F)cc(S(=O)(=O)[O-])cc4F)c4nc(c(-c5c(F)cc(S(=O)(=O)[O-])cc5F)c5ccc2[nH]5)C=C4)C=C3)cc1)C1CCCCC1
REMARK SMILES IDX 16 1 15 2 14 3 12 4 13 5 11 7 10 8 1 9 2 10 3 12 4 13 5 14
REMARK SMILES IDX 9 15 6 16 8 17 7 18 88 19 89 20 93 21 90 22 92 23 91 24
REMARK SMILES IDX 17 25 18 26 19 27 20 28 21 30 22 31 23 32 87 33 24 34 86 35
REMARK SMILES IDX 25 36 26 37 27 38 80 39 28 40 85 41 79 42 81 43 29 44 84 45
REMARK SMILES IDX 78 46 77 47 30 49 64 50 43 51 63 52 44 53 47 54 62 55 82 56
REMARK SMILES IDX 45 57 46 58 61 60 83 61 48 62 31 63 32 64 41 65 33 66 34 67
REMARK SMILES IDX 40 68 42 69 35 70 36 71 37 72 38 73 39 74 65 75 66 76 75 77
REMARK SMILES IDX 67 78 68 79 74 80 76 81 69 82 70 83 71 84 72 85 73 86 49 87
REMARK SMILES IDX 50 88 59 89 51 90 52 91 58 92 60 93 53 94 54 95 55 96 56 97
REMARK SMILES IDX 57 98
REMARK H PARENT 14 6 10 11 19 29 81 48 47 59
REMARK Flexibility Score: inf
ROOT
ATOM      1  C   UNL A   1      37.943  23.767  26.204  1.00  0.00     0.023 C 
ENDROOT
BRANCH   1   2
ATOM      2  C   UNL A   1      36.731  23.132  25.520  1.00  0.00     0.116 C 
BRANCH   2   3
ATOM      3  N   UNL A   1      35.935  22.409  26.490  1.00  0.00    -0.354 N 
ATOM      4  C   UNL A   1      34.800  21.677  26.287  1.00  0.00     0.242 C 
ATOM      5  O   UNL A   1      34.154  21.366  27.288  1.00  0.00    -0.273 OA
ATOM      6  H   UNL A   1      36.256  22.449  27.419  1.00  0.00     0.163 HD
BRANCH   4   7
ATOM      7  C   UNL A   1      34.393  21.277  24.843  1.00  0.00     0.174 C 
BRANCH   7   8
ATOM      8  N   UNL A   1      33.414  22.245  24.349  1.00  0.00    -0.344 N 
ATOM      9  O   UNL A   1      34.647  23.153  22.634  1.00  0.00    -0.275 OA
ATOM     10  C   UNL A   1      33.623  23.118  23.307  1.00  0.00     0.223 C 
ATOM     11  H   UNL A   1      32.538  22.276  24.798  1.00  0.00     0.164 HD
BRANCH  10  12
ATOM     12  C   UNL A   1      32.477  24.092  23.099  1.00  0.00     0.132 C 
BRANCH  12  13
ATOM     13  C   UNL A   1      32.868  25.539  23.397  1.00  0.00     0.127 C 
ATOM     14  C   UNL A   1      33.396  26.240  22.141  1.00  0.00     0.033 C 
ATOM     15  O   UNL A   1      31.745  26.211  23.972  1.00  0.00    -0.378 OA
ATOM     16  C   UNL A   1      33.630  27.722  22.403  1.00  0.00     0.005 C 
ATOM     17  C   UNL A   1      31.951  27.593  24.236  1.00  0.00     0.160 C 
ATOM     18  C   UNL A   1      32.368  28.343  22.980  1.00  0.00     0.029 C 
ENDBRANCH  12  13
ENDBRANCH  10  12
ENDBRANCH   7   8
BRANCH   7  19
ATOM     19  C   UNL A   1      33.851  19.825  24.714  1.00  0.00     0.021 C 
ATOM     20  C   UNL A   1      32.851  19.691  23.545  1.00  0.00     0.006 C 
ATOM     21  C   UNL A   1      34.958  18.753  24.637  1.00  0.00     0.006 C 
ATOM     22  C   UNL A   1      32.335  18.264  23.365  1.00  0.00     0.000 C 
ATOM     23  C   UNL A   1      34.391  17.347  24.474  1.00  0.00     0.000 C 
ATOM     24  C   UNL A   1      33.476  17.259  23.261  1.00  0.00     0.000 C 
ENDBRANCH   7  19
ENDBRANCH   4   7
ENDBRANCH   2   3
ENDBRANCH   1   2
BRANCH   1  25
ATOM     25  C   UNL A   1      39.079  22.782  26.496  1.00  0.00     0.023 C 
BRANCH  25  26
ATOM     26  C   UNL A   1      40.331  23.412  27.092  1.00  0.00     0.116 C 
BRANCH  26  27
ATOM     27  N   UNL A   1      41.175  24.030  26.083  1.00  0.00    -0.352 N 
ATOM     28  C   UNL A   1      41.612  25.327  26.007  1.00  0.00     0.251 C 
ATOM     29  H   UNL A   1      41.472  23.437  25.356  1.00  0.00     0.163 HD
ATOM     30  O   UNL A   1      42.179  25.720  24.989  1.00  0.00    -0.269 OA
BRANCH  28  31
ATOM     31  C   UNL A   1      41.376  26.252  27.135  1.00  0.00     0.039 A 
ATOM     32  C   UNL A   1      40.348  25.965  28.034  1.00  0.00     0.014 A 
ATOM     33  C   UNL A   1      42.157  27.400  27.303  1.00  0.00     0.014 A 
ATOM     34  C   UNL A   1      40.128  26.812  29.122  1.00  0.00     0.010 A 
ATOM     35  C   UNL A   1      41.989  28.196  28.432  1.00  0.00     0.010 A 
ATOM     36  C   UNL A   1      40.960  27.922  29.344  1.00  0.00    -0.014 A 
BRANCH  36  37
ATOM     37  C   UNL A   1      40.740  28.814  30.511  1.00  0.00     0.031 A 
ATOM     38  C   UNL A   1      41.583  28.666  31.749  1.00  0.00     0.074 A 
ATOM     39  C   UNL A   1      39.763  29.740  30.464  1.00  0.00     0.049 A 
ATOM     40  N   UNL A   1      41.546  29.354  32.861  1.00  0.00    -0.248 NA
ATOM     41  C   UNL A   1      42.583  27.584  31.752  1.00  0.00     0.031 C 
ATOM     42  C   UNL A   1      38.841  29.941  29.342  1.00  0.00     0.029 A 
ATOM     43  N   UNL A   1      39.381  30.690  31.377  1.00  0.00    -0.354 N 
ATOM     44  C   UNL A   1      42.507  28.790  33.692  1.00  0.00     0.074 A 
ATOM     45  C   UNL A   1      43.065  27.659  32.983  1.00  0.00     0.031 C 
ATOM     46  C   UNL A   1      38.028  30.973  29.619  1.00  0.00     0.029 A 
ATOM     47  C   UNL A   1      38.344  31.484  30.950  1.00  0.00     0.049 A 
ATOM     48  H   UNL A   1      39.812  30.793  32.257  1.00  0.00     0.167 HD
ATOM     49  C   UNL A   1      42.909  29.193  34.920  1.00  0.00     0.037 A 
ATOM     50  C   UNL A   1      37.717  32.509  31.560  1.00  0.00     0.037 A 
ATOM     51  C   UNL A   1      42.362  30.332  35.612  1.00  0.00     0.049 A 
ATOM     52  C   UNL A   1      38.186  32.941  32.924  1.00  0.00     0.074 A 
ATOM     53  C   UNL A   1      42.738  30.860  36.834  1.00  0.00     0.029 A 
ATOM     54  N   UNL A   1      41.318  31.118  35.142  1.00  0.00    -0.354 N 
ATOM     55  N   UNL A   1      39.148  32.443  33.663  1.00  0.00    -0.248 NA
ATOM     56  C   UNL A   1      37.492  34.084  33.531  1.00  0.00     0.031 C 
ATOM     57  C   UNL A   1      41.888  31.931  37.128  1.00  0.00     0.029 A 
ATOM     58  C   UNL A   1      41.020  32.110  36.062  1.00  0.00     0.049 A 
ATOM     59  H   UNL A   1      40.857  30.989  34.282  1.00  0.00     0.167 HD
ATOM     60  C   UNL A   1      39.192  33.227  34.811  1.00  0.00     0.074 A 
ATOM     61  C   UNL A   1      38.172  34.245  34.656  1.00  0.00     0.031 C 
ATOM     62  C   UNL A   1      40.000  33.115  35.895  1.00  0.00     0.037 A 
BRANCH  49  63
ATOM     63  C   UNL A   1      43.997  28.400  35.596  1.00  0.00     0.058 A 
ATOM     64  C   UNL A   1      45.356  28.710  35.420  1.00  0.00     0.135 A 
ATOM     65  C   UNL A   1      43.679  27.337  36.457  1.00  0.00     0.135 A 
ATOM     66  F   UNL A   1      45.722  29.705  34.595  1.00  0.00    -0.206 F 
ATOM     67  C   UNL A   1      46.359  27.977  36.046  1.00  0.00     0.059 A 
ATOM     68  C   UNL A   1      44.664  26.611  37.120  1.00  0.00     0.059 A 
ATOM     69  F   UNL A   1      42.397  26.995  36.662  1.00  0.00    -0.206 F 
ATOM     70  C   UNL A   1      46.002  26.930  36.897  1.00  0.00     0.060 A 
BRANCH  70  71
ATOM     71  S   UNL A   1      47.316  25.996  37.709  1.00  0.00     0.124 S 
ATOM     72  O   UNL A   1      46.613  24.775  38.090  1.00  0.00    -0.237 OA
ATOM     73  O   UNL A   1      48.302  25.854  36.642  1.00  0.00    -0.237 OA
ATOM     74  O   UNL A   1      47.716  26.860  38.815  1.00  0.00    -0.744 OA
ENDBRANCH  70  71
ENDBRANCH  49  63
BRANCH  50  75
ATOM     75  C   UNL A   1      36.601  33.214  30.874  1.00  0.00     0.058 A 
ATOM     76  C   UNL A   1      36.848  34.131  29.842  1.00  0.00     0.135 A 
ATOM     77  C   UNL A   1      35.264  32.979  31.232  1.00  0.00     0.135 A 
ATOM     78  F   UNL A   1      38.109  34.395  29.466  1.00  0.00    -0.206 F 
ATOM     79  C   UNL A   1      35.813  34.806  29.202  1.00  0.00     0.059 A 
ATOM     80  C   UNL A   1      34.210  33.620  30.587  1.00  0.00     0.059 A 
ATOM     81  F   UNL A   1      34.970  32.098  32.201  1.00  0.00    -0.206 F 
ATOM     82  C   UNL A   1      34.496  34.541  29.580  1.00  0.00     0.060 A 
BRANCH  82  83
ATOM     83  S   UNL A   1      33.159  35.389  28.712  1.00  0.00     0.124 S 
ATOM     84  O   UNL A   1      32.429  35.998  29.818  1.00  0.00    -0.237 OA
ATOM     85  O   UNL A   1      33.890  36.306  27.845  1.00  0.00    -0.237 OA
ATOM     86  O   UNL A   1      32.467  34.303  28.022  1.00  0.00    -0.744 OA
ENDBRANCH  82  83
ENDBRANCH  50  75
BRANCH  62  87
ATOM     87  C   UNL A   1      39.834  34.140  36.986  1.00  0.00     0.058 A 
ATOM     88  C   UNL A   1      40.410  35.418  36.896  1.00  0.00     0.135 A 
ATOM     89  C   UNL A   1      39.068  33.847  38.126  1.00  0.00     0.135 A 
ATOM     90  F   UNL A   1      41.155  35.750  35.829  1.00  0.00    -0.206 F 
ATOM     91  C   UNL A   1      40.268  36.352  37.916  1.00  0.00     0.059 A 
ATOM     92  C   UNL A   1      38.885  34.779  39.142  1.00  0.00     0.059 A 
ATOM     93  F   UNL A   1      38.482  32.646  38.257  1.00  0.00    -0.206 F 
ATOM     94  C   UNL A   1      39.505  36.022  39.037  1.00  0.00     0.060 A 
BRANCH  94  95
ATOM     95  S   UNL A   1      39.325  37.246  40.352  1.00  0.00     0.124 S 
ATOM     96  O   UNL A   1      38.618  38.319  39.661  1.00  0.00    -0.237 OA
ATOM     97  O   UNL A   1      38.551  36.517  41.352  1.00  0.00    -0.237 OA
ATOM     98  O   UNL A   1      40.704  37.543  40.730  1.00  0.00    -0.744 OA
ENDBRANCH  94  95
ENDBRANCH  62  87
ENDBRANCH  36  37
ENDBRANCH  28  31
ENDBRANCH  26  27
ENDBRANCH  25  26
ENDBRANCH   1  25
TORSDOF 18
ENDMDL
MODEL 2
REMARK VINA RESULT:     -11.8      6.855     12.075
REMARK SMILES O=C(C[C@H]1CCCCO1)N[C@@H](C(=O)NCCCCNC(=O)c1ccc(-c2c3nc(c(-c4c(F)cc(S(=O)(=O)[O-])cc4F)c4ccc([nH]4)c(-c4c(F)cc(S(=O)(=O)[O-])cc4F)c4nc(c(-c5c(F)cc(S(=O)(=O)[O-])cc5F)c5ccc2[nH]5)C=C4)C=C3)cc1)C1CCCCC1
REMARK SMILES IDX 16 1 15 2 14 3 12 4 13 5 11 7 10 8 1 9 2 10 3 12 4 13 5 14
REMARK SMILES IDX 9 15 6 16 8 17 7 18 88 19 89 20 93 21 90 22 92 23 91 24
REMARK SMILES IDX 17 25 18 26 19 27 20 28 21 30 22 31 23 32 87 33 24 34 86 35
REMARK SMILES IDX 25 36 26 37 27 38 80 39 28 40 85 41 79 42 81 43 29 44 84 45
REMARK SMILES IDX 78 46 77 47 30 49 64 50 43 51 63 52 44 53 47 54 62 55 82 56
REMARK SMILES IDX 45 57 46 58 61 60 83 61 48 62 31 63 32 64 41 65 33 66 34 67
REMARK SMILES IDX 40 68 42 69 35 70 36 71 37 72 38 73 39 74 65 75 66 76 75 77
REMARK SMILES IDX 67 78 68 79 74 80 76 81 69 82 70 83 71 84 72 85 73 86 49 87
REMARK SMILES IDX 50 88 59 89 51 90 52 91 58 92 60 93 53 94 54 95 55 96 56 97
REMARK SMILES IDX 57 98
REMARK H PARENT 14 6 10 11 19 29 81 48 47 59
REMARK Flexibility Score: inf
ROOT
ATOM      1  C   UNL A   1      32.816  29.810  27.212  1.00  0.00     0.023 C 
ENDROOT
BRANCH   1   2
ATOM      2  C   UNL A   1      31.931  29.501  26.003  1.00  0.00     0.116 C 
BRANCH   2   3
ATOM      3  N   UNL A   1      32.665  29.733  24.777  1.00  0.00    -0.354 N 
ATOM      4  C   UNL A   1      33.012  28.836  23.808  1.00  0.00     0.242 C 
ATOM      5  O   UNL A   1      33.852  29.205  22.986  1.00  0.00    -0.273 OA
ATOM      6  H   UNL A   1      32.951  30.662  24.621  1.00  0.00     0.163 HD
BRANCH   4   7
ATOM      7  C   UNL A   1      32.344  27.435  23.784  1.00  0.00     0.174 C 
BRANCH   7   8
ATOM      8  N   UNL A   1      30.893  27.610  23.854  1.00  0.00    -0.344 N 
ATOM      9  O   UNL A   1      30.485  28.074  21.639  1.00  0.00    -0.275 OA
ATOM     10  C   UNL A   1      30.086  27.936  22.790  1.00  0.00     0.223 C 
ATOM     11  H   UNL A   1      30.461  27.484  24.730  1.00  0.00     0.164 HD
BRANCH  10  12
ATOM     12  C   UNL A   1      28.638  28.175  23.185  1.00  0.00     0.132 C 
BRANCH  12  13
ATOM     13  C   UNL A   1      28.155  29.583  22.838  1.00  0.00     0.127 C 
ATOM     14  C   UNL A   1      28.945  30.646  23.609  1.00  0.00     0.033 C 
ATOM     15  O   UNL A   1      28.231  29.760  21.421  1.00  0.00    -0.378 OA
ATOM     16  C   UNL A   1      28.573  32.046  23.140  1.00  0.00     0.005 C 
ATOM     17  C   UNL A   1      27.873  31.058  20.965  1.00  0.00     0.160 C 
ATOM     18  C   UNL A   1      28.719  32.133  21.629  1.00  0.00     0.029 C 
ENDBRANCH  12  13
ENDBRANCH  10  12
ENDBRANCH   7   8
BRANCH   7  19
ATOM     19  C   UNL A   1      32.841  26.474  24.901  1.00  0.00     0.021 C 
ATOM     20  C   UNL A   1      31.676  25.681  25.532  1.00  0.00     0.006 C 
ATOM     21  C   UNL A   1      33.984  25.539  24.451  1.00  0.00     0.006 C 
ATOM     22  C   UNL A   1      32.140  24.694  26.601  1.00  0.00     0.000 C 
ATOM     23  C   UNL A   1      34.421  24.586  25.560  1.00  0.00     0.000 C 
ATOM     24  C   UNL A   1      33.243  23.777  26.086  1.00  0.00     0.000 C 
ENDBRANCH   7  19
ENDBRANCH   4   7
ENDBRANCH   2   3
ENDBRANCH   1   2
BRANCH   1  25
ATOM     25  C   UNL A   1      34.113  28.996  27.256  1.00  0.00     0.023 C 
BRANCH  25  26
ATOM     26  C   UNL A   1      35.341  29.780  27.699  1.00  0.00     0.116 C 
BRANCH  26  27
ATOM     27  N   UNL A   1      35.286  30.151  29.103  1.00  0.00    -0.352 N 
ATOM     28  C   UNL A   1      36.260  30.032  30.061  1.00  0.00     0.251 C 
ATOM     29  H   UNL A   1      34.435  30.540  29.407  1.00  0.00     0.163 HD
ATOM     30  O   UNL A   1      35.983  30.237  31.240  1.00  0.00    -0.269 OA
BRANCH  28  31
ATOM     31  C   UNL A   1      37.630  29.632  29.674  1.00  0.00     0.039 A 
ATOM     32  C   UNL A   1      38.018  29.770  28.340  1.00  0.00     0.014 A 
ATOM     33  C   UNL A   1      38.524  29.115  30.616  1.00  0.00     0.014 A 
ATOM     34  C   UNL A   1      39.315  29.424  27.961  1.00  0.00     0.010 A 
ATOM     35  C   UNL A   1      39.841  28.849  30.252  1.00  0.00     0.010 A 
ATOM     36  C   UNL A   1      40.246  28.982  28.917  1.00  0.00    -0.014 A 
BRANCH  36  37
ATOM     37  C   UNL A   1      41.633  28.631  28.519  1.00  0.00     0.031 A 
ATOM     38  C   UNL A   1      42.709  29.684  28.507  1.00  0.00     0.074 A 
ATOM     39  C   UNL A   1      41.917  27.368  28.144  1.00  0.00     0.049 A 
ATOM     40  N   UNL A   1      43.975  29.568  28.200  1.00  0.00    -0.248 NA
ATOM     41  C   UNL A   1      42.306  31.056  28.861  1.00  0.00     0.031 C 
ATOM     42  C   UNL A   1      40.947  26.273  28.058  1.00  0.00     0.029 A 
ATOM     43  N   UNL A   1      43.102  26.789  27.768  1.00  0.00    -0.354 N 
ATOM     44  C   UNL A   1      44.515  30.843  28.317  1.00  0.00     0.074 A 
ATOM     45  C   UNL A   1      43.426  31.732  28.659  1.00  0.00     0.031 C 
ATOM     46  C   UNL A   1      41.584  25.149  27.692  1.00  0.00     0.029 A 
ATOM     47  C   UNL A   1      42.996  25.449  27.481  1.00  0.00     0.049 A 
ATOM     48  H   UNL A   1      43.950  27.287  27.710  1.00  0.00     0.167 HD
ATOM     49  C   UNL A   1      45.804  31.235  28.183  1.00  0.00     0.037 A 
ATOM     50  C   UNL A   1      43.933  24.559  27.094  1.00  0.00     0.037 A 
ATOM     51  C   UNL A   1      46.887  30.340  27.862  1.00  0.00     0.049 A 
ATOM     52  C   UNL A   1      45.360  25.018  26.956  1.00  0.00     0.074 A 
ATOM     53  C   UNL A   1      48.237  30.624  27.759  1.00  0.00     0.029 A 
ATOM     54  N   UNL A   1      46.742  28.987  27.587  1.00  0.00    -0.354 N 
ATOM     55  N   UNL A   1      45.865  26.214  27.146  1.00  0.00    -0.248 NA
ATOM     56  C   UNL A   1      46.346  24.004  26.563  1.00  0.00     0.031 C 
ATOM     57  C   UNL A   1      48.901  29.456  27.371  1.00  0.00     0.029 A 
ATOM     58  C   UNL A   1      47.974  28.428  27.291  1.00  0.00     0.049 A 
ATOM     59  H   UNL A   1      45.888  28.496  27.602  1.00  0.00     0.167 HD
ATOM     60  C   UNL A   1      47.233  26.090  26.920  1.00  0.00     0.074 A 
ATOM     61  C   UNL A   1      47.475  24.697  26.601  1.00  0.00     0.031 C 
ATOM     62  C   UNL A   1      48.199  27.040  26.972  1.00  0.00     0.037 A 
BRANCH  49  63
ATOM     63  C   UNL A   1      46.118  32.694  28.387  1.00  0.00     0.058 A 
ATOM     64  C   UNL A   1      46.478  33.203  29.646  1.00  0.00     0.135 A 
ATOM     65  C   UNL A   1      46.091  33.589  27.306  1.00  0.00     0.135 A 
ATOM     66  F   UNL A   1      46.505  32.398  30.720  1.00  0.00    -0.206 F 
ATOM     67  C   UNL A   1      46.769  34.551  29.831  1.00  0.00     0.059 A 
ATOM     68  C   UNL A   1      46.410  34.935  27.462  1.00  0.00     0.059 A 
ATOM     69  F   UNL A   1      45.752  33.159  26.080  1.00  0.00    -0.206 F 
ATOM     70  C   UNL A   1      46.734  35.410  28.731  1.00  0.00     0.060 A 
BRANCH  70  71
ATOM     71  S   UNL A   1      47.124  37.153  28.988  1.00  0.00     0.124 S 
ATOM     72  O   UNL A   1      47.575  37.149  30.377  1.00  0.00    -0.237 OA
ATOM     73  O   UNL A   1      48.158  37.392  27.987  1.00  0.00    -0.237 OA
ATOM     74  O   UNL A   1      45.852  37.827  28.745  1.00  0.00    -0.744 OA
ENDBRANCH  70  71
ENDBRANCH  49  63
BRANCH  50  75
ATOM     75  C   UNL A   1      43.554  23.143  26.839  1.00  0.00     0.058 A 
ATOM     76  C   UNL A   1      43.542  22.620  25.537  1.00  0.00     0.135 A 
ATOM     77  C   UNL A   1      43.206  22.283  27.892  1.00  0.00     0.135 A 
ATOM     78  F   UNL A   1      43.863  23.403  24.495  1.00  0.00    -0.206 F 
ATOM     79  C   UNL A   1      43.177  21.301  25.284  1.00  0.00     0.059 A 
ATOM     80  C   UNL A   1      42.865  20.952  27.667  1.00  0.00     0.059 A 
ATOM     81  F   UNL A   1      43.218  22.728  29.157  1.00  0.00    -0.206 F 
ATOM     82  C   UNL A   1      42.843  20.473  26.358  1.00  0.00     0.060 A 
BRANCH  82  83
ATOM     83  S   UNL A   1      42.416  18.752  26.023  1.00  0.00     0.124 S 
ATOM     84  O   UNL A   1      43.329  18.429  24.933  1.00  0.00    -0.237 OA
ATOM     85  O   UNL A   1      42.696  18.112  27.304  1.00  0.00    -0.237 OA
ATOM     86  O   UNL A   1      41.002  18.821  25.662  1.00  0.00    -0.744 OA
ENDBRANCH  82  83
ENDBRANCH  50  75
BRANCH  62  87
ATOM     87  C   UNL A   1      49.614  26.598  26.706  1.00  0.00     0.058 A 
ATOM     88  C   UNL A   1      50.127  26.501  25.402  1.00  0.00     0.135 A 
ATOM     89  C   UNL A   1      50.474  26.290  27.772  1.00  0.00     0.135 A 
ATOM     90  F   UNL A   1      49.347  26.781  24.346  1.00  0.00    -0.206 F 
ATOM     91  C   UNL A   1      51.429  26.074  25.163  1.00  0.00     0.059 A 
ATOM     92  C   UNL A   1      51.791  25.894  27.557  1.00  0.00     0.059 A 
ATOM     93  F   UNL A   1      50.041  26.379  29.039  1.00  0.00    -0.206 F 
ATOM     94  C   UNL A   1      52.253  25.770  26.249  1.00  0.00     0.060 A 
BRANCH  94  95
ATOM     95  S   UNL A   1      53.942  25.221  25.925  1.00  0.00     0.124 S 
ATOM     96  O   UNL A   1      53.713  23.920  25.303  1.00  0.00    -0.237 OA
ATOM     97  O   UNL A   1      54.446  26.267  25.041  1.00  0.00    -0.237 OA
ATOM     98  O   UNL A   1      54.548  25.184  27.252  1.00  0.00    -0.744 OA
ENDBRANCH  94  95
ENDBRANCH  62  87
ENDBRANCH  36  37
ENDBRANCH  28  31
ENDBRANCH  26  27
ENDBRANCH  25  26
ENDBRANCH   1  25
TORSDOF 18
ENDMDL
MODEL 3
REMARK VINA RESULT:     -11.7      3.132      9.436
REMARK SMILES O=C(C[C@H]1CCCCO1)N[C@@H](C(=O)NCCCCNC(=O)c1ccc(-c2c3nc(c(-c4c(F)cc(S(=O)(=O)[O-])cc4F)c4ccc([nH]4)c(-c4c(F)cc(S(=O)(=O)[O-])cc4F)c4nc(c(-c5c(F)cc(S(=O)(=O)[O-])cc5F)c5ccc2[nH]5)C=C4)C=C3)cc1)C1CCCCC1
REMARK SMILES IDX 16 1 15 2 14 3 12 4 13 5 11 7 10 8 1 9 2 10 3 12 4 13 5 14
REMARK SMILES IDX 9 15 6 16 8 17 7 18 88 19 89 20 93 21 90 22 92 23 91 24
REMARK SMILES IDX 17 25 18 26 19 27 20 28 21 30 22 31 23 32 87 33 24 34 86 35
REMARK SMILES IDX 25 36 26 37 27 38 80 39 28 40 85 41 79 42 81 43 29 44 84 45
REMARK SMILES IDX 78 46 77 47 30 49 64 50 43 51 63 52 44 53 47 54 62 55 82 56
REMARK SMILES IDX 45 57 46 58 61 60 83 61 48 62 31 63 32 64 41 65 33 66 34 67
REMARK SMILES IDX 40 68 42 69 35 70 36 71 37 72 38 73 39 74 65 75 66 76 75 77
REMARK SMILES IDX 67 78 68 79 74 80 76 81 69 82 70 83 71 84 72 85 73 86 49 87
REMARK SMILES IDX 50 88 59 89 51 90 52 91 58 92 60 93 53 94 54 95 55 96 56 97
REMARK SMILES IDX 57 98
REMARK H PARENT 14 6 10 11 19 29 81 48 47 59
REMARK Flexibility Score: inf
ROOT
ATOM      1  C   UNL A   1      32.283  26.737  25.479  1.00  0.00     0.023 C 
ENDROOT
BRANCH   1   2
ATOM      2  C   UNL A   1      32.353  25.250  25.127  1.00  0.00     0.116 C 
BRANCH   2   3
ATOM      3  N   UNL A   1      32.870  24.497  26.250  1.00  0.00    -0.354 N 
ATOM      4  C   UNL A   1      33.532  23.302  26.243  1.00  0.00     0.242 C 
ATOM      5  O   UNL A   1      33.651  22.727  27.326  1.00  0.00    -0.273 OA
ATOM      6  H   UNL A   1      32.727  24.900  27.136  1.00  0.00     0.163 HD
BRANCH   4   7
ATOM      7  C   UNL A   1      34.096  22.744  24.908  1.00  0.00     0.174 C 
BRANCH   7   8
ATOM      8  N   UNL A   1      33.535  21.411  24.687  1.00  0.00    -0.344 N 
ATOM      9  O   UNL A   1      32.283  21.862  22.811  1.00  0.00    -0.275 OA
ATOM     10  C   UNL A   1      32.661  21.082  23.678  1.00  0.00     0.223 C 
ATOM     11  H   UNL A   1      33.803  20.696  25.308  1.00  0.00     0.164 HD
BRANCH  10  12
ATOM     12  C   UNL A   1      32.147  19.655  23.770  1.00  0.00     0.132 C 
BRANCH  12  13
ATOM     13  C   UNL A   1      33.037  18.760  24.631  1.00  0.00     0.127 C 
ATOM     14  C   UNL A   1      32.326  17.452  24.992  1.00  0.00     0.033 C 
ATOM     15  O   UNL A   1      34.274  18.544  23.946  1.00  0.00    -0.378 OA
ATOM     16  C   UNL A   1      33.271  16.498  25.708  1.00  0.00     0.005 C 
ATOM     17  C   UNL A   1      35.174  17.666  24.609  1.00  0.00     0.160 C 
ATOM     18  C   UNL A   1      34.534  16.314  24.881  1.00  0.00     0.029 C 
ENDBRANCH  12  13
ENDBRANCH  10  12
ENDBRANCH   7   8
BRANCH   7  19
ATOM     19  C   UNL A   1      35.649  22.710  24.838  1.00  0.00     0.021 C 
ATOM     20  C   UNL A   1      36.285  23.781  25.752  1.00  0.00     0.006 C 
ATOM     21  C   UNL A   1      36.252  21.314  25.098  1.00  0.00     0.006 C 
ATOM     22  C   UNL A   1      37.812  23.741  25.739  1.00  0.00     0.000 C 
ATOM     23  C   UNL A   1      37.777  21.326  25.059  1.00  0.00     0.000 C 
ATOM     24  C   UNL A   1      38.345  22.344  26.037  1.00  0.00     0.000 C 
ENDBRANCH   7  19
ENDBRANCH   4   7
ENDBRANCH   2   3
ENDBRANCH   1   2
BRANCH   1  25
ATOM     25  C   UNL A   1      33.351  27.189  26.481  1.00  0.00     0.023 C 
BRANCH  25  26
ATOM     26  C   UNL A   1      34.280  28.282  25.971  1.00  0.00     0.116 C 
BRANCH  26  27
ATOM     27  N   UNL A   1      33.804  29.615  26.300  1.00  0.00    -0.352 N 
ATOM     28  C   UNL A   1      34.296  30.497  27.226  1.00  0.00     0.251 C 
ATOM     29  H   UNL A   1      33.021  29.925  25.790  1.00  0.00     0.163 HD
ATOM     30  O   UNL A   1      33.662  31.515  27.495  1.00  0.00    -0.269 OA
BRANCH  28  31
ATOM     31  C   UNL A   1      35.571  30.207  27.916  1.00  0.00     0.039 A 
ATOM     32  C   UNL A   1      35.532  29.603  29.173  1.00  0.00     0.014 A 
ATOM     33  C   UNL A   1      36.798  30.537  27.333  1.00  0.00     0.014 A 
ATOM     34  C   UNL A   1      36.725  29.297  29.828  1.00  0.00     0.010 A 
ATOM     35  C   UNL A   1      37.986  30.156  27.950  1.00  0.00     0.010 A 
ATOM     36  C   UNL A   1      37.963  29.550  29.214  1.00  0.00    -0.014 A 
BRANCH  36  37
ATOM     37  C   UNL A   1      39.235  29.207  29.900  1.00  0.00     0.031 A 
ATOM     38  C   UNL A   1      39.652  29.951  31.141  1.00  0.00     0.074 A 
ATOM     39  C   UNL A   1      40.026  28.242  29.391  1.00  0.00     0.049 A 
ATOM     40  N   UNL A   1      40.718  29.789  31.882  1.00  0.00    -0.248 NA
ATOM     41  C   UNL A   1      38.770  31.040  31.596  1.00  0.00     0.031 C 
ATOM     42  C   UNL A   1      39.758  27.491  28.162  1.00  0.00     0.029 A 
ATOM     43  N   UNL A   1      41.213  27.724  29.842  1.00  0.00    -0.354 N 
ATOM     44  C   UNL A   1      40.638  30.752  32.881  1.00  0.00     0.074 A 
ATOM     45  C   UNL A   1      39.454  31.539  32.614  1.00  0.00     0.031 C 
ATOM     46  C   UNL A   1      40.732  26.584  27.979  1.00  0.00     0.029 A 
ATOM     47  C   UNL A   1      41.711  26.714  29.054  1.00  0.00     0.049 A 
ATOM     48  H   UNL A   1      41.666  28.046  30.655  1.00  0.00     0.167 HD
ATOM     49  C   UNL A   1      41.458  30.945  33.941  1.00  0.00     0.037 A 
ATOM     50  C   UNL A   1      42.829  25.973  29.183  1.00  0.00     0.037 A 
ATOM     51  C   UNL A   1      42.625  30.145  34.211  1.00  0.00     0.049 A 
ATOM     52  C   UNL A   1      43.723  26.204  30.372  1.00  0.00     0.074 A 
ATOM     53  C   UNL A   1      43.491  30.220  35.287  1.00  0.00     0.029 A 
ATOM     54  N   UNL A   1      43.092  29.124  33.394  1.00  0.00    -0.354 N 
ATOM     55  N   UNL A   1      43.590  27.069  31.349  1.00  0.00    -0.248 NA
ATOM     56  C   UNL A   1      44.911  25.348  30.483  1.00  0.00     0.031 C 
ATOM     57  C   UNL A   1      44.510  29.282  35.095  1.00  0.00     0.029 A 
ATOM     58  C   UNL A   1      44.247  28.579  33.930  1.00  0.00     0.049 A 
ATOM     59  H   UNL A   1      42.665  28.830  32.557  1.00  0.00     0.167 HD
ATOM     60  C   UNL A   1      44.665  26.845  32.204  1.00  0.00     0.074 A 
ATOM     61  C   UNL A   1      45.423  25.748  31.638  1.00  0.00     0.031 C 
ATOM     62  C   UNL A   1      44.994  27.488  33.352  1.00  0.00     0.037 A 
BRANCH  49  63
ATOM     63  C   UNL A   1      41.122  32.064  34.892  1.00  0.00     0.058 A 
ATOM     64  C   UNL A   1      40.254  31.872  35.981  1.00  0.00     0.135 A 
ATOM     65  C   UNL A   1      41.699  33.335  34.735  1.00  0.00     0.135 A 
ATOM     66  F   UNL A   1      39.660  30.683  36.172  1.00  0.00    -0.206 F 
ATOM     67  C   UNL A   1      39.946  32.907  36.859  1.00  0.00     0.059 A 
ATOM     68  C   UNL A   1      41.431  34.375  35.620  1.00  0.00     0.059 A 
ATOM     69  F   UNL A   1      42.534  33.576  33.713  1.00  0.00    -0.206 F 
ATOM     70  C   UNL A   1      40.542  34.155  36.671  1.00  0.00     0.060 A 
BRANCH  70  71
ATOM     71  S   UNL A   1      40.139  35.483  37.825  1.00  0.00     0.124 S 
ATOM     72  O   UNL A   1      41.340  35.525  38.653  1.00  0.00    -0.237 OA
ATOM     73  O   UNL A   1      39.943  36.621  36.934  1.00  0.00    -0.237 OA
ATOM     74  O   UNL A   1      38.935  35.000  38.494  1.00  0.00    -0.744 OA
ENDBRANCH  70  71
ENDBRANCH  49  63
BRANCH  50  75
ATOM     75  C   UNL A   1      43.150  24.926  28.175  1.00  0.00     0.058 A 
ATOM     76  C   UNL A   1      43.768  25.256  26.959  1.00  0.00     0.135 A 
ATOM     77  C   UNL A   1      42.851  23.575  28.410  1.00  0.00     0.135 A 
ATOM     78  F   UNL A   1      44.070  26.534  26.684  1.00  0.00    -0.206 F 
ATOM     79  C   UNL A   1      44.060  24.288  26.004  1.00  0.00     0.059 A 
ATOM     80  C   UNL A   1      43.160  22.585  27.482  1.00  0.00     0.059 A 
ATOM     81  F   UNL A   1      42.276  23.203  29.564  1.00  0.00    -0.206 F 
ATOM     82  C   UNL A   1      43.755  22.953  26.276  1.00  0.00     0.060 A 
BRANCH  82  83
ATOM     83  S   UNL A   1      44.180  21.700  25.048  1.00  0.00     0.124 S 
ATOM     84  O   UNL A   1      45.519  21.312  25.475  1.00  0.00    -0.237 OA
ATOM     85  O   UNL A   1      43.131  20.706  25.249  1.00  0.00    -0.237 OA
ATOM     86  O   UNL A   1      44.108  22.430  23.785  1.00  0.00    -0.744 OA
ENDBRANCH  82  83
ENDBRANCH  50  75
BRANCH  62  87
ATOM     87  C   UNL A   1      46.213  27.000  34.089  1.00  0.00     0.058 A 
ATOM     88  C   UNL A   1      46.139  25.979  35.051  1.00  0.00     0.135 A 
ATOM     89  C   UNL A   1      47.477  27.544  33.810  1.00  0.00     0.135 A 
ATOM     90  F   UNL A   1      44.954  25.426  35.359  1.00  0.00    -0.206 F 
ATOM     91  C   UNL A   1      47.266  25.547  35.741  1.00  0.00     0.059 A 
ATOM     92  C   UNL A   1      48.623  27.102  34.464  1.00  0.00     0.059 A 
ATOM     93  F   UNL A   1      47.610  28.511  32.889  1.00  0.00    -0.206 F 
ATOM     94  C   UNL A   1      48.505  26.116  35.441  1.00  0.00     0.060 A 
BRANCH  94  95
ATOM     95  S   UNL A   1      49.961  25.543  36.341  1.00  0.00     0.124 S 
ATOM     96  O   UNL A   1      50.359  26.752  37.055  1.00  0.00    -0.237 OA
ATOM     97  O   UNL A   1      49.415  24.471  37.167  1.00  0.00    -0.237 OA
ATOM     98  O   UNL A   1      50.867  25.112  35.282  1.00  0.00    -0.744 OA
ENDBRANCH  94  95
ENDBRANCH  62  87
ENDBRANCH  36  37
ENDBRANCH  28  31
ENDBRANCH  26  27
ENDBRANCH  25  26
ENDBRANCH   1  25
TORSDOF 18
ENDMDL
