MODEL 1
REMARK VINA RESULT:     -11.3      0.000      0.000
REMARK SMILES CC[C@H](C(=O)NCCCCNC(=O)c1ccc(-c2c3nc(c(-c4c(F)cc(S(=O)(=O)[O-])cc4F)c4ccc([nH]4)c(-c4c(F)cc(S(=O)(=O)[O-])cc4F)c4nc(c(-c5c(F)cc(S(=O)(=O)[O-])cc5F)c5ccc2[nH]5)C=C4)C=C3)cc1)N(C)c1cc(C)ccc1[N+](=O)[O-]
REMARK SMILES IDX 8 1 7 2 6 3 4 4 5 5 3 7 2 8 1 9 80 10 81 11 82 12 83 13
REMARK SMILES IDX 88 14 84 15 87 16 85 17 86 18 89 19 90 20 91 21 9 22 10 23
REMARK SMILES IDX 11 24 12 25 13 27 14 28 15 29 79 30 16 31 78 32 17 33 18 34
REMARK SMILES IDX 19 35 72 36 20 37 77 38 71 39 73 40 21 41 76 42 70 43 69 44
REMARK SMILES IDX 22 46 56 47 35 48 55 49 36 50 39 51 54 52 74 53 37 54 38 55
REMARK SMILES IDX 53 57 75 58 40 59 23 60 24 61 33 62 25 63 26 64 32 65 34 66
REMARK SMILES IDX 27 67 28 68 29 69 30 70 31 71 57 72 58 73 67 74 59 75 60 76
REMARK SMILES IDX 66 77 68 78 61 79 62 80 63 81 64 82 65 83 41 84 42 85 51 86
REMARK SMILES IDX 43 87 44 88 50 89 52 90 45 91 46 92 47 93 48 94 49 95
REMARK H PARENT 6 6 11 26 73 45 39 56
REMARK Flexibility Score: inf
ROOT
ATOM      1  C   UNL A   1      33.651  27.567  26.442  1.00  0.00     0.023 C 
ENDROOT
BRANCH   1   2
ATOM      2  C   UNL A   1      32.239  27.116  26.078  1.00  0.00     0.116 C 
BRANCH   2   3
ATOM      3  N   UNL A   1      31.872  25.907  26.773  1.00  0.00    -0.354 N 
ATOM      4  C   UNL A   1      31.456  24.706  26.309  1.00  0.00     0.242 C 
ATOM      5  O   UNL A   1      30.971  23.953  27.165  1.00  0.00    -0.273 OA
ATOM      6  H   UNL A   1      31.935  25.966  27.753  1.00  0.00     0.163 HD
BRANCH   4   7
ATOM      7  C   UNL A   1      31.427  24.319  24.806  1.00  0.00     0.171 C 
BRANCH   7   8
ATOM      8  C   UNL A   1      30.496  24.954  23.754  1.00  0.00     0.032 C 
ATOM      9  C   UNL A   1      29.486  26.003  24.181  1.00  0.00     0.006 C 
ENDBRANCH   7   8
BRANCH   7  10
ATOM     10  N   UNL A   1      32.820  24.160  24.275  1.00  0.00    -0.357 N 
ATOM     11  C   UNL A   1      33.220  25.114  23.237  1.00  0.00     0.144 C 
BRANCH  10  12
ATOM     12  C   UNL A   1      33.782  23.273  24.738  1.00  0.00     0.116 A 
ATOM     13  C   UNL A   1      35.012  23.815  25.182  1.00  0.00     0.036 A 
ATOM     14  C   UNL A   1      33.710  21.868  24.793  1.00  0.00     0.292 A 
ATOM     15  C   UNL A   1      36.086  23.031  25.648  1.00  0.00    -0.049 A 
ATOM     16  C   UNL A   1      34.758  21.065  25.292  1.00  0.00     0.088 A 
ATOM     17  C   UNL A   1      37.371  23.694  26.050  1.00  0.00     0.044 C 
ATOM     18  C   UNL A   1      35.942  21.649  25.720  1.00  0.00     0.010 A 
BRANCH  14  19
ATOM     19  N   UNL A   1      32.611  21.104  24.239  1.00  0.00     0.064 N 
ATOM     20  O   UNL A   1      31.793  20.640  25.045  1.00  0.00    -0.258 OA
ATOM     21  O   UNL A   1      32.479  21.122  23.005  1.00  0.00    -0.258 OA
ENDBRANCH  14  19
ENDBRANCH  10  12
ENDBRANCH   7  10
ENDBRANCH   4   7
ENDBRANCH   2   3
ENDBRANCH   1   2
BRANCH   1  22
ATOM     22  C   UNL A   1      33.725  28.856  27.267  1.00  0.00     0.023 C 
BRANCH  22  23
ATOM     23  C   UNL A   1      35.136  29.348  27.572  1.00  0.00     0.116 C 
BRANCH  23  24
ATOM     24  N   UNL A   1      35.196  30.121  28.803  1.00  0.00    -0.352 N 
ATOM     25  C   UNL A   1      36.240  30.285  29.682  1.00  0.00     0.251 C 
ATOM     26  H   UNL A   1      34.368  30.597  29.042  1.00  0.00     0.163 HD
ATOM     27  O   UNL A   1      36.046  30.811  30.771  1.00  0.00    -0.269 OA
BRANCH  25  28
ATOM     28  C   UNL A   1      37.590  29.809  29.310  1.00  0.00     0.039 A 
ATOM     29  C   UNL A   1      37.964  29.807  27.964  1.00  0.00     0.014 A 
ATOM     30  C   UNL A   1      38.484  29.368  30.290  1.00  0.00     0.014 A 
ATOM     31  C   UNL A   1      39.257  29.414  27.609  1.00  0.00     0.010 A 
ATOM     32  C   UNL A   1      39.797  29.064  29.943  1.00  0.00     0.010 A 
ATOM     33  C   UNL A   1      40.194  29.068  28.597  1.00  0.00    -0.014 A 
BRANCH  33  34
ATOM     34  C   UNL A   1      41.582  28.672  28.243  1.00  0.00     0.031 A 
ATOM     35  C   UNL A   1      42.666  29.716  28.178  1.00  0.00     0.074 A 
ATOM     36  C   UNL A   1      41.857  27.389  27.933  1.00  0.00     0.049 A 
ATOM     37  N   UNL A   1      43.922  29.583  27.837  1.00  0.00    -0.248 NA
ATOM     38  C   UNL A   1      42.280  31.097  28.512  1.00  0.00     0.031 C 
ATOM     39  C   UNL A   1      40.884  26.295  27.910  1.00  0.00     0.029 A 
ATOM     40  N   UNL A   1      43.036  26.789  27.569  1.00  0.00    -0.354 N 
ATOM     41  C   UNL A   1      44.468  30.861  27.902  1.00  0.00     0.074 A 
ATOM     42  C   UNL A   1      43.394  31.762  28.251  1.00  0.00     0.031 C 
ATOM     43  C   UNL A   1      41.511  25.154  27.579  1.00  0.00     0.029 A 
ATOM     44  C   UNL A   1      42.919  25.440  27.327  1.00  0.00     0.049 A 
ATOM     45  H   UNL A   1      43.887  27.279  27.487  1.00  0.00     0.167 HD
ATOM     46  C   UNL A   1      45.754  31.244  27.717  1.00  0.00     0.037 A 
ATOM     47  C   UNL A   1      43.844  24.537  26.942  1.00  0.00     0.037 A 
ATOM     48  C   UNL A   1      46.824  30.336  27.393  1.00  0.00     0.049 A 
ATOM     49  C   UNL A   1      45.267  24.987  26.744  1.00  0.00     0.074 A 
ATOM     50  C   UNL A   1      48.170  30.616  27.233  1.00  0.00     0.029 A 
ATOM     51  N   UNL A   1      46.671  28.975  27.179  1.00  0.00    -0.354 N 
ATOM     52  N   UNL A   1      45.779  26.189  26.870  1.00  0.00    -0.248 NA
ATOM     53  C   UNL A   1      46.241  23.956  26.363  1.00  0.00     0.031 C 
ATOM     54  C   UNL A   1      48.823  29.431  26.876  1.00  0.00     0.029 A 
ATOM     55  C   UNL A   1      47.894  28.402  26.873  1.00  0.00     0.049 A 
ATOM     56  H   UNL A   1      45.817  28.486  27.238  1.00  0.00     0.167 HD
ATOM     57  C   UNL A   1      47.140  26.052  26.618  1.00  0.00     0.074 A 
ATOM     58  C   UNL A   1      47.373  24.648  26.347  1.00  0.00     0.031 C 
ATOM     59  C   UNL A   1      48.111  27.000  26.616  1.00  0.00     0.037 A 
BRANCH  46  60
ATOM     60  C   UNL A   1      46.074  32.708  27.868  1.00  0.00     0.058 A 
ATOM     61  C   UNL A   1      46.580  33.234  29.068  1.00  0.00     0.135 A 
ATOM     62  C   UNL A   1      45.899  33.593  26.792  1.00  0.00     0.135 A 
ATOM     63  F   UNL A   1      46.752  32.438  30.137  1.00  0.00    -0.206 F 
ATOM     64  C   UNL A   1      46.870  34.586  29.207  1.00  0.00     0.059 A 
ATOM     65  C   UNL A   1      46.214  34.945  26.897  1.00  0.00     0.059 A 
ATOM     66  F   UNL A   1      45.419  33.148  25.621  1.00  0.00    -0.206 F 
ATOM     67  C   UNL A   1      46.685  35.435  28.115  1.00  0.00     0.060 A 
BRANCH  67  68
ATOM     68  S   UNL A   1      47.075  37.187  28.310  1.00  0.00     0.124 S 
ATOM     69  O   UNL A   1      46.070  37.602  29.284  1.00  0.00    -0.237 OA
ATOM     70  O   UNL A   1      48.450  37.147  28.798  1.00  0.00    -0.237 OA
ATOM     71  O   UNL A   1      46.905  37.727  26.964  1.00  0.00    -0.744 OA
ENDBRANCH  67  68
ENDBRANCH  46  60
BRANCH  47  72
ATOM     72  C   UNL A   1      43.462  23.111  26.750  1.00  0.00     0.058 A 
ATOM     73  C   UNL A   1      43.437  22.536  25.471  1.00  0.00     0.135 A 
ATOM     74  C   UNL A   1      43.114  22.296  27.838  1.00  0.00     0.135 A 
ATOM     75  F   UNL A   1      43.755  23.275  24.396  1.00  0.00    -0.206 F 
ATOM     76  C   UNL A   1      43.058  21.212  25.272  1.00  0.00     0.059 A 
ATOM     77  C   UNL A   1      42.759  20.960  27.667  1.00  0.00     0.059 A 
ATOM     78  F   UNL A   1      43.139  22.790  29.085  1.00  0.00    -0.206 F 
ATOM     79  C   UNL A   1      42.722  20.430  26.378  1.00  0.00     0.060 A 
BRANCH  79  80
ATOM     80  S   UNL A   1      42.269  18.703  26.112  1.00  0.00     0.124 S 
ATOM     81  O   UNL A   1      40.855  18.818  25.774  1.00  0.00    -0.237 OA
ATOM     82  O   UNL A   1      43.158  18.319  25.020  1.00  0.00    -0.237 OA
ATOM     83  O   UNL A   1      42.561  18.077  27.398  1.00  0.00    -0.744 OA
ENDBRANCH  79  80
ENDBRANCH  47  72
BRANCH  59  84
ATOM     84  C   UNL A   1      49.523  26.543  26.362  1.00  0.00     0.058 A 
ATOM     85  C   UNL A   1      50.317  25.980  27.372  1.00  0.00     0.135 A 
ATOM     86  C   UNL A   1      50.077  26.643  25.074  1.00  0.00     0.135 A 
ATOM     87  F   UNL A   1      49.840  25.863  28.622  1.00  0.00    -0.206 F 
ATOM     88  C   UNL A   1      51.624  25.570  27.127  1.00  0.00     0.059 A 
ATOM     89  C   UNL A   1      51.369  26.209  24.798  1.00  0.00     0.059 A 
ATOM     90  F   UNL A   1      49.357  27.159  24.065  1.00  0.00    -0.206 F 
ATOM     91  C   UNL A   1      52.141  25.691  25.835  1.00  0.00     0.060 A 
BRANCH  91  92
ATOM     92  S   UNL A   1      53.835  25.148  25.527  1.00  0.00     0.124 S 
ATOM     93  O   UNL A   1      54.514  25.601  26.736  1.00  0.00    -0.237 OA
ATOM     94  O   UNL A   1      53.681  23.703  25.390  1.00  0.00    -0.237 OA
ATOM     95  O   UNL A   1      54.200  25.852  24.301  1.00  0.00    -0.744 OA
ENDBRANCH  91  92
ENDBRANCH  59  84
ENDBRANCH  33  34
ENDBRANCH  25  28
ENDBRANCH  23  24
ENDBRANCH  22  23
ENDBRANCH   1  22
TORSDOF 18
ENDMDL
MODEL 2
REMARK VINA RESULT:     -11.2      3.000      3.801
REMARK SMILES CC[C@H](C(=O)NCCCCNC(=O)c1ccc(-c2c3nc(c(-c4c(F)cc(S(=O)(=O)[O-])cc4F)c4ccc([nH]4)c(-c4c(F)cc(S(=O)(=O)[O-])cc4F)c4nc(c(-c5c(F)cc(S(=O)(=O)[O-])cc5F)c5ccc2[nH]5)C=C4)C=C3)cc1)N(C)c1cc(C)ccc1[N+](=O)[O-]
REMARK SMILES IDX 8 1 7 2 6 3 4 4 5 5 3 7 2 8 1 9 80 10 81 11 82 12 83 13
REMARK SMILES IDX 88 14 84 15 87 16 85 17 86 18 89 19 90 20 91 21 9 22 10 23
REMARK SMILES IDX 11 24 12 25 13 27 14 28 15 29 79 30 16 31 78 32 17 33 18 34
REMARK SMILES IDX 19 35 72 36 20 37 77 38 71 39 73 40 21 41 76 42 70 43 69 44
REMARK SMILES IDX 22 46 56 47 35 48 55 49 36 50 39 51 54 52 74 53 37 54 38 55
REMARK SMILES IDX 53 57 75 58 40 59 23 60 24 61 33 62 25 63 26 64 32 65 34 66
REMARK SMILES IDX 27 67 28 68 29 69 30 70 31 71 57 72 58 73 67 74 59 75 60 76
REMARK SMILES IDX 66 77 68 78 61 79 62 80 63 81 64 82 65 83 41 84 42 85 51 86
REMARK SMILES IDX 43 87 44 88 50 89 52 90 45 91 46 92 47 93 48 94 49 95
REMARK H PARENT 6 6 11 26 73 45 39 56
REMARK Flexibility Score: inf
ROOT
ATOM      1  C   UNL A   1      33.432  28.403  24.707  1.00  0.00     0.023 C 
ENDROOT
BRANCH   1   2
ATOM      2  C   UNL A   1      34.001  27.969  23.360  1.00  0.00     0.116 C 
BRANCH   2   3
ATOM      3  N   UNL A   1      32.958  27.707  22.401  1.00  0.00    -0.354 N 
ATOM      4  C   UNL A   1      31.952  26.802  22.405  1.00  0.00     0.242 C 
ATOM      5  O   UNL A   1      31.376  26.654  21.318  1.00  0.00    -0.273 OA
ATOM      6  H   UNL A   1      32.980  28.288  21.605  1.00  0.00     0.163 HD
BRANCH   4   7
ATOM      7  C   UNL A   1      31.614  25.886  23.611  1.00  0.00     0.171 C 
BRANCH   7   8
ATOM      8  C   UNL A   1      30.187  25.562  24.095  1.00  0.00     0.032 C 
ATOM      9  C   UNL A   1      29.111  26.630  24.030  1.00  0.00     0.006 C 
ENDBRANCH   7   8
BRANCH   7  10
ATOM     10  N   UNL A   1      32.476  24.659  23.600  1.00  0.00    -0.357 N 
ATOM     11  C   UNL A   1      32.535  23.932  22.331  1.00  0.00     0.144 C 
BRANCH  10  12
ATOM     12  C   UNL A   1      33.288  24.214  24.635  1.00  0.00     0.116 A 
ATOM     13  C   UNL A   1      34.688  24.241  24.426  1.00  0.00     0.036 A 
ATOM     14  C   UNL A   1      32.895  23.692  25.881  1.00  0.00     0.292 A 
ATOM     15  C   UNL A   1      35.627  23.792  25.376  1.00  0.00    -0.049 A 
ATOM     16  C   UNL A   1      33.818  23.272  26.863  1.00  0.00     0.088 A 
ATOM     17  C   UNL A   1      37.090  23.813  25.042  1.00  0.00     0.044 C 
ATOM     18  C   UNL A   1      35.181  23.325  26.609  1.00  0.00     0.010 A 
BRANCH  14  19
ATOM     19  N   UNL A   1      31.516  23.425  26.234  1.00  0.00     0.064 N 
ATOM     20  O   UNL A   1      30.955  22.500  25.630  1.00  0.00    -0.258 OA
ATOM     21  O   UNL A   1      31.063  24.020  27.224  1.00  0.00    -0.258 OA
ENDBRANCH  14  19
ENDBRANCH  10  12
ENDBRANCH   7  10
ENDBRANCH   4   7
ENDBRANCH   2   3
ENDBRANCH   1   2
BRANCH   1  22
ATOM     22  C   UNL A   1      34.053  27.711  25.925  1.00  0.00     0.023 C 
BRANCH  22  23
ATOM     23  C   UNL A   1      33.466  28.120  27.271  1.00  0.00     0.116 C 
BRANCH  23  24
ATOM     24  N   UNL A   1      33.357  29.564  27.409  1.00  0.00    -0.352 N 
ATOM     25  C   UNL A   1      34.272  30.467  27.897  1.00  0.00     0.251 C 
ATOM     26  H   UNL A   1      32.503  29.952  27.111  1.00  0.00     0.163 HD
ATOM     27  O   UNL A   1      33.931  31.621  28.124  1.00  0.00    -0.269 OA
BRANCH  25  28
ATOM     28  C   UNL A   1      35.661  30.032  28.158  1.00  0.00     0.039 A 
ATOM     29  C   UNL A   1      36.612  30.144  27.141  1.00  0.00     0.014 A 
ATOM     30  C   UNL A   1      36.022  29.515  29.405  1.00  0.00     0.014 A 
ATOM     31  C   UNL A   1      37.939  29.790  27.397  1.00  0.00     0.010 A 
ATOM     32  C   UNL A   1      37.359  29.250  29.684  1.00  0.00     0.010 A 
ATOM     33  C   UNL A   1      38.330  29.368  28.679  1.00  0.00    -0.014 A 
BRANCH  33  34
ATOM     34  C   UNL A   1      39.741  29.010  28.980  1.00  0.00     0.031 A 
ATOM     35  C   UNL A   1      40.658  30.034  29.596  1.00  0.00     0.074 A 
ATOM     36  C   UNL A   1      40.210  27.788  28.655  1.00  0.00     0.049 A 
ATOM     37  N   UNL A   1      41.932  29.937  29.883  1.00  0.00    -0.248 NA
ATOM     38  C   UNL A   1      40.075  31.351  29.903  1.00  0.00     0.031 C 
ATOM     39  C   UNL A   1      39.435  26.728  28.008  1.00  0.00     0.029 A 
ATOM     40  N   UNL A   1      41.455  27.235  28.817  1.00  0.00    -0.354 N 
ATOM     41  C   UNL A   1      42.301  31.180  30.388  1.00  0.00     0.074 A 
ATOM     42  C   UNL A   1      41.135  32.032  30.308  1.00  0.00     0.031 C 
ATOM     43  C   UNL A   1      40.213  25.644  27.855  1.00  0.00     0.029 A 
ATOM     44  C   UNL A   1      41.551  25.943  28.354  1.00  0.00     0.049 A 
ATOM     45  H   UNL A   1      42.210  27.718  29.226  1.00  0.00     0.167 HD
ATOM     46  C   UNL A   1      43.493  31.567  30.900  1.00  0.00     0.037 A 
ATOM     47  C   UNL A   1      42.601  25.098  28.332  1.00  0.00     0.037 A 
ATOM     48  C   UNL A   1      44.642  30.705  31.000  1.00  0.00     0.049 A 
ATOM     49  C   UNL A   1      43.917  25.552  28.908  1.00  0.00     0.074 A 
ATOM     50  C   UNL A   1      45.883  30.985  31.547  1.00  0.00     0.029 A 
ATOM     51  N   UNL A   1      44.694  29.397  30.541  1.00  0.00    -0.354 N 
ATOM     52  N   UNL A   1      44.232  26.710  29.438  1.00  0.00    -0.248 NA
ATOM     53  C   UNL A   1      45.017  24.578  28.894  1.00  0.00     0.031 C 
ATOM     54  C   UNL A   1      46.699  29.861  31.378  1.00  0.00     0.029 A 
ATOM     55  C   UNL A   1      45.949  28.860  30.779  1.00  0.00     0.049 A 
ATOM     56  H   UNL A   1      43.948  28.919  30.112  1.00  0.00     0.167 HD
ATOM     57  C   UNL A   1      45.555  26.593  29.853  1.00  0.00     0.074 A 
ATOM     58  C   UNL A   1      45.975  25.246  29.524  1.00  0.00     0.031 C 
ATOM     59  C   UNL A   1      46.348  27.514  30.454  1.00  0.00     0.037 A 
BRANCH  46  60
ATOM     60  C   UNL A   1      43.611  32.983  31.398  1.00  0.00     0.058 A 
ATOM     61  C   UNL A   1      44.010  34.033  30.554  1.00  0.00     0.135 A 
ATOM     62  C   UNL A   1      43.294  33.302  32.728  1.00  0.00     0.135 A 
ATOM     63  F   UNL A   1      44.342  33.785  29.276  1.00  0.00    -0.206 F 
ATOM     64  C   UNL A   1      44.123  35.339  31.017  1.00  0.00     0.059 A 
ATOM     65  C   UNL A   1      43.368  34.608  33.206  1.00  0.00     0.059 A 
ATOM     66  F   UNL A   1      42.908  32.341  33.581  1.00  0.00    -0.206 F 
ATOM     67  C   UNL A   1      43.799  35.617  32.346  1.00  0.00     0.060 A 
BRANCH  67  68
ATOM     68  S   UNL A   1      43.942  37.320  32.928  1.00  0.00     0.124 S 
ATOM     69  O   UNL A   1      43.788  38.067  31.682  1.00  0.00    -0.237 OA
ATOM     70  O   UNL A   1      42.831  37.423  33.868  1.00  0.00    -0.237 OA
ATOM     71  O   UNL A   1      45.273  37.366  33.526  1.00  0.00    -0.744 OA
ENDBRANCH  67  68
ENDBRANCH  46  60
BRANCH  47  72
ATOM     72  C   UNL A   1      42.446  23.727  27.773  1.00  0.00     0.058 A 
ATOM     73  C   UNL A   1      42.398  23.513  26.388  1.00  0.00     0.135 A 
ATOM     74  C   UNL A   1      42.342  22.606  28.610  1.00  0.00     0.135 A 
ATOM     75  F   UNL A   1      42.487  24.553  25.544  1.00  0.00    -0.206 F 
ATOM     76  C   UNL A   1      42.228  22.241  25.851  1.00  0.00     0.059 A 
ATOM     77  C   UNL A   1      42.200  21.319  28.096  1.00  0.00     0.059 A 
ATOM     78  F   UNL A   1      42.400  22.752  29.943  1.00  0.00    -0.206 F 
ATOM     79  C   UNL A   1      42.131  21.148  26.714  1.00  0.00     0.060 A 
BRANCH  79  80
ATOM     80  S   UNL A   1      41.950  19.498  26.005  1.00  0.00     0.124 S 
ATOM     81  O   UNL A   1      42.855  19.568  24.863  1.00  0.00    -0.237 OA
ATOM     82  O   UNL A   1      42.378  18.642  27.108  1.00  0.00    -0.237 OA
ATOM     83  O   UNL A   1      40.529  19.426  25.681  1.00  0.00    -0.744 OA
ENDBRANCH  79  80
ENDBRANCH  47  72
BRANCH  59  84
ATOM     84  C   UNL A   1      47.737  27.080  30.844  1.00  0.00     0.058 A 
ATOM     85  C   UNL A   1      48.005  26.451  32.070  1.00  0.00     0.135 A 
ATOM     86  C   UNL A   1      48.811  27.271  29.959  1.00  0.00     0.135 A 
ATOM     87  F   UNL A   1      47.017  26.246  32.955  1.00  0.00    -0.206 F 
ATOM     88  C   UNL A   1      49.294  26.064  32.422  1.00  0.00     0.059 A 
ATOM     89  C   UNL A   1      50.102  26.862  30.276  1.00  0.00     0.059 A 
ATOM     90  F   UNL A   1      48.610  27.854  28.766  1.00  0.00    -0.206 F 
ATOM     91  C   UNL A   1      50.337  26.275  31.518  1.00  0.00     0.060 A 
BRANCH  91  92
ATOM     92  S   UNL A   1      52.004  25.761  31.982  1.00  0.00     0.124 S 
ATOM     93  O   UNL A   1      52.289  26.660  33.095  1.00  0.00    -0.237 OA
ATOM     94  O   UNL A   1      51.811  24.358  32.335  1.00  0.00    -0.237 OA
ATOM     95  O   UNL A   1      52.782  25.995  30.770  1.00  0.00    -0.744 OA
ENDBRANCH  91  92
ENDBRANCH  59  84
ENDBRANCH  33  34
ENDBRANCH  25  28
ENDBRANCH  23  24
ENDBRANCH  22  23
ENDBRANCH   1  22
TORSDOF 18
ENDMDL
MODEL 3
REMARK VINA RESULT:     -11.2      6.825     12.311
REMARK SMILES CC[C@H](C(=O)NCCCCNC(=O)c1ccc(-c2c3nc(c(-c4c(F)cc(S(=O)(=O)[O-])cc4F)c4ccc([nH]4)c(-c4c(F)cc(S(=O)(=O)[O-])cc4F)c4nc(c(-c5c(F)cc(S(=O)(=O)[O-])cc5F)c5ccc2[nH]5)C=C4)C=C3)cc1)N(C)c1cc(C)ccc1[N+](=O)[O-]
REMARK SMILES IDX 8 1 7 2 6 3 4 4 5 5 3 7 2 8 1 9 80 10 81 11 82 12 83 13
REMARK SMILES IDX 88 14 84 15 87 16 85 17 86 18 89 19 90 20 91 21 9 22 10 23
REMARK SMILES IDX 11 24 12 25 13 27 14 28 15 29 79 30 16 31 78 32 17 33 18 34
REMARK SMILES IDX 19 35 72 36 20 37 77 38 71 39 73 40 21 41 76 42 70 43 69 44
REMARK SMILES IDX 22 46 56 47 35 48 55 49 36 50 39 51 54 52 74 53 37 54 38 55
REMARK SMILES IDX 53 57 75 58 40 59 23 60 24 61 33 62 25 63 26 64 32 65 34 66
REMARK SMILES IDX 27 67 28 68 29 69 30 70 31 71 57 72 58 73 67 74 59 75 60 76
REMARK SMILES IDX 66 77 68 78 61 79 62 80 63 81 64 82 65 83 41 84 42 85 51 86
REMARK SMILES IDX 43 87 44 88 50 89 52 90 45 91 46 92 47 93 48 94 49 95
REMARK H PARENT 6 6 11 26 73 45 39 56
REMARK Flexibility Score: inf
ROOT
ATOM      1  C   UNL A   1      35.768  24.395  25.519  1.00  0.00     0.023 C 
ENDROOT
BRANCH   1   2
ATOM      2  C   UNL A   1      34.743  23.756  24.586  1.00  0.00     0.116 C 
BRANCH   2   3
ATOM      3  N   UNL A   1      34.489  24.579  23.431  1.00  0.00    -0.354 N 
ATOM      4  C   UNL A   1      33.342  24.848  22.765  1.00  0.00     0.242 C 
ATOM      5  O   UNL A   1      33.493  25.386  21.659  1.00  0.00    -0.273 OA
ATOM      6  H   UNL A   1      35.287  25.023  23.063  1.00  0.00     0.163 HD
BRANCH   4   7
ATOM      7  C   UNL A   1      31.936  24.395  23.241  1.00  0.00     0.171 C 
BRANCH   7   8
ATOM      8  C   UNL A   1      31.521  22.931  23.485  1.00  0.00     0.032 C 
ATOM      9  C   UNL A   1      32.195  21.819  22.703  1.00  0.00     0.006 C 
ENDBRANCH   7   8
BRANCH   7  10
ATOM     10  N   UNL A   1      31.435  25.292  24.334  1.00  0.00    -0.357 N 
ATOM     11  C   UNL A   1      31.314  24.677  25.658  1.00  0.00     0.144 C 
BRANCH  10  12
ATOM     12  C   UNL A   1      31.175  26.651  24.229  1.00  0.00     0.116 A 
ATOM     13  C   UNL A   1      29.950  27.040  23.638  1.00  0.00     0.036 A 
ATOM     14  C   UNL A   1      32.005  27.723  24.609  1.00  0.00     0.292 A 
ATOM     15  C   UNL A   1      29.570  28.382  23.440  1.00  0.00    -0.049 A 
ATOM     16  C   UNL A   1      31.630  29.075  24.458  1.00  0.00     0.088 A 
ATOM     17  C   UNL A   1      28.272  28.695  22.756  1.00  0.00     0.044 C 
ATOM     18  C   UNL A   1      30.412  29.401  23.875  1.00  0.00     0.010 A 
BRANCH  14  19
ATOM     19  N   UNL A   1      33.363  27.551  25.082  1.00  0.00     0.064 N 
ATOM     20  O   UNL A   1      34.268  27.741  24.258  1.00  0.00    -0.258 OA
ATOM     21  O   UNL A   1      33.519  27.400  26.304  1.00  0.00    -0.258 OA
ENDBRANCH  14  19
ENDBRANCH  10  12
ENDBRANCH   7  10
ENDBRANCH   4   7
ENDBRANCH   2   3
ENDBRANCH   1   2
BRANCH   1  22
ATOM     22  C   UNL A   1      37.134  23.703  25.552  1.00  0.00     0.023 C 
BRANCH  22  23
ATOM     23  C   UNL A   1      38.141  24.304  26.526  1.00  0.00     0.116 C 
BRANCH  23  24
ATOM     24  N   UNL A   1      39.513  24.148  26.067  1.00  0.00    -0.352 N 
ATOM     25  C   UNL A   1      40.638  24.858  26.418  1.00  0.00     0.251 C 
ATOM     26  H   UNL A   1      39.658  23.431  25.410  1.00  0.00     0.163 HD
ATOM     27  O   UNL A   1      41.673  24.718  25.779  1.00  0.00    -0.269 OA
BRANCH  25  28
ATOM     28  C   UNL A   1      40.582  25.799  27.557  1.00  0.00     0.039 A 
ATOM     29  C   UNL A   1      41.464  26.882  27.588  1.00  0.00     0.014 A 
ATOM     30  C   UNL A   1      39.661  25.612  28.590  1.00  0.00     0.014 A 
ATOM     31  C   UNL A   1      41.380  27.809  28.630  1.00  0.00     0.010 A 
ATOM     32  C   UNL A   1      39.519  26.584  29.577  1.00  0.00     0.010 A 
ATOM     33  C   UNL A   1      40.388  27.685  29.617  1.00  0.00    -0.014 A 
BRANCH  33  34
ATOM     34  C   UNL A   1      40.265  28.673  30.720  1.00  0.00     0.031 A 
ATOM     35  C   UNL A   1      41.129  28.539  31.947  1.00  0.00     0.074 A 
ATOM     36  C   UNL A   1      39.346  29.657  30.642  1.00  0.00     0.049 A 
ATOM     37  N   UNL A   1      41.135  29.263  33.037  1.00  0.00    -0.248 NA
ATOM     38  C   UNL A   1      42.093  27.427  31.963  1.00  0.00     0.031 C 
ATOM     39  C   UNL A   1      38.416  29.862  29.530  1.00  0.00     0.029 A 
ATOM     40  N   UNL A   1      39.037  30.665  31.521  1.00  0.00    -0.354 N 
ATOM     41  C   UNL A   1      42.088  28.685  33.869  1.00  0.00     0.074 A 
ATOM     42  C   UNL A   1      42.593  27.516  33.186  1.00  0.00     0.031 C 
ATOM     43  C   UNL A   1      37.662  30.945  29.780  1.00  0.00     0.029 A 
ATOM     44  C   UNL A   1      38.024  31.488  31.085  1.00  0.00     0.049 A 
ATOM     45  H   UNL A   1      39.497  30.788  32.383  1.00  0.00     0.167 HD
ATOM     46  C   UNL A   1      42.525  29.108  35.080  1.00  0.00     0.037 A 
ATOM     47  C   UNL A   1      37.451  32.557  31.674  1.00  0.00     0.037 A 
ATOM     48  C   UNL A   1      42.035  30.288  35.744  1.00  0.00     0.049 A 
ATOM     49  C   UNL A   1      37.956  33.007  33.020  1.00  0.00     0.074 A 
ATOM     50  C   UNL A   1      42.446  30.830  36.949  1.00  0.00     0.029 A 
ATOM     51  N   UNL A   1      41.026  31.107  35.261  1.00  0.00    -0.354 N 
ATOM     52  N   UNL A   1      38.901  32.486  33.765  1.00  0.00    -0.248 NA
ATOM     53  C   UNL A   1      37.323  34.200  33.599  1.00  0.00     0.031 C 
ATOM     54  C   UNL A   1      41.654  31.951  37.217  1.00  0.00     0.029 A 
ATOM     55  C   UNL A   1      40.789  32.143  36.150  1.00  0.00     0.049 A 
ATOM     56  H   UNL A   1      40.549  30.974  34.410  1.00  0.00     0.167 HD
ATOM     57  C   UNL A   1      39.001  33.306  34.884  1.00  0.00     0.074 A 
ATOM     58  C   UNL A   1      38.028  34.366  34.709  1.00  0.00     0.031 C 
ATOM     59  C   UNL A   1      39.824  33.196  35.957  1.00  0.00     0.037 A 
BRANCH  46  60
ATOM     60  C   UNL A   1      43.592  28.291  35.759  1.00  0.00     0.058 A 
ATOM     61  C   UNL A   1      43.273  27.255  36.654  1.00  0.00     0.135 A 
ATOM     62  C   UNL A   1      44.951  28.525  35.493  1.00  0.00     0.135 A 
ATOM     63  F   UNL A   1      41.990  26.997  36.961  1.00  0.00    -0.206 F 
ATOM     64  C   UNL A   1      44.260  26.506  37.284  1.00  0.00     0.059 A 
ATOM     65  C   UNL A   1      45.955  27.765  36.087  1.00  0.00     0.059 A 
ATOM     66  F   UNL A   1      45.316  29.500  34.647  1.00  0.00    -0.206 F 
ATOM     67  C   UNL A   1      45.599  26.767  36.994  1.00  0.00     0.060 A 
BRANCH  67  68
ATOM     68  S   UNL A   1      46.867  25.778  37.813  1.00  0.00     0.124 S 
ATOM     69  O   UNL A   1      46.063  24.721  38.421  1.00  0.00    -0.237 OA
ATOM     70  O   UNL A   1      47.712  25.367  36.697  1.00  0.00    -0.237 OA
ATOM     71  O   UNL A   1      47.480  26.715  38.750  1.00  0.00    -0.744 OA
ENDBRANCH  67  68
ENDBRANCH  46  60
BRANCH  47  72
ATOM     72  C   UNL A   1      36.358  33.294  30.983  1.00  0.00     0.058 A 
ATOM     73  C   UNL A   1      36.626  34.109  29.873  1.00  0.00     0.135 A 
ATOM     74  C   UNL A   1      35.027  33.201  31.417  1.00  0.00     0.135 A 
ATOM     75  F   UNL A   1      37.884  34.236  29.422  1.00  0.00    -0.206 F 
ATOM     76  C   UNL A   1      35.620  34.824  29.232  1.00  0.00     0.059 A 
ATOM     77  C   UNL A   1      33.998  33.884  30.774  1.00  0.00     0.059 A 
ATOM     78  F   UNL A   1      34.713  32.422  32.463  1.00  0.00    -0.206 F 
ATOM     79  C   UNL A   1      34.306  34.704  29.690  1.00  0.00     0.060 A 
BRANCH  79  80
ATOM     80  S   UNL A   1      33.003  35.606  28.826  1.00  0.00     0.124 S 
ATOM     81  O   UNL A   1      33.770  36.628  28.123  1.00  0.00    -0.237 OA
ATOM     82  O   UNL A   1      32.411  34.565  27.991  1.00  0.00    -0.237 OA
ATOM     83  O   UNL A   1      32.153  36.088  29.909  1.00  0.00    -0.744 OA
ENDBRANCH  79  80
ENDBRANCH  47  72
BRANCH  59  84
ATOM     84  C   UNL A   1      39.747  34.278  37.001  1.00  0.00     0.058 A 
ATOM     85  C   UNL A   1      40.373  35.522  36.834  1.00  0.00     0.135 A 
ATOM     86  C   UNL A   1      39.006  34.072  38.177  1.00  0.00     0.135 A 
ATOM     87  F   UNL A   1      41.097  35.773  35.731  1.00  0.00    -0.206 F 
ATOM     88  C   UNL A   1      40.302  36.511  37.811  1.00  0.00     0.059 A 
ATOM     89  C   UNL A   1      38.893  35.057  39.153  1.00  0.00     0.059 A 
ATOM     90  F   UNL A   1      38.374  32.906  38.384  1.00  0.00    -0.206 F 
ATOM     91  C   UNL A   1      39.560  36.267  38.968  1.00  0.00     0.060 A 
BRANCH  91  92
ATOM     92  S   UNL A   1      39.468  37.559  40.226  1.00  0.00     0.124 S 
ATOM     93  O   UNL A   1      38.909  36.828  41.358  1.00  0.00    -0.237 OA
ATOM     94  O   UNL A   1      40.863  37.964  40.360  1.00  0.00    -0.237 OA
ATOM     95  O   UNL A   1      38.586  38.556  39.626  1.00  0.00    -0.744 OA
ENDBRANCH  91  92
ENDBRANCH  59  84
ENDBRANCH  33  34
ENDBRANCH  25  28
ENDBRANCH  23  24
ENDBRANCH  22  23
ENDBRANCH   1  22
TORSDOF 18
ENDMDL
