MODEL 1
REMARK VINA RESULT:     -12.5      0.000      0.000
REMARK SMILES C[C@H]1[C@@H]([NH2+]C[C@H]2CC[C@@H](C(=O)NCCCCNC(=O)c3ccc(-c4c5nc(c(-c6c(F)cc(S(=O)(=O)[O-])cc6F)c6ccc([nH]6)c(-c6c(F)cc(S(=O)(=O)[O-])cc6F)c6nc(c(-c7c(F)cc(S(=O)(=O)[O-])cc7F)c7ccc4[nH]7)C=C6)C=C5)cc3)CC2)CCC[C@@H]1C
REMARK SMILES IDX 14 1 13 2 12 3 10 4 11 5 9 7 6 8 7 9 87 10 8 11 86 12 5 13
REMARK SMILES IDX 4 14 3 17 1 18 2 19 91 20 88 21 90 22 92 23 89 24 15 25
REMARK SMILES IDX 16 26 17 27 18 28 19 30 20 31 21 32 85 33 22 34 84 35 23 36
REMARK SMILES IDX 24 37 25 38 78 39 26 40 83 41 77 42 79 43 27 44 82 45 76 46
REMARK SMILES IDX 75 47 28 49 62 50 41 51 61 52 42 53 45 54 60 55 80 56 43 57
REMARK SMILES IDX 44 58 59 60 81 61 46 62 29 63 30 64 39 65 31 66 32 67 38 68
REMARK SMILES IDX 40 69 33 70 34 71 35 72 36 73 37 74 63 75 64 76 73 77 65 78
REMARK SMILES IDX 66 79 72 80 74 81 67 82 68 83 69 84 70 85 71 86 47 87 48 88
REMARK SMILES IDX 57 89 49 90 50 91 56 92 58 93 51 94 52 95 53 96 54 97 55 98
REMARK H PARENT 12 6 4 15 4 16 17 29 79 48 45 59
REMARK Flexibility Score: inf
ROOT
ATOM      1  C   UNL A   1      35.321  33.036  28.331  1.00  0.00     0.023 C 
ENDROOT
BRANCH   1   2
ATOM      2  C   UNL A   1      34.726  31.146  27.631  1.00  0.00     0.116 C 
BRANCH   2   3
ATOM      3  N   UNL A   1      33.369  30.335  27.609  1.00  0.00    -0.356 N 
ATOM      4  C   UNL A   1      32.856  29.397  26.762  1.00  0.00     0.223 C 
ATOM      5  O   UNL A   1      31.643  29.180  26.856  1.00  0.00    -0.275 OA
ATOM      6  H   UNL A   1      32.771  30.551  28.361  1.00  0.00     0.163 HD
BRANCH   4   7
ATOM      7  C   UNL A   1      33.676  28.634  25.736  1.00  0.00     0.078 C 
ATOM      8  C   UNL A   1      33.169  26.473  23.769  1.00  0.00     0.044 C 
ATOM      9  C   UNL A   1      33.493  27.901  23.276  1.00  0.00     0.010 C 
ATOM     10  C   UNL A   1      34.058  26.194  24.976  1.00  0.00     0.010 C 
ATOM     11  C   UNL A   1      33.195  28.970  24.322  1.00  0.00     0.014 C 
ATOM     12  C   UNL A   1      33.872  27.164  26.132  1.00  0.00     0.014 C 
BRANCH   8  13
ATOM     13  C   UNL A   1      31.637  26.301  23.943  1.00  0.00     0.264 C 
BRANCH  13  14
ATOM     14  N   UNL A   1      30.944  25.134  23.418  1.00  0.00    -0.343 N 
ATOM     15  H   UNL A   1      29.985  25.175  23.765  1.00  0.00     0.346 HD
ATOM     16  H   UNL A   1      31.066  25.211  22.407  1.00  0.00     0.346 HD
BRANCH  14  17
ATOM     17  C   UNL A   1      31.470  23.776  23.740  1.00  0.00     0.185 C 
ATOM     18  C   UNL A   1      30.706  23.922  26.605  1.00  0.00     0.014 C 
ATOM     19  C   UNL A   1      31.684  23.304  25.600  1.00  0.00     0.047 C 
ATOM     20  C   UNL A   1      33.467  23.063  26.346  1.00  0.00    -0.006 C 
ATOM     21  C   UNL A   1      32.910  23.305  22.499  1.00  0.00     0.065 C 
ATOM     22  C   UNL A   1      34.932  22.628  25.126  1.00  0.00     0.004 C 
ATOM     23  C   UNL A   1      33.390  22.072  27.521  1.00  0.00     0.008 C 
ATOM     24  C   UNL A   1      34.698  22.944  23.182  1.00  0.00     0.006 C 
ENDBRANCH  14  17
ENDBRANCH  13  14
ENDBRANCH   8  13
ENDBRANCH   4   7
ENDBRANCH   2   3
ENDBRANCH   1   2
BRANCH   1  25
ATOM     25  C   UNL A   1      36.557  33.785  29.212  1.00  0.00     0.023 C 
BRANCH  25  26
ATOM     26  C   UNL A   1      36.846  33.141  30.597  1.00  0.00     0.116 C 
BRANCH  26  27
ATOM     27  N   UNL A   1      36.141  31.921  30.938  1.00  0.00    -0.352 N 
ATOM     28  C   UNL A   1      36.700  30.653  30.928  1.00  0.00     0.251 C 
ATOM     29  H   UNL A   1      35.195  31.999  31.196  1.00  0.00     0.163 HD
ATOM     30  O   UNL A   1      36.087  29.674  31.299  1.00  0.00    -0.269 OA
BRANCH  28  31
ATOM     31  C   UNL A   1      38.070  30.536  30.372  1.00  0.00     0.039 A 
ATOM     32  C   UNL A   1      39.126  30.389  31.270  1.00  0.00     0.014 A 
ATOM     33  C   UNL A   1      38.266  30.388  28.996  1.00  0.00     0.014 A 
ATOM     34  C   UNL A   1      40.384  30.027  30.790  1.00  0.00     0.010 A 
ATOM     35  C   UNL A   1      39.510  29.962  28.529  1.00  0.00     0.010 A 
ATOM     36  C   UNL A   1      40.577  29.772  29.423  1.00  0.00    -0.014 A 
BRANCH  36  37
ATOM     37  C   UNL A   1      41.904  29.324  28.925  1.00  0.00     0.031 A 
ATOM     38  C   UNL A   1      43.039  30.307  28.849  1.00  0.00     0.074 A 
ATOM     39  C   UNL A   1      42.079  28.048  28.529  1.00  0.00     0.049 A 
ATOM     40  N   UNL A   1      44.269  30.118  28.448  1.00  0.00    -0.248 NA
ATOM     41  C   UNL A   1      42.745  31.691  29.253  1.00  0.00     0.031 C 
ATOM     42  C   UNL A   1      41.037  27.017  28.509  1.00  0.00     0.029 A 
ATOM     43  N   UNL A   1      43.195  27.394  28.067  1.00  0.00    -0.354 N 
ATOM     44  C   UNL A   1      44.891  31.358  28.542  1.00  0.00     0.074 A 
ATOM     45  C   UNL A   1      43.888  32.303  28.980  1.00  0.00     0.031 C 
ATOM     46  C   UNL A   1      41.569  25.859  28.084  1.00  0.00     0.029 A 
ATOM     47  C   UNL A   1      42.981  26.066  27.775  1.00  0.00     0.049 A 
ATOM     48  H   UNL A   1      44.068  27.834  27.955  1.00  0.00     0.167 HD
ATOM     49  C   UNL A   1      46.187  31.674  28.311  1.00  0.00     0.037 A 
ATOM     50  C   UNL A   1      43.828  25.125  27.311  1.00  0.00     0.037 A 
ATOM     51  C   UNL A   1      47.183  30.718  27.907  1.00  0.00     0.049 A 
ATOM     52  C   UNL A   1      45.268  25.497  27.075  1.00  0.00     0.074 A 
ATOM     53  C   UNL A   1      48.537  30.920  27.707  1.00  0.00     0.029 A 
ATOM     54  N   UNL A   1      46.932  29.381  27.639  1.00  0.00    -0.354 N 
ATOM     55  N   UNL A   1      45.856  26.659  27.244  1.00  0.00    -0.248 NA
ATOM     56  C   UNL A   1      46.163  24.435  26.596  1.00  0.00     0.031 C 
ATOM     57  C   UNL A   1      49.097  29.713  27.277  1.00  0.00     0.029 A 
ATOM     58  C   UNL A   1      48.102  28.748  27.255  1.00  0.00     0.049 A 
ATOM     59  H   UNL A   1      46.051  28.945  27.711  1.00  0.00     0.167 HD
ATOM     60  C   UNL A   1      47.193  26.461  26.912  1.00  0.00     0.074 A 
ATOM     61  C   UNL A   1      47.329  25.065  26.550  1.00  0.00     0.031 C 
ATOM     62  C   UNL A   1      48.215  27.353  26.906  1.00  0.00     0.037 A 
BRANCH  49  63
ATOM     63  C   UNL A   1      46.595  33.109  28.498  1.00  0.00     0.058 A 
ATOM     64  C   UNL A   1      47.094  33.581  29.724  1.00  0.00     0.135 A 
ATOM     65  C   UNL A   1      46.506  34.022  27.435  1.00  0.00     0.135 A 
ATOM     66  F   UNL A   1      47.184  32.756  30.780  1.00  0.00    -0.206 F 
ATOM     67  C   UNL A   1      47.457  34.912  29.899  1.00  0.00     0.059 A 
ATOM     68  C   UNL A   1      46.891  35.352  27.579  1.00  0.00     0.059 A 
ATOM     69  F   UNL A   1      46.033  33.626  26.243  1.00  0.00    -0.206 F 
ATOM     70  C   UNL A   1      47.350  35.791  28.820  1.00  0.00     0.060 A 
BRANCH  70  71
ATOM     71  S   UNL A   1      47.827  37.514  29.064  1.00  0.00     0.124 S 
ATOM     72  O   UNL A   1      49.276  37.440  28.909  1.00  0.00    -0.237 OA
ATOM     73  O   UNL A   1      47.109  38.192  27.988  1.00  0.00    -0.237 OA
ATOM     74  O   UNL A   1      47.355  37.810  30.413  1.00  0.00    -0.744 OA
ENDBRANCH  70  71
ENDBRANCH  49  63
BRANCH  50  75
ATOM     75  C   UNL A   1      43.345  23.738  27.061  1.00  0.00     0.058 A 
ATOM     76  C   UNL A   1      43.099  22.852  28.120  1.00  0.00     0.135 A 
ATOM     77  C   UNL A   1      43.115  23.272  25.757  1.00  0.00     0.135 A 
ATOM     78  F   UNL A   1      43.310  23.245  29.386  1.00  0.00    -0.206 F 
ATOM     79  C   UNL A   1      42.660  21.550  27.898  1.00  0.00     0.059 A 
ATOM     80  C   UNL A   1      42.652  21.983  25.510  1.00  0.00     0.059 A 
ATOM     81  F   UNL A   1      43.319  24.084  24.707  1.00  0.00    -0.206 F 
ATOM     82  C   UNL A   1      42.437  21.125  26.587  1.00  0.00     0.060 A 
BRANCH  82  83
ATOM     83  S   UNL A   1      41.821  19.449  26.311  1.00  0.00     0.124 S 
ATOM     84  O   UNL A   1      42.217  18.782  27.545  1.00  0.00    -0.237 OA
ATOM     85  O   UNL A   1      40.389  19.675  26.136  1.00  0.00    -0.237 OA
ATOM     86  O   UNL A   1      42.532  19.026  25.108  1.00  0.00    -0.744 OA
ENDBRANCH  82  83
ENDBRANCH  50  75
BRANCH  62  87
ATOM     87  C   UNL A   1      49.575  26.845  26.520  1.00  0.00     0.058 A 
ATOM     88  C   UNL A   1      50.437  26.264  27.464  1.00  0.00     0.135 A 
ATOM     89  C   UNL A   1      49.993  26.877  25.180  1.00  0.00     0.135 A 
ATOM     90  F   UNL A   1      50.087  26.215  28.759  1.00  0.00    -0.206 F 
ATOM     91  C   UNL A   1      51.674  25.748  27.093  1.00  0.00     0.059 A 
ATOM     92  C   UNL A   1      51.213  26.342  24.783  1.00  0.00     0.059 A 
ATOM     93  F   UNL A   1      49.199  27.411  24.238  1.00  0.00    -0.206 F 
ATOM     94  C   UNL A   1      52.052  25.788  25.749  1.00  0.00     0.060 A 
BRANCH  94  95
ATOM     95  S   UNL A   1      53.640  25.075  25.276  1.00  0.00     0.124 S 
ATOM     96  O   UNL A   1      53.318  23.654  25.211  1.00  0.00    -0.237 OA
ATOM     97  O   UNL A   1      53.906  25.724  23.995  1.00  0.00    -0.237 OA
ATOM     98  O   UNL A   1      54.528  25.469  26.366  1.00  0.00    -0.744 OA
ENDBRANCH  94  95
ENDBRANCH  62  87
ENDBRANCH  36  37
ENDBRANCH  28  31
ENDBRANCH  26  27
ENDBRANCH  25  26
ENDBRANCH   1  25
TORSDOF 17
ENDMDL
MODEL 2
REMARK VINA RESULT:     -12.2      4.728     12.132
REMARK SMILES C[C@H]1[C@@H]([NH2+]C[C@H]2CC[C@@H](C(=O)NCCCCNC(=O)c3ccc(-c4c5nc(c(-c6c(F)cc(S(=O)(=O)[O-])cc6F)c6ccc([nH]6)c(-c6c(F)cc(S(=O)(=O)[O-])cc6F)c6nc(c(-c7c(F)cc(S(=O)(=O)[O-])cc7F)c7ccc4[nH]7)C=C6)C=C5)cc3)CC2)CCC[C@@H]1C
REMARK SMILES IDX 14 1 13 2 12 3 10 4 11 5 9 7 6 8 7 9 87 10 8 11 86 12 5 13
REMARK SMILES IDX 4 14 3 17 1 18 2 19 91 20 88 21 90 22 92 23 89 24 15 25
REMARK SMILES IDX 16 26 17 27 18 28 19 30 20 31 21 32 85 33 22 34 84 35 23 36
REMARK SMILES IDX 24 37 25 38 78 39 26 40 83 41 77 42 79 43 27 44 82 45 76 46
REMARK SMILES IDX 75 47 28 49 62 50 41 51 61 52 42 53 45 54 60 55 80 56 43 57
REMARK SMILES IDX 44 58 59 60 81 61 46 62 29 63 30 64 39 65 31 66 32 67 38 68
REMARK SMILES IDX 40 69 33 70 34 71 35 72 36 73 37 74 63 75 64 76 73 77 65 78
REMARK SMILES IDX 66 79 72 80 74 81 67 82 68 83 69 84 70 85 71 86 47 87 48 88
REMARK SMILES IDX 57 89 49 90 50 91 56 92 58 93 51 94 52 95 53 96 54 97 55 98
REMARK H PARENT 12 6 4 15 4 16 17 29 79 48 45 59
REMARK Flexibility Score: inf
ROOT
ATOM      1  C   UNL A   1      43.295  20.657  25.720  1.00  0.00     0.023 C 
ENDROOT
BRANCH   1   2
ATOM      2  C   UNL A   1      45.056  20.707  24.574  1.00  0.00     0.116 C 
BRANCH   2   3
ATOM      3  N   UNL A   1      46.096  21.825  24.164  1.00  0.00    -0.356 N 
ATOM      4  C   UNL A   1      46.203  23.153  24.459  1.00  0.00     0.223 C 
ATOM      5  O   UNL A   1      46.959  23.814  23.738  1.00  0.00    -0.275 OA
ATOM      6  H   UNL A   1      46.813  21.496  23.576  1.00  0.00     0.163 HD
BRANCH   4   7
ATOM      7  C   UNL A   1      45.458  23.839  25.591  1.00  0.00     0.078 C 
ATOM      8  C   UNL A   1      44.910  26.637  26.407  1.00  0.00     0.044 C 
ATOM      9  C   UNL A   1      43.754  25.741  25.908  1.00  0.00     0.010 C 
ATOM     10  C   UNL A   1      45.821  25.769  27.270  1.00  0.00     0.010 C 
ATOM     11  C   UNL A   1      44.236  24.580  25.043  1.00  0.00     0.014 C 
ATOM     12  C   UNL A   1      46.410  24.567  26.550  1.00  0.00     0.014 C 
BRANCH   8  13
ATOM     13  C   UNL A   1      45.551  27.398  25.216  1.00  0.00     0.264 C 
BRANCH  13  14
ATOM     14  N   UNL A   1      45.932  28.798  25.332  1.00  0.00    -0.343 N 
ATOM     15  H   UNL A   1      46.845  28.896  24.887  1.00  0.00     0.346 HD
ATOM     16  H   UNL A   1      45.157  29.299  24.896  1.00  0.00     0.346 HD
BRANCH  14  17
ATOM     17  C   UNL A   1      46.038  29.408  26.689  1.00  0.00     0.185 C 
ATOM     18  C   UNL A   1      43.106  29.765  26.995  1.00  0.00     0.014 C 
ATOM     19  C   UNL A   1      44.482  30.300  27.406  1.00  0.00     0.047 C 
ATOM     20  C   UNL A   1      44.490  32.233  27.646  1.00  0.00    -0.006 C 
ATOM     21  C   UNL A   1      47.777  30.284  26.894  1.00  0.00     0.065 C 
ATOM     22  C   UNL A   1      46.214  33.139  27.817  1.00  0.00     0.004 C 
ATOM     23  C   UNL A   1      43.536  32.600  28.796  1.00  0.00     0.008 C 
ATOM     24  C   UNL A   1      47.863  32.198  27.243  1.00  0.00     0.006 C 
ENDBRANCH  14  17
ENDBRANCH  13  14
ENDBRANCH   8  13
ENDBRANCH   4   7
ENDBRANCH   2   3
ENDBRANCH   1   2
BRANCH   1  25
ATOM     25  C   UNL A   1      42.529  21.466  26.993  1.00  0.00     0.023 C 
BRANCH  25  26
ATOM     26  C   UNL A   1      41.571  22.608  26.550  1.00  0.00     0.116 C 
BRANCH  26  27
ATOM     27  N   UNL A   1      40.248  22.242  26.087  1.00  0.00    -0.352 N 
ATOM     28  C   UNL A   1      39.147  23.083  26.086  1.00  0.00     0.251 C 
ATOM     29  H   UNL A   1      40.122  21.327  25.746  1.00  0.00     0.163 HD
ATOM     30  O   UNL A   1      38.081  22.751  25.613  1.00  0.00    -0.269 OA
BRANCH  28  31
ATOM     31  C   UNL A   1      39.313  24.393  26.760  1.00  0.00     0.039 A 
ATOM     32  C   UNL A   1      38.908  24.497  28.090  1.00  0.00     0.014 A 
ATOM     33  C   UNL A   1      40.023  25.425  26.140  1.00  0.00     0.014 A 
ATOM     34  C   UNL A   1      39.273  25.621  28.829  1.00  0.00     0.010 A 
ATOM     35  C   UNL A   1      40.441  26.516  26.902  1.00  0.00     0.010 A 
ATOM     36  C   UNL A   1      40.074  26.620  28.254  1.00  0.00    -0.014 A 
BRANCH  36  37
ATOM     37  C   UNL A   1      40.514  27.785  29.065  1.00  0.00     0.031 A 
ATOM     38  C   UNL A   1      41.883  27.782  29.688  1.00  0.00     0.074 A 
ATOM     39  C   UNL A   1      39.681  28.828  29.253  1.00  0.00     0.049 A 
ATOM     40  N   UNL A   1      42.456  28.697  30.426  1.00  0.00    -0.248 NA
ATOM     41  C   UNL A   1      42.705  26.581  29.474  1.00  0.00     0.031 C 
ATOM     42  C   UNL A   1      38.311  28.920  28.741  1.00  0.00     0.029 A 
ATOM     43  N   UNL A   1      39.861  30.013  29.924  1.00  0.00    -0.354 N 
ATOM     44  C   UNL A   1      43.698  28.178  30.771  1.00  0.00     0.074 A 
ATOM     45  C   UNL A   1      43.772  26.847  30.214  1.00  0.00     0.031 C 
ATOM     46  C   UNL A   1      37.786  30.106  29.094  1.00  0.00     0.029 A 
ATOM     47  C   UNL A   1      38.768  30.849  29.879  1.00  0.00     0.049 A 
ATOM     48  H   UNL A   1      40.694  30.244  30.394  1.00  0.00     0.167 HD
ATOM     49  C   UNL A   1      44.698  28.769  31.466  1.00  0.00     0.037 A 
ATOM     50  C   UNL A   1      38.581  32.074  30.410  1.00  0.00     0.037 A 
ATOM     51  C   UNL A   1      44.626  30.107  31.989  1.00  0.00     0.049 A 
ATOM     52  C   UNL A   1      39.713  32.717  31.168  1.00  0.00     0.074 A 
ATOM     53  C   UNL A   1      45.604  30.826  32.653  1.00  0.00     0.029 A 
ATOM     54  N   UNL A   1      43.511  30.928  31.907  1.00  0.00    -0.354 N 
ATOM     55  N   UNL A   1      40.911  32.241  31.419  1.00  0.00    -0.248 NA
ATOM     56  C   UNL A   1      39.477  34.064  31.707  1.00  0.00     0.031 C 
ATOM     57  C   UNL A   1      45.066  32.065  33.010  1.00  0.00     0.029 A 
ATOM     58  C   UNL A   1      43.769  32.139  32.527  1.00  0.00     0.049 A 
ATOM     59  H   UNL A   1      42.661  30.686  31.473  1.00  0.00     0.167 HD
ATOM     60  C   UNL A   1      41.576  33.238  32.125  1.00  0.00     0.074 A 
ATOM     61  C   UNL A   1      40.654  34.348  32.247  1.00  0.00     0.031 C 
ATOM     62  C   UNL A   1      42.836  33.234  32.630  1.00  0.00     0.037 A 
BRANCH  49  63
ATOM     63  C   UNL A   1      45.953  27.972  31.692  1.00  0.00     0.058 A 
ATOM     64  C   UNL A   1      47.074  28.105  30.855  1.00  0.00     0.135 A 
ATOM     65  C   UNL A   1      46.046  27.076  32.769  1.00  0.00     0.135 A 
ATOM     66  F   UNL A   1      47.033  28.934  29.799  1.00  0.00    -0.206 F 
ATOM     67  C   UNL A   1      48.227  27.355  31.056  1.00  0.00     0.059 A 
ATOM     68  C   UNL A   1      47.201  26.337  33.007  1.00  0.00     0.059 A 
ATOM     69  F   UNL A   1      45.005  26.907  33.599  1.00  0.00    -0.206 F 
ATOM     70  C   UNL A   1      48.281  26.472  32.136  1.00  0.00     0.060 A 
BRANCH  70  71
ATOM     71  S   UNL A   1      49.786  25.508  32.385  1.00  0.00     0.124 S 
ATOM     72  O   UNL A   1      50.025  24.989  31.042  1.00  0.00    -0.237 OA
ATOM     73  O   UNL A   1      50.731  26.519  32.849  1.00  0.00    -0.237 OA
ATOM     74  O   UNL A   1      49.394  24.516  33.380  1.00  0.00    -0.744 OA
ENDBRANCH  70  71
ENDBRANCH  49  63
BRANCH  50  75
ATOM     75  C   UNL A   1      37.283  32.782  30.228  1.00  0.00     0.058 A 
ATOM     76  C   UNL A   1      37.065  33.629  29.131  1.00  0.00     0.135 A 
ATOM     77  C   UNL A   1      36.232  32.622  31.145  1.00  0.00     0.135 A 
ATOM     78  F   UNL A   1      38.039  33.822  28.229  1.00  0.00    -0.206 F 
ATOM     79  C   UNL A   1      35.861  34.305  28.956  1.00  0.00     0.059 A 
ATOM     80  C   UNL A   1      35.010  33.267  30.979  1.00  0.00     0.059 A 
ATOM     81  F   UNL A   1      36.382  31.811  32.204  1.00  0.00    -0.206 F 
ATOM     82  C   UNL A   1      34.837  34.116  29.887  1.00  0.00     0.060 A 
BRANCH  82  83
ATOM     83  S   UNL A   1      33.261  34.959  29.627  1.00  0.00     0.124 S 
ATOM     84  O   UNL A   1      33.700  36.249  29.108  1.00  0.00    -0.237 OA
ATOM     85  O   UNL A   1      32.596  34.078  28.672  1.00  0.00    -0.237 OA
ATOM     86  O   UNL A   1      32.670  34.983  30.962  1.00  0.00    -0.744 OA
ENDBRANCH  82  83
ENDBRANCH  50  75
BRANCH  62  87
ATOM     87  C   UNL A   1      43.302  34.475  33.336  1.00  0.00     0.058 A 
ATOM     88  C   UNL A   1      43.763  35.596  32.627  1.00  0.00     0.135 A 
ATOM     89  C   UNL A   1      43.221  34.571  34.735  1.00  0.00     0.135 A 
ATOM     90  F   UNL A   1      43.865  35.554  31.289  1.00  0.00    -0.206 F 
ATOM     91  C   UNL A   1      44.145  36.761  33.282  1.00  0.00     0.059 A 
ATOM     92  C   UNL A   1      43.571  35.735  35.408  1.00  0.00     0.059 A 
ATOM     93  F   UNL A   1      42.775  33.531  35.458  1.00  0.00    -0.206 F 
ATOM     94  C   UNL A   1      44.041  36.823  34.674  1.00  0.00     0.060 A 
BRANCH  94  95
ATOM     95  S   UNL A   1      44.498  38.356  35.508  1.00  0.00     0.124 S 
ATOM     96  O   UNL A   1      43.887  38.172  36.820  1.00  0.00    -0.237 OA
ATOM     97  O   UNL A   1      45.957  38.308  35.476  1.00  0.00    -0.237 OA
ATOM     98  O   UNL A   1      43.893  39.390  34.673  1.00  0.00    -0.744 OA
ENDBRANCH  94  95
ENDBRANCH  62  87
ENDBRANCH  36  37
ENDBRANCH  28  31
ENDBRANCH  26  27
ENDBRANCH  25  26
ENDBRANCH   1  25
TORSDOF 17
ENDMDL
MODEL 3
REMARK VINA RESULT:     -12.1      0.958      8.289
REMARK SMILES C[C@H]1[C@@H]([NH2+]C[C@H]2CC[C@@H](C(=O)NCCCCNC(=O)c3ccc(-c4c5nc(c(-c6c(F)cc(S(=O)(=O)[O-])cc6F)c6ccc([nH]6)c(-c6c(F)cc(S(=O)(=O)[O-])cc6F)c6nc(c(-c7c(F)cc(S(=O)(=O)[O-])cc7F)c7ccc4[nH]7)C=C6)C=C5)cc3)CC2)CCC[C@@H]1C
REMARK SMILES IDX 14 1 13 2 12 3 10 4 11 5 9 7 6 8 7 9 87 10 8 11 86 12 5 13
REMARK SMILES IDX 4 14 3 17 1 18 2 19 91 20 88 21 90 22 92 23 89 24 15 25
REMARK SMILES IDX 16 26 17 27 18 28 19 30 20 31 21 32 85 33 22 34 84 35 23 36
REMARK SMILES IDX 24 37 25 38 78 39 26 40 83 41 77 42 79 43 27 44 82 45 76 46
REMARK SMILES IDX 75 47 28 49 62 50 41 51 61 52 42 53 45 54 60 55 80 56 43 57
REMARK SMILES IDX 44 58 59 60 81 61 46 62 29 63 30 64 39 65 31 66 32 67 38 68
REMARK SMILES IDX 40 69 33 70 34 71 35 72 36 73 37 74 63 75 64 76 73 77 65 78
REMARK SMILES IDX 66 79 72 80 74 81 67 82 68 83 69 84 70 85 71 86 47 87 48 88
REMARK SMILES IDX 57 89 49 90 50 91 56 92 58 93 51 94 52 95 53 96 54 97 55 98
REMARK H PARENT 12 6 4 15 4 16 17 29 79 48 45 59
REMARK Flexibility Score: inf
ROOT
ATOM      1  C   UNL A   1      33.795  32.469  27.783  1.00  0.00     0.023 C 
ENDROOT
BRANCH   1   2
ATOM      2  C   UNL A   1      33.196  30.648  26.924  1.00  0.00     0.116 C 
BRANCH   2   3
ATOM      3  N   UNL A   1      33.612  29.823  25.641  1.00  0.00    -0.356 N 
ATOM      4  C   UNL A   1      33.038  28.781  24.974  1.00  0.00     0.223 C 
ATOM      5  O   UNL A   1      33.766  28.168  24.185  1.00  0.00    -0.275 OA
ATOM      6  H   UNL A   1      34.460  30.124  25.239  1.00  0.00     0.163 HD
BRANCH   4   7
ATOM      7  C   UNL A   1      31.594  28.345  25.152  1.00  0.00     0.078 C 
ATOM      8  C   UNL A   1      29.895  26.115  24.185  1.00  0.00     0.044 C 
ATOM      9  C   UNL A   1      30.275  26.200  25.680  1.00  0.00     0.010 C 
ATOM     10  C   UNL A   1      29.614  27.535  23.704  1.00  0.00     0.010 C 
ATOM     11  C   UNL A   1      31.534  27.026  25.925  1.00  0.00     0.014 C 
ATOM     12  C   UNL A   1      30.783  28.494  23.858  1.00  0.00     0.014 C 
BRANCH   8  13
ATOM     13  C   UNL A   1      30.953  25.285  23.410  1.00  0.00     0.264 C 
BRANCH  13  14
ATOM     14  N   UNL A   1      30.713  23.892  23.064  1.00  0.00    -0.343 N 
ATOM     15  H   UNL A   1      29.794  23.646  23.435  1.00  0.00     0.346 HD
ATOM     16  H   UNL A   1      30.815  23.871  22.048  1.00  0.00     0.346 HD
BRANCH  14  17
ATOM     17  C   UNL A   1      31.671  22.853  23.543  1.00  0.00     0.185 C 
ATOM     18  C   UNL A   1      30.516  22.737  26.275  1.00  0.00     0.014 C 
ATOM     19  C   UNL A   1      31.787  22.534  25.444  1.00  0.00     0.047 C 
ATOM     20  C   UNL A   1      33.402  23.022  26.417  1.00  0.00    -0.006 C 
ATOM     21  C   UNL A   1      33.340  22.963  22.524  1.00  0.00     0.065 C 
ATOM     22  C   UNL A   1      35.076  23.175  25.419  1.00  0.00     0.004 C 
ATOM     23  C   UNL A   1      33.549  22.099  27.640  1.00  0.00     0.008 C 
ATOM     24  C   UNL A   1      35.013  23.341  23.444  1.00  0.00     0.006 C 
ENDBRANCH  14  17
ENDBRANCH  13  14
ENDBRANCH   8  13
ENDBRANCH   4   7
ENDBRANCH   2   3
ENDBRANCH   1   2
BRANCH   1  25
ATOM     25  C   UNL A   1      35.186  33.300  28.272  1.00  0.00     0.023 C 
BRANCH  25  26
ATOM     26  C   UNL A   1      36.251  32.418  28.982  1.00  0.00     0.116 C 
BRANCH  26  27
ATOM     27  N   UNL A   1      35.783  31.315  29.796  1.00  0.00    -0.352 N 
ATOM     28  C   UNL A   1      36.584  30.294  30.284  1.00  0.00     0.251 C 
ATOM     29  H   UNL A   1      34.825  31.288  30.020  1.00  0.00     0.163 HD
ATOM     30  O   UNL A   1      36.155  29.436  31.028  1.00  0.00    -0.269 OA
BRANCH  28  31
ATOM     31  C   UNL A   1      37.983  30.257  29.795  1.00  0.00     0.039 A 
ATOM     32  C   UNL A   1      39.005  30.352  30.739  1.00  0.00     0.014 A 
ATOM     33  C   UNL A   1      38.260  29.946  28.461  1.00  0.00     0.014 A 
ATOM     34  C   UNL A   1      40.315  30.071  30.356  1.00  0.00     0.010 A 
ATOM     35  C   UNL A   1      39.562  29.602  28.098  1.00  0.00     0.010 A 
ATOM     36  C   UNL A   1      40.600  29.657  29.045  1.00  0.00    -0.014 A 
BRANCH  36  37
ATOM     37  C   UNL A   1      41.989  29.296  28.658  1.00  0.00     0.031 A 
ATOM     38  C   UNL A   1      42.299  27.890  28.229  1.00  0.00     0.074 A 
ATOM     39  C   UNL A   1      42.965  30.225  28.710  1.00  0.00     0.049 A 
ATOM     40  N   UNL A   1      43.440  27.374  27.852  1.00  0.00    -0.248 NA
ATOM     41  C   UNL A   1      41.184  26.929  28.251  1.00  0.00     0.031 C 
ATOM     42  C   UNL A   1      42.793  31.609  29.160  1.00  0.00     0.029 A 
ATOM     43  N   UNL A   1      44.296  30.150  28.382  1.00  0.00    -0.354 N 
ATOM     44  C   UNL A   1      43.183  26.031  27.603  1.00  0.00     0.074 A 
ATOM     45  C   UNL A   1      41.794  25.798  27.929  1.00  0.00     0.031 C 
ATOM     46  C   UNL A   1      43.965  32.257  29.055  1.00  0.00     0.029 A 
ATOM     47  C   UNL A   1      44.980  31.332  28.557  1.00  0.00     0.049 A 
ATOM     48  H   UNL A   1      44.723  29.327  28.053  1.00  0.00     0.167 HD
ATOM     49  C   UNL A   1      44.021  25.084  27.120  1.00  0.00     0.037 A 
ATOM     50  C   UNL A   1      46.276  31.633  28.339  1.00  0.00     0.037 A 
ATOM     51  C   UNL A   1      45.393  25.336  26.770  1.00  0.00     0.049 A 
ATOM     52  C   UNL A   1      47.186  30.567  27.789  1.00  0.00     0.074 A 
ATOM     53  C   UNL A   1      46.313  24.464  26.213  1.00  0.00     0.029 A 
ATOM     54  N   UNL A   1      46.044  26.548  26.943  1.00  0.00    -0.354 N 
ATOM     55  N   UNL A   1      46.906  29.321  27.486  1.00  0.00    -0.248 NA
ATOM     56  C   UNL A   1      48.585  30.945  27.540  1.00  0.00     0.031 C 
ATOM     57  C   UNL A   1      47.531  25.138  26.090  1.00  0.00     0.029 A 
ATOM     58  C   UNL A   1      47.359  26.444  26.524  1.00  0.00     0.049 A 
ATOM     59  H   UNL A   1      45.631  27.364  27.310  1.00  0.00     0.167 HD
ATOM     60  C   UNL A   1      48.086  28.774  26.992  1.00  0.00     0.074 A 
ATOM     61  C   UNL A   1      49.077  29.829  27.021  1.00  0.00     0.031 C 
ATOM     62  C   UNL A   1      48.328  27.512  26.556  1.00  0.00     0.037 A 
BRANCH  49  63
ATOM     63  C   UNL A   1      43.472  23.696  26.940  1.00  0.00     0.058 A 
ATOM     64  C   UNL A   1      43.303  22.822  28.027  1.00  0.00     0.135 A 
ATOM     65  C   UNL A   1      43.091  23.239  25.668  1.00  0.00     0.135 A 
ATOM     66  F   UNL A   1      43.667  23.201  29.262  1.00  0.00    -0.206 F 
ATOM     67  C   UNL A   1      42.809  21.533  27.855  1.00  0.00     0.059 A 
ATOM     68  C   UNL A   1      42.566  21.963  25.477  1.00  0.00     0.059 A 
ATOM     69  F   UNL A   1      43.233  24.031  24.594  1.00  0.00    -0.206 F 
ATOM     70  C   UNL A   1      42.444  21.112  26.575  1.00  0.00     0.060 A 
BRANCH  70  71
ATOM     71  S   UNL A   1      41.803  19.438  26.370  1.00  0.00     0.124 S 
ATOM     72  O   UNL A   1      40.368  19.686  26.269  1.00  0.00    -0.237 OA
ATOM     73  O   UNL A   1      42.458  19.000  25.142  1.00  0.00    -0.237 OA
ATOM     74  O   UNL A   1      42.237  18.757  27.586  1.00  0.00    -0.744 OA
ENDBRANCH  70  71
ENDBRANCH  49  63
BRANCH  50  75
ATOM     75  C   UNL A   1      46.786  33.004  28.619  1.00  0.00     0.058 A 
ATOM     76  C   UNL A   1      47.271  33.355  29.888  1.00  0.00     0.135 A 
ATOM     77  C   UNL A   1      46.802  33.992  27.621  1.00  0.00     0.135 A 
ATOM     78  F   UNL A   1      47.271  32.450  30.879  1.00  0.00    -0.206 F 
ATOM     79  C   UNL A   1      47.739  34.636  30.164  1.00  0.00     0.059 A 
ATOM     80  C   UNL A   1      47.287  35.274  27.866  1.00  0.00     0.059 A 
ATOM     81  F   UNL A   1      46.363  33.706  26.386  1.00  0.00    -0.206 F 
ATOM     82  C   UNL A   1      47.744  35.590  29.145  1.00  0.00     0.060 A 
BRANCH  82  83
ATOM     83  S   UNL A   1      48.397  37.237  29.500  1.00  0.00     0.124 S 
ATOM     84  O   UNL A   1      47.180  38.040  29.509  1.00  0.00    -0.237 OA
ATOM     85  O   UNL A   1      49.042  37.037  30.794  1.00  0.00    -0.237 OA
ATOM     86  O   UNL A   1      49.308  37.482  28.385  1.00  0.00    -0.744 OA
ENDBRANCH  82  83
ENDBRANCH  50  75
BRANCH  62  87
ATOM     87  C   UNL A   1      49.709  27.207  26.051  1.00  0.00     0.058 A 
ATOM     88  C   UNL A   1      50.741  26.816  26.920  1.00  0.00     0.135 A 
ATOM     89  C   UNL A   1      49.987  27.240  24.674  1.00  0.00     0.135 A 
ATOM     90  F   UNL A   1      50.528  26.774  28.245  1.00  0.00    -0.206 F 
ATOM     91  C   UNL A   1      52.004  26.485  26.442  1.00  0.00     0.059 A 
ATOM     92  C   UNL A   1      51.234  26.886  24.173  1.00  0.00     0.059 A 
ATOM     93  F   UNL A   1      49.031  27.596  23.801  1.00  0.00    -0.206 F 
ATOM     94  C   UNL A   1      52.240  26.519  25.066  1.00  0.00     0.060 A 
BRANCH  94  95
ATOM     95  S   UNL A   1      53.871  26.044  24.457  1.00  0.00     0.124 S 
ATOM     96  O   UNL A   1      54.748  26.799  25.345  1.00  0.00    -0.237 OA
ATOM     97  O   UNL A   1      53.868  24.596  24.649  1.00  0.00    -0.237 OA
ATOM     98  O   UNL A   1      53.855  26.484  23.065  1.00  0.00    -0.744 OA
ENDBRANCH  94  95
ENDBRANCH  62  87
ENDBRANCH  36  37
ENDBRANCH  28  31
ENDBRANCH  26  27
ENDBRANCH  25  26
ENDBRANCH   1  25
TORSDOF 17
ENDMDL
