MODEL 1
REMARK VINA RESULT:     -11.7      0.000      0.000
REMARK SMILES O=C(NCCCCNC(=O)c1cc(-c2ccn(C(F)F)c(=O)c2)ccc1O)c1ccc(-c2c3nc(c(-c4c(F)cc(S(=O)(=O)[O-])cc4F)c4ccc([nH]4)c(-c4c(F)cc(S(=O)(=O)[O-])cc4F)c4nc(c(-c5c(F)cc(S(=O)(=O)[O-])cc5F)c5ccc2[nH]5)C=C4)C=C3)cc1
REMARK SMILES IDX 5 1 4 2 3 3 1 4 2 5 28 7 29 8 93 9 30 10 92 11 31 12 32 13
REMARK SMILES IDX 33 14 86 15 34 16 91 17 85 18 87 19 35 20 90 21 84 22 83 23
REMARK SMILES IDX 36 25 70 26 49 27 69 28 50 29 53 30 68 31 88 32 51 33 52 34
REMARK SMILES IDX 67 36 89 37 54 38 37 39 38 40 47 41 39 42 40 43 46 44 48 45
REMARK SMILES IDX 41 46 42 47 43 48 44 49 45 50 71 51 72 52 81 53 73 54 74 55
REMARK SMILES IDX 80 56 82 57 75 58 76 59 77 60 78 61 79 62 55 63 56 64 65 65
REMARK SMILES IDX 57 66 58 67 64 68 66 69 59 70 60 71 61 72 62 73 63 74 6 75
REMARK SMILES IDX 7 76 8 77 9 78 10 80 11 81 12 82 26 83 13 84 25 85 24 86
REMARK SMILES IDX 27 87 14 89 15 90 23 91 16 92 21 93 17 94 22 95 18 96 19 97
REMARK SMILES IDX 20 98
REMARK H PARENT 3 6 87 24 53 35 8 79 27 88
REMARK Flexibility Score: inf
ROOT
ATOM      1  C   UNL A   1      33.426  27.477  26.279  1.00  0.00     0.023 C 
ENDROOT
BRANCH   1   2
ATOM      2  C   UNL A   1      34.175  28.673  25.704  1.00  0.00     0.116 C 
BRANCH   2   3
ATOM      3  N   UNL A   1      33.742  29.934  26.284  1.00  0.00    -0.352 N 
ATOM      4  O   UNL A   1      33.638  31.592  27.799  1.00  0.00    -0.269 OA
ATOM      5  C   UNL A   1      34.257  30.629  27.349  1.00  0.00     0.251 C 
ATOM      6  H   UNL A   1      32.965  30.351  25.847  1.00  0.00     0.163 HD
BRANCH   5   7
ATOM      7  C   UNL A   1      35.540  30.220  27.963  1.00  0.00     0.039 A 
ATOM      8  C   UNL A   1      35.522  29.583  29.207  1.00  0.00     0.014 A 
ATOM      9  C   UNL A   1      36.759  30.500  27.340  1.00  0.00     0.014 A 
ATOM     10  C   UNL A   1      36.725  29.203  29.809  1.00  0.00     0.010 A 
ATOM     11  C   UNL A   1      37.949  30.038  27.897  1.00  0.00     0.010 A 
ATOM     12  C   UNL A   1      37.948  29.417  29.153  1.00  0.00    -0.014 A 
BRANCH  12  13
ATOM     13  C   UNL A   1      39.242  29.086  29.804  1.00  0.00     0.031 A 
ATOM     14  C   UNL A   1      39.673  29.855  31.028  1.00  0.00     0.074 A 
ATOM     15  C   UNL A   1      40.037  28.123  29.297  1.00  0.00     0.049 A 
ATOM     16  N   UNL A   1      40.788  29.774  31.706  1.00  0.00    -0.248 NA
ATOM     17  C   UNL A   1      38.734  30.866  31.543  1.00  0.00     0.031 C 
ATOM     18  C   UNL A   1      39.741  27.319  28.109  1.00  0.00     0.029 A 
ATOM     19  N   UNL A   1      41.257  27.655  29.716  1.00  0.00    -0.354 N 
ATOM     20  C   UNL A   1      40.687  30.725  32.715  1.00  0.00     0.074 A 
ATOM     21  C   UNL A   1      39.434  31.420  32.520  1.00  0.00     0.031 C 
ATOM     22  C   UNL A   1      40.733  26.436  27.918  1.00  0.00     0.029 A 
ATOM     23  C   UNL A   1      41.758  26.638  28.939  1.00  0.00     0.049 A 
ATOM     24  H   UNL A   1      41.731  28.016  30.501  1.00  0.00     0.167 HD
ATOM     25  C   UNL A   1      41.542  30.976  33.734  1.00  0.00     0.037 A 
ATOM     26  C   UNL A   1      42.913  25.950  29.036  1.00  0.00     0.037 A 
ATOM     27  C   UNL A   1      42.771  30.259  33.945  1.00  0.00     0.049 A 
ATOM     28  C   UNL A   1      43.868  26.273  30.155  1.00  0.00     0.074 A 
ATOM     29  C   UNL A   1      43.690  30.413  34.967  1.00  0.00     0.029 A 
ATOM     30  N   UNL A   1      43.250  29.250  33.124  1.00  0.00    -0.354 N 
ATOM     31  N   UNL A   1      43.742  27.156  31.117  1.00  0.00    -0.248 NA
ATOM     32  C   UNL A   1      45.122  25.508  30.203  1.00  0.00     0.031 C 
ATOM     33  C   UNL A   1      44.748  29.530  34.739  1.00  0.00     0.029 A 
ATOM     34  C   UNL A   1      44.463  28.787  33.604  1.00  0.00     0.049 A 
ATOM     35  H   UNL A   1      42.795  28.913  32.318  1.00  0.00     0.167 HD
ATOM     36  C   UNL A   1      44.888  27.036  31.897  1.00  0.00     0.074 A 
ATOM     37  C   UNL A   1      45.688  25.985  31.304  1.00  0.00     0.031 C 
ATOM     38  C   UNL A   1      45.246  27.735  33.003  1.00  0.00     0.037 A 
BRANCH  25  39
ATOM     39  C   UNL A   1      41.169  32.058  34.712  1.00  0.00     0.058 A 
ATOM     40  C   UNL A   1      40.388  31.786  35.846  1.00  0.00     0.135 A 
ATOM     41  C   UNL A   1      41.636  33.371  34.540  1.00  0.00     0.135 A 
ATOM     42  F   UNL A   1      39.898  30.553  36.051  1.00  0.00    -0.206 F 
ATOM     43  C   UNL A   1      40.065  32.780  36.763  1.00  0.00     0.059 A 
ATOM     44  C   UNL A   1      41.351  34.375  35.461  1.00  0.00     0.059 A 
ATOM     45  F   UNL A   1      42.383  33.689  33.471  1.00  0.00    -0.206 F 
ATOM     46  C   UNL A   1      40.555  34.071  36.565  1.00  0.00     0.060 A 
BRANCH  46  47
ATOM     47  S   UNL A   1      40.140  35.341  37.777  1.00  0.00     0.124 S 
ATOM     48  O   UNL A   1      38.939  34.780  38.389  1.00  0.00    -0.237 OA
ATOM     49  O   UNL A   1      41.330  35.362  38.622  1.00  0.00    -0.237 OA
ATOM     50  O   UNL A   1      39.930  36.534  36.965  1.00  0.00    -0.744 OA
ENDBRANCH  46  47
ENDBRANCH  25  39
BRANCH  26  51
ATOM     51  C   UNL A   1      43.216  24.866  28.062  1.00  0.00     0.058 A 
ATOM     52  C   UNL A   1      43.895  25.143  26.866  1.00  0.00     0.135 A 
ATOM     53  C   UNL A   1      42.855  23.532  28.313  1.00  0.00     0.135 A 
ATOM     54  F   UNL A   1      44.252  26.403  26.575  1.00  0.00    -0.206 F 
ATOM     55  C   UNL A   1      44.201  24.141  25.951  1.00  0.00     0.059 A 
ATOM     56  C   UNL A   1      43.173  22.508  27.426  1.00  0.00     0.059 A 
ATOM     57  F   UNL A   1      42.213  23.211  29.447  1.00  0.00    -0.206 F 
ATOM     58  C   UNL A   1      43.842  22.824  26.244  1.00  0.00     0.060 A 
BRANCH  58  59
ATOM     59  S   UNL A   1      44.298  21.525  25.074  1.00  0.00     0.124 S 
ATOM     60  O   UNL A   1      45.639  21.173  25.530  1.00  0.00    -0.237 OA
ATOM     61  O   UNL A   1      43.261  20.527  25.311  1.00  0.00    -0.237 OA
ATOM     62  O   UNL A   1      44.229  22.198  23.780  1.00  0.00    -0.744 OA
ENDBRANCH  58  59
ENDBRANCH  26  51
BRANCH  38  63
ATOM     63  C   UNL A   1      46.550  27.380  33.664  1.00  0.00     0.058 A 
ATOM     64  C   UNL A   1      46.629  26.376  34.640  1.00  0.00     0.135 A 
ATOM     65  C   UNL A   1      47.746  27.994  33.255  1.00  0.00     0.135 A 
ATOM     66  F   UNL A   1      45.516  25.760  35.070  1.00  0.00    -0.206 F 
ATOM     67  C   UNL A   1      47.847  26.003  35.201  1.00  0.00     0.059 A 
ATOM     68  C   UNL A   1      48.978  27.616  33.780  1.00  0.00     0.059 A 
ATOM     69  F   UNL A   1      47.728  28.952  32.315  1.00  0.00    -0.206 F 
ATOM     70  C   UNL A   1      49.017  26.624  34.758  1.00  0.00     0.060 A 
BRANCH  70  71
ATOM     71  S   UNL A   1      50.591  26.093  35.463  1.00  0.00     0.124 S 
ATOM     72  O   UNL A   1      50.207  24.867  36.154  1.00  0.00    -0.237 OA
ATOM     73  O   UNL A   1      51.420  25.918  34.274  1.00  0.00    -0.237 OA
ATOM     74  O   UNL A   1      50.972  27.207  36.327  1.00  0.00    -0.744 OA
ENDBRANCH  70  71
ENDBRANCH  38  63
ENDBRANCH  12  13
ENDBRANCH   5   7
ENDBRANCH   2   3
ENDBRANCH   1   2
BRANCH   1  75
ATOM     75  C   UNL A   1      31.916  27.659  26.407  1.00  0.00     0.023 C 
BRANCH  75  76
ATOM     76  C   UNL A   1      31.075  26.602  25.700  1.00  0.00     0.116 C 
BRANCH  76  77
ATOM     77  N   UNL A   1      30.680  25.516  26.579  1.00  0.00    -0.352 N 
ATOM     78  C   UNL A   1      31.043  24.194  26.515  1.00  0.00     0.255 C 
ATOM     79  H   UNL A   1      30.075  25.760  27.318  1.00  0.00     0.163 HD
ATOM     80  O   UNL A   1      30.573  23.375  27.301  1.00  0.00    -0.269 OA
BRANCH  78  81
ATOM     81  C   UNL A   1      31.934  23.728  25.434  1.00  0.00     0.082 A 
ATOM     82  C   UNL A   1      33.265  23.456  25.777  1.00  0.00     0.026 A 
ATOM     83  C   UNL A   1      31.498  23.562  24.113  1.00  0.00     0.128 A 
ATOM     84  C   UNL A   1      34.148  22.958  24.814  1.00  0.00    -0.017 A 
ATOM     85  C   UNL A   1      32.364  23.041  23.156  1.00  0.00     0.047 A 
ATOM     86  C   UNL A   1      33.679  22.731  23.510  1.00  0.00     0.012 A 
BRANCH  83  87
ATOM     87  O   UNL A   1      30.222  23.896  23.757  1.00  0.00    -0.507 OA
ATOM     88  H   UNL A   1      29.886  24.747  23.960  1.00  0.00     0.293 HD
ENDBRANCH  83  87
BRANCH  84  89
ATOM     89  C   UNL A   1      35.571  22.717  25.123  1.00  0.00    -0.011 A 
ATOM     90  C   UNL A   1      36.190  21.427  24.881  1.00  0.00     0.027 A 
ATOM     91  C   UNL A   1      36.309  23.704  25.659  1.00  0.00     0.080 A 
ATOM     92  C   UNL A   1      37.467  21.210  25.211  1.00  0.00     0.095 A 
ATOM     93  C   UNL A   1      37.737  23.477  26.030  1.00  0.00     0.255 A 
ATOM     94  N   UNL A   1      38.233  22.207  25.782  1.00  0.00    -0.258 N 
ATOM     95  O   UNL A   1      38.367  24.401  26.534  1.00  0.00    -0.269 OA
BRANCH  94  96
ATOM     96  C   UNL A   1      39.597  21.947  26.161  1.00  0.00     0.451 C 
ATOM     97  F   UNL A   1      39.822  22.272  27.457  1.00  0.00    -0.185 F 
ATOM     98  F   UNL A   1      39.907  20.638  25.994  1.00  0.00    -0.185 F 
ENDBRANCH  94  96
ENDBRANCH  84  89
ENDBRANCH  78  81
ENDBRANCH  76  77
ENDBRANCH  75  76
ENDBRANCH   1  75
TORSDOF 17
ENDMDL
MODEL 2
REMARK VINA RESULT:     -11.6      3.553      9.699
REMARK SMILES O=C(NCCCCNC(=O)c1cc(-c2ccn(C(F)F)c(=O)c2)ccc1O)c1ccc(-c2c3nc(c(-c4c(F)cc(S(=O)(=O)[O-])cc4F)c4ccc([nH]4)c(-c4c(F)cc(S(=O)(=O)[O-])cc4F)c4nc(c(-c5c(F)cc(S(=O)(=O)[O-])cc5F)c5ccc2[nH]5)C=C4)C=C3)cc1
REMARK SMILES IDX 5 1 4 2 3 3 1 4 2 5 28 7 29 8 93 9 30 10 92 11 31 12 32 13
REMARK SMILES IDX 33 14 86 15 34 16 91 17 85 18 87 19 35 20 90 21 84 22 83 23
REMARK SMILES IDX 36 25 70 26 49 27 69 28 50 29 53 30 68 31 88 32 51 33 52 34
REMARK SMILES IDX 67 36 89 37 54 38 37 39 38 40 47 41 39 42 40 43 46 44 48 45
REMARK SMILES IDX 41 46 42 47 43 48 44 49 45 50 71 51 72 52 81 53 73 54 74 55
REMARK SMILES IDX 80 56 82 57 75 58 76 59 77 60 78 61 79 62 55 63 56 64 65 65
REMARK SMILES IDX 57 66 58 67 64 68 66 69 59 70 60 71 61 72 62 73 63 74 6 75
REMARK SMILES IDX 7 76 8 77 9 78 10 80 11 81 12 82 26 83 13 84 25 85 24 86
REMARK SMILES IDX 27 87 14 89 15 90 23 91 16 92 21 93 17 94 22 95 18 96 19 97
REMARK SMILES IDX 20 98
REMARK H PARENT 3 6 87 24 53 35 8 79 27 88
REMARK Flexibility Score: inf
ROOT
ATOM      1  C   UNL A   1      37.220  23.761  25.396  1.00  0.00     0.023 C 
ENDROOT
BRANCH   1   2
ATOM      2  C   UNL A   1      38.185  24.042  26.541  1.00  0.00     0.116 C 
BRANCH   2   3
ATOM      3  N   UNL A   1      39.578  23.965  26.128  1.00  0.00    -0.352 N 
ATOM      4  O   UNL A   1      41.702  24.652  25.863  1.00  0.00    -0.269 OA
ATOM      5  C   UNL A   1      40.634  24.777  26.458  1.00  0.00     0.251 C 
ATOM      6  H   UNL A   1      39.795  23.220  25.522  1.00  0.00     0.163 HD
BRANCH   5   7
ATOM      7  C   UNL A   1      40.488  25.804  27.513  1.00  0.00     0.039 A 
ATOM      8  C   UNL A   1      41.262  26.966  27.437  1.00  0.00     0.014 A 
ATOM      9  C   UNL A   1      39.628  25.609  28.597  1.00  0.00     0.014 A 
ATOM     10  C   UNL A   1      41.150  27.941  28.432  1.00  0.00     0.010 A 
ATOM     11  C   UNL A   1      39.450  26.621  29.537  1.00  0.00     0.010 A 
ATOM     12  C   UNL A   1      40.234  27.782  29.485  1.00  0.00    -0.014 A 
BRANCH  12  13
ATOM     13  C   UNL A   1      40.149  28.770  30.591  1.00  0.00     0.031 A 
ATOM     14  C   UNL A   1      41.079  28.643  31.771  1.00  0.00     0.074 A 
ATOM     15  C   UNL A   1      39.235  29.760  30.554  1.00  0.00     0.049 A 
ATOM     16  N   UNL A   1      41.126  29.353  32.868  1.00  0.00    -0.248 NA
ATOM     17  C   UNL A   1      42.072  27.557  31.720  1.00  0.00     0.031 C 
ATOM     18  C   UNL A   1      38.268  29.982  29.477  1.00  0.00     0.029 A 
ATOM     19  N   UNL A   1      38.970  30.769  31.448  1.00  0.00    -0.354 N 
ATOM     20  C   UNL A   1      42.142  28.795  33.636  1.00  0.00     0.074 A 
ATOM     21  C   UNL A   1      42.638  27.646  32.913  1.00  0.00     0.031 C 
ATOM     22  C   UNL A   1      37.543  31.076  29.755  1.00  0.00     0.029 A 
ATOM     23  C   UNL A   1      37.958  31.610  31.051  1.00  0.00     0.049 A 
ATOM     24  H   UNL A   1      39.460  30.879  32.295  1.00  0.00     0.167 HD
ATOM     25  C   UNL A   1      42.642  29.219  34.820  1.00  0.00     0.037 A 
ATOM     26  C   UNL A   1      37.424  32.686  31.662  1.00  0.00     0.037 A 
ATOM     27  C   UNL A   1      42.168  30.384  35.520  1.00  0.00     0.049 A 
ATOM     28  C   UNL A   1      37.970  33.117  32.997  1.00  0.00     0.074 A 
ATOM     29  C   UNL A   1      42.632  30.919  36.708  1.00  0.00     0.029 A 
ATOM     30  N   UNL A   1      41.129  31.197  35.092  1.00  0.00    -0.354 N 
ATOM     31  N   UNL A   1      38.951  32.594  33.695  1.00  0.00    -0.248 NA
ATOM     32  C   UNL A   1      37.338  34.283  33.630  1.00  0.00     0.031 C 
ATOM     33  C   UNL A   1      41.842  32.027  37.024  1.00  0.00     0.029 A 
ATOM     34  C   UNL A   1      40.922  32.217  36.006  1.00  0.00     0.049 A 
ATOM     35  H   UNL A   1      40.614  31.067  34.263  1.00  0.00     0.167 HD
ATOM     36  C   UNL A   1      39.068  33.381  34.837  1.00  0.00     0.074 A 
ATOM     37  C   UNL A   1      38.069  34.424  34.729  1.00  0.00     0.031 C 
ATOM     38  C   UNL A   1      39.924  33.251  35.880  1.00  0.00     0.037 A 
BRANCH  25  39
ATOM     39  C   UNL A   1      43.773  28.433  35.426  1.00  0.00     0.058 A 
ATOM     40  C   UNL A   1      45.113  28.717  35.118  1.00  0.00     0.135 A 
ATOM     41  C   UNL A   1      43.519  27.417  36.362  1.00  0.00     0.135 A 
ATOM     42  F   UNL A   1      45.414  29.665  34.216  1.00  0.00    -0.206 F 
ATOM     43  C   UNL A   1      46.159  28.008  35.697  1.00  0.00     0.059 A 
ATOM     44  C   UNL A   1      44.551  26.715  36.977  1.00  0.00     0.059 A 
ATOM     45  F   UNL A   1      42.257  27.100  36.690  1.00  0.00    -0.206 F 
ATOM     46  C   UNL A   1      45.869  27.012  36.629  1.00  0.00     0.060 A 
BRANCH  46  47
ATOM     47  S   UNL A   1      47.242  26.116  37.384  1.00  0.00     0.124 S 
ATOM     48  O   UNL A   1      47.803  27.133  38.268  1.00  0.00    -0.237 OA
ATOM     49  O   UNL A   1      46.562  25.008  38.045  1.00  0.00    -0.237 OA
ATOM     50  O   UNL A   1      48.078  25.748  36.246  1.00  0.00    -0.744 OA
ENDBRANCH  46  47
ENDBRANCH  25  39
BRANCH  26  51
ATOM     51  C   UNL A   1      36.329  33.448  31.001  1.00  0.00     0.058 A 
ATOM     52  C   UNL A   1      35.032  33.453  31.535  1.00  0.00     0.135 A 
ATOM     53  C   UNL A   1      36.558  34.203  29.840  1.00  0.00     0.135 A 
ATOM     54  F   UNL A   1      34.759  32.738  32.638  1.00  0.00    -0.206 F 
ATOM     55  C   UNL A   1      34.000  34.172  30.941  1.00  0.00     0.059 A 
ATOM     56  C   UNL A   1      35.549  34.952  29.242  1.00  0.00     0.059 A 
ATOM     57  F   UNL A   1      37.784  34.243  29.294  1.00  0.00    -0.206 F 
ATOM     58  C   UNL A   1      34.271  34.925  29.798  1.00  0.00     0.060 A 
BRANCH  58  59
ATOM     59  S   UNL A   1      32.935  35.900  29.072  1.00  0.00     0.124 S 
ATOM     60  O   UNL A   1      32.195  36.319  30.258  1.00  0.00    -0.237 OA
ATOM     61  O   UNL A   1      33.671  36.951  28.375  1.00  0.00    -0.237 OA
ATOM     62  O   UNL A   1      32.251  34.943  28.207  1.00  0.00    -0.744 OA
ENDBRANCH  58  59
ENDBRANCH  26  51
BRANCH  38  63
ATOM     63  C   UNL A   1      39.840  34.267  36.987  1.00  0.00     0.058 A 
ATOM     64  C   UNL A   1      40.510  35.496  36.907  1.00  0.00     0.135 A 
ATOM     65  C   UNL A   1      39.012  34.042  38.100  1.00  0.00     0.135 A 
ATOM     66  F   UNL A   1      41.318  35.760  35.867  1.00  0.00    -0.206 F 
ATOM     67  C   UNL A   1      40.377  36.462  37.900  1.00  0.00     0.059 A 
ATOM     68  C   UNL A   1      38.840  35.004  39.089  1.00  0.00     0.059 A 
ATOM     69  F   UNL A   1      38.338  32.887  38.219  1.00  0.00    -0.206 F 
ATOM     70  C   UNL A   1      39.533  36.210  38.983  1.00  0.00     0.060 A 
BRANCH  70  71
ATOM     71  S   UNL A   1      39.335  37.493  40.237  1.00  0.00     0.124 S 
ATOM     72  O   UNL A   1      38.320  38.346  39.628  1.00  0.00    -0.237 OA
ATOM     73  O   UNL A   1      38.904  36.726  41.401  1.00  0.00    -0.237 OA
ATOM     74  O   UNL A   1      40.669  38.080  40.339  1.00  0.00    -0.744 OA
ENDBRANCH  70  71
ENDBRANCH  38  63
ENDBRANCH  12  13
ENDBRANCH   5   7
ENDBRANCH   2   3
ENDBRANCH   1   2
BRANCH   1  75
ATOM     75  C   UNL A   1      35.788  23.445  25.819  1.00  0.00     0.023 C 
BRANCH  75  76
ATOM     76  C   UNL A   1      35.008  22.562  24.852  1.00  0.00     0.116 C 
BRANCH  76  77
ATOM     77  N   UNL A   1      34.839  23.171  23.544  1.00  0.00    -0.352 N 
ATOM     78  C   UNL A   1      33.976  24.173  23.177  1.00  0.00     0.255 C 
ATOM     79  H   UNL A   1      35.419  22.821  22.829  1.00  0.00     0.163 HD
ATOM     80  O   UNL A   1      33.905  24.542  22.007  1.00  0.00    -0.269 OA
BRANCH  78  81
ATOM     81  C   UNL A   1      33.055  24.751  24.174  1.00  0.00     0.082 A 
ATOM     82  C   UNL A   1      33.409  25.988  24.729  1.00  0.00     0.026 A 
ATOM     83  C   UNL A   1      31.873  24.113  24.573  1.00  0.00     0.128 A 
ATOM     84  C   UNL A   1      32.554  26.619  25.638  1.00  0.00    -0.017 A 
ATOM     85  C   UNL A   1      31.004  24.747  25.456  1.00  0.00     0.047 A 
ATOM     86  C   UNL A   1      31.340  25.999  25.976  1.00  0.00     0.012 A 
BRANCH  83  87
ATOM     87  O   UNL A   1      31.559  22.873  24.092  1.00  0.00    -0.507 OA
ATOM     88  H   UNL A   1      30.879  22.372  24.496  1.00  0.00     0.293 HD
ENDBRANCH  83  87
BRANCH  84  89
ATOM     89  C   UNL A   1      32.921  27.892  26.288  1.00  0.00    -0.011 A 
ATOM     90  C   UNL A   1      31.914  28.858  26.685  1.00  0.00     0.027 A 
ATOM     91  C   UNL A   1      34.217  28.178  26.500  1.00  0.00     0.080 A 
ATOM     92  C   UNL A   1      32.265  30.027  27.229  1.00  0.00     0.095 A 
ATOM     93  C   UNL A   1      34.625  29.478  27.108  1.00  0.00     0.255 A 
ATOM     94  N   UNL A   1      33.593  30.345  27.435  1.00  0.00    -0.258 N 
ATOM     95  O   UNL A   1      35.820  29.704  27.266  1.00  0.00    -0.269 OA
BRANCH  94  96
ATOM     96  C   UNL A   1      33.957  31.621  27.991  1.00  0.00     0.451 C 
ATOM     97  F   UNL A   1      34.413  31.497  29.261  1.00  0.00    -0.185 F 
ATOM     98  F   UNL A   1      34.925  32.216  27.251  1.00  0.00    -0.185 F 
ENDBRANCH  94  96
ENDBRANCH  84  89
ENDBRANCH  78  81
ENDBRANCH  76  77
ENDBRANCH  75  76
ENDBRANCH   1  75
TORSDOF 17
ENDMDL
MODEL 3
REMARK VINA RESULT:     -11.5      2.683      3.463
REMARK SMILES O=C(NCCCCNC(=O)c1cc(-c2ccn(C(F)F)c(=O)c2)ccc1O)c1ccc(-c2c3nc(c(-c4c(F)cc(S(=O)(=O)[O-])cc4F)c4ccc([nH]4)c(-c4c(F)cc(S(=O)(=O)[O-])cc4F)c4nc(c(-c5c(F)cc(S(=O)(=O)[O-])cc5F)c5ccc2[nH]5)C=C4)C=C3)cc1
REMARK SMILES IDX 5 1 4 2 3 3 1 4 2 5 28 7 29 8 93 9 30 10 92 11 31 12 32 13
REMARK SMILES IDX 33 14 86 15 34 16 91 17 85 18 87 19 35 20 90 21 84 22 83 23
REMARK SMILES IDX 36 25 70 26 49 27 69 28 50 29 53 30 68 31 88 32 51 33 52 34
REMARK SMILES IDX 67 36 89 37 54 38 37 39 38 40 47 41 39 42 40 43 46 44 48 45
REMARK SMILES IDX 41 46 42 47 43 48 44 49 45 50 71 51 72 52 81 53 73 54 74 55
REMARK SMILES IDX 80 56 82 57 75 58 76 59 77 60 78 61 79 62 55 63 56 64 65 65
REMARK SMILES IDX 57 66 58 67 64 68 66 69 59 70 60 71 61 72 62 73 63 74 6 75
REMARK SMILES IDX 7 76 8 77 9 78 10 80 11 81 12 82 26 83 13 84 25 85 24 86
REMARK SMILES IDX 27 87 14 89 15 90 23 91 16 92 21 93 17 94 22 95 18 96 19 97
REMARK SMILES IDX 20 98
REMARK H PARENT 3 6 87 24 53 35 8 79 27 88
REMARK Flexibility Score: inf
ROOT
ATOM      1  C   UNL A   1      33.426  27.715  25.706  1.00  0.00     0.023 C 
ENDROOT
BRANCH   1   2
ATOM      2  C   UNL A   1      33.895  28.024  27.122  1.00  0.00     0.116 C 
BRANCH   2   3
ATOM      3  N   UNL A   1      33.746  29.429  27.467  1.00  0.00    -0.352 N 
ATOM      4  O   UNL A   1      34.265  31.395  28.426  1.00  0.00    -0.269 OA
ATOM      5  C   UNL A   1      34.643  30.286  28.052  1.00  0.00     0.251 C 
ATOM      6  H   UNL A   1      32.871  29.823  27.248  1.00  0.00     0.163 HD
BRANCH   5   7
ATOM      7  C   UNL A   1      36.053  29.879  28.245  1.00  0.00     0.039 A 
ATOM      8  C   UNL A   1      36.437  29.327  29.471  1.00  0.00     0.014 A 
ATOM      9  C   UNL A   1      37.005  30.079  27.242  1.00  0.00     0.014 A 
ATOM     10  C   UNL A   1      37.767  28.951  29.677  1.00  0.00     0.010 A 
ATOM     11  C   UNL A   1      38.308  29.619  27.415  1.00  0.00     0.010 A 
ATOM     12  C   UNL A   1      38.712  29.083  28.646  1.00  0.00    -0.014 A 
BRANCH  12  13
ATOM     13  C   UNL A   1      40.145  28.756  28.865  1.00  0.00     0.031 A 
ATOM     14  C   UNL A   1      41.056  29.793  29.472  1.00  0.00     0.074 A 
ATOM     15  C   UNL A   1      40.634  27.553  28.506  1.00  0.00     0.049 A 
ATOM     16  N   UNL A   1      42.345  29.740  29.685  1.00  0.00    -0.248 NA
ATOM     17  C   UNL A   1      40.437  31.070  29.871  1.00  0.00     0.031 C 
ATOM     18  C   UNL A   1      39.860  26.471  27.895  1.00  0.00     0.029 A 
ATOM     19  N   UNL A   1      41.902  27.037  28.604  1.00  0.00    -0.354 N 
ATOM     20  C   UNL A   1      42.689  30.972  30.230  1.00  0.00     0.074 A 
ATOM     21  C   UNL A   1      41.489  31.778  30.251  1.00  0.00     0.031 C 
ATOM     22  C   UNL A   1      40.660  25.411  27.707  1.00  0.00     0.029 A 
ATOM     23  C   UNL A   1      42.014  25.748  28.139  1.00  0.00     0.049 A 
ATOM     24  H   UNL A   1      42.663  27.544  28.972  1.00  0.00     0.167 HD
ATOM     25  C   UNL A   1      43.888  31.385  30.704  1.00  0.00     0.037 A 
ATOM     26  C   UNL A   1      43.085  24.933  28.067  1.00  0.00     0.037 A 
ATOM     27  C   UNL A   1      45.072  30.567  30.713  1.00  0.00     0.049 A 
ATOM     28  C   UNL A   1      44.418  25.428  28.564  1.00  0.00     0.074 A 
ATOM     29  C   UNL A   1      46.327  30.880  31.203  1.00  0.00     0.029 A 
ATOM     30  N   UNL A   1      45.146  29.275  30.216  1.00  0.00    -0.354 N 
ATOM     31  N   UNL A   1      44.719  26.586  29.103  1.00  0.00    -0.248 NA
ATOM     32  C   UNL A   1      45.557  24.508  28.442  1.00  0.00     0.031 C 
ATOM     33  C   UNL A   1      47.173  29.795  30.959  1.00  0.00     0.029 A 
ATOM     34  C   UNL A   1      46.432  28.785  30.367  1.00  0.00     0.049 A 
ATOM     35  H   UNL A   1      44.395  28.780  29.814  1.00  0.00     0.167 HD
ATOM     36  C   UNL A   1      46.076  26.524  29.407  1.00  0.00     0.074 A 
ATOM     37  C   UNL A   1      46.533  25.210  29.005  1.00  0.00     0.031 C 
ATOM     38  C   UNL A   1      46.870  27.470  29.965  1.00  0.00     0.037 A 
BRANCH  25  39
ATOM     39  C   UNL A   1      43.976  32.776  31.271  1.00  0.00     0.058 A 
ATOM     40  C   UNL A   1      43.740  33.032  32.630  1.00  0.00     0.135 A 
ATOM     41  C   UNL A   1      44.348  33.859  30.457  1.00  0.00     0.135 A 
ATOM     42  F   UNL A   1      43.362  32.039  33.451  1.00  0.00    -0.206 F 
ATOM     43  C   UNL A   1      43.846  34.314  33.159  1.00  0.00     0.059 A 
ATOM     44  C   UNL A   1      44.491  35.144  30.971  1.00  0.00     0.059 A 
ATOM     45  F   UNL A   1      44.583  33.673  29.149  1.00  0.00    -0.206 F 
ATOM     46  C   UNL A   1      44.228  35.363  32.323  1.00  0.00     0.060 A 
BRANCH  46  47
ATOM     47  S   UNL A   1      44.379  37.015  33.034  1.00  0.00     0.124 S 
ATOM     48  O   UNL A   1      43.466  36.929  34.170  1.00  0.00    -0.237 OA
ATOM     49  O   UNL A   1      45.798  37.079  33.366  1.00  0.00    -0.237 OA
ATOM     50  O   UNL A   1      43.949  37.894  31.952  1.00  0.00    -0.744 OA
ENDBRANCH  46  47
ENDBRANCH  25  39
BRANCH  26  51
ATOM     51  C   UNL A   1      42.934  23.554  27.529  1.00  0.00     0.058 A 
ATOM     52  C   UNL A   1      42.520  22.500  28.358  1.00  0.00     0.135 A 
ATOM     53  C   UNL A   1      43.177  23.263  26.177  1.00  0.00     0.135 A 
ATOM     54  F   UNL A   1      42.285  22.724  29.659  1.00  0.00    -0.206 F 
ATOM     55  C   UNL A   1      42.357  21.208  27.870  1.00  0.00     0.059 A 
ATOM     56  C   UNL A   1      42.996  21.984  25.659  1.00  0.00     0.059 A 
ATOM     57  F   UNL A   1      43.565  24.236  25.338  1.00  0.00    -0.206 F 
ATOM     58  C   UNL A   1      42.590  20.962  26.516  1.00  0.00     0.060 A 
BRANCH  58  59
ATOM     59  S   UNL A   1      42.318  19.291  25.884  1.00  0.00     0.124 S 
ATOM     60  O   UNL A   1      40.866  19.258  25.752  1.00  0.00    -0.237 OA
ATOM     61  O   UNL A   1      43.073  19.313  24.635  1.00  0.00    -0.237 OA
ATOM     62  O   UNL A   1      42.875  18.440  26.932  1.00  0.00    -0.744 OA
ENDBRANCH  58  59
ENDBRANCH  26  51
BRANCH  38  63
ATOM     63  C   UNL A   1      48.316  27.123  30.198  1.00  0.00     0.058 A 
ATOM     64  C   UNL A   1      49.309  27.449  29.263  1.00  0.00     0.135 A 
ATOM     65  C   UNL A   1      48.721  26.534  31.408  1.00  0.00     0.135 A 
ATOM     66  F   UNL A   1      48.975  28.010  28.089  1.00  0.00    -0.206 F 
ATOM     67  C   UNL A   1      50.653  27.188  29.510  1.00  0.00     0.059 A 
ATOM     68  C   UNL A   1      50.062  26.291  31.689  1.00  0.00     0.059 A 
ATOM     69  F   UNL A   1      47.812  26.213  32.343  1.00  0.00    -0.206 F 
ATOM     70  C   UNL A   1      51.020  26.616  30.730  1.00  0.00     0.060 A 
BRANCH  70  71
ATOM     71  S   UNL A   1      52.772  26.329  31.052  1.00  0.00     0.124 S 
ATOM     72  O   UNL A   1      53.317  26.278  29.700  1.00  0.00    -0.237 OA
ATOM     73  O   UNL A   1      53.139  27.501  31.840  1.00  0.00    -0.237 OA
ATOM     74  O   UNL A   1      52.783  25.063  31.780  1.00  0.00    -0.744 OA
ENDBRANCH  70  71
ENDBRANCH  38  63
ENDBRANCH  12  13
ENDBRANCH   5   7
ENDBRANCH   2   3
ENDBRANCH   1   2
BRANCH   1  75
ATOM     75  C   UNL A   1      32.020  28.204  25.368  1.00  0.00     0.023 C 
BRANCH  75  76
ATOM     76  C   UNL A   1      31.088  27.145  24.792  1.00  0.00     0.116 C 
BRANCH  76  77
ATOM     77  N   UNL A   1      30.514  26.285  25.813  1.00  0.00    -0.352 N 
ATOM     78  C   UNL A   1      30.707  24.938  25.998  1.00  0.00     0.255 C 
ATOM     79  H   UNL A   1      29.911  26.724  26.455  1.00  0.00     0.163 HD
ATOM     80  O   UNL A   1      30.098  24.332  26.876  1.00  0.00    -0.269 OA
BRANCH  78  81
ATOM     81  C   UNL A   1      31.582  24.188  25.076  1.00  0.00     0.082 A 
ATOM     82  C   UNL A   1      32.883  23.908  25.516  1.00  0.00     0.026 A 
ATOM     83  C   UNL A   1      31.161  23.765  23.809  1.00  0.00     0.128 A 
ATOM     84  C   UNL A   1      33.745  23.152  24.716  1.00  0.00    -0.017 A 
ATOM     85  C   UNL A   1      32.005  22.989  23.019  1.00  0.00     0.047 A 
ATOM     86  C   UNL A   1      33.286  22.676  23.477  1.00  0.00     0.012 A 
BRANCH  83  87
ATOM     87  O   UNL A   1      29.921  24.098  23.343  1.00  0.00    -0.507 OA
ATOM     88  H   UNL A   1      29.597  23.713  22.554  1.00  0.00     0.293 HD
ENDBRANCH  83  87
BRANCH  84  89
ATOM     89  C   UNL A   1      35.140  22.890  25.120  1.00  0.00    -0.011 A 
ATOM     90  C   UNL A   1      35.952  23.916  25.748  1.00  0.00     0.027 A 
ATOM     91  C   UNL A   1      35.683  21.683  24.885  1.00  0.00     0.080 A 
ATOM     92  C   UNL A   1      37.229  23.677  26.065  1.00  0.00     0.095 A 
ATOM     93  C   UNL A   1      37.106  21.401  25.235  1.00  0.00     0.255 A 
ATOM     94  N   UNL A   1      37.807  22.449  25.811  1.00  0.00    -0.258 N 
ATOM     95  O   UNL A   1      37.565  20.292  24.985  1.00  0.00    -0.269 OA
BRANCH  94  96
ATOM     96  C   UNL A   1      39.192  22.219  26.128  1.00  0.00     0.451 C 
ATOM     97  F   UNL A   1      39.996  23.136  25.535  1.00  0.00    -0.185 F 
ATOM     98  F   UNL A   1      39.400  22.278  27.466  1.00  0.00    -0.185 F 
ENDBRANCH  94  96
ENDBRANCH  84  89
ENDBRANCH  78  81
ENDBRANCH  76  77
ENDBRANCH  75  76
ENDBRANCH   1  75
TORSDOF 17
ENDMDL
