MODEL 1
REMARK VINA RESULT:     -14.6      0.000      0.000
REMARK SMILES Cc1ccccc1OC1(C(=O)NCCCCNC(=O)c2ccc(-c3c4nc(c(-c5c(F)cc(S(=O)(=O)[O-])cc5F)c5ccc([nH]5)c(-c5c(F)cc(S(=O)(=O)[O-])cc5F)c5nc(c(-c6c(F)cc(S(=O)(=O)[O-])cc6F)c6ccc3[nH]6)C=C5)C=C4)cc2)CCN(C(=O)[C@H]2CCCCO2)CC1
REMARK SMILES IDX 15 1 14 2 13 3 12 4 10 5 11 6 9 8 86 9 98 10 87 11 97 12
REMARK SMILES IDX 88 13 89 14 90 15 8 16 7 17 1 18 2 19 3 20 4 21 6 22 5 23
REMARK SMILES IDX 91 24 92 25 96 26 93 27 95 28 94 29 16 30 17 31 18 32 19 34
REMARK SMILES IDX 20 35 21 36 85 37 22 38 84 39 23 40 24 41 25 42 78 43 26 44
REMARK SMILES IDX 83 45 77 46 79 47 27 48 82 49 76 50 75 51 28 53 62 54 41 55
REMARK SMILES IDX 61 56 42 57 45 58 60 59 80 60 43 61 44 62 59 64 81 65 46 66
REMARK SMILES IDX 29 67 30 68 39 69 31 70 32 71 38 72 40 73 33 74 34 75 35 76
REMARK SMILES IDX 36 77 37 78 63 79 64 80 73 81 65 82 66 83 72 84 74 85 67 86
REMARK SMILES IDX 68 87 69 88 70 89 71 90 47 91 48 92 57 93 49 94 50 95 56 96
REMARK SMILES IDX 58 97 51 98 52 99 53 100 54 101 55 102
REMARK H PARENT 12 7 17 33 79 52 45 63
REMARK Flexibility Score: inf
ROOT
ATOM      1  C   UNL A   1      33.135  29.902  26.493  1.00  0.00     0.023 C 
ENDROOT
BRANCH   1   2
ATOM      2  C   UNL A   1      31.997  28.992  26.944  1.00  0.00     0.023 C 
BRANCH   2   3
ATOM      3  C   UNL A   1      32.231  27.489  26.726  1.00  0.00     0.116 C 
BRANCH   3   4
ATOM      4  N   UNL A   1      31.009  26.705  26.717  1.00  0.00    -0.353 N 
ATOM      5  C   UNL A   1      30.652  25.511  26.156  1.00  0.00     0.264 C 
ATOM      6  O   UNL A   1      29.517  25.126  26.474  1.00  0.00    -0.270 OA
ATOM      7  H   UNL A   1      30.279  27.125  27.228  1.00  0.00     0.163 HD
BRANCH   5   8
ATOM      8  C   UNL A   1      31.569  24.678  25.169  1.00  0.00     0.190 C 
ATOM      9  C   UNL A   1      32.996  24.733  25.702  1.00  0.00     0.080 C 
ATOM     10  C   UNL A   1      30.912  23.315  24.915  1.00  0.00     0.080 C 
ATOM     11  C   UNL A   1      33.520  23.451  26.319  1.00  0.00     0.124 C 
ATOM     12  C   UNL A   1      31.644  22.070  25.413  1.00  0.00     0.124 C 
ATOM     13  N   UNL A   1      33.070  22.225  25.683  1.00  0.00    -0.340 N 
ATOM     14  C   UNL A   1      33.997  21.175  25.642  1.00  0.00     0.251 C 
ATOM     15  O   UNL A   1      35.166  21.351  26.002  1.00  0.00    -0.272 OA
BRANCH   8  16
ATOM     16  O   UNL A   1      31.471  25.499  23.962  1.00  0.00    -0.477 OA
BRANCH  16  17
ATOM     17  C   UNL A   1      31.922  26.738  23.623  1.00  0.00     0.123 A 
ATOM     18  C   UNL A   1      29.818  28.241  23.483  1.00  0.00     0.048 C 
ATOM     19  C   UNL A   1      31.279  27.964  23.402  1.00  0.00    -0.009 A 
ATOM     20  C   UNL A   1      32.038  29.089  22.991  1.00  0.00     0.007 A 
ATOM     21  C   UNL A   1      33.414  29.029  22.827  1.00  0.00     0.001 A 
ATOM     22  C   UNL A   1      33.322  26.706  23.446  1.00  0.00     0.047 A 
ATOM     23  C   UNL A   1      34.061  27.830  23.060  1.00  0.00     0.004 A 
ENDBRANCH  16  17
ENDBRANCH   8  16
BRANCH  14  24
ATOM     24  C   UNL A   1      33.557  19.818  25.055  1.00  0.00     0.207 C 
ATOM     25  C   UNL A   1      34.821  19.080  24.587  1.00  0.00     0.042 C 
ATOM     26  O   UNL A   1      32.887  19.077  26.080  1.00  0.00    -0.368 OA
ATOM     27  C   UNL A   1      34.563  17.613  24.271  1.00  0.00     0.006 C 
ATOM     28  C   UNL A   1      32.520  17.764  25.681  1.00  0.00     0.161 C 
ATOM     29  C   UNL A   1      33.772  16.953  25.391  1.00  0.00     0.029 C 
ENDBRANCH  14  24
ENDBRANCH   5   8
ENDBRANCH   3   4
ENDBRANCH   2   3
ENDBRANCH   1   2
BRANCH   1  30
ATOM     30  C   UNL A   1      34.412  29.712  27.298  1.00  0.00     0.116 C 
BRANCH  30  31
ATOM     31  N   UNL A   1      35.216  30.915  27.446  1.00  0.00    -0.352 N 
ATOM     32  C   UNL A   1      36.480  31.016  28.017  1.00  0.00     0.251 C 
ATOM     33  H   UNL A   1      34.822  31.750  27.104  1.00  0.00     0.163 HD
ATOM     34  O   UNL A   1      36.939  32.072  28.407  1.00  0.00    -0.269 OA
BRANCH  32  35
ATOM     35  C   UNL A   1      37.316  29.794  27.984  1.00  0.00     0.039 A 
ATOM     36  C   UNL A   1      37.284  28.973  29.118  1.00  0.00     0.014 A 
ATOM     37  C   UNL A   1      38.320  29.662  27.032  1.00  0.00     0.014 A 
ATOM     38  C   UNL A   1      38.378  28.166  29.409  1.00  0.00     0.010 A 
ATOM     39  C   UNL A   1      39.450  28.951  27.376  1.00  0.00     0.010 A 
ATOM     40  C   UNL A   1      39.498  28.244  28.588  1.00  0.00    -0.014 A 
BRANCH  40  41
ATOM     41  C   UNL A   1      40.802  27.681  28.917  1.00  0.00     0.031 A 
ATOM     42  C   UNL A   1      41.087  26.269  28.577  1.00  0.00     0.074 A 
ATOM     43  C   UNL A   1      41.782  28.489  29.373  1.00  0.00     0.049 A 
ATOM     44  N   UNL A   1      42.126  25.611  28.961  1.00  0.00    -0.248 NA
ATOM     45  C   UNL A   1      40.152  25.457  27.809  1.00  0.00     0.031 C 
ATOM     46  C   UNL A   1      43.219  28.236  29.355  1.00  0.00     0.029 A 
ATOM     47  N   UNL A   1      41.654  29.648  30.132  1.00  0.00    -0.354 N 
ATOM     48  C   UNL A   1      42.151  24.416  28.271  1.00  0.00     0.074 A 
ATOM     49  C   UNL A   1      40.852  24.333  27.652  1.00  0.00     0.031 C 
ATOM     50  C   UNL A   1      43.821  29.055  30.232  1.00  0.00     0.029 A 
ATOM     51  C   UNL A   1      42.774  29.741  30.971  1.00  0.00     0.049 A 
ATOM     52  H   UNL A   1      40.908  30.290  30.087  1.00  0.00     0.167 HD
ATOM     53  C   UNL A   1      43.328  23.723  28.208  1.00  0.00     0.037 A 
ATOM     54  C   UNL A   1      42.632  29.667  32.330  1.00  0.00     0.037 A 
ATOM     55  C   UNL A   1      44.286  24.273  29.176  1.00  0.00     0.049 A 
ATOM     56  C   UNL A   1      43.274  28.444  32.953  1.00  0.00     0.074 A 
ATOM     57  C   UNL A   1      45.371  25.127  29.058  1.00  0.00     0.029 A 
ATOM     58  N   UNL A   1      43.992  24.203  30.537  1.00  0.00    -0.354 N 
ATOM     59  N   UNL A   1      43.666  27.397  32.276  1.00  0.00    -0.248 NA
ATOM     60  C   UNL A   1      43.529  28.302  34.383  1.00  0.00     0.031 C 
ATOM     61  C   UNL A   1      45.655  25.654  30.346  1.00  0.00     0.029 A 
ATOM     62  C   UNL A   1      44.771  25.094  31.253  1.00  0.00     0.049 A 
ATOM     63  H   UNL A   1      43.321  23.602  30.935  1.00  0.00     0.167 HD
ATOM     64  C   UNL A   1      44.174  26.454  33.131  1.00  0.00     0.074 A 
ATOM     65  C   UNL A   1      44.095  27.082  34.437  1.00  0.00     0.031 C 
ATOM     66  C   UNL A   1      44.609  25.232  32.696  1.00  0.00     0.037 A 
BRANCH  53  67
ATOM     67  C   UNL A   1      43.713  22.754  27.091  1.00  0.00     0.058 A 
ATOM     68  C   UNL A   1      42.988  21.551  26.904  1.00  0.00     0.135 A 
ATOM     69  C   UNL A   1      44.833  22.873  26.240  1.00  0.00     0.135 A 
ATOM     70  F   UNL A   1      41.851  21.311  27.572  1.00  0.00    -0.206 F 
ATOM     71  C   UNL A   1      43.398  20.528  26.039  1.00  0.00     0.059 A 
ATOM     72  C   UNL A   1      45.279  21.857  25.389  1.00  0.00     0.059 A 
ATOM     73  F   UNL A   1      45.548  23.994  26.149  1.00  0.00    -0.206 F 
ATOM     74  C   UNL A   1      44.566  20.676  25.305  1.00  0.00     0.060 A 
BRANCH  74  75
ATOM     75  S   UNL A   1      45.133  19.336  24.244  1.00  0.00     0.124 S 
ATOM     76  O   UNL A   1      46.578  19.550  24.229  1.00  0.00    -0.237 OA
ATOM     77  O   UNL A   1      44.670  18.156  24.965  1.00  0.00    -0.237 OA
ATOM     78  O   UNL A   1      44.456  19.596  22.975  1.00  0.00    -0.744 OA
ENDBRANCH  74  75
ENDBRANCH  53  67
BRANCH  54  79
ATOM     79  C   UNL A   1      41.404  30.360  32.816  1.00  0.00     0.058 A 
ATOM     80  C   UNL A   1      40.339  29.543  33.244  1.00  0.00     0.135 A 
ATOM     81  C   UNL A   1      41.458  31.671  33.315  1.00  0.00     0.135 A 
ATOM     82  F   UNL A   1      40.230  28.288  32.777  1.00  0.00    -0.206 F 
ATOM     83  C   UNL A   1      39.486  29.933  34.271  1.00  0.00     0.059 A 
ATOM     84  C   UNL A   1      40.603  32.087  34.339  1.00  0.00     0.059 A 
ATOM     85  F   UNL A   1      42.443  32.497  32.937  1.00  0.00    -0.206 F 
ATOM     86  C   UNL A   1      39.684  31.177  34.865  1.00  0.00     0.060 A 
BRANCH  86  87
ATOM     87  S   UNL A   1      38.880  31.485  36.457  1.00  0.00     0.124 S 
ATOM     88  O   UNL A   1      38.006  32.611  36.147  1.00  0.00    -0.237 OA
ATOM     89  O   UNL A   1      38.209  30.207  36.692  1.00  0.00    -0.237 OA
ATOM     90  O   UNL A   1      39.999  31.781  37.343  1.00  0.00    -0.744 OA
ENDBRANCH  86  87
ENDBRANCH  54  79
BRANCH  66  91
ATOM     91  C   UNL A   1      44.999  24.073  33.585  1.00  0.00     0.058 A 
ATOM     92  C   UNL A   1      44.128  23.034  33.954  1.00  0.00     0.135 A 
ATOM     93  C   UNL A   1      46.348  23.906  33.985  1.00  0.00     0.135 A 
ATOM     94  F   UNL A   1      42.851  23.016  33.542  1.00  0.00    -0.206 F 
ATOM     95  C   UNL A   1      44.543  21.943  34.722  1.00  0.00     0.059 A 
ATOM     96  C   UNL A   1      46.796  22.798  34.700  1.00  0.00     0.059 A 
ATOM     97  F   UNL A   1      47.285  24.815  33.678  1.00  0.00    -0.206 F 
ATOM     98  C   UNL A   1      45.879  21.833  35.091  1.00  0.00     0.060 A 
BRANCH  98  99
ATOM     99  S   UNL A   1      46.443  20.402  36.030  1.00  0.00     0.124 S 
ATOM    100  O   UNL A   1      45.843  20.656  37.335  1.00  0.00    -0.237 OA
ATOM    101  O   UNL A   1      45.879  19.280  35.286  1.00  0.00    -0.237 OA
ATOM    102  O   UNL A   1      47.896  20.517  35.966  1.00  0.00    -0.744 OA
ENDBRANCH  98  99
ENDBRANCH  66  91
ENDBRANCH  40  41
ENDBRANCH  32  35
ENDBRANCH  30  31
ENDBRANCH   1  30
TORSDOF 17
ENDMDL
MODEL 2
REMARK VINA RESULT:     -14.5      1.262      2.248
REMARK SMILES Cc1ccccc1OC1(C(=O)NCCCCNC(=O)c2ccc(-c3c4nc(c(-c5c(F)cc(S(=O)(=O)[O-])cc5F)c5ccc([nH]5)c(-c5c(F)cc(S(=O)(=O)[O-])cc5F)c5nc(c(-c6c(F)cc(S(=O)(=O)[O-])cc6F)c6ccc3[nH]6)C=C5)C=C4)cc2)CCN(C(=O)[C@H]2CCCCO2)CC1
REMARK SMILES IDX 15 1 14 2 13 3 12 4 10 5 11 6 9 8 86 9 98 10 87 11 97 12
REMARK SMILES IDX 88 13 89 14 90 15 8 16 7 17 1 18 2 19 3 20 4 21 6 22 5 23
REMARK SMILES IDX 91 24 92 25 96 26 93 27 95 28 94 29 16 30 17 31 18 32 19 34
REMARK SMILES IDX 20 35 21 36 85 37 22 38 84 39 23 40 24 41 25 42 78 43 26 44
REMARK SMILES IDX 83 45 77 46 79 47 27 48 82 49 76 50 75 51 28 53 62 54 41 55
REMARK SMILES IDX 61 56 42 57 45 58 60 59 80 60 43 61 44 62 59 64 81 65 46 66
REMARK SMILES IDX 29 67 30 68 39 69 31 70 32 71 38 72 40 73 33 74 34 75 35 76
REMARK SMILES IDX 36 77 37 78 63 79 64 80 73 81 65 82 66 83 72 84 74 85 67 86
REMARK SMILES IDX 68 87 69 88 70 89 71 90 47 91 48 92 57 93 49 94 50 95 56 96
REMARK SMILES IDX 58 97 51 98 52 99 53 100 54 101 55 102
REMARK H PARENT 12 7 17 33 79 52 45 63
REMARK Flexibility Score: inf
ROOT
ATOM      1  C   UNL A   1      32.993  29.762  27.578  1.00  0.00     0.023 C 
ENDROOT
BRANCH   1   2
ATOM      2  C   UNL A   1      31.901  30.239  26.627  1.00  0.00     0.023 C 
BRANCH   2   3
ATOM      3  C   UNL A   1      31.599  29.300  25.448  1.00  0.00     0.116 C 
BRANCH   3   4
ATOM      4  N   UNL A   1      32.418  29.555  24.276  1.00  0.00    -0.353 N 
ATOM      5  C   UNL A   1      32.643  28.876  23.111  1.00  0.00     0.264 C 
ATOM      6  O   UNL A   1      33.350  29.492  22.301  1.00  0.00    -0.270 OA
ATOM      7  H   UNL A   1      32.921  30.400  24.334  1.00  0.00     0.163 HD
BRANCH   5   8
ATOM      8  C   UNL A   1      32.084  27.428  22.798  1.00  0.00     0.190 C 
ATOM      9  C   UNL A   1      33.040  26.763  21.814  1.00  0.00     0.080 C 
ATOM     10  C   UNL A   1      31.759  26.726  24.123  1.00  0.00     0.080 C 
ATOM     11  C   UNL A   1      33.908  25.657  22.381  1.00  0.00     0.124 C 
ATOM     12  C   UNL A   1      32.579  25.490  24.492  1.00  0.00     0.124 C 
ATOM     13  N   UNL A   1      33.277  24.828  23.394  1.00  0.00    -0.340 N 
ATOM     14  C   UNL A   1      33.633  23.473  23.392  1.00  0.00     0.251 C 
ATOM     15  O   UNL A   1      34.332  23.006  22.486  1.00  0.00    -0.272 OA
BRANCH   8  16
ATOM     16  O   UNL A   1      30.840  27.768  22.109  1.00  0.00    -0.477 OA
BRANCH  16  17
ATOM     17  C   UNL A   1      29.716  28.448  22.468  1.00  0.00     0.123 A 
ATOM     18  C   UNL A   1      28.260  26.761  23.787  1.00  0.00     0.048 C 
ATOM     19  C   UNL A   1      28.568  28.089  23.188  1.00  0.00    -0.009 A 
ATOM     20  C   UNL A   1      27.518  29.030  23.347  1.00  0.00     0.007 A 
ATOM     21  C   UNL A   1      27.597  30.316  22.835  1.00  0.00     0.001 A 
ATOM     22  C   UNL A   1      29.768  29.763  21.957  1.00  0.00     0.047 A 
ATOM     23  C   UNL A   1      28.732  30.687  22.137  1.00  0.00     0.004 A 
ENDBRANCH  16  17
ENDBRANCH   8  16
BRANCH  14  24
ATOM     24  C   UNL A   1      33.063  22.553  24.492  1.00  0.00     0.207 C 
ATOM     25  C   UNL A   1      32.575  21.263  23.814  1.00  0.00     0.042 C 
ATOM     26  O   UNL A   1      34.106  22.271  25.430  1.00  0.00    -0.368 OA
ATOM     27  C   UNL A   1      32.274  20.153  24.812  1.00  0.00     0.006 C 
ATOM     28  C   UNL A   1      33.722  21.350  26.441  1.00  0.00     0.161 C 
ATOM     29  C   UNL A   1      33.413  20.003  25.810  1.00  0.00     0.029 C 
ENDBRANCH  14  24
ENDBRANCH   5   8
ENDBRANCH   3   4
ENDBRANCH   2   3
ENDBRANCH   1   2
BRANCH   1  30
ATOM     30  C   UNL A   1      34.389  29.832  26.974  1.00  0.00     0.116 C 
BRANCH  30  31
ATOM     31  N   UNL A   1      35.154  31.007  27.360  1.00  0.00    -0.352 N 
ATOM     32  C   UNL A   1      36.341  31.036  28.082  1.00  0.00     0.251 C 
ATOM     33  H   UNL A   1      34.791  31.878  27.078  1.00  0.00     0.163 HD
ATOM     34  O   UNL A   1      36.739  32.036  28.649  1.00  0.00    -0.269 OA
BRANCH  32  35
ATOM     35  C   UNL A   1      37.192  29.827  27.999  1.00  0.00     0.039 A 
ATOM     36  C   UNL A   1      37.176  28.963  29.100  1.00  0.00     0.014 A 
ATOM     37  C   UNL A   1      38.193  29.744  27.038  1.00  0.00     0.014 A 
ATOM     38  C   UNL A   1      38.281  28.158  29.355  1.00  0.00     0.010 A 
ATOM     39  C   UNL A   1      39.333  29.034  27.349  1.00  0.00     0.010 A 
ATOM     40  C   UNL A   1      39.396  28.281  28.533  1.00  0.00    -0.014 A 
BRANCH  40  41
ATOM     41  C   UNL A   1      40.708  27.723  28.835  1.00  0.00     0.031 A 
ATOM     42  C   UNL A   1      40.981  26.304  28.513  1.00  0.00     0.074 A 
ATOM     43  C   UNL A   1      41.702  28.537  29.246  1.00  0.00     0.049 A 
ATOM     44  N   UNL A   1      42.029  25.651  28.879  1.00  0.00    -0.248 NA
ATOM     45  C   UNL A   1      40.022  25.479  27.788  1.00  0.00     0.031 C 
ATOM     46  C   UNL A   1      43.138  28.281  29.191  1.00  0.00     0.029 A 
ATOM     47  N   UNL A   1      41.598  29.711  29.986  1.00  0.00    -0.354 N 
ATOM     48  C   UNL A   1      42.033  24.443  28.211  1.00  0.00     0.074 A 
ATOM     49  C   UNL A   1      40.716  24.351  27.632  1.00  0.00     0.031 C 
ATOM     50  C   UNL A   1      43.766  29.115  30.034  1.00  0.00     0.029 A 
ATOM     51  C   UNL A   1      42.742  29.817  30.790  1.00  0.00     0.049 A 
ATOM     52  H   UNL A   1      40.852  30.353  29.951  1.00  0.00     0.167 HD
ATOM     53  C   UNL A   1      43.206  23.747  28.127  1.00  0.00     0.037 A 
ATOM     54  C   UNL A   1      42.639  29.769  32.154  1.00  0.00     0.037 A 
ATOM     55  C   UNL A   1      44.193  24.313  29.056  1.00  0.00     0.049 A 
ATOM     56  C   UNL A   1      43.298  28.557  32.781  1.00  0.00     0.074 A 
ATOM     57  C   UNL A   1      45.275  25.162  28.891  1.00  0.00     0.029 A 
ATOM     58  N   UNL A   1      43.939  24.270  30.427  1.00  0.00    -0.354 N 
ATOM     59  N   UNL A   1      43.668  27.497  32.113  1.00  0.00    -0.248 NA
ATOM     60  C   UNL A   1      43.595  28.442  34.206  1.00  0.00     0.031 C 
ATOM     61  C   UNL A   1      45.598  25.714  30.160  1.00  0.00     0.029 A 
ATOM     62  C   UNL A   1      44.740  25.172  31.102  1.00  0.00     0.049 A 
ATOM     63  H   UNL A   1      43.279  23.677  30.855  1.00  0.00     0.167 HD
ATOM     64  C   UNL A   1      44.200  26.569  32.971  1.00  0.00     0.074 A 
ATOM     65  C   UNL A   1      44.160  27.222  34.267  1.00  0.00     0.031 C 
ATOM     66  C   UNL A   1      44.620  25.338  32.547  1.00  0.00     0.037 A 
BRANCH  53  67
ATOM     67  C   UNL A   1      43.557  22.756  27.018  1.00  0.00     0.058 A 
ATOM     68  C   UNL A   1      42.876  21.518  26.921  1.00  0.00     0.135 A 
ATOM     69  C   UNL A   1      44.611  22.892  26.088  1.00  0.00     0.135 A 
ATOM     70  F   UNL A   1      41.799  21.254  27.674  1.00  0.00    -0.206 F 
ATOM     71  C   UNL A   1      43.271  20.484  26.063  1.00  0.00     0.059 A 
ATOM     72  C   UNL A   1      45.042  21.866  25.242  1.00  0.00     0.059 A 
ATOM     73  F   UNL A   1      45.267  24.038  25.912  1.00  0.00    -0.206 F 
ATOM     74  C   UNL A   1      44.378  20.654  25.246  1.00  0.00     0.060 A 
BRANCH  74  75
ATOM     75  S   UNL A   1      44.931  19.303  24.191  1.00  0.00     0.124 S 
ATOM     76  O   UNL A   1      44.269  18.152  24.799  1.00  0.00    -0.237 OA
ATOM     77  O   UNL A   1      44.430  19.710  22.883  1.00  0.00    -0.237 OA
ATOM     78  O   UNL A   1      46.385  19.328  24.336  1.00  0.00    -0.744 OA
ENDBRANCH  74  75
ENDBRANCH  53  67
BRANCH  54  79
ATOM     79  C   UNL A   1      41.427  30.474  32.663  1.00  0.00     0.058 A 
ATOM     80  C   UNL A   1      40.322  29.671  33.008  1.00  0.00     0.135 A 
ATOM     81  C   UNL A   1      41.519  31.742  33.256  1.00  0.00     0.135 A 
ATOM     82  F   UNL A   1      40.177  28.458  32.449  1.00  0.00    -0.206 F 
ATOM     83  C   UNL A   1      39.460  30.020  34.042  1.00  0.00     0.059 A 
ATOM     84  C   UNL A   1      40.656  32.118  34.289  1.00  0.00     0.059 A 
ATOM     85  F   UNL A   1      42.543  32.554  32.960  1.00  0.00    -0.206 F 
ATOM     86  C   UNL A   1      39.690  31.210  34.728  1.00  0.00     0.060 A 
BRANCH  86  87
ATOM     87  S   UNL A   1      38.860  31.435  36.321  1.00  0.00     0.124 S 
ATOM     88  O   UNL A   1      39.938  31.951  37.157  1.00  0.00    -0.237 OA
ATOM     89  O   UNL A   1      37.815  32.394  35.967  1.00  0.00    -0.237 OA
ATOM     90  O   UNL A   1      38.398  30.092  36.648  1.00  0.00    -0.744 OA
ENDBRANCH  86  87
ENDBRANCH  54  79
BRANCH  66  91
ATOM     91  C   UNL A   1      45.034  24.195  33.445  1.00  0.00     0.058 A 
ATOM     92  C   UNL A   1      44.221  23.087  33.739  1.00  0.00     0.135 A 
ATOM     93  C   UNL A   1      46.361  24.122  33.937  1.00  0.00     0.135 A 
ATOM     94  F   UNL A   1      42.980  22.982  33.239  1.00  0.00    -0.206 F 
ATOM     95  C   UNL A   1      44.663  22.017  34.520  1.00  0.00     0.059 A 
ATOM     96  C   UNL A   1      46.841  23.038  34.668  1.00  0.00     0.059 A 
ATOM     97  F   UNL A   1      47.246  25.104  33.708  1.00  0.00    -0.206 F 
ATOM     98  C   UNL A   1      45.975  22.000  34.981  1.00  0.00     0.060 A 
BRANCH  98  99
ATOM     99  S   UNL A   1      46.579  20.598  35.938  1.00  0.00     0.124 S 
ATOM    100  O   UNL A   1      47.839  20.305  35.262  1.00  0.00    -0.237 OA
ATOM    101  O   UNL A   1      46.701  21.149  37.284  1.00  0.00    -0.237 OA
ATOM    102  O   UNL A   1      45.523  19.605  35.771  1.00  0.00    -0.744 OA
ENDBRANCH  98  99
ENDBRANCH  66  91
ENDBRANCH  40  41
ENDBRANCH  32  35
ENDBRANCH  30  31
ENDBRANCH   1  30
TORSDOF 17
ENDMDL
MODEL 3
REMARK VINA RESULT:     -14.4      1.384      2.260
REMARK SMILES Cc1ccccc1OC1(C(=O)NCCCCNC(=O)c2ccc(-c3c4nc(c(-c5c(F)cc(S(=O)(=O)[O-])cc5F)c5ccc([nH]5)c(-c5c(F)cc(S(=O)(=O)[O-])cc5F)c5nc(c(-c6c(F)cc(S(=O)(=O)[O-])cc6F)c6ccc3[nH]6)C=C5)C=C4)cc2)CCN(C(=O)[C@H]2CCCCO2)CC1
REMARK SMILES IDX 15 1 14 2 13 3 12 4 10 5 11 6 9 8 86 9 98 10 87 11 97 12
REMARK SMILES IDX 88 13 89 14 90 15 8 16 7 17 1 18 2 19 3 20 4 21 6 22 5 23
REMARK SMILES IDX 91 24 92 25 96 26 93 27 95 28 94 29 16 30 17 31 18 32 19 34
REMARK SMILES IDX 20 35 21 36 85 37 22 38 84 39 23 40 24 41 25 42 78 43 26 44
REMARK SMILES IDX 83 45 77 46 79 47 27 48 82 49 76 50 75 51 28 53 62 54 41 55
REMARK SMILES IDX 61 56 42 57 45 58 60 59 80 60 43 61 44 62 59 64 81 65 46 66
REMARK SMILES IDX 29 67 30 68 39 69 31 70 32 71 38 72 40 73 33 74 34 75 35 76
REMARK SMILES IDX 36 77 37 78 63 79 64 80 73 81 65 82 66 83 72 84 74 85 67 86
REMARK SMILES IDX 68 87 69 88 70 89 71 90 47 91 48 92 57 93 49 94 50 95 56 96
REMARK SMILES IDX 58 97 51 98 52 99 53 100 54 101 55 102
REMARK H PARENT 12 7 17 33 79 52 45 63
REMARK Flexibility Score: inf
ROOT
ATOM      1  C   UNL A   1      33.098  30.321  27.234  1.00  0.00     0.023 C 
ENDROOT
BRANCH   1   2
ATOM      2  C   UNL A   1      32.270  29.147  26.723  1.00  0.00     0.023 C 
BRANCH   2   3
ATOM      3  C   UNL A   1      33.043  27.834  26.526  1.00  0.00     0.116 C 
BRANCH   3   4
ATOM      4  N   UNL A   1      33.626  27.694  25.203  1.00  0.00    -0.353 N 
ATOM      5  C   UNL A   1      33.361  26.890  24.130  1.00  0.00     0.264 C 
ATOM      6  O   UNL A   1      34.037  27.156  23.125  1.00  0.00    -0.270 OA
ATOM      7  H   UNL A   1      34.375  28.315  25.045  1.00  0.00     0.163 HD
BRANCH   5   8
ATOM      8  C   UNL A   1      32.310  25.705  24.139  1.00  0.00     0.190 C 
ATOM      9  C   UNL A   1      32.038  25.315  22.690  1.00  0.00     0.080 C 
ATOM     10  C   UNL A   1      32.780  24.635  25.132  1.00  0.00     0.080 C 
ATOM     11  C   UNL A   1      32.630  23.993  22.241  1.00  0.00     0.124 C 
ATOM     12  C   UNL A   1      33.163  23.265  24.573  1.00  0.00     0.124 C 
ATOM     13  N   UNL A   1      32.646  22.944  23.246  1.00  0.00    -0.340 N 
ATOM     14  C   UNL A   1      32.432  21.640  22.779  1.00  0.00     0.251 C 
ATOM     15  O   UNL A   1      32.112  21.435  21.603  1.00  0.00    -0.272 OA
BRANCH   8  16
ATOM     16  O   UNL A   1      31.141  26.395  24.682  1.00  0.00    -0.477 OA
BRANCH  16  17
ATOM     17  C   UNL A   1      30.098  27.069  24.124  1.00  0.00     0.123 A 
ATOM     18  C   UNL A   1      31.104  29.248  23.152  1.00  0.00     0.048 C 
ATOM     19  C   UNL A   1      30.000  28.294  23.449  1.00  0.00    -0.009 A 
ATOM     20  C   UNL A   1      28.729  28.764  23.031  1.00  0.00     0.007 A 
ATOM     21  C   UNL A   1      27.568  28.036  23.242  1.00  0.00     0.001 A 
ATOM     22  C   UNL A   1      28.900  26.351  24.326  1.00  0.00     0.047 A 
ATOM     23  C   UNL A   1      27.654  26.818  23.891  1.00  0.00     0.004 A 
ENDBRANCH  16  17
ENDBRANCH   8  16
BRANCH  14  24
ATOM     24  C   UNL A   1      32.517  20.469  23.781  1.00  0.00     0.207 C 
ATOM     25  C   UNL A   1      32.176  19.179  23.020  1.00  0.00     0.042 C 
ATOM     26  O   UNL A   1      33.850  20.415  24.301  1.00  0.00    -0.368 OA
ATOM     27  C   UNL A   1      32.519  17.922  23.809  1.00  0.00     0.006 C 
ATOM     28  C   UNL A   1      34.074  19.310  25.165  1.00  0.00     0.161 C 
ATOM     29  C   UNL A   1      33.925  18.016  24.384  1.00  0.00     0.029 C 
ENDBRANCH  14  24
ENDBRANCH   5   8
ENDBRANCH   3   4
ENDBRANCH   2   3
ENDBRANCH   1   2
BRANCH   1  30
ATOM     30  C   UNL A   1      34.576  29.992  27.392  1.00  0.00     0.116 C 
BRANCH  30  31
ATOM     31  N   UNL A   1      35.436  31.150  27.571  1.00  0.00    -0.352 N 
ATOM     32  C   UNL A   1      36.663  31.193  28.223  1.00  0.00     0.251 C 
ATOM     33  H   UNL A   1      35.114  31.999  27.190  1.00  0.00     0.163 HD
ATOM     34  O   UNL A   1      37.156  32.230  28.625  1.00  0.00    -0.269 OA
BRANCH  32  35
ATOM     35  C   UNL A   1      37.428  29.926  28.268  1.00  0.00     0.039 A 
ATOM     36  C   UNL A   1      37.433  29.230  29.483  1.00  0.00     0.014 A 
ATOM     37  C   UNL A   1      38.354  29.635  27.273  1.00  0.00     0.014 A 
ATOM     38  C   UNL A   1      38.501  28.393  29.788  1.00  0.00     0.010 A 
ATOM     39  C   UNL A   1      39.465  28.897  27.616  1.00  0.00     0.010 A 
ATOM     40  C   UNL A   1      39.562  28.317  28.892  1.00  0.00    -0.014 A 
BRANCH  40  41
ATOM     41  C   UNL A   1      40.854  27.714  29.194  1.00  0.00     0.031 A 
ATOM     42  C   UNL A   1      41.106  26.309  28.802  1.00  0.00     0.074 A 
ATOM     43  C   UNL A   1      41.854  28.482  29.674  1.00  0.00     0.049 A 
ATOM     44  N   UNL A   1      42.131  25.614  29.156  1.00  0.00    -0.248 NA
ATOM     45  C   UNL A   1      40.148  25.546  28.009  1.00  0.00     0.031 C 
ATOM     46  C   UNL A   1      43.285  28.198  29.640  1.00  0.00     0.029 A 
ATOM     47  N   UNL A   1      41.755  29.615  30.475  1.00  0.00    -0.354 N 
ATOM     48  C   UNL A   1      42.126  24.445  28.423  1.00  0.00     0.074 A 
ATOM     49  C   UNL A   1      40.823  24.414  27.808  1.00  0.00     0.031 C 
ATOM     50  C   UNL A   1      43.908  28.971  30.543  1.00  0.00     0.029 A 
ATOM     51  C   UNL A   1      42.881  29.653  31.311  1.00  0.00     0.049 A 
ATOM     52  H   UNL A   1      41.024  30.275  30.457  1.00  0.00     0.167 HD
ATOM     53  C   UNL A   1      43.286  23.728  28.329  1.00  0.00     0.037 A 
ATOM     54  C   UNL A   1      42.742  29.532  32.667  1.00  0.00     0.037 A 
ATOM     55  C   UNL A   1      44.260  24.221  29.312  1.00  0.00     0.049 A 
ATOM     56  C   UNL A   1      43.359  28.273  33.242  1.00  0.00     0.074 A 
ATOM     57  C   UNL A   1      45.364  25.053  29.220  1.00  0.00     0.029 A 
ATOM     58  N   UNL A   1      43.971  24.108  30.671  1.00  0.00    -0.354 N 
ATOM     59  N   UNL A   1      43.724  27.243  32.526  1.00  0.00    -0.248 NA
ATOM     60  C   UNL A   1      43.617  28.074  34.666  1.00  0.00     0.031 C 
ATOM     61  C   UNL A   1      45.666  25.527  30.525  1.00  0.00     0.029 A 
ATOM     62  C   UNL A   1      44.773  24.954  31.415  1.00  0.00     0.049 A 
ATOM     63  H   UNL A   1      43.288  23.508  31.049  1.00  0.00     0.167 HD
ATOM     64  C   UNL A   1      44.215  26.258  33.344  1.00  0.00     0.074 A 
ATOM     65  C   UNL A   1      44.155  26.840  34.672  1.00  0.00     0.031 C 
ATOM     66  C   UNL A   1      44.620  25.044  32.863  1.00  0.00     0.037 A 
BRANCH  53  67
ATOM     67  C   UNL A   1      43.644  22.792  27.176  1.00  0.00     0.058 A 
ATOM     68  C   UNL A   1      42.910  21.599  26.966  1.00  0.00     0.135 A 
ATOM     69  C   UNL A   1      44.749  22.931  26.308  1.00  0.00     0.135 A 
ATOM     70  F   UNL A   1      41.784  21.344  27.648  1.00  0.00    -0.206 F 
ATOM     71  C   UNL A   1      43.297  20.602  26.062  1.00  0.00     0.059 A 
ATOM     72  C   UNL A   1      45.173  21.939  25.418  1.00  0.00     0.059 A 
ATOM     73  F   UNL A   1      45.469  24.051  26.238  1.00  0.00    -0.206 F 
ATOM     74  C   UNL A   1      44.452  20.765  25.311  1.00  0.00     0.060 A 
BRANCH  74  75
ATOM     75  S   UNL A   1      44.991  19.456  24.198  1.00  0.00     0.124 S 
ATOM     76  O   UNL A   1      46.444  19.530  24.322  1.00  0.00    -0.237 OA
ATOM     77  O   UNL A   1      44.360  18.277  24.782  1.00  0.00    -0.237 OA
ATOM     78  O   UNL A   1      44.459  19.869  22.901  1.00  0.00    -0.744 OA
ENDBRANCH  74  75
ENDBRANCH  53  67
BRANCH  54  79
ATOM     79  C   UNL A   1      41.533  30.235  33.184  1.00  0.00     0.058 A 
ATOM     80  C   UNL A   1      41.622  31.633  33.331  1.00  0.00     0.135 A 
ATOM     81  C   UNL A   1      40.252  29.677  33.044  1.00  0.00     0.135 A 
ATOM     82  F   UNL A   1      42.823  32.213  33.492  1.00  0.00    -0.206 F 
ATOM     83  C   UNL A   1      40.519  32.459  33.143  1.00  0.00     0.059 A 
ATOM     84  C   UNL A   1      39.129  30.489  32.865  1.00  0.00     0.059 A 
ATOM     85  F   UNL A   1      40.104  28.352  32.910  1.00  0.00    -0.206 F 
ATOM     86  C   UNL A   1      39.294  31.875  32.829  1.00  0.00     0.060 A 
BRANCH  86  87
ATOM     87  S   UNL A   1      37.999  32.947  32.160  1.00  0.00     0.124 S 
ATOM     88  O   UNL A   1      38.689  33.611  31.060  1.00  0.00    -0.237 OA
ATOM     89  O   UNL A   1      36.985  31.967  31.774  1.00  0.00    -0.237 OA
ATOM     90  O   UNL A   1      37.653  33.797  33.293  1.00  0.00    -0.744 OA
ENDBRANCH  86  87
ENDBRANCH  54  79
BRANCH  66  91
ATOM     91  C   UNL A   1      44.987  23.844  33.706  1.00  0.00     0.058 A 
ATOM     92  C   UNL A   1      44.092  22.817  34.050  1.00  0.00     0.135 A 
ATOM     93  C   UNL A   1      46.335  23.626  34.085  1.00  0.00     0.135 A 
ATOM     94  F   UNL A   1      42.810  22.848  33.653  1.00  0.00    -0.206 F 
ATOM     95  C   UNL A   1      44.485  21.690  34.776  1.00  0.00     0.059 A 
ATOM     96  C   UNL A   1      46.760  22.483  34.757  1.00  0.00     0.059 A 
ATOM     97  F   UNL A   1      47.294  24.520  33.798  1.00  0.00    -0.206 F 
ATOM     98  C   UNL A   1      45.821  21.531  35.125  1.00  0.00     0.060 A 
BRANCH  98  99
ATOM     99  S   UNL A   1      46.355  20.053  36.008  1.00  0.00     0.124 S 
ATOM    100  O   UNL A   1      45.722  19.000  35.222  1.00  0.00    -0.237 OA
ATOM    101  O   UNL A   1      47.810  20.122  35.912  1.00  0.00    -0.237 OA
ATOM    102  O   UNL A   1      45.814  20.256  37.349  1.00  0.00    -0.744 OA
ENDBRANCH  98  99
ENDBRANCH  66  91
ENDBRANCH  40  41
ENDBRANCH  32  35
ENDBRANCH  30  31
ENDBRANCH   1  30
TORSDOF 17
ENDMDL
