MODEL 1
REMARK VINA RESULT:     -12.0      0.000      0.000
REMARK SMILES C[C@]1(c2ccccc2C(=O)NCCCCNC(=O)c2ccc(-c3c4nc(c(-c5c(F)cc(S(=O)(=O)[O-])cc5F)c5ccc([nH]5)c(-c5c(F)cc(S(=O)(=O)[O-])cc5F)c5nc(c(-c6c(F)cc(S(=O)(=O)[O-])cc6F)c6ccc3[nH]6)C=C5)C=C4)cc2)NN=C(c2ccccc2)S1
REMARK SMILES IDX 14 1 13 2 12 3 11 4 9 5 10 6 8 8 3 9 4 10 5 11 7 12 6 13
REMARK SMILES IDX 2 14 1 15 85 16 94 17 86 18 87 20 88 21 89 22 93 23 90 24
REMARK SMILES IDX 92 25 91 26 15 27 16 28 17 29 18 31 19 32 20 33 84 34 21 35
REMARK SMILES IDX 83 36 22 37 23 38 24 39 77 40 25 41 82 42 76 43 78 44 26 45
REMARK SMILES IDX 81 46 75 47 74 48 27 50 61 51 40 52 60 53 41 54 44 55 59 56
REMARK SMILES IDX 79 57 42 58 43 59 58 61 80 62 45 63 28 64 29 65 38 66 30 67
REMARK SMILES IDX 31 68 37 69 39 70 32 71 33 72 34 73 35 74 36 75 62 76 63 77
REMARK SMILES IDX 72 78 64 79 65 80 71 81 73 82 66 83 67 84 68 85 69 86 70 87
REMARK SMILES IDX 46 88 47 89 56 90 48 91 49 92 55 93 57 94 50 95 51 96 52 97
REMARK SMILES IDX 53 98 54 99
REMARK H PARENT 11 7 85 19 16 30 78 49 44 60
REMARK Flexibility Score: inf
ROOT
ATOM      1  C   UNL A   1      33.090  28.702  25.633  1.00  0.00     0.023 C 
ENDROOT
BRANCH   1   2
ATOM      2  C   UNL A   1      34.294  28.526  24.728  1.00  0.00     0.023 C 
BRANCH   2   3
ATOM      3  C   UNL A   1      34.195  28.927  23.251  1.00  0.00     0.116 C 
BRANCH   3   4
ATOM      4  N   UNL A   1      33.934  27.840  22.322  1.00  0.00    -0.352 N 
ATOM      5  C   UNL A   1      32.866  27.020  22.017  1.00  0.00     0.251 C 
ATOM      6  O   UNL A   1      32.944  26.463  20.913  1.00  0.00    -0.269 OA
ATOM      7  H   UNL A   1      34.721  27.637  21.767  1.00  0.00     0.163 HD
BRANCH   5   8
ATOM      8  C   UNL A   1      31.626  26.706  22.842  1.00  0.00     0.046 A 
ATOM      9  C   UNL A   1      31.211  25.461  23.428  1.00  0.00     0.002 A 
ATOM     10  C   UNL A   1      29.921  25.381  24.012  1.00  0.00     0.008 A 
ATOM     11  C   UNL A   1      29.007  26.425  23.913  1.00  0.00     0.000 A 
ATOM     12  C   UNL A   1      30.654  27.727  22.735  1.00  0.00     0.014 A 
ATOM     13  C   UNL A   1      29.362  27.584  23.244  1.00  0.00     0.001 A 
BRANCH   9  14
ATOM     14  C   UNL A   1      32.062  24.191  23.459  1.00  0.00     0.129 C 
ATOM     15  C   UNL A   1      31.069  23.055  23.792  1.00  0.00     0.054 C 
ATOM     16  N   UNL A   1      32.726  23.732  22.201  1.00  0.00    -0.288 NA
ATOM     17  S   UNL A   1      33.542  24.572  24.456  1.00  0.00    -0.070 SA
ATOM     18  N   UNL A   1      34.001  23.169  22.350  1.00  0.00    -0.171 NA
ATOM     19  H   UNL A   1      32.295  23.820  21.320  1.00  0.00     0.185 HD
ATOM     20  C   UNL A   1      34.529  23.581  23.458  1.00  0.00     0.126 C 
BRANCH  20  21
ATOM     21  C   UNL A   1      35.873  23.415  24.017  1.00  0.00     0.009 A 
ATOM     22  C   UNL A   1      36.138  24.138  25.186  1.00  0.00     0.011 A 
ATOM     23  C   UNL A   1      36.595  22.246  23.730  1.00  0.00     0.011 A 
ATOM     24  C   UNL A   1      37.090  23.669  26.091  1.00  0.00     0.001 A 
ATOM     25  C   UNL A   1      37.552  21.786  24.640  1.00  0.00     0.001 A 
ATOM     26  C   UNL A   1      37.784  22.487  25.824  1.00  0.00     0.000 A 
ENDBRANCH  20  21
ENDBRANCH   9  14
ENDBRANCH   5   8
ENDBRANCH   3   4
ENDBRANCH   2   3
ENDBRANCH   1   2
BRANCH   1  27
ATOM     27  C   UNL A   1      33.479  28.709  27.093  1.00  0.00     0.116 C 
BRANCH  27  28
ATOM     28  N   UNL A   1      33.466  30.047  27.698  1.00  0.00    -0.352 N 
ATOM     29  C   UNL A   1      34.487  30.725  28.321  1.00  0.00     0.251 C 
ATOM     30  H   UNL A   1      32.607  30.525  27.650  1.00  0.00     0.163 HD
ATOM     31  O   UNL A   1      34.289  31.824  28.832  1.00  0.00    -0.269 OA
BRANCH  29  32
ATOM     32  C   UNL A   1      35.803  30.071  28.411  1.00  0.00     0.039 A 
ATOM     33  C   UNL A   1      36.670  30.117  27.319  1.00  0.00     0.014 A 
ATOM     34  C   UNL A   1      36.221  29.550  29.635  1.00  0.00     0.014 A 
ATOM     35  C   UNL A   1      37.996  29.723  27.492  1.00  0.00     0.010 A 
ATOM     36  C   UNL A   1      37.566  29.323  29.844  1.00  0.00     0.010 A 
ATOM     37  C   UNL A   1      38.465  29.375  28.770  1.00  0.00    -0.014 A 
BRANCH  37  38
ATOM     38  C   UNL A   1      39.877  29.001  29.019  1.00  0.00     0.031 A 
ATOM     39  C   UNL A   1      40.810  30.033  29.596  1.00  0.00     0.074 A 
ATOM     40  C   UNL A   1      40.333  27.789  28.646  1.00  0.00     0.049 A 
ATOM     41  N   UNL A   1      42.103  29.974  29.769  1.00  0.00    -0.248 NA
ATOM     42  C   UNL A   1      40.219  31.332  29.970  1.00  0.00     0.031 C 
ATOM     43  C   UNL A   1      39.538  26.738  28.004  1.00  0.00     0.029 A 
ATOM     44  N   UNL A   1      41.584  27.237  28.750  1.00  0.00    -0.354 N 
ATOM     45  C   UNL A   1      42.477  31.231  30.230  1.00  0.00     0.074 A 
ATOM     46  C   UNL A   1      41.295  32.059  30.226  1.00  0.00     0.031 C 
ATOM     47  C   UNL A   1      40.310  25.656  27.811  1.00  0.00     0.029 A 
ATOM     48  C   UNL A   1      41.661  25.948  28.278  1.00  0.00     0.049 A 
ATOM     49  H   UNL A   1      42.354  27.720  29.127  1.00  0.00     0.167 HD
ATOM     50  C   UNL A   1      43.688  31.646  30.668  1.00  0.00     0.037 A 
ATOM     51  C   UNL A   1      42.707  25.101  28.233  1.00  0.00     0.037 A 
ATOM     52  C   UNL A   1      44.836  30.787  30.741  1.00  0.00     0.049 A 
ATOM     53  C   UNL A   1      44.032  25.565  28.778  1.00  0.00     0.074 A 
ATOM     54  C   UNL A   1      46.092  31.069  31.246  1.00  0.00     0.029 A 
ATOM     55  N   UNL A   1      44.860  29.468  30.311  1.00  0.00    -0.354 N 
ATOM     56  N   UNL A   1      44.354  26.735  29.277  1.00  0.00    -0.248 NA
ATOM     57  C   UNL A   1      45.133  24.593  28.763  1.00  0.00     0.031 C 
ATOM     58  C   UNL A   1      46.886  29.929  31.089  1.00  0.00     0.029 A 
ATOM     59  C   UNL A   1      46.112  28.924  30.529  1.00  0.00     0.049 A 
ATOM     60  H   UNL A   1      44.098  28.991  29.910  1.00  0.00     0.167 HD
ATOM     61  C   UNL A   1      45.686  26.632  29.660  1.00  0.00     0.074 A 
ATOM     62  C   UNL A   1      46.105  25.281  29.347  1.00  0.00     0.031 C 
ATOM     63  C   UNL A   1      46.493  27.569  30.220  1.00  0.00     0.037 A 
BRANCH  50  64
ATOM     64  C   UNL A   1      43.812  33.073  31.125  1.00  0.00     0.058 A 
ATOM     65  C   UNL A   1      44.237  34.092  30.255  1.00  0.00     0.135 A 
ATOM     66  C   UNL A   1      43.498  33.430  32.445  1.00  0.00     0.135 A 
ATOM     67  F   UNL A   1      44.574  33.804  28.988  1.00  0.00    -0.206 F 
ATOM     68  C   UNL A   1      44.383  35.405  30.688  1.00  0.00     0.059 A 
ATOM     69  C   UNL A   1      43.604  34.745  32.891  1.00  0.00     0.059 A 
ATOM     70  F   UNL A   1      43.092  32.497  33.321  1.00  0.00    -0.206 F 
ATOM     71  C   UNL A   1      44.063  35.722  32.009  1.00  0.00     0.060 A 
BRANCH  71  72
ATOM     72  S   UNL A   1      44.251  37.432  32.551  1.00  0.00     0.124 S 
ATOM     73  O   UNL A   1      43.913  38.162  31.333  1.00  0.00    -0.237 OA
ATOM     74  O   UNL A   1      43.277  37.524  33.635  1.00  0.00    -0.237 OA
ATOM     75  O   UNL A   1      45.649  37.507  32.961  1.00  0.00    -0.744 OA
ENDBRANCH  71  72
ENDBRANCH  50  64
BRANCH  51  76
ATOM     76  C   UNL A   1      42.533  23.723  27.700  1.00  0.00     0.058 A 
ATOM     77  C   UNL A   1      42.517  23.484  26.317  1.00  0.00     0.135 A 
ATOM     78  C   UNL A   1      42.395  22.619  28.554  1.00  0.00     0.135 A 
ATOM     79  F   UNL A   1      42.643  24.507  25.459  1.00  0.00    -0.206 F 
ATOM     80  C   UNL A   1      42.350  22.204  25.799  1.00  0.00     0.059 A 
ATOM     81  C   UNL A   1      42.252  21.324  28.060  1.00  0.00     0.059 A 
ATOM     82  F   UNL A   1      42.426  22.789  29.885  1.00  0.00    -0.206 F 
ATOM     83  C   UNL A   1      42.220  21.129  26.680  1.00  0.00     0.060 A 
BRANCH  83  84
ATOM     84  S   UNL A   1      42.047  19.466  25.998  1.00  0.00     0.124 S 
ATOM     85  O   UNL A   1      42.582  18.647  27.079  1.00  0.00    -0.237 OA
ATOM     86  O   UNL A   1      40.606  19.373  25.778  1.00  0.00    -0.237 OA
ATOM     87  O   UNL A   1      42.855  19.517  24.783  1.00  0.00    -0.744 OA
ENDBRANCH  83  84
ENDBRANCH  51  76
BRANCH  63  88
ATOM     88  C   UNL A   1      47.894  27.155  30.563  1.00  0.00     0.058 A 
ATOM     89  C   UNL A   1      48.960  27.365  29.676  1.00  0.00     0.135 A 
ATOM     90  C   UNL A   1      48.180  26.605  31.822  1.00  0.00     0.135 A 
ATOM     91  F   UNL A   1      48.735  27.885  28.459  1.00  0.00    -0.206 F 
ATOM     92  C   UNL A   1      50.263  27.023  30.019  1.00  0.00     0.059 A 
ATOM     93  C   UNL A   1      49.479  26.282  32.196  1.00  0.00     0.059 A 
ATOM     94  F   UNL A   1      47.195  26.397  32.710  1.00  0.00    -0.206 F 
ATOM     95  C   UNL A   1      50.513  26.485  31.283  1.00  0.00     0.060 A 
BRANCH  95  96
ATOM     96  S   UNL A   1      52.214  26.084  31.731  1.00  0.00     0.124 S 
ATOM     97  O   UNL A   1      52.831  25.918  30.418  1.00  0.00    -0.237 OA
ATOM     98  O   UNL A   1      52.627  27.266  32.480  1.00  0.00    -0.237 OA
ATOM     99  O   UNL A   1      52.079  24.864  32.521  1.00  0.00    -0.744 OA
ENDBRANCH  95  96
ENDBRANCH  63  88
ENDBRANCH  37  38
ENDBRANCH  29  32
ENDBRANCH  27  28
ENDBRANCH   1  27
TORSDOF 16
ENDMDL
MODEL 2
REMARK VINA RESULT:     -11.6      3.009      4.919
REMARK SMILES C[C@]1(c2ccccc2C(=O)NCCCCNC(=O)c2ccc(-c3c4nc(c(-c5c(F)cc(S(=O)(=O)[O-])cc5F)c5ccc([nH]5)c(-c5c(F)cc(S(=O)(=O)[O-])cc5F)c5nc(c(-c6c(F)cc(S(=O)(=O)[O-])cc6F)c6ccc3[nH]6)C=C5)C=C4)cc2)NN=C(c2ccccc2)S1
REMARK SMILES IDX 14 1 13 2 12 3 11 4 9 5 10 6 8 8 3 9 4 10 5 11 7 12 6 13
REMARK SMILES IDX 2 14 1 15 85 16 94 17 86 18 87 20 88 21 89 22 93 23 90 24
REMARK SMILES IDX 92 25 91 26 15 27 16 28 17 29 18 31 19 32 20 33 84 34 21 35
REMARK SMILES IDX 83 36 22 37 23 38 24 39 77 40 25 41 82 42 76 43 78 44 26 45
REMARK SMILES IDX 81 46 75 47 74 48 27 50 61 51 40 52 60 53 41 54 44 55 59 56
REMARK SMILES IDX 79 57 42 58 43 59 58 61 80 62 45 63 28 64 29 65 38 66 30 67
REMARK SMILES IDX 31 68 37 69 39 70 32 71 33 72 34 73 35 74 36 75 62 76 63 77
REMARK SMILES IDX 72 78 64 79 65 80 71 81 73 82 66 83 67 84 68 85 69 86 70 87
REMARK SMILES IDX 46 88 47 89 56 90 48 91 49 92 55 93 57 94 50 95 51 96 52 97
REMARK SMILES IDX 53 98 54 99
REMARK H PARENT 11 7 85 19 16 30 78 49 44 60
REMARK Flexibility Score: inf
ROOT
ATOM      1  C   UNL A   1      34.141  29.740  27.099  1.00  0.00     0.023 C 
ENDROOT
BRANCH   1   2
ATOM      2  C   UNL A   1      33.248  28.581  26.695  1.00  0.00     0.023 C 
BRANCH   2   3
ATOM      3  C   UNL A   1      32.027  28.233  27.554  1.00  0.00     0.116 C 
BRANCH   3   4
ATOM      4  N   UNL A   1      31.256  27.083  27.109  1.00  0.00    -0.352 N 
ATOM      5  C   UNL A   1      31.507  25.921  26.405  1.00  0.00     0.251 C 
ATOM      6  O   UNL A   1      30.654  25.036  26.552  1.00  0.00    -0.269 OA
ATOM      7  H   UNL A   1      30.312  27.149  27.381  1.00  0.00     0.163 HD
BRANCH   5   8
ATOM      8  C   UNL A   1      32.669  25.587  25.482  1.00  0.00     0.046 A 
ATOM      9  C   UNL A   1      32.728  25.602  24.045  1.00  0.00     0.002 A 
ATOM     10  C   UNL A   1      33.883  25.083  23.406  1.00  0.00     0.008 A 
ATOM     11  C   UNL A   1      34.890  24.443  24.122  1.00  0.00     0.000 A 
ATOM     12  C   UNL A   1      33.699  24.898  26.164  1.00  0.00     0.014 A 
ATOM     13  C   UNL A   1      34.781  24.320  25.497  1.00  0.00     0.001 A 
BRANCH   9  14
ATOM     14  C   UNL A   1      31.618  26.133  23.138  1.00  0.00     0.129 C 
ATOM     15  C   UNL A   1      31.744  25.313  21.835  1.00  0.00     0.054 C 
ATOM     16  N   UNL A   1      30.193  25.941  23.548  1.00  0.00    -0.288 NA
ATOM     17  S   UNL A   1      31.705  27.954  23.206  1.00  0.00    -0.070 SA
ATOM     18  N   UNL A   1      29.319  26.993  23.244  1.00  0.00    -0.171 NA
ATOM     19  H   UNL A   1      29.886  25.124  24.005  1.00  0.00     0.185 HD
ATOM     20  C   UNL A   1      29.996  28.088  23.099  1.00  0.00     0.126 C 
BRANCH  20  21
ATOM     21  C   UNL A   1      29.570  29.479  22.920  1.00  0.00     0.009 A 
ATOM     22  C   UNL A   1      28.467  29.673  22.079  1.00  0.00     0.011 A 
ATOM     23  C   UNL A   1      29.875  30.422  23.913  1.00  0.00     0.011 A 
ATOM     24  C   UNL A   1      27.644  30.784  22.261  1.00  0.00     0.001 A 
ATOM     25  C   UNL A   1      29.048  31.536  24.084  1.00  0.00     0.001 A 
ATOM     26  C   UNL A   1      27.927  31.705  23.271  1.00  0.00     0.000 A 
ENDBRANCH  20  21
ENDBRANCH   9  14
ENDBRANCH   5   8
ENDBRANCH   3   4
ENDBRANCH   2   3
ENDBRANCH   1   2
BRANCH   1  27
ATOM     27  C   UNL A   1      35.129  29.342  28.171  1.00  0.00     0.116 C 
BRANCH  27  28
ATOM     28  N   UNL A   1      35.391  30.404  29.152  1.00  0.00    -0.352 N 
ATOM     29  C   UNL A   1      36.583  30.774  29.728  1.00  0.00     0.251 C 
ATOM     30  H   UNL A   1      34.603  30.921  29.436  1.00  0.00     0.163 HD
ATOM     31  O   UNL A   1      36.617  31.653  30.586  1.00  0.00    -0.269 OA
BRANCH  29  32
ATOM     32  C   UNL A   1      37.802  30.050  29.333  1.00  0.00     0.039 A 
ATOM     33  C   UNL A   1      38.115  29.917  27.981  1.00  0.00     0.014 A 
ATOM     34  C   UNL A   1      38.699  29.642  30.319  1.00  0.00     0.014 A 
ATOM     35  C   UNL A   1      39.382  29.458  27.622  1.00  0.00     0.010 A 
ATOM     36  C   UNL A   1      40.001  29.352  29.963  1.00  0.00     0.010 A 
ATOM     37  C   UNL A   1      40.350  29.225  28.612  1.00  0.00    -0.014 A 
BRANCH  37  38
ATOM     38  C   UNL A   1      41.728  28.789  28.283  1.00  0.00     0.031 A 
ATOM     39  C   UNL A   1      42.826  29.820  28.244  1.00  0.00     0.074 A 
ATOM     40  C   UNL A   1      41.969  27.510  27.933  1.00  0.00     0.049 A 
ATOM     41  N   UNL A   1      44.065  29.694  27.852  1.00  0.00    -0.248 NA
ATOM     42  C   UNL A   1      42.465  31.195  28.639  1.00  0.00     0.031 C 
ATOM     43  C   UNL A   1      40.968  26.442  27.857  1.00  0.00     0.029 A 
ATOM     44  N   UNL A   1      43.137  26.891  27.570  1.00  0.00    -0.354 N 
ATOM     45  C   UNL A   1      44.610  30.971  27.917  1.00  0.00     0.074 A 
ATOM     46  C   UNL A   1      43.549  31.872  28.298  1.00  0.00     0.031 C 
ATOM     47  C   UNL A   1      41.572  25.293  27.514  1.00  0.00     0.029 A 
ATOM     48  C   UNL A   1      42.993  25.549  27.306  1.00  0.00     0.049 A 
ATOM     49  H   UNL A   1      43.998  27.364  27.504  1.00  0.00     0.167 HD
ATOM     50  C   UNL A   1      45.893  31.354  27.726  1.00  0.00     0.037 A 
ATOM     51  C   UNL A   1      43.911  24.633  26.942  1.00  0.00     0.037 A 
ATOM     52  C   UNL A   1      46.954  30.435  27.424  1.00  0.00     0.049 A 
ATOM     53  C   UNL A   1      45.343  25.070  26.790  1.00  0.00     0.074 A 
ATOM     54  C   UNL A   1      48.305  30.692  27.293  1.00  0.00     0.029 A 
ATOM     55  N   UNL A   1      46.780  29.072  27.225  1.00  0.00    -0.354 N 
ATOM     56  N   UNL A   1      45.858  26.270  26.924  1.00  0.00    -0.248 NA
ATOM     57  C   UNL A   1      46.322  24.030  26.448  1.00  0.00     0.031 C 
ATOM     58  C   UNL A   1      48.946  29.488  26.981  1.00  0.00     0.029 A 
ATOM     59  C   UNL A   1      47.998  28.475  26.962  1.00  0.00     0.049 A 
ATOM     60  H   UNL A   1      45.916  28.601  27.265  1.00  0.00     0.167 HD
ATOM     61  C   UNL A   1      47.223  26.125  26.709  1.00  0.00     0.074 A 
ATOM     62  C   UNL A   1      47.456  24.719  26.449  1.00  0.00     0.031 C 
ATOM     63  C   UNL A   1      48.199  27.068  26.723  1.00  0.00     0.037 A 
BRANCH  50  64
ATOM     64  C   UNL A   1      46.213  32.817  27.869  1.00  0.00     0.058 A 
ATOM     65  C   UNL A   1      46.693  33.352  29.077  1.00  0.00     0.135 A 
ATOM     66  C   UNL A   1      46.042  33.694  26.788  1.00  0.00     0.135 A 
ATOM     67  F   UNL A   1      46.852  32.563  30.152  1.00  0.00    -0.206 F 
ATOM     68  C   UNL A   1      46.956  34.709  29.218  1.00  0.00     0.059 A 
ATOM     69  C   UNL A   1      46.332  35.051  26.896  1.00  0.00     0.059 A 
ATOM     70  F   UNL A   1      45.581  33.238  25.612  1.00  0.00    -0.206 F 
ATOM     71  C   UNL A   1      46.773  35.552  28.121  1.00  0.00     0.060 A 
BRANCH  71  72
ATOM     72  S   UNL A   1      47.127  37.310  28.319  1.00  0.00     0.124 S 
ATOM     73  O   UNL A   1      48.585  37.320  28.269  1.00  0.00    -0.237 OA
ATOM     74  O   UNL A   1      46.450  37.896  27.166  1.00  0.00    -0.237 OA
ATOM     75  O   UNL A   1      46.540  37.630  29.617  1.00  0.00    -0.744 OA
ENDBRANCH  71  72
ENDBRANCH  50  64
BRANCH  51  76
ATOM     76  C   UNL A   1      43.513  23.213  26.745  1.00  0.00     0.058 A 
ATOM     77  C   UNL A   1      43.421  22.664  25.457  1.00  0.00     0.135 A 
ATOM     78  C   UNL A   1      43.233  22.372  27.833  1.00  0.00     0.135 A 
ATOM     79  F   UNL A   1      43.678  23.427  24.384  1.00  0.00    -0.206 F 
ATOM     80  C   UNL A   1      43.046  21.340  25.252  1.00  0.00     0.059 A 
ATOM     81  C   UNL A   1      42.881  21.037  27.655  1.00  0.00     0.059 A 
ATOM     82  F   UNL A   1      43.328  22.841  29.088  1.00  0.00    -0.206 F 
ATOM     83  C   UNL A   1      42.779  20.533  26.359  1.00  0.00     0.060 A 
BRANCH  83  84
ATOM     84  S   UNL A   1      42.336  18.804  26.084  1.00  0.00     0.124 S 
ATOM     85  O   UNL A   1      40.932  18.917  25.706  1.00  0.00    -0.237 OA
ATOM     86  O   UNL A   1      43.255  18.418  25.017  1.00  0.00    -0.237 OA
ATOM     87  O   UNL A   1      42.595  18.182  27.379  1.00  0.00    -0.744 OA
ENDBRANCH  83  84
ENDBRANCH  51  76
BRANCH  63  88
ATOM     88  C   UNL A   1      49.607  26.606  26.487  1.00  0.00     0.058 A 
ATOM     89  C   UNL A   1      50.415  26.145  27.537  1.00  0.00     0.135 A 
ATOM     90  C   UNL A   1      50.128  26.562  25.184  1.00  0.00     0.135 A 
ATOM     91  F   UNL A   1      49.961  26.171  28.801  1.00  0.00    -0.206 F 
ATOM     92  C   UNL A   1      51.702  25.674  27.305  1.00  0.00     0.059 A 
ATOM     93  C   UNL A   1      51.401  26.069  24.926  1.00  0.00     0.059 A 
ATOM     94  F   UNL A   1      49.388  26.981  24.145  1.00  0.00    -0.206 F 
ATOM     95  C   UNL A   1      52.185  25.637  25.996  1.00  0.00     0.060 A 
BRANCH  95  96
ATOM     96  S   UNL A   1      53.842  24.985  25.704  1.00  0.00     0.124 S 
ATOM     97  O   UNL A   1      54.481  25.224  26.994  1.00  0.00    -0.237 OA
ATOM     98  O   UNL A   1      53.574  23.588  25.378  1.00  0.00    -0.237 OA
ATOM     99  O   UNL A   1      54.336  25.797  24.597  1.00  0.00    -0.744 OA
ENDBRANCH  95  96
ENDBRANCH  63  88
ENDBRANCH  37  38
ENDBRANCH  29  32
ENDBRANCH  27  28
ENDBRANCH   1  27
TORSDOF 16
ENDMDL
MODEL 3
REMARK VINA RESULT:     -11.6      2.086      3.195
REMARK SMILES C[C@]1(c2ccccc2C(=O)NCCCCNC(=O)c2ccc(-c3c4nc(c(-c5c(F)cc(S(=O)(=O)[O-])cc5F)c5ccc([nH]5)c(-c5c(F)cc(S(=O)(=O)[O-])cc5F)c5nc(c(-c6c(F)cc(S(=O)(=O)[O-])cc6F)c6ccc3[nH]6)C=C5)C=C4)cc2)NN=C(c2ccccc2)S1
REMARK SMILES IDX 14 1 13 2 12 3 11 4 9 5 10 6 8 8 3 9 4 10 5 11 7 12 6 13
REMARK SMILES IDX 2 14 1 15 85 16 94 17 86 18 87 20 88 21 89 22 93 23 90 24
REMARK SMILES IDX 92 25 91 26 15 27 16 28 17 29 18 31 19 32 20 33 84 34 21 35
REMARK SMILES IDX 83 36 22 37 23 38 24 39 77 40 25 41 82 42 76 43 78 44 26 45
REMARK SMILES IDX 81 46 75 47 74 48 27 50 61 51 40 52 60 53 41 54 44 55 59 56
REMARK SMILES IDX 79 57 42 58 43 59 58 61 80 62 45 63 28 64 29 65 38 66 30 67
REMARK SMILES IDX 31 68 37 69 39 70 32 71 33 72 34 73 35 74 36 75 62 76 63 77
REMARK SMILES IDX 72 78 64 79 65 80 71 81 73 82 66 83 67 84 68 85 69 86 70 87
REMARK SMILES IDX 46 88 47 89 56 90 48 91 49 92 55 93 57 94 50 95 51 96 52 97
REMARK SMILES IDX 53 98 54 99
REMARK H PARENT 11 7 85 19 16 30 78 49 44 60
REMARK Flexibility Score: inf
ROOT
ATOM      1  C   UNL A   1      32.123  27.882  27.399  1.00  0.00     0.023 C 
ENDROOT
BRANCH   1   2
ATOM      2  C   UNL A   1      31.627  27.367  26.062  1.00  0.00     0.023 C 
BRANCH   2   3
ATOM      3  C   UNL A   1      30.533  26.293  26.023  1.00  0.00     0.116 C 
BRANCH   3   4
ATOM      4  N   UNL A   1      30.887  25.016  26.621  1.00  0.00    -0.352 N 
ATOM      5  C   UNL A   1      31.978  24.169  26.599  1.00  0.00     0.251 C 
ATOM      6  O   UNL A   1      32.016  23.355  27.531  1.00  0.00    -0.269 OA
ATOM      7  H   UNL A   1      30.163  24.666  27.188  1.00  0.00     0.163 HD
BRANCH   5   8
ATOM      8  C   UNL A   1      33.119  24.096  25.596  1.00  0.00     0.046 A 
ATOM      9  C   UNL A   1      33.363  23.131  24.558  1.00  0.00     0.002 A 
ATOM     10  C   UNL A   1      34.595  23.181  23.857  1.00  0.00     0.008 A 
ATOM     11  C   UNL A   1      35.618  24.045  24.237  1.00  0.00     0.000 A 
ATOM     12  C   UNL A   1      34.198  24.931  25.968  1.00  0.00     0.014 A 
ATOM     13  C   UNL A   1      35.431  24.895  25.314  1.00  0.00     0.001 A 
BRANCH   9  14
ATOM     14  C   UNL A   1      32.384  22.028  24.153  1.00  0.00     0.129 C 
ATOM     15  C   UNL A   1      30.983  22.652  24.342  1.00  0.00     0.054 C 
ATOM     16  N   UNL A   1      32.377  21.549  22.737  1.00  0.00    -0.288 NA
ATOM     17  S   UNL A   1      32.937  20.500  24.982  1.00  0.00    -0.070 SA
ATOM     18  N   UNL A   1      32.154  20.178  22.553  1.00  0.00    -0.171 NA
ATOM     19  H   UNL A   1      32.521  22.160  21.977  1.00  0.00     0.185 HD
ATOM     20  C   UNL A   1      32.462  19.541  23.638  1.00  0.00     0.126 C 
BRANCH  20  21
ATOM     21  C   UNL A   1      32.551  18.109  23.934  1.00  0.00     0.009 A 
ATOM     22  C   UNL A   1      33.448  17.380  23.144  1.00  0.00     0.011 A 
ATOM     23  C   UNL A   1      32.205  17.651  25.215  1.00  0.00     0.011 A 
ATOM     24  C   UNL A   1      34.034  16.220  23.651  1.00  0.00     0.001 A 
ATOM     25  C   UNL A   1      32.792  16.484  25.713  1.00  0.00     0.001 A 
ATOM     26  C   UNL A   1      33.717  15.782  24.939  1.00  0.00     0.000 A 
ENDBRANCH  20  21
ENDBRANCH   9  14
ENDBRANCH   5   8
ENDBRANCH   3   4
ENDBRANCH   2   3
ENDBRANCH   1   2
BRANCH   1  27
ATOM     27  C   UNL A   1      33.473  28.549  27.280  1.00  0.00     0.116 C 
BRANCH  27  28
ATOM     28  N   UNL A   1      33.483  29.942  27.746  1.00  0.00    -0.352 N 
ATOM     29  C   UNL A   1      34.527  30.675  28.259  1.00  0.00     0.251 C 
ATOM     30  H   UNL A   1      32.623  30.416  27.682  1.00  0.00     0.163 HD
ATOM     31  O   UNL A   1      34.348  31.822  28.664  1.00  0.00    -0.269 OA
BRANCH  29  32
ATOM     32  C   UNL A   1      35.845  30.029  28.367  1.00  0.00     0.039 A 
ATOM     33  C   UNL A   1      36.739  30.111  27.299  1.00  0.00     0.014 A 
ATOM     34  C   UNL A   1      36.235  29.479  29.586  1.00  0.00     0.014 A 
ATOM     35  C   UNL A   1      38.064  29.722  27.496  1.00  0.00     0.010 A 
ATOM     36  C   UNL A   1      37.577  29.257  29.824  1.00  0.00     0.010 A 
ATOM     37  C   UNL A   1      38.502  29.344  28.776  1.00  0.00    -0.014 A 
BRANCH  37  38
ATOM     38  C   UNL A   1      39.911  28.974  29.053  1.00  0.00     0.031 A 
ATOM     39  C   UNL A   1      40.823  30.001  29.670  1.00  0.00     0.074 A 
ATOM     40  C   UNL A   1      40.383  27.772  28.668  1.00  0.00     0.049 A 
ATOM     41  N   UNL A   1      42.112  29.946  29.873  1.00  0.00    -0.248 NA
ATOM     42  C   UNL A   1      40.215  31.290  30.054  1.00  0.00     0.031 C 
ATOM     43  C   UNL A   1      39.611  26.728  27.988  1.00  0.00     0.029 A 
ATOM     44  N   UNL A   1      41.635  27.226  28.792  1.00  0.00    -0.354 N 
ATOM     45  C   UNL A   1      42.467  31.197  30.366  1.00  0.00     0.074 A 
ATOM     46  C   UNL A   1      41.280  32.018  30.349  1.00  0.00     0.031 C 
ATOM     47  C   UNL A   1      40.394  25.654  27.795  1.00  0.00     0.029 A 
ATOM     48  C   UNL A   1      41.732  25.946  28.298  1.00  0.00     0.049 A 
ATOM     49  H   UNL A   1      42.393  27.707  29.196  1.00  0.00     0.167 HD
ATOM     50  C   UNL A   1      43.664  31.611  30.840  1.00  0.00     0.037 A 
ATOM     51  C   UNL A   1      42.784  25.107  28.264  1.00  0.00     0.037 A 
ATOM     52  C   UNL A   1      44.816  30.759  30.925  1.00  0.00     0.049 A 
ATOM     53  C   UNL A   1      44.093  25.568  28.848  1.00  0.00     0.074 A 
ATOM     54  C   UNL A   1      46.057  31.039  31.464  1.00  0.00     0.029 A 
ATOM     55  N   UNL A   1      44.858  29.447  30.471  1.00  0.00    -0.354 N 
ATOM     56  N   UNL A   1      44.395  26.731  29.376  1.00  0.00    -0.248 NA
ATOM     57  C   UNL A   1      45.200  24.603  28.842  1.00  0.00     0.031 C 
ATOM     58  C   UNL A   1      46.862  29.906  31.306  1.00  0.00     0.029 A 
ATOM     59  C   UNL A   1      46.108  28.907  30.709  1.00  0.00     0.049 A 
ATOM     60  H   UNL A   1      44.109  28.973  30.043  1.00  0.00     0.167 HD
ATOM     61  C   UNL A   1      45.718  26.629  29.789  1.00  0.00     0.074 A 
ATOM     62  C   UNL A   1      46.153  25.286  29.462  1.00  0.00     0.031 C 
ATOM     63  C   UNL A   1      46.505  27.560  30.385  1.00  0.00     0.037 A 
BRANCH  50  64
ATOM     64  C   UNL A   1      43.768  33.031  31.326  1.00  0.00     0.058 A 
ATOM     65  C   UNL A   1      43.622  33.358  32.685  1.00  0.00     0.135 A 
ATOM     66  C   UNL A   1      44.020  34.077  30.426  1.00  0.00     0.135 A 
ATOM     67  F   UNL A   1      43.356  32.400  33.588  1.00  0.00    -0.206 F 
ATOM     68  C   UNL A   1      43.686  34.674  33.128  1.00  0.00     0.059 A 
ATOM     69  C   UNL A   1      44.121  35.398  30.852  1.00  0.00     0.059 A 
ATOM     70  F   UNL A   1      44.161  33.823  29.115  1.00  0.00    -0.206 F 
ATOM     71  C   UNL A   1      43.936  35.688  32.203  1.00  0.00     0.060 A 
BRANCH  71  72
ATOM     72  S   UNL A   1      44.023  37.390  32.796  1.00  0.00     0.124 S 
ATOM     73  O   UNL A   1      45.347  37.417  33.410  1.00  0.00    -0.237 OA
ATOM     74  O   UNL A   1      43.880  38.157  31.563  1.00  0.00    -0.237 OA
ATOM     75  O   UNL A   1      42.899  37.484  33.724  1.00  0.00    -0.744 OA
ENDBRANCH  71  72
ENDBRANCH  50  64
BRANCH  51  76
ATOM     76  C   UNL A   1      42.631  23.738  27.701  1.00  0.00     0.058 A 
ATOM     77  C   UNL A   1      42.385  22.639  28.539  1.00  0.00     0.135 A 
ATOM     78  C   UNL A   1      42.710  23.499  26.321  1.00  0.00     0.135 A 
ATOM     79  F   UNL A   1      42.301  22.815  29.867  1.00  0.00    -0.206 F 
ATOM     80  C   UNL A   1      42.244  21.351  28.033  1.00  0.00     0.059 A 
ATOM     81  C   UNL A   1      42.547  22.223  25.788  1.00  0.00     0.059 A 
ATOM     82  F   UNL A   1      42.922  24.518  25.473  1.00  0.00    -0.206 F 
ATOM     83  C   UNL A   1      42.325  21.153  26.654  1.00  0.00     0.060 A 
BRANCH  83  84
ATOM     84  S   UNL A   1      42.098  19.484  26.003  1.00  0.00     0.124 S 
ATOM     85  O   UNL A   1      42.607  18.669  27.100  1.00  0.00    -0.237 OA
ATOM     86  O   UNL A   1      40.654  19.434  25.787  1.00  0.00    -0.237 OA
ATOM     87  O   UNL A   1      42.905  19.486  24.787  1.00  0.00    -0.744 OA
ENDBRANCH  83  84
ENDBRANCH  51  76
BRANCH  63  88
ATOM     88  C   UNL A   1      47.901  27.149  30.754  1.00  0.00     0.058 A 
ATOM     89  C   UNL A   1      48.173  26.456  31.942  1.00  0.00     0.135 A 
ATOM     90  C   UNL A   1      48.966  27.394  29.872  1.00  0.00     0.135 A 
ATOM     91  F   UNL A   1      47.187  26.202  32.817  1.00  0.00    -0.206 F 
ATOM     92  C   UNL A   1      49.461  26.036  32.254  1.00  0.00     0.059 A 
ATOM     93  C   UNL A   1      50.256  26.959  30.152  1.00  0.00     0.059 A 
ATOM     94  F   UNL A   1      48.752  28.043  28.717  1.00  0.00    -0.206 F 
ATOM     95  C   UNL A   1      50.495  26.290  31.351  1.00  0.00     0.060 A 
BRANCH  95  96
ATOM     96  S   UNL A   1      52.154  25.703  31.750  1.00  0.00     0.124 S 
ATOM     97  O   UNL A   1      52.859  25.947  30.496  1.00  0.00    -0.237 OA
ATOM     98  O   UNL A   1      52.530  26.565  32.866  1.00  0.00    -0.237 OA
ATOM     99  O   UNL A   1      51.945  24.300  32.092  1.00  0.00    -0.744 OA
ENDBRANCH  95  96
ENDBRANCH  63  88
ENDBRANCH  37  38
ENDBRANCH  29  32
ENDBRANCH  27  28
ENDBRANCH   1  27
TORSDOF 16
ENDMDL
