MODEL 1
REMARK VINA RESULT:     -12.7      0.000      0.000
REMARK SMILES O=C1[NH+]=C(Nc2ccc(C(=O)NCCCCNC(=O)c3ccc(-c4c5nc(c(-c6c(F)cc(S(=O)(=O)[O-])cc6F)c6ccc([nH]6)c(-c6c(F)cc(S(=O)(=O)[O-])cc6F)c6nc(c(-c7c(F)cc(S(=O)(=O)[O-])cc7F)c7ccc4[nH]7)C=C6)C=C5)cc3)c(O)c2)S/C1=C\c1ccc[nH]1
REMARK SMILES IDX 15 1 14 2 13 3 12 4 10 5 11 6 9 8 6 9 7 10 88 11 8 12 86 13
REMARK SMILES IDX 5 14 1 15 2 16 3 17 90 18 4 19 89 21 91 22 92 24 93 25 96 26
REMARK SMILES IDX 94 27 95 28 87 30 16 32 17 33 18 34 19 36 20 37 21 38 85 39
REMARK SMILES IDX 22 40 84 41 23 42 24 43 25 44 78 45 26 46 83 47 77 48 79 49
REMARK SMILES IDX 27 50 82 51 76 52 75 53 28 55 62 56 41 57 61 58 42 59 45 60
REMARK SMILES IDX 60 61 80 62 43 63 44 64 59 66 81 67 46 68 29 69 30 70 39 71
REMARK SMILES IDX 31 72 32 73 38 74 40 75 33 76 34 77 35 78 36 79 37 80 63 81
REMARK SMILES IDX 64 82 73 83 65 84 66 85 72 86 74 87 67 88 68 89 69 90 70 91
REMARK SMILES IDX 71 92 47 93 48 94 57 95 49 96 50 97 56 98 58 99 51 100
REMARK SMILES IDX 52 101 53 102 54 103 55 104
REMARK H PARENT 12 7 3 20 5 23 96 29 87 31 17 35 79 54 45 65
REMARK Flexibility Score: inf
ROOT
ATOM      1  C   UNL A   1      33.012  28.397  25.803  1.00  0.00     0.023 C 
ENDROOT
BRANCH   1   2
ATOM      2  C   UNL A   1      32.601  29.673  25.071  1.00  0.00     0.023 C 
BRANCH   2   3
ATOM      3  C   UNL A   1      31.106  29.959  24.988  1.00  0.00     0.116 C 
BRANCH   3   4
ATOM      4  N   UNL A   1      30.580  30.100  23.639  1.00  0.00    -0.352 N 
ATOM      5  C   UNL A   1      30.423  29.160  22.648  1.00  0.00     0.255 C 
ATOM      6  O   UNL A   1      29.948  29.499  21.567  1.00  0.00    -0.269 OA
ATOM      7  H   UNL A   1      30.291  31.011  23.398  1.00  0.00     0.163 HD
BRANCH   5   8
ATOM      8  C   UNL A   1      30.868  27.754  22.827  1.00  0.00     0.081 A 
ATOM      9  C   UNL A   1      31.412  24.990  23.035  1.00  0.00     0.129 A 
ATOM     10  C   UNL A   1      30.235  25.527  23.564  1.00  0.00     0.053 A 
ATOM     11  C   UNL A   1      32.345  25.865  22.468  1.00  0.00     0.098 A 
ATOM     12  C   UNL A   1      29.966  26.895  23.468  1.00  0.00     0.022 A 
ATOM     13  C   UNL A   1      32.093  27.238  22.406  1.00  0.00     0.132 A 
BRANCH   9  14
ATOM     14  N   UNL A   1      31.649  23.611  22.979  1.00  0.00    -0.234 N 
ATOM     15  O   UNL A   1      32.876  22.061  27.207  1.00  0.00    -0.240 OA
ATOM     16  C   UNL A   1      32.672  22.035  25.999  1.00  0.00     0.346 C 
ATOM     17  N   UNL A   1      32.285  23.113  25.240  1.00  0.00    -0.199 N 
ATOM     18  C   UNL A   1      32.813  20.800  25.177  1.00  0.00     0.111 C 
ATOM     19  C   UNL A   1      32.090  22.820  23.998  1.00  0.00     0.322 C 
ATOM     20  H   UNL A   1      32.170  24.019  25.606  1.00  0.00     0.316 HD
ATOM     21  S   UNL A   1      32.385  21.155  23.550  1.00  0.00     0.006 SA
ATOM     22  C   UNL A   1      33.196  19.631  25.705  1.00  0.00     0.050 C 
ATOM     23  H   UNL A   1      31.480  23.168  22.116  1.00  0.00     0.313 HD
BRANCH  22  24
ATOM     24  C   UNL A   1      33.400  18.470  24.923  1.00  0.00     0.039 A 
ATOM     25  C   UNL A   1      32.548  17.559  24.331  1.00  0.00     0.027 A 
ATOM     26  N   UNL A   1      34.686  18.082  24.635  1.00  0.00    -0.362 N 
ATOM     27  C   UNL A   1      33.343  16.575  23.699  1.00  0.00     0.020 A 
ATOM     28  C   UNL A   1      34.660  16.917  23.910  1.00  0.00     0.083 A 
ATOM     29  H   UNL A   1      35.500  18.566  24.905  1.00  0.00     0.166 HD
ENDBRANCH  22  24
ENDBRANCH   9  14
BRANCH  13  30
ATOM     30  O   UNL A   1      33.125  28.003  21.936  1.00  0.00    -0.507 OA
ATOM     31  H   UNL A   1      33.881  28.149  22.471  1.00  0.00     0.293 HD
ENDBRANCH  13  30
ENDBRANCH   5   8
ENDBRANCH   3   4
ENDBRANCH   2   3
ENDBRANCH   1   2
BRANCH   1  32
ATOM     32  C   UNL A   1      33.495  28.567  27.239  1.00  0.00     0.116 C 
BRANCH  32  33
ATOM     33  N   UNL A   1      33.496  29.949  27.696  1.00  0.00    -0.352 N 
ATOM     34  C   UNL A   1      34.498  30.684  28.289  1.00  0.00     0.251 C 
ATOM     35  H   UNL A   1      32.649  30.433  27.559  1.00  0.00     0.163 HD
ATOM     36  O   UNL A   1      34.259  31.815  28.704  1.00  0.00    -0.269 OA
BRANCH  34  37
ATOM     37  C   UNL A   1      35.844  30.098  28.466  1.00  0.00     0.039 A 
ATOM     38  C   UNL A   1      36.731  30.098  27.386  1.00  0.00     0.014 A 
ATOM     39  C   UNL A   1      36.246  29.580  29.698  1.00  0.00     0.014 A 
ATOM     40  C   UNL A   1      38.049  29.671  27.572  1.00  0.00     0.010 A 
ATOM     41  C   UNL A   1      37.583  29.250  29.906  1.00  0.00     0.010 A 
ATOM     42  C   UNL A   1      38.502  29.295  28.848  1.00  0.00    -0.014 A 
BRANCH  42  43
ATOM     43  C   UNL A   1      39.930  28.958  29.099  1.00  0.00     0.031 A 
ATOM     44  C   UNL A   1      40.869  29.999  29.649  1.00  0.00     0.074 A 
ATOM     45  C   UNL A   1      40.399  27.739  28.761  1.00  0.00     0.049 A 
ATOM     46  N   UNL A   1      42.157  29.917  29.865  1.00  0.00    -0.248 NA
ATOM     47  C   UNL A   1      40.290  31.313  29.972  1.00  0.00     0.031 C 
ATOM     48  C   UNL A   1      39.606  26.661  28.166  1.00  0.00     0.029 A 
ATOM     49  N   UNL A   1      41.660  27.202  28.857  1.00  0.00    -0.354 N 
ATOM     50  C   UNL A   1      42.544  31.169  30.330  1.00  0.00     0.074 A 
ATOM     51  C   UNL A   1      41.366  32.009  30.308  1.00  0.00     0.031 C 
ATOM     52  C   UNL A   1      40.389  25.588  27.975  1.00  0.00     0.029 A 
ATOM     53  C   UNL A   1      41.751  25.912  28.388  1.00  0.00     0.049 A 
ATOM     54  H   UNL A   1      42.428  27.695  29.226  1.00  0.00     0.167 HD
ATOM     55  C   UNL A   1      43.762  31.576  30.760  1.00  0.00     0.037 A 
ATOM     56  C   UNL A   1      42.812  25.085  28.289  1.00  0.00     0.037 A 
ATOM     57  C   UNL A   1      44.925  30.727  30.798  1.00  0.00     0.049 A 
ATOM     58  C   UNL A   1      44.158  25.560  28.768  1.00  0.00     0.074 A 
ATOM     59  C   UNL A   1      46.189  31.025  31.277  1.00  0.00     0.029 A 
ATOM     60  N   UNL A   1      44.971  29.420  30.335  1.00  0.00    -0.354 N 
ATOM     61  N   UNL A   1      44.488  26.724  29.275  1.00  0.00    -0.248 NA
ATOM     62  C   UNL A   1      45.274  24.610  28.668  1.00  0.00     0.031 C 
ATOM     63  C   UNL A   1      47.014  29.920  31.047  1.00  0.00     0.029 A 
ATOM     64  C   UNL A   1      46.249  28.908  30.490  1.00  0.00     0.049 A 
ATOM     65  H   UNL A   1      44.208  28.930  29.953  1.00  0.00     0.167 HD
ATOM     66  C   UNL A   1      45.841  26.635  29.585  1.00  0.00     0.074 A 
ATOM     67  C   UNL A   1      46.264  25.299  29.216  1.00  0.00     0.031 C 
ATOM     68  C   UNL A   1      46.657  27.573  30.126  1.00  0.00     0.037 A 
BRANCH  55  69
ATOM     69  C   UNL A   1      43.902  33.002  31.223  1.00  0.00     0.058 A 
ATOM     70  C   UNL A   1      44.320  34.026  30.357  1.00  0.00     0.135 A 
ATOM     71  C   UNL A   1      43.578  33.358  32.543  1.00  0.00     0.135 A 
ATOM     72  F   UNL A   1      44.657  33.743  29.088  1.00  0.00    -0.206 F 
ATOM     73  C   UNL A   1      44.445  35.341  30.790  1.00  0.00     0.059 A 
ATOM     74  C   UNL A   1      43.663  34.673  32.989  1.00  0.00     0.059 A 
ATOM     75  F   UNL A   1      43.173  32.422  33.416  1.00  0.00    -0.206 F 
ATOM     76  C   UNL A   1      44.112  35.656  32.108  1.00  0.00     0.060 A 
BRANCH  76  77
ATOM     77  S   UNL A   1      44.276  37.370  32.651  1.00  0.00     0.124 S 
ATOM     78  O   UNL A   1      43.391  37.394  33.812  1.00  0.00    -0.237 OA
ATOM     79  O   UNL A   1      45.702  37.469  32.940  1.00  0.00    -0.237 OA
ATOM     80  O   UNL A   1      43.817  38.138  31.498  1.00  0.00    -0.744 OA
ENDBRANCH  76  77
ENDBRANCH  55  69
BRANCH  56  81
ATOM     81  C   UNL A   1      42.639  23.717  27.727  1.00  0.00     0.058 A 
ATOM     82  C   UNL A   1      42.468  22.605  28.566  1.00  0.00     0.135 A 
ATOM     83  C   UNL A   1      42.624  23.495  26.341  1.00  0.00     0.135 A 
ATOM     84  F   UNL A   1      42.482  22.762  29.899  1.00  0.00    -0.206 F 
ATOM     85  C   UNL A   1      42.305  21.321  28.054  1.00  0.00     0.059 A 
ATOM     86  C   UNL A   1      42.433  22.224  25.804  1.00  0.00     0.059 A 
ATOM     87  F   UNL A   1      42.767  24.525  25.492  1.00  0.00    -0.206 F 
ATOM     88  C   UNL A   1      42.284  21.142  26.669  1.00  0.00     0.060 A 
BRANCH  88  89
ATOM     89  S   UNL A   1      42.018  19.480  26.016  1.00  0.00     0.124 S 
ATOM     90  O   UNL A   1      42.868  19.490  24.831  1.00  0.00    -0.237 OA
ATOM     91  O   UNL A   1      42.473  18.642  27.122  1.00  0.00    -0.237 OA
ATOM     92  O   UNL A   1      40.581  19.444  25.762  1.00  0.00    -0.744 OA
ENDBRANCH  88  89
ENDBRANCH  56  81
BRANCH  68  93
ATOM     93  C   UNL A   1      48.085  27.182  30.400  1.00  0.00     0.058 A 
ATOM     94  C   UNL A   1      49.113  27.421  29.473  1.00  0.00     0.135 A 
ATOM     95  C   UNL A   1      48.438  26.613  31.635  1.00  0.00     0.135 A 
ATOM     96  F   UNL A   1      48.832  27.957  28.275  1.00  0.00    -0.206 F 
ATOM     97  C   UNL A   1      50.435  27.090  29.753  1.00  0.00     0.059 A 
ATOM     98  C   UNL A   1      49.758  26.304  31.949  1.00  0.00     0.059 A 
ATOM     99  F   UNL A   1      47.497  26.372  32.562  1.00  0.00    -0.206 F 
ATOM    100  C   UNL A   1      50.748  26.536  30.996  1.00  0.00     0.060 A 
BRANCH 100 101
ATOM    101  S   UNL A   1      52.473  26.147  31.360  1.00  0.00     0.124 S 
ATOM    102  O   UNL A   1      52.838  27.239  32.257  1.00  0.00    -0.237 OA
ATOM    103  O   UNL A   1      52.371  24.828  31.976  1.00  0.00    -0.237 OA
ATOM    104  O   UNL A   1      53.112  26.173  30.048  1.00  0.00    -0.744 OA
ENDBRANCH 100 101
ENDBRANCH  68  93
ENDBRANCH  42  43
ENDBRANCH  34  37
ENDBRANCH  32  33
ENDBRANCH   1  32
TORSDOF 17
ENDMDL
MODEL 2
REMARK VINA RESULT:     -12.5      3.040      9.906
REMARK SMILES O=C1[NH+]=C(Nc2ccc(C(=O)NCCCCNC(=O)c3ccc(-c4c5nc(c(-c6c(F)cc(S(=O)(=O)[O-])cc6F)c6ccc([nH]6)c(-c6c(F)cc(S(=O)(=O)[O-])cc6F)c6nc(c(-c7c(F)cc(S(=O)(=O)[O-])cc7F)c7ccc4[nH]7)C=C6)C=C5)cc3)c(O)c2)S/C1=C\c1ccc[nH]1
REMARK SMILES IDX 15 1 14 2 13 3 12 4 10 5 11 6 9 8 6 9 7 10 88 11 8 12 86 13
REMARK SMILES IDX 5 14 1 15 2 16 3 17 90 18 4 19 89 21 91 22 92 24 93 25 96 26
REMARK SMILES IDX 94 27 95 28 87 30 16 32 17 33 18 34 19 36 20 37 21 38 85 39
REMARK SMILES IDX 22 40 84 41 23 42 24 43 25 44 78 45 26 46 83 47 77 48 79 49
REMARK SMILES IDX 27 50 82 51 76 52 75 53 28 55 62 56 41 57 61 58 42 59 45 60
REMARK SMILES IDX 60 61 80 62 43 63 44 64 59 66 81 67 46 68 29 69 30 70 39 71
REMARK SMILES IDX 31 72 32 73 38 74 40 75 33 76 34 77 35 78 36 79 37 80 63 81
REMARK SMILES IDX 64 82 73 83 65 84 66 85 72 86 74 87 67 88 68 89 69 90 70 91
REMARK SMILES IDX 71 92 47 93 48 94 57 95 49 96 50 97 56 98 58 99 51 100
REMARK SMILES IDX 52 101 53 102 54 103 55 104
REMARK H PARENT 12 7 3 20 5 23 96 29 87 31 17 35 79 54 45 65
REMARK Flexibility Score: inf
ROOT
ATOM      1  C   UNL A   1      35.691  23.158  25.770  1.00  0.00     0.023 C 
ENDROOT
BRANCH   1   2
ATOM      2  C   UNL A   1      35.571  21.691  26.181  1.00  0.00     0.023 C 
BRANCH   2   3
ATOM      3  C   UNL A   1      35.424  20.677  25.052  1.00  0.00     0.116 C 
BRANCH   3   4
ATOM      4  N   UNL A   1      34.252  19.819  25.145  1.00  0.00    -0.352 N 
ATOM      5  C   UNL A   1      32.925  20.111  24.940  1.00  0.00     0.255 C 
ATOM      6  O   UNL A   1      32.087  19.221  25.070  1.00  0.00    -0.269 OA
ATOM      7  H   UNL A   1      34.440  18.885  25.393  1.00  0.00     0.163 HD
BRANCH   5   8
ATOM      8  C   UNL A   1      32.466  21.487  24.622  1.00  0.00     0.081 A 
ATOM      9  C   UNL A   1      31.477  23.976  23.724  1.00  0.00     0.129 A 
ATOM     10  C   UNL A   1      32.327  23.214  22.918  1.00  0.00     0.053 A 
ATOM     11  C   UNL A   1      31.190  23.511  25.013  1.00  0.00     0.098 A 
ATOM     12  C   UNL A   1      32.822  21.984  23.362  1.00  0.00     0.022 A 
ATOM     13  C   UNL A   1      31.716  22.301  25.471  1.00  0.00     0.132 A 
BRANCH   9  14
ATOM     14  N   UNL A   1      30.843  25.136  23.261  1.00  0.00    -0.234 N 
ATOM     15  O   UNL A   1      32.366  28.824  25.683  1.00  0.00    -0.240 OA
ATOM     16  C   UNL A   1      31.684  28.183  24.892  1.00  0.00     0.346 C 
ATOM     17  N   UNL A   1      31.776  26.827  24.688  1.00  0.00    -0.199 N 
ATOM     18  C   UNL A   1      30.647  28.806  24.022  1.00  0.00     0.111 C 
ATOM     19  C   UNL A   1      30.981  26.394  23.767  1.00  0.00     0.322 C 
ATOM     20  H   UNL A   1      32.386  26.244  25.193  1.00  0.00     0.316 HD
ATOM     21  S   UNL A   1      29.954  27.596  23.016  1.00  0.00     0.006 SA
ATOM     22  C   UNL A   1      30.373  30.116  24.063  1.00  0.00     0.050 C 
ATOM     23  H   UNL A   1      30.237  25.032  22.492  1.00  0.00     0.313 HD
BRANCH  22  24
ATOM     24  C   UNL A   1      29.344  30.705  23.293  1.00  0.00     0.039 A 
ATOM     25  C   UNL A   1      28.007  30.963  23.528  1.00  0.00     0.027 A 
ATOM     26  N   UNL A   1      29.635  31.149  22.026  1.00  0.00    -0.362 N 
ATOM     27  C   UNL A   1      27.470  31.545  22.356  1.00  0.00     0.020 A 
ATOM     28  C   UNL A   1      28.494  31.640  21.441  1.00  0.00     0.083 A 
ATOM     29  H   UNL A   1      30.524  31.120  21.604  1.00  0.00     0.166 HD
ENDBRANCH  22  24
ENDBRANCH   9  14
BRANCH  13  30
ATOM     30  O   UNL A   1      31.460  22.009  26.782  1.00  0.00    -0.507 OA
ATOM     31  H   UNL A   1      31.884  22.494  27.462  1.00  0.00     0.293 HD
ENDBRANCH  13  30
ENDBRANCH   5   8
ENDBRANCH   3   4
ENDBRANCH   2   3
ENDBRANCH   1   2
BRANCH   1  32
ATOM     32  C   UNL A   1      36.984  23.560  25.069  1.00  0.00     0.116 C 
BRANCH  32  33
ATOM     33  N   UNL A   1      38.103  22.671  25.351  1.00  0.00    -0.352 N 
ATOM     34  C   UNL A   1      39.260  22.904  26.061  1.00  0.00     0.251 C 
ATOM     35  H   UNL A   1      38.018  21.764  24.977  1.00  0.00     0.163 HD
ATOM     36  O   UNL A   1      40.138  22.046  26.090  1.00  0.00    -0.269 OA
BRANCH  34  37
ATOM     37  C   UNL A   1      39.463  24.197  26.748  1.00  0.00     0.039 A 
ATOM     38  C   UNL A   1      38.926  24.379  28.025  1.00  0.00     0.014 A 
ATOM     39  C   UNL A   1      40.207  25.218  26.154  1.00  0.00     0.014 A 
ATOM     40  C   UNL A   1      39.220  25.543  28.741  1.00  0.00     0.010 A 
ATOM     41  C   UNL A   1      40.581  26.329  26.905  1.00  0.00     0.010 A 
ATOM     42  C   UNL A   1      40.096  26.504  28.210  1.00  0.00    -0.014 A 
BRANCH  42  43
ATOM     43  C   UNL A   1      40.525  27.689  29.002  1.00  0.00     0.031 A 
ATOM     44  C   UNL A   1      41.841  27.675  29.733  1.00  0.00     0.074 A 
ATOM     45  C   UNL A   1      39.698  28.747  29.124  1.00  0.00     0.049 A 
ATOM     46  N   UNL A   1      42.353  28.578  30.530  1.00  0.00    -0.248 NA
ATOM     47  C   UNL A   1      42.680  26.476  29.571  1.00  0.00     0.031 C 
ATOM     48  C   UNL A   1      38.371  28.861  28.513  1.00  0.00     0.029 A 
ATOM     49  N   UNL A   1      39.841  29.926  29.814  1.00  0.00    -0.354 N 
ATOM     50  C   UNL A   1      43.559  28.051  30.976  1.00  0.00     0.074 A 
ATOM     51  C   UNL A   1      43.675  26.725  30.409  1.00  0.00     0.031 C 
ATOM     52  C   UNL A   1      37.836  30.050  28.833  1.00  0.00     0.029 A 
ATOM     53  C   UNL A   1      38.757  30.767  29.710  1.00  0.00     0.049 A 
ATOM     54  H   UNL A   1      40.646  30.149  30.336  1.00  0.00     0.167 HD
ATOM     55  C   UNL A   1      44.497  28.627  31.765  1.00  0.00     0.037 A 
ATOM     56  C   UNL A   1      38.523  31.973  30.265  1.00  0.00     0.037 A 
ATOM     57  C   UNL A   1      44.384  29.956  32.309  1.00  0.00     0.049 A 
ATOM     58  C   UNL A   1      39.577  32.592  31.144  1.00  0.00     0.074 A 
ATOM     59  C   UNL A   1      45.308  30.655  33.066  1.00  0.00     0.029 A 
ATOM     60  N   UNL A   1      43.280  30.783  32.163  1.00  0.00    -0.354 N 
ATOM     61  N   UNL A   1      40.746  32.109  31.493  1.00  0.00    -0.248 NA
ATOM     62  C   UNL A   1      39.286  33.921  31.698  1.00  0.00     0.031 C 
ATOM     63  C   UNL A   1      44.738  31.879  33.428  1.00  0.00     0.029 A 
ATOM     64  C   UNL A   1      43.487  31.974  32.839  1.00  0.00     0.049 A 
ATOM     65  H   UNL A   1      42.469  30.557  31.652  1.00  0.00     0.167 HD
ATOM     66  C   UNL A   1      41.342  33.088  32.281  1.00  0.00     0.074 A 
ATOM     67  C   UNL A   1      40.409  34.194  32.348  1.00  0.00     0.031 C 
ATOM     68  C   UNL A   1      42.553  33.072  32.892  1.00  0.00     0.037 A 
BRANCH  55  69
ATOM     69  C   UNL A   1      45.729  27.824  32.090  1.00  0.00     0.058 A 
ATOM     70  C   UNL A   1      45.800  26.999  33.225  1.00  0.00     0.135 A 
ATOM     71  C   UNL A   1      46.844  27.851  31.235  1.00  0.00     0.135 A 
ATOM     72  F   UNL A   1      44.771  26.945  34.087  1.00  0.00    -0.206 F 
ATOM     73  C   UNL A   1      46.939  26.259  33.519  1.00  0.00     0.059 A 
ATOM     74  C   UNL A   1      47.982  27.091  31.491  1.00  0.00     0.059 A 
ATOM     75  F   UNL A   1      46.834  28.621  30.136  1.00  0.00    -0.206 F 
ATOM     76  C   UNL A   1      48.025  26.310  32.644  1.00  0.00     0.060 A 
BRANCH  76  77
ATOM     77  S   UNL A   1      49.494  25.337  33.038  1.00  0.00     0.124 S 
ATOM     78  O   UNL A   1      50.002  25.023  31.707  1.00  0.00    -0.237 OA
ATOM     79  O   UNL A   1      50.292  26.281  33.814  1.00  0.00    -0.237 OA
ATOM     80  O   UNL A   1      48.962  24.205  33.789  1.00  0.00    -0.744 OA
ENDBRANCH  76  77
ENDBRANCH  55  69
BRANCH  56  81
ATOM     81  C   UNL A   1      37.241  32.681  29.993  1.00  0.00     0.058 A 
ATOM     82  C   UNL A   1      37.161  33.683  29.013  1.00  0.00     0.135 A 
ATOM     83  C   UNL A   1      36.068  32.360  30.694  1.00  0.00     0.135 A 
ATOM     84  F   UNL A   1      38.255  34.032  28.320  1.00  0.00    -0.206 F 
ATOM     85  C   UNL A   1      35.969  34.352  28.749  1.00  0.00     0.059 A 
ATOM     86  C   UNL A   1      34.858  32.995  30.427  1.00  0.00     0.059 A 
ATOM     87  F   UNL A   1      36.085  31.399  31.630  1.00  0.00    -0.206 F 
ATOM     88  C   UNL A   1      34.821  33.996  29.459  1.00  0.00     0.060 A 
BRANCH  88  89
ATOM     89  S   UNL A   1      33.269  34.834  29.070  1.00  0.00     0.124 S 
ATOM     90  O   UNL A   1      33.746  36.109  28.547  1.00  0.00    -0.237 OA
ATOM     91  O   UNL A   1      32.670  33.927  28.095  1.00  0.00    -0.237 OA
ATOM     92  O   UNL A   1      32.588  34.895  30.359  1.00  0.00    -0.744 OA
ENDBRANCH  88  89
ENDBRANCH  56  81
BRANCH  68  93
ATOM     93  C   UNL A   1      42.968  34.304  33.652  1.00  0.00     0.058 A 
ATOM     94  C   UNL A   1      42.651  34.483  35.008  1.00  0.00     0.135 A 
ATOM     95  C   UNL A   1      43.746  35.292  33.027  1.00  0.00     0.135 A 
ATOM     96  F   UNL A   1      41.904  33.574  35.654  1.00  0.00    -0.206 F 
ATOM     97  C   UNL A   1      43.072  35.608  35.710  1.00  0.00     0.059 A 
ATOM     98  C   UNL A   1      44.206  36.409  33.717  1.00  0.00     0.059 A 
ATOM     99  F   UNL A   1      44.088  35.166  31.734  1.00  0.00    -0.206 F 
ATOM    100  C   UNL A   1      43.854  36.563  35.057  1.00  0.00     0.060 A 
BRANCH 100 101
ATOM    101  S   UNL A   1      44.425  37.999  35.990  1.00  0.00     0.124 S 
ATOM    102  O   UNL A   1      43.950  39.100  35.158  1.00  0.00    -0.237 OA
ATOM    103  O   UNL A   1      43.742  37.831  37.268  1.00  0.00    -0.237 OA
ATOM    104  O   UNL A   1      45.874  37.824  36.032  1.00  0.00    -0.744 OA
ENDBRANCH 100 101
ENDBRANCH  68  93
ENDBRANCH  42  43
ENDBRANCH  34  37
ENDBRANCH  32  33
ENDBRANCH   1  32
TORSDOF 17
ENDMDL
MODEL 3
REMARK VINA RESULT:     -12.2      4.872     10.839
REMARK SMILES O=C1[NH+]=C(Nc2ccc(C(=O)NCCCCNC(=O)c3ccc(-c4c5nc(c(-c6c(F)cc(S(=O)(=O)[O-])cc6F)c6ccc([nH]6)c(-c6c(F)cc(S(=O)(=O)[O-])cc6F)c6nc(c(-c7c(F)cc(S(=O)(=O)[O-])cc7F)c7ccc4[nH]7)C=C6)C=C5)cc3)c(O)c2)S/C1=C\c1ccc[nH]1
REMARK SMILES IDX 15 1 14 2 13 3 12 4 10 5 11 6 9 8 6 9 7 10 88 11 8 12 86 13
REMARK SMILES IDX 5 14 1 15 2 16 3 17 90 18 4 19 89 21 91 22 92 24 93 25 96 26
REMARK SMILES IDX 94 27 95 28 87 30 16 32 17 33 18 34 19 36 20 37 21 38 85 39
REMARK SMILES IDX 22 40 84 41 23 42 24 43 25 44 78 45 26 46 83 47 77 48 79 49
REMARK SMILES IDX 27 50 82 51 76 52 75 53 28 55 62 56 41 57 61 58 42 59 45 60
REMARK SMILES IDX 60 61 80 62 43 63 44 64 59 66 81 67 46 68 29 69 30 70 39 71
REMARK SMILES IDX 31 72 32 73 38 74 40 75 33 76 34 77 35 78 36 79 37 80 63 81
REMARK SMILES IDX 64 82 73 83 65 84 66 85 72 86 74 87 67 88 68 89 69 90 70 91
REMARK SMILES IDX 71 92 47 93 48 94 57 95 49 96 50 97 56 98 58 99 51 100
REMARK SMILES IDX 52 101 53 102 54 103 55 104
REMARK H PARENT 12 7 3 20 5 23 96 29 87 31 17 35 79 54 45 65
REMARK Flexibility Score: inf
ROOT
ATOM      1  C   UNL A   1      39.283  21.866  26.433  1.00  0.00     0.023 C 
ENDROOT
BRANCH   1   2
ATOM      2  C   UNL A   1      38.201  21.787  25.357  1.00  0.00     0.023 C 
BRANCH   2   3
ATOM      3  C   UNL A   1      36.798  22.218  25.770  1.00  0.00     0.116 C 
BRANCH   3   4
ATOM      4  N   UNL A   1      35.727  21.348  25.308  1.00  0.00    -0.352 N 
ATOM      5  C   UNL A   1      34.543  21.660  24.682  1.00  0.00     0.255 C 
ATOM      6  O   UNL A   1      33.771  20.755  24.370  1.00  0.00    -0.269 OA
ATOM      7  H   UNL A   1      35.873  20.388  25.469  1.00  0.00     0.163 HD
BRANCH   5   8
ATOM      8  C   UNL A   1      34.141  23.065  24.423  1.00  0.00     0.081 A 
ATOM      9  C   UNL A   1      33.162  25.614  23.698  1.00  0.00     0.129 A 
ATOM     10  C   UNL A   1      33.634  24.728  22.725  1.00  0.00     0.053 A 
ATOM     11  C   UNL A   1      33.256  25.236  25.042  1.00  0.00     0.098 A 
ATOM     12  C   UNL A   1      34.125  23.469  23.082  1.00  0.00     0.022 A 
ATOM     13  C   UNL A   1      33.781  23.992  25.401  1.00  0.00     0.132 A 
BRANCH   9  14
ATOM     14  N   UNL A   1      32.527  26.819  23.371  1.00  0.00    -0.234 N 
ATOM     15  O   UNL A   1      27.930  26.402  24.063  1.00  0.00    -0.240 OA
ATOM     16  C   UNL A   1      28.987  26.908  23.704  1.00  0.00     0.346 C 
ATOM     17  N   UNL A   1      30.218  26.303  23.780  1.00  0.00    -0.199 N 
ATOM     18  C   UNL A   1      29.079  28.281  23.131  1.00  0.00     0.111 C 
ATOM     19  C   UNL A   1      31.186  27.059  23.381  1.00  0.00     0.322 C 
ATOM     20  H   UNL A   1      30.350  25.383  24.105  1.00  0.00     0.316 HD
ATOM     21  S   UNL A   1      30.727  28.648  22.810  1.00  0.00     0.006 SA
ATOM     22  C   UNL A   1      27.999  29.051  22.949  1.00  0.00     0.050 C 
ATOM     23  H   UNL A   1      33.109  27.568  23.108  1.00  0.00     0.313 HD
BRANCH  22  24
ATOM     24  C   UNL A   1      28.066  30.328  22.342  1.00  0.00     0.039 A 
ATOM     25  C   UNL A   1      28.249  31.606  22.832  1.00  0.00     0.027 A 
ATOM     26  N   UNL A   1      27.932  30.422  20.978  1.00  0.00    -0.362 N 
ATOM     27  C   UNL A   1      28.188  32.498  21.736  1.00  0.00     0.020 A 
ATOM     28  C   UNL A   1      27.981  31.741  20.605  1.00  0.00     0.083 A 
ATOM     29  H   UNL A   1      27.820  29.660  20.365  1.00  0.00     0.166 HD
ENDBRANCH  22  24
ENDBRANCH   9  14
BRANCH  13  30
ATOM     30  O   UNL A   1      33.929  23.783  26.745  1.00  0.00    -0.507 OA
ATOM     31  H   UNL A   1      34.591  24.244  27.221  1.00  0.00     0.293 HD
ENDBRANCH  13  30
ENDBRANCH   5   8
ENDBRANCH   3   4
ENDBRANCH   2   3
ENDBRANCH   1   2
BRANCH   1  32
ATOM     32  C   UNL A   1      39.805  23.259  26.766  1.00  0.00     0.116 C 
BRANCH  32  33
ATOM     33  N   UNL A   1      41.072  23.579  26.124  1.00  0.00    -0.352 N 
ATOM     34  C   UNL A   1      41.870  24.693  26.249  1.00  0.00     0.251 C 
ATOM     35  H   UNL A   1      41.410  22.890  25.506  1.00  0.00     0.163 HD
ATOM     36  O   UNL A   1      42.857  24.819  25.529  1.00  0.00    -0.269 OA
BRANCH  34  37
ATOM     37  C   UNL A   1      41.517  25.756  27.215  1.00  0.00     0.039 A 
ATOM     38  C   UNL A   1      40.544  25.497  28.183  1.00  0.00     0.014 A 
ATOM     39  C   UNL A   1      42.164  26.993  27.191  1.00  0.00     0.014 A 
ATOM     40  C   UNL A   1      40.293  26.441  29.183  1.00  0.00     0.010 A 
ATOM     41  C   UNL A   1      41.986  27.887  28.243  1.00  0.00     0.010 A 
ATOM     42  C   UNL A   1      41.052  27.621  29.255  1.00  0.00    -0.014 A 
BRANCH  42  43
ATOM     43  C   UNL A   1      40.894  28.582  30.381  1.00  0.00     0.031 A 
ATOM     44  C   UNL A   1      41.743  28.447  31.617  1.00  0.00     0.074 A 
ATOM     45  C   UNL A   1      39.934  29.528  30.323  1.00  0.00     0.049 A 
ATOM     46  N   UNL A   1      41.701  29.138  32.727  1.00  0.00    -0.248 NA
ATOM     47  C   UNL A   1      42.752  27.375  31.617  1.00  0.00     0.031 C 
ATOM     48  C   UNL A   1      39.007  29.728  29.206  1.00  0.00     0.029 A 
ATOM     49  N   UNL A   1      39.568  30.495  31.227  1.00  0.00    -0.354 N 
ATOM     50  C   UNL A   1      42.661  28.577  33.561  1.00  0.00     0.074 A 
ATOM     51  C   UNL A   1      43.228  27.450  32.852  1.00  0.00     0.031 C 
ATOM     52  C   UNL A   1      38.200  30.765  29.480  1.00  0.00     0.029 A 
ATOM     53  C   UNL A   1      38.516  31.277  30.810  1.00  0.00     0.049 A 
ATOM     54  H   UNL A   1      40.018  30.617  32.095  1.00  0.00     0.167 HD
ATOM     55  C   UNL A   1      43.054  28.977  34.794  1.00  0.00     0.037 A 
ATOM     56  C   UNL A   1      37.870  32.285  31.430  1.00  0.00     0.037 A 
ATOM     57  C   UNL A   1      42.499  30.112  35.485  1.00  0.00     0.049 A 
ATOM     58  C   UNL A   1      38.319  32.709  32.802  1.00  0.00     0.074 A 
ATOM     59  C   UNL A   1      42.873  30.638  36.709  1.00  0.00     0.029 A 
ATOM     60  N   UNL A   1      41.450  30.891  35.019  1.00  0.00    -0.354 N 
ATOM     61  N   UNL A   1      39.281  32.213  33.544  1.00  0.00    -0.248 NA
ATOM     62  C   UNL A   1      37.603  33.833  33.420  1.00  0.00     0.031 C 
ATOM     63  C   UNL A   1      42.011  31.696  37.010  1.00  0.00     0.029 A 
ATOM     64  C   UNL A   1      41.145  31.876  35.944  1.00  0.00     0.049 A 
ATOM     65  H   UNL A   1      40.991  30.763  34.157  1.00  0.00     0.167 HD
ATOM     66  C   UNL A   1      39.306  32.984  34.702  1.00  0.00     0.074 A 
ATOM     67  C   UNL A   1      38.269  33.986  34.556  1.00  0.00     0.031 C 
ATOM     68  C   UNL A   1      40.115  32.874  35.785  1.00  0.00     0.037 A 
BRANCH  55  69
ATOM     69  C   UNL A   1      44.135  28.181  35.478  1.00  0.00     0.058 A 
ATOM     70  C   UNL A   1      45.497  28.475  35.302  1.00  0.00     0.135 A 
ATOM     71  C   UNL A   1      43.803  27.132  36.351  1.00  0.00     0.135 A 
ATOM     72  F   UNL A   1      45.875  29.457  34.468  1.00  0.00    -0.206 F 
ATOM     73  C   UNL A   1      46.490  27.738  35.938  1.00  0.00     0.059 A 
ATOM     74  C   UNL A   1      44.778  26.403  37.025  1.00  0.00     0.059 A 
ATOM     75  F   UNL A   1      42.518  26.805  36.558  1.00  0.00    -0.206 F 
ATOM     76  C   UNL A   1      46.121  26.704  36.800  1.00  0.00     0.060 A 
BRANCH  76  77
ATOM     77  S   UNL A   1      47.423  25.762  37.620  1.00  0.00     0.124 S 
ATOM     78  O   UNL A   1      47.045  24.392  37.288  1.00  0.00    -0.237 OA
ATOM     79  O   UNL A   1      48.627  26.263  36.966  1.00  0.00    -0.237 OA
ATOM     80  O   UNL A   1      47.276  26.129  39.025  1.00  0.00    -0.744 OA
ENDBRANCH  76  77
ENDBRANCH  55  69
BRANCH  56  81
ATOM     81  C   UNL A   1      36.738  32.973  30.749  1.00  0.00     0.058 A 
ATOM     82  C   UNL A   1      35.407  32.710  31.107  1.00  0.00     0.135 A 
ATOM     83  C   UNL A   1      36.964  33.920  29.737  1.00  0.00     0.135 A 
ATOM     84  F   UNL A   1      35.137  31.808  32.064  1.00  0.00    -0.206 F 
ATOM     85  C   UNL A   1      34.341  33.346  30.478  1.00  0.00     0.059 A 
ATOM     86  C   UNL A   1      35.916  34.591  29.113  1.00  0.00     0.059 A 
ATOM     87  F   UNL A   1      38.218  34.221  29.365  1.00  0.00    -0.206 F 
ATOM     88  C   UNL A   1      34.607  34.290  29.485  1.00  0.00     0.060 A 
BRANCH  88  89
ATOM     89  S   UNL A   1      33.218  35.149  28.713  1.00  0.00     0.124 S 
ATOM     90  O   UNL A   1      32.477  35.616  29.879  1.00  0.00    -0.237 OA
ATOM     91  O   UNL A   1      33.894  36.178  27.930  1.00  0.00    -0.237 OA
ATOM     92  O   UNL A   1      32.569  34.102  27.931  1.00  0.00    -0.744 OA
ENDBRANCH  88  89
ENDBRANCH  56  81
BRANCH  68  93
ATOM     93  C   UNL A   1      39.949  33.886  36.886  1.00  0.00     0.058 A 
ATOM     94  C   UNL A   1      40.576  35.142  36.843  1.00  0.00     0.135 A 
ATOM     95  C   UNL A   1      39.101  33.616  37.973  1.00  0.00     0.135 A 
ATOM     96  F   UNL A   1      41.402  35.451  35.831  1.00  0.00    -0.206 F 
ATOM     97  C   UNL A   1      40.385  36.084  37.849  1.00  0.00     0.059 A 
ATOM     98  C   UNL A   1      38.870  34.555  38.973  1.00  0.00     0.059 A 
ATOM     99  F   UNL A   1      38.468  32.435  38.060  1.00  0.00    -0.206 F 
ATOM    100  C   UNL A   1      39.525  35.783  38.908  1.00  0.00     0.060 A 
BRANCH 100 101
ATOM    101  S   UNL A   1      39.257  37.030  40.185  1.00  0.00     0.124 S 
ATOM    102  O   UNL A   1      38.484  36.280  41.171  1.00  0.00    -0.237 OA
ATOM    103  O   UNL A   1      40.620  37.372  40.577  1.00  0.00    -0.237 OA
ATOM    104  O   UNL A   1      38.527  38.083  39.486  1.00  0.00    -0.744 OA
ENDBRANCH 100 101
ENDBRANCH  68  93
ENDBRANCH  42  43
ENDBRANCH  34  37
ENDBRANCH  32  33
ENDBRANCH   1  32
TORSDOF 17
ENDMDL
