MODEL 1
REMARK VINA RESULT:     -12.0      0.000      0.000
REMARK SMILES [NH3+]C[C@H]1CC[C@@H](C(=O)N[C@@H]2C=C[C@@H](C(=O)NCCCCNC(=O)c3ccc(-c4c5nc(c(-c6c(F)cc(S(=O)(=O)[O-])cc6F)c6ccc([nH]6)c(-c6c(F)cc(S(=O)(=O)[O-])cc6F)c6nc(c(-c7c(F)cc(S(=O)(=O)[O-])cc7F)c7ccc4[nH]7)C=C6)C=C5)cc3)C2)CC1
REMARK SMILES IDX 18 1 17 2 16 3 14 4 15 5 13 7 10 8 11 9 90 10 12 11 9 12
REMARK SMILES IDX 7 13 8 14 6 16 3 17 4 18 92 19 5 20 91 21 2 22 1 23 19 27
REMARK SMILES IDX 20 28 21 29 22 30 23 32 24 33 25 34 89 35 26 36 88 37 27 38
REMARK SMILES IDX 28 39 29 40 82 41 30 42 87 43 81 44 83 45 31 46 86 47 80 48
REMARK SMILES IDX 79 49 32 51 66 52 45 53 65 54 46 55 49 56 64 57 84 58 47 59
REMARK SMILES IDX 48 60 63 62 85 63 50 64 33 65 34 66 43 67 35 68 36 69 42 70
REMARK SMILES IDX 44 71 37 72 38 73 39 74 40 75 41 76 67 77 68 78 77 79 69 80
REMARK SMILES IDX 70 81 76 82 78 83 71 84 72 85 73 86 74 87 75 88 51 89 52 90
REMARK SMILES IDX 61 91 53 92 54 93 60 94 62 95 55 96 56 97 57 98 58 99 59 100
REMARK H PARENT 16 6 9 15 1 24 1 25 1 26 21 31 83 50 49 61
REMARK Flexibility Score: inf
ROOT
ATOM      1  C   UNL A   1      35.544  21.799  25.854  1.00  0.00     0.023 C 
ENDROOT
BRANCH   1   2
ATOM      2  C   UNL A   1      35.242  20.503  25.127  1.00  0.00     0.116 C 
BRANCH   2   3
ATOM      3  N   UNL A   1      34.051  19.754  25.462  1.00  0.00    -0.356 N 
ATOM      4  C   UNL A   1      32.823  19.751  24.850  1.00  0.00     0.227 C 
ATOM      5  O   UNL A   1      32.228  18.662  24.884  1.00  0.00    -0.274 OA
ATOM      6  H   UNL A   1      34.134  19.160  26.242  1.00  0.00     0.163 HD
BRANCH   4   7
ATOM      7  C   UNL A   1      32.035  21.007  24.249  1.00  0.00     0.103 C 
ATOM      8  C   UNL A   1      31.580  24.197  24.620  1.00  0.00     0.106 C 
ATOM      9  C   UNL A   1      32.264  23.602  22.850  1.00  0.00    -0.006 C 
ATOM     10  C   UNL A   1      31.403  22.279  25.628  1.00  0.00     0.047 C 
ATOM     11  C   UNL A   1      32.494  22.092  22.753  1.00  0.00    -0.016 C 
BRANCH   8  12
ATOM     12  N   UNL A   1      30.612  25.275  24.512  1.00  0.00    -0.350 N 
ATOM     13  C   UNL A   1      31.159  26.529  24.583  1.00  0.00     0.223 C 
ATOM     14  O   UNL A   1      30.673  27.550  24.135  1.00  0.00    -0.275 OA
ATOM     15  H   UNL A   1      29.647  25.117  24.397  1.00  0.00     0.164 HD
BRANCH  13  16
ATOM     16  C   UNL A   1      32.430  26.398  25.351  1.00  0.00     0.078 C 
ATOM     17  C   UNL A   1      32.609  29.949  26.106  1.00  0.00     0.044 C 
ATOM     18  C   UNL A   1      31.869  28.604  27.295  1.00  0.00     0.010 C 
ATOM     19  C   UNL A   1      33.446  28.971  24.292  1.00  0.00     0.010 C 
ATOM     20  C   UNL A   1      32.113  26.956  26.879  1.00  0.00     0.014 C 
ATOM     21  C   UNL A   1      33.450  27.114  24.258  1.00  0.00     0.014 C 
BRANCH  17  22
ATOM     22  C   UNL A   1      31.439  31.222  26.369  1.00  0.00     0.262 C 
BRANCH  22  23
ATOM     23  N   UNL A   1      30.683  31.634  25.183  1.00  0.00    -0.357 N 
ATOM     24  H   UNL A   1      31.327  31.804  24.410  1.00  0.00     0.344 HD
ATOM     25  H   UNL A   1      30.166  32.488  25.390  1.00  0.00     0.344 HD
ATOM     26  H   UNL A   1      30.029  30.894  24.924  1.00  0.00     0.344 HD
ENDBRANCH  22  23
ENDBRANCH  17  22
ENDBRANCH  13  16
ENDBRANCH   8  12
ENDBRANCH   4   7
ENDBRANCH   2   3
ENDBRANCH   1   2
BRANCH   1  27
ATOM     27  C   UNL A   1      35.704  23.026  24.995  1.00  0.00     0.023 C 
BRANCH  27  28
ATOM     28  C   UNL A   1      37.059  23.704  25.072  1.00  0.00     0.116 C 
BRANCH  28  29
ATOM     29  N   UNL A   1      38.196  22.819  25.314  1.00  0.00    -0.352 N 
ATOM     30  C   UNL A   1      39.290  23.066  26.123  1.00  0.00     0.251 C 
ATOM     31  H   UNL A   1      38.181  21.951  24.851  1.00  0.00     0.163 HD
ATOM     32  O   UNL A   1      40.206  22.257  26.216  1.00  0.00    -0.269 OA
BRANCH  30  33
ATOM     33  C   UNL A   1      39.355  24.367  26.821  1.00  0.00     0.039 A 
ATOM     34  C   UNL A   1      38.827  24.476  28.107  1.00  0.00     0.014 A 
ATOM     35  C   UNL A   1      40.111  25.404  26.271  1.00  0.00     0.014 A 
ATOM     36  C   UNL A   1      39.137  25.598  28.875  1.00  0.00     0.010 A 
ATOM     37  C   UNL A   1      40.551  26.428  27.095  1.00  0.00     0.010 A 
ATOM     38  C   UNL A   1      40.044  26.559  28.396  1.00  0.00    -0.014 A 
BRANCH  38  39
ATOM     39  C   UNL A   1      40.427  27.739  29.216  1.00  0.00     0.031 A 
ATOM     40  C   UNL A   1      41.768  27.757  29.906  1.00  0.00     0.074 A 
ATOM     41  C   UNL A   1      39.573  28.773  29.365  1.00  0.00     0.049 A 
ATOM     42  N   UNL A   1      42.299  28.687  30.657  1.00  0.00    -0.248 NA
ATOM     43  C   UNL A   1      42.611  26.555  29.771  1.00  0.00     0.031 C 
ATOM     44  C   UNL A   1      38.216  28.842  28.815  1.00  0.00     0.029 A 
ATOM     45  N   UNL A   1      39.722  29.970  30.019  1.00  0.00    -0.354 N 
ATOM     46  C   UNL A   1      43.520  28.176  31.083  1.00  0.00     0.074 A 
ATOM     47  C   UNL A   1      43.610  26.822  30.594  1.00  0.00     0.031 C 
ATOM     48  C   UNL A   1      37.682  30.040  29.107  1.00  0.00     0.029 A 
ATOM     49  C   UNL A   1      38.637  30.809  29.898  1.00  0.00     0.049 A 
ATOM     50  H   UNL A   1      40.532  30.208  30.528  1.00  0.00     0.167 HD
ATOM     51  C   UNL A   1      44.504  28.792  31.779  1.00  0.00     0.037 A 
ATOM     52  C   UNL A   1      38.441  32.058  30.365  1.00  0.00     0.037 A 
ATOM     53  C   UNL A   1      44.421  30.153  32.236  1.00  0.00     0.049 A 
ATOM     54  C   UNL A   1      39.552  32.730  31.129  1.00  0.00     0.074 A 
ATOM     55  C   UNL A   1      45.379  30.895  32.900  1.00  0.00     0.029 A 
ATOM     56  N   UNL A   1      43.313  30.972  32.078  1.00  0.00    -0.354 N 
ATOM     57  N   UNL A   1      40.734  32.259  31.454  1.00  0.00    -0.248 NA
ATOM     58  C   UNL A   1      39.311  34.108  31.576  1.00  0.00     0.031 C 
ATOM     59  C   UNL A   1      44.827  32.144  33.200  1.00  0.00     0.029 A 
ATOM     60  C   UNL A   1      43.555  32.206  32.656  1.00  0.00     0.049 A 
ATOM     61  H   UNL A   1      42.479  30.715  31.623  1.00  0.00     0.167 HD
ATOM     62  C   UNL A   1      41.389  33.295  32.112  1.00  0.00     0.074 A 
ATOM     63  C   UNL A   1      40.478  34.420  32.121  1.00  0.00     0.031 C 
ATOM     64  C   UNL A   1      42.634  33.317  32.654  1.00  0.00     0.037 A 
BRANCH  51  65
ATOM     65  C   UNL A   1      45.747  27.997  32.078  1.00  0.00     0.058 A 
ATOM     66  C   UNL A   1      46.842  27.969  31.196  1.00  0.00     0.135 A 
ATOM     67  C   UNL A   1      45.851  27.261  33.269  1.00  0.00     0.135 A 
ATOM     68  F   UNL A   1      46.791  28.632  30.030  1.00  0.00    -0.206 F 
ATOM     69  C   UNL A   1      47.977  27.212  31.468  1.00  0.00     0.059 A 
ATOM     70  C   UNL A   1      46.993  26.529  33.579  1.00  0.00     0.059 A 
ATOM     71  F   UNL A   1      44.835  27.246  34.145  1.00  0.00    -0.206 F 
ATOM     72  C   UNL A   1      48.044  26.498  32.665  1.00  0.00     0.060 A 
BRANCH  72  73
ATOM     73  S   UNL A   1      49.529  25.531  33.006  1.00  0.00     0.124 S 
ATOM     74  O   UNL A   1      49.954  25.163  31.659  1.00  0.00    -0.237 OA
ATOM     75  O   UNL A   1      50.376  26.498  33.695  1.00  0.00    -0.237 OA
ATOM     76  O   UNL A   1      49.038  24.432  33.831  1.00  0.00    -0.744 OA
ENDBRANCH  72  73
ENDBRANCH  51  65
BRANCH  52  77
ATOM     77  C   UNL A   1      37.160  32.767  30.092  1.00  0.00     0.058 A 
ATOM     78  C   UNL A   1      37.029  33.645  29.003  1.00  0.00     0.135 A 
ATOM     79  C   UNL A   1      36.035  32.579  30.910  1.00  0.00     0.135 A 
ATOM     80  F   UNL A   1      38.075  33.867  28.192  1.00  0.00    -0.206 F 
ATOM     81  C   UNL A   1      35.841  34.324  28.749  1.00  0.00     0.059 A 
ATOM     82  C   UNL A   1      34.827  33.222  30.659  1.00  0.00     0.059 A 
ATOM     83  F   UNL A   1      36.099  31.739  31.955  1.00  0.00    -0.206 F 
ATOM     84  C   UNL A   1      34.742  34.101  29.580  1.00  0.00     0.060 A 
BRANCH  84  85
ATOM     85  S   UNL A   1      33.191  34.947  29.211  1.00  0.00     0.124 S 
ATOM     86  O   UNL A   1      33.665  36.239  28.731  1.00  0.00    -0.237 OA
ATOM     87  O   UNL A   1      32.597  34.070  28.207  1.00  0.00    -0.237 OA
ATOM     88  O   UNL A   1      32.504  34.965  30.500  1.00  0.00    -0.744 OA
ENDBRANCH  84  85
ENDBRANCH  52  77
BRANCH  64  89
ATOM     89  C   UNL A   1      43.102  34.614  33.257  1.00  0.00     0.058 A 
ATOM     90  C   UNL A   1      43.725  35.612  32.491  1.00  0.00     0.135 A 
ATOM     91  C   UNL A   1      42.897  34.871  34.623  1.00  0.00     0.135 A 
ATOM     92  F   UNL A   1      43.945  35.422  31.181  1.00  0.00    -0.206 F 
ATOM     93  C   UNL A   1      44.174  36.795  33.069  1.00  0.00     0.059 A 
ATOM     94  C   UNL A   1      43.301  36.063  35.213  1.00  0.00     0.059 A 
ATOM     95  F   UNL A   1      42.288  33.960  35.400  1.00  0.00    -0.206 F 
ATOM     96  C   UNL A   1      43.960  37.010  34.432  1.00  0.00     0.060 A 
BRANCH  96  97
ATOM     97  S   UNL A   1      44.553  38.545  35.169  1.00  0.00     0.124 S 
ATOM     98  O   UNL A   1      45.982  38.477  34.879  1.00  0.00    -0.237 OA
ATOM     99  O   UNL A   1      43.802  39.556  34.430  1.00  0.00    -0.237 OA
ATOM    100  O   UNL A   1      44.192  38.409  36.577  1.00  0.00    -0.744 OA
ENDBRANCH  96  97
ENDBRANCH  64  89
ENDBRANCH  38  39
ENDBRANCH  30  33
ENDBRANCH  28  29
ENDBRANCH  27  28
ENDBRANCH   1  27
TORSDOF 18
ENDMDL
MODEL 2
REMARK VINA RESULT:     -11.8      3.216      8.759
REMARK SMILES [NH3+]C[C@H]1CC[C@@H](C(=O)N[C@@H]2C=C[C@@H](C(=O)NCCCCNC(=O)c3ccc(-c4c5nc(c(-c6c(F)cc(S(=O)(=O)[O-])cc6F)c6ccc([nH]6)c(-c6c(F)cc(S(=O)(=O)[O-])cc6F)c6nc(c(-c7c(F)cc(S(=O)(=O)[O-])cc7F)c7ccc4[nH]7)C=C6)C=C5)cc3)C2)CC1
REMARK SMILES IDX 18 1 17 2 16 3 14 4 15 5 13 7 10 8 11 9 90 10 12 11 9 12
REMARK SMILES IDX 7 13 8 14 6 16 3 17 4 18 92 19 5 20 91 21 2 22 1 23 19 27
REMARK SMILES IDX 20 28 21 29 22 30 23 32 24 33 25 34 89 35 26 36 88 37 27 38
REMARK SMILES IDX 28 39 29 40 82 41 30 42 87 43 81 44 83 45 31 46 86 47 80 48
REMARK SMILES IDX 79 49 32 51 66 52 45 53 65 54 46 55 49 56 64 57 84 58 47 59
REMARK SMILES IDX 48 60 63 62 85 63 50 64 33 65 34 66 43 67 35 68 36 69 42 70
REMARK SMILES IDX 44 71 37 72 38 73 39 74 40 75 41 76 67 77 68 78 77 79 69 80
REMARK SMILES IDX 70 81 76 82 78 83 71 84 72 85 73 86 74 87 75 88 51 89 52 90
REMARK SMILES IDX 61 91 53 92 54 93 60 94 62 95 55 96 56 97 57 98 58 99 59 100
REMARK H PARENT 16 6 9 15 1 24 1 25 1 26 21 31 83 50 49 61
REMARK Flexibility Score: inf
ROOT
ATOM      1  C   UNL A   1      32.065  28.300  25.329  1.00  0.00     0.023 C 
ENDROOT
BRANCH   1   2
ATOM      2  C   UNL A   1      31.428  29.581  24.828  1.00  0.00     0.116 C 
BRANCH   2   3
ATOM      3  N   UNL A   1      31.193  29.759  23.412  1.00  0.00    -0.356 N 
ATOM      4  C   UNL A   1      30.469  28.981  22.545  1.00  0.00     0.227 C 
ATOM      5  O   UNL A   1      29.904  29.607  21.634  1.00  0.00    -0.274 OA
ATOM      6  H   UNL A   1      31.612  30.555  23.013  1.00  0.00     0.163 HD
BRANCH   4   7
ATOM      7  C   UNL A   1      30.402  27.384  22.498  1.00  0.00     0.103 C 
ATOM      8  C   UNL A   1      32.095  24.701  23.179  1.00  0.00     0.106 C 
ATOM      9  C   UNL A   1      30.333  24.887  24.082  1.00  0.00    -0.006 C 
ATOM     10  C   UNL A   1      32.122  26.534  22.010  1.00  0.00     0.047 C 
ATOM     11  C   UNL A   1      29.602  26.191  23.749  1.00  0.00    -0.016 C 
BRANCH   8  12
ATOM     12  N   UNL A   1      32.368  23.337  22.762  1.00  0.00    -0.350 N 
ATOM     13  C   UNL A   1      33.205  22.651  23.603  1.00  0.00     0.223 C 
ATOM     14  O   UNL A   1      33.271  21.442  23.719  1.00  0.00    -0.275 OA
ATOM     15  H   UNL A   1      31.985  22.940  21.946  1.00  0.00     0.164 HD
BRANCH  13  16
ATOM     16  C   UNL A   1      34.037  23.670  24.303  1.00  0.00     0.078 C 
ATOM     17  C   UNL A   1      36.473  21.228  25.449  1.00  0.00     0.044 C 
ATOM     18  C   UNL A   1      36.667  22.313  23.851  1.00  0.00     0.010 C 
ATOM     19  C   UNL A   1      34.617  21.805  26.530  1.00  0.00     0.010 C 
ATOM     20  C   UNL A   1      35.545  23.592  23.619  1.00  0.00     0.014 C 
ATOM     21  C   UNL A   1      33.668  23.256  25.864  1.00  0.00     0.014 C 
BRANCH  17  22
ATOM     22  C   UNL A   1      37.098  19.716  24.833  1.00  0.00     0.262 C 
BRANCH  22  23
ATOM     23  N   UNL A   1      36.212  18.559  24.990  1.00  0.00    -0.357 N 
ATOM     24  H   UNL A   1      36.149  18.056  24.105  1.00  0.00     0.344 HD
ATOM     25  H   UNL A   1      35.284  18.878  25.267  1.00  0.00     0.344 HD
ATOM     26  H   UNL A   1      36.588  17.939  25.708  1.00  0.00     0.344 HD
ENDBRANCH  22  23
ENDBRANCH  17  22
ENDBRANCH  13  16
ENDBRANCH   8  12
ENDBRANCH   4   7
ENDBRANCH   2   3
ENDBRANCH   1   2
BRANCH   1  27
ATOM     27  C   UNL A   1      33.555  28.333  25.547  1.00  0.00     0.023 C 
BRANCH  27  28
ATOM     28  C   UNL A   1      34.001  28.397  26.995  1.00  0.00     0.116 C 
BRANCH  28  29
ATOM     29  N   UNL A   1      33.837  29.693  27.650  1.00  0.00    -0.352 N 
ATOM     30  C   UNL A   1      34.807  30.426  28.310  1.00  0.00     0.251 C 
ATOM     31  H   UNL A   1      32.936  30.089  27.617  1.00  0.00     0.163 HD
ATOM     32  O   UNL A   1      34.537  31.488  28.857  1.00  0.00    -0.269 OA
BRANCH  30  33
ATOM     33  C   UNL A   1      36.167  29.855  28.393  1.00  0.00     0.039 A 
ATOM     34  C   UNL A   1      37.040  30.017  27.319  1.00  0.00     0.014 A 
ATOM     35  C   UNL A   1      36.621  29.339  29.609  1.00  0.00     0.014 A 
ATOM     36  C   UNL A   1      38.397  29.743  27.498  1.00  0.00     0.010 A 
ATOM     37  C   UNL A   1      37.986  29.232  29.828  1.00  0.00     0.010 A 
ATOM     38  C   UNL A   1      38.890  29.398  28.769  1.00  0.00    -0.014 A 
BRANCH  38  39
ATOM     39  C   UNL A   1      40.338  29.148  28.994  1.00  0.00     0.031 A 
ATOM     40  C   UNL A   1      40.922  27.804  28.634  1.00  0.00     0.074 A 
ATOM     41  C   UNL A   1      41.118  30.103  29.541  1.00  0.00     0.049 A 
ATOM     42  N   UNL A   1      42.157  27.385  28.740  1.00  0.00    -0.248 NA
ATOM     43  C   UNL A   1      39.992  26.780  28.124  1.00  0.00     0.031 C 
ATOM     44  C   UNL A   1      40.659  31.415  30.005  1.00  0.00     0.029 A 
ATOM     45  N   UNL A   1      42.468  30.121  29.793  1.00  0.00    -0.354 N 
ATOM     46  C   UNL A   1      42.141  26.059  28.323  1.00  0.00     0.074 A 
ATOM     47  C   UNL A   1      40.766  25.712  28.057  1.00  0.00     0.031 C 
ATOM     48  C   UNL A   1      41.716  32.127  30.432  1.00  0.00     0.029 A 
ATOM     49  C   UNL A   1      42.920  31.313  30.311  1.00  0.00     0.049 A 
ATOM     50  H   UNL A   1      43.058  29.352  29.618  1.00  0.00     0.167 HD
ATOM     51  C   UNL A   1      43.181  25.215  28.130  1.00  0.00     0.037 A 
ATOM     52  C   UNL A   1      44.167  31.707  30.641  1.00  0.00     0.037 A 
ATOM     53  C   UNL A   1      44.552  25.577  28.366  1.00  0.00     0.049 A 
ATOM     54  C   UNL A   1      45.312  30.756  30.410  1.00  0.00     0.074 A 
ATOM     55  C   UNL A   1      45.689  24.822  28.151  1.00  0.00     0.029 A 
ATOM     56  N   UNL A   1      44.969  26.799  28.874  1.00  0.00    -0.354 N 
ATOM     57  N   UNL A   1      45.288  29.531  29.937  1.00  0.00    -0.248 NA
ATOM     58  C   UNL A   1      46.657  31.246  30.739  1.00  0.00     0.031 C 
ATOM     59  C   UNL A   1      46.790  25.564  28.588  1.00  0.00     0.029 A 
ATOM     60  C   UNL A   1      46.347  26.809  29.004  1.00  0.00     0.049 A 
ATOM     61  H   UNL A   1      44.374  27.547  29.107  1.00  0.00     0.167 HD
ATOM     62  C   UNL A   1      46.614  29.117  29.880  1.00  0.00     0.074 A 
ATOM     63  C   UNL A   1      47.415  30.230  30.350  1.00  0.00     0.031 C 
ATOM     64  C   UNL A   1      47.127  27.928  29.472  1.00  0.00     0.037 A 
BRANCH  51  65
ATOM     65  C   UNL A   1      42.868  23.827  27.636  1.00  0.00     0.058 A 
ATOM     66  C   UNL A   1      42.540  22.781  28.516  1.00  0.00     0.135 A 
ATOM     67  C   UNL A   1      42.885  23.541  26.262  1.00  0.00     0.135 A 
ATOM     68  F   UNL A   1      42.532  22.988  29.843  1.00  0.00    -0.206 F 
ATOM     69  C   UNL A   1      42.277  21.495  28.054  1.00  0.00     0.059 A 
ATOM     70  C   UNL A   1      42.586  22.271  25.776  1.00  0.00     0.059 A 
ATOM     71  F   UNL A   1      43.197  24.498  25.375  1.00  0.00    -0.206 F 
ATOM     72  C   UNL A   1      42.299  21.252  26.681  1.00  0.00     0.060 A 
BRANCH  72  73
ATOM     73  S   UNL A   1      41.944  19.581  26.099  1.00  0.00     0.124 S 
ATOM     74  O   UNL A   1      42.373  18.777  27.240  1.00  0.00    -0.237 OA
ATOM     75  O   UNL A   1      40.504  19.634  25.867  1.00  0.00    -0.237 OA
ATOM     76  O   UNL A   1      42.765  19.456  24.900  1.00  0.00    -0.744 OA
ENDBRANCH  72  73
ENDBRANCH  51  65
BRANCH  52  77
ATOM     77  C   UNL A   1      44.401  33.072  31.189  1.00  0.00     0.058 A 
ATOM     78  C   UNL A   1      44.631  34.169  30.342  1.00  0.00     0.135 A 
ATOM     79  C   UNL A   1      44.396  33.312  32.572  1.00  0.00     0.135 A 
ATOM     80  F   UNL A   1      44.654  33.995  29.011  1.00  0.00    -0.206 F 
ATOM     81  C   UNL A   1      44.866  35.444  30.845  1.00  0.00     0.059 A 
ATOM     82  C   UNL A   1      44.597  34.584  33.098  1.00  0.00     0.059 A 
ATOM     83  F   UNL A   1      44.165  32.304  33.427  1.00  0.00    -0.206 F 
ATOM     84  C   UNL A   1      44.842  35.644  32.226  1.00  0.00     0.060 A 
BRANCH  84  85
ATOM     85  S   UNL A   1      45.097  37.313  32.865  1.00  0.00     0.124 S 
ATOM     86  O   UNL A   1      46.461  37.590  32.432  1.00  0.00    -0.237 OA
ATOM     87  O   UNL A   1      44.045  38.063  32.187  1.00  0.00    -0.237 OA
ATOM     88  O   UNL A   1      44.912  37.152  34.305  1.00  0.00    -0.744 OA
ENDBRANCH  84  85
ENDBRANCH  52  77
BRANCH  64  89
ATOM     89  C   UNL A   1      48.626  27.787  29.465  1.00  0.00     0.058 A 
ATOM     90  C   UNL A   1      49.327  27.215  30.538  1.00  0.00     0.135 A 
ATOM     91  C   UNL A   1      49.368  28.209  28.350  1.00  0.00     0.135 A 
ATOM     92  F   UNL A   1      48.668  26.792  31.629  1.00  0.00    -0.206 F 
ATOM     93  C   UNL A   1      50.714  27.114  30.526  1.00  0.00     0.059 A 
ATOM     94  C   UNL A   1      50.752  28.080  28.299  1.00  0.00     0.059 A 
ATOM     95  F   UNL A   1      48.748  28.746  27.286  1.00  0.00    -0.206 F 
ATOM     96  C   UNL A   1      51.418  27.553  29.403  1.00  0.00     0.060 A 
BRANCH  96  97
ATOM     97  S   UNL A   1      53.217  27.422  29.404  1.00  0.00     0.124 S 
ATOM     98  O   UNL A   1      53.522  27.592  30.821  1.00  0.00    -0.237 OA
ATOM     99  O   UNL A   1      53.432  26.083  28.864  1.00  0.00    -0.237 OA
ATOM    100  O   UNL A   1      53.638  28.517  28.536  1.00  0.00    -0.744 OA
ENDBRANCH  96  97
ENDBRANCH  64  89
ENDBRANCH  38  39
ENDBRANCH  30  33
ENDBRANCH  28  29
ENDBRANCH  27  28
ENDBRANCH   1  27
TORSDOF 18
ENDMDL
MODEL 3
REMARK VINA RESULT:     -11.6      2.600      3.169
REMARK SMILES [NH3+]C[C@H]1CC[C@@H](C(=O)N[C@@H]2C=C[C@@H](C(=O)NCCCCNC(=O)c3ccc(-c4c5nc(c(-c6c(F)cc(S(=O)(=O)[O-])cc6F)c6ccc([nH]6)c(-c6c(F)cc(S(=O)(=O)[O-])cc6F)c6nc(c(-c7c(F)cc(S(=O)(=O)[O-])cc7F)c7ccc4[nH]7)C=C6)C=C5)cc3)C2)CC1
REMARK SMILES IDX 18 1 17 2 16 3 14 4 15 5 13 7 10 8 11 9 90 10 12 11 9 12
REMARK SMILES IDX 7 13 8 14 6 16 3 17 4 18 92 19 5 20 91 21 2 22 1 23 19 27
REMARK SMILES IDX 20 28 21 29 22 30 23 32 24 33 25 34 89 35 26 36 88 37 27 38
REMARK SMILES IDX 28 39 29 40 82 41 30 42 87 43 81 44 83 45 31 46 86 47 80 48
REMARK SMILES IDX 79 49 32 51 66 52 45 53 65 54 46 55 49 56 64 57 84 58 47 59
REMARK SMILES IDX 48 60 63 62 85 63 50 64 33 65 34 66 43 67 35 68 36 69 42 70
REMARK SMILES IDX 44 71 37 72 38 73 39 74 40 75 41 76 67 77 68 78 77 79 69 80
REMARK SMILES IDX 70 81 76 82 78 83 71 84 72 85 73 86 74 87 75 88 51 89 52 90
REMARK SMILES IDX 61 91 53 92 54 93 60 94 62 95 55 96 56 97 57 98 58 99 59 100
REMARK H PARENT 16 6 9 15 1 24 1 25 1 26 21 31 83 50 49 61
REMARK Flexibility Score: inf
ROOT
ATOM      1  C   UNL A   1      35.337  21.967  26.061  1.00  0.00     0.023 C 
ENDROOT
BRANCH   1   2
ATOM      2  C   UNL A   1      35.122  20.632  25.376  1.00  0.00     0.116 C 
BRANCH   2   3
ATOM      3  N   UNL A   1      33.932  19.862  25.661  1.00  0.00    -0.356 N 
ATOM      4  C   UNL A   1      32.730  19.840  25.001  1.00  0.00     0.227 C 
ATOM      5  O   UNL A   1      32.153  18.741  25.009  1.00  0.00    -0.274 OA
ATOM      6  H   UNL A   1      33.994  19.267  26.443  1.00  0.00     0.163 HD
BRANCH   4   7
ATOM      7  C   UNL A   1      31.945  21.084  24.372  1.00  0.00     0.103 C 
ATOM      8  C   UNL A   1      31.469  24.277  24.693  1.00  0.00     0.106 C 
ATOM      9  C   UNL A   1      32.182  23.661  22.942  1.00  0.00    -0.006 C 
ATOM     10  C   UNL A   1      31.287  22.371  25.724  1.00  0.00     0.047 C 
ATOM     11  C   UNL A   1      32.421  22.151  22.868  1.00  0.00    -0.016 C 
BRANCH   8  12
ATOM     12  N   UNL A   1      30.499  25.348  24.556  1.00  0.00    -0.350 N 
ATOM     13  C   UNL A   1      31.040  26.605  24.609  1.00  0.00     0.223 C 
ATOM     14  O   UNL A   1      30.554  27.616  24.137  1.00  0.00    -0.275 OA
ATOM     15  H   UNL A   1      29.535  25.184  24.436  1.00  0.00     0.164 HD
BRANCH  13  16
ATOM     16  C   UNL A   1      32.304  26.494  25.389  1.00  0.00     0.078 C 
ATOM     17  C   UNL A   1      32.549  30.078  25.942  1.00  0.00     0.044 C 
ATOM     18  C   UNL A   1      31.778  28.818  27.202  1.00  0.00     0.010 C 
ATOM     19  C   UNL A   1      33.375  28.983  24.192  1.00  0.00     0.010 C 
ATOM     20  C   UNL A   1      31.992  27.144  26.882  1.00  0.00     0.014 C 
ATOM     21  C   UNL A   1      33.343  27.127  24.263  1.00  0.00     0.014 C 
BRANCH  17  22
ATOM     22  C   UNL A   1      31.403  31.386  26.126  1.00  0.00     0.262 C 
BRANCH  22  23
ATOM     23  N   UNL A   1      30.471  31.565  25.008  1.00  0.00    -0.357 N 
ATOM     24  H   UNL A   1      29.847  32.348  25.208  1.00  0.00     0.344 HD
ATOM     25  H   UNL A   1      29.922  30.715  24.885  1.00  0.00     0.344 HD
ATOM     26  H   UNL A   1      30.997  31.758  24.156  1.00  0.00     0.344 HD
ENDBRANCH  22  23
ENDBRANCH  17  22
ENDBRANCH  13  16
ENDBRANCH   8  12
ENDBRANCH   4   7
ENDBRANCH   2   3
ENDBRANCH   1   2
BRANCH   1  27
ATOM     27  C   UNL A   1      35.666  23.134  25.168  1.00  0.00     0.023 C 
BRANCH  27  28
ATOM     28  C   UNL A   1      37.124  23.549  25.147  1.00  0.00     0.116 C 
BRANCH  28  29
ATOM     29  N   UNL A   1      38.070  22.565  25.670  1.00  0.00    -0.352 N 
ATOM     30  C   UNL A   1      39.149  22.801  26.501  1.00  0.00     0.251 C 
ATOM     31  H   UNL A   1      37.920  21.630  25.401  1.00  0.00     0.163 HD
ATOM     32  O   UNL A   1      39.898  21.894  26.842  1.00  0.00    -0.269 OA
BRANCH  30  33
ATOM     33  C   UNL A   1      39.414  24.196  26.910  1.00  0.00     0.039 A 
ATOM     34  C   UNL A   1      39.260  24.553  28.249  1.00  0.00     0.014 A 
ATOM     35  C   UNL A   1      39.998  25.080  25.999  1.00  0.00     0.014 A 
ATOM     36  C   UNL A   1      39.779  25.770  28.692  1.00  0.00     0.010 A 
ATOM     37  C   UNL A   1      40.656  26.203  26.478  1.00  0.00     0.010 A 
ATOM     38  C   UNL A   1      40.528  26.582  27.821  1.00  0.00    -0.014 A 
BRANCH  38  39
ATOM     39  C   UNL A   1      41.131  27.860  28.283  1.00  0.00     0.031 A 
ATOM     40  C   UNL A   1      42.619  28.067  28.150  1.00  0.00     0.074 A 
ATOM     41  C   UNL A   1      40.360  28.817  28.841  1.00  0.00     0.049 A 
ATOM     42  N   UNL A   1      43.342  29.107  28.479  1.00  0.00    -0.248 NA
ATOM     43  C   UNL A   1      43.410  26.945  27.613  1.00  0.00     0.031 C 
ATOM     44  C   UNL A   1      38.921  28.707  29.098  1.00  0.00     0.029 A 
ATOM     45  N   UNL A   1      40.677  30.076  29.286  1.00  0.00    -0.354 N 
ATOM     46  C   UNL A   1      44.657  28.754  28.199  1.00  0.00     0.074 A 
ATOM     47  C   UNL A   1      44.648  27.377  27.769  1.00  0.00     0.031 C 
ATOM     48  C   UNL A   1      38.473  29.870  29.603  1.00  0.00     0.029 A 
ATOM     49  C   UNL A   1      39.595  30.793  29.743  1.00  0.00     0.049 A 
ATOM     50  H   UNL A   1      41.595  30.434  29.279  1.00  0.00     0.167 HD
ATOM     51  C   UNL A   1      45.772  29.520  28.248  1.00  0.00     0.037 A 
ATOM     52  C   UNL A   1      39.516  32.054  30.214  1.00  0.00     0.037 A 
ATOM     53  C   UNL A   1      45.770  30.901  28.647  1.00  0.00     0.049 A 
ATOM     54  C   UNL A   1      40.766  32.893  30.251  1.00  0.00     0.074 A 
ATOM     55  C   UNL A   1      46.830  31.787  28.679  1.00  0.00     0.029 A 
ATOM     56  N   UNL A   1      44.651  31.594  29.086  1.00  0.00    -0.354 N 
ATOM     57  N   UNL A   1      41.991  32.568  29.905  1.00  0.00    -0.248 NA
ATOM     58  C   UNL A   1      40.623  34.276  30.725  1.00  0.00     0.031 C 
ATOM     59  C   UNL A   1      46.365  32.999  29.199  1.00  0.00     0.029 A 
ATOM     60  C   UNL A   1      45.000  32.892  29.417  1.00  0.00     0.049 A 
ATOM     61  H   UNL A   1      43.743  31.219  29.153  1.00  0.00     0.167 HD
ATOM     62  C   UNL A   1      42.756  33.715  30.087  1.00  0.00     0.074 A 
ATOM     63  C   UNL A   1      41.851  34.745  30.556  1.00  0.00     0.031 C 
ATOM     64  C   UNL A   1      44.084  33.904  29.881  1.00  0.00     0.037 A 
BRANCH  51  65
ATOM     65  C   UNL A   1      47.076  28.877  27.855  1.00  0.00     0.058 A 
ATOM     66  C   UNL A   1      47.505  28.821  26.517  1.00  0.00     0.135 A 
ATOM     67  C   UNL A   1      47.915  28.319  28.832  1.00  0.00     0.135 A 
ATOM     68  F   UNL A   1      46.733  29.316  25.536  1.00  0.00    -0.206 F 
ATOM     69  C   UNL A   1      48.698  28.203  26.160  1.00  0.00     0.059 A 
ATOM     70  C   UNL A   1      49.133  27.731  28.501  1.00  0.00     0.059 A 
ATOM     71  F   UNL A   1      47.555  28.337  30.124  1.00  0.00    -0.206 F 
ATOM     72  C   UNL A   1      49.508  27.664  27.161  1.00  0.00     0.060 A 
BRANCH  72  73
ATOM     73  S   UNL A   1      51.059  26.877  26.680  1.00  0.00     0.124 S 
ATOM     74  O   UNL A   1      51.299  27.480  25.372  1.00  0.00    -0.237 OA
ATOM     75  O   UNL A   1      51.962  27.296  27.746  1.00  0.00    -0.237 OA
ATOM     76  O   UNL A   1      50.728  25.456  26.664  1.00  0.00    -0.744 OA
ENDBRANCH  72  73
ENDBRANCH  51  65
BRANCH  52  77
ATOM     77  C   UNL A   1      38.205  32.610  30.650  1.00  0.00     0.058 A 
ATOM     78  C   UNL A   1      37.796  32.547  31.992  1.00  0.00     0.135 A 
ATOM     79  C   UNL A   1      37.333  33.222  29.735  1.00  0.00     0.135 A 
ATOM     80  F   UNL A   1      38.587  31.967  32.908  1.00  0.00    -0.206 F 
ATOM     81  C   UNL A   1      36.566  33.051  32.407  1.00  0.00     0.059 A 
ATOM     82  C   UNL A   1      36.113  33.760  30.131  1.00  0.00     0.059 A 
ATOM     83  F   UNL A   1      37.680  33.323  28.443  1.00  0.00    -0.206 F 
ATOM     84  C   UNL A   1      35.733  33.661  31.468  1.00  0.00     0.060 A 
BRANCH  84  85
ATOM     85  S   UNL A   1      34.163  34.357  32.026  1.00  0.00     0.124 S 
ATOM     86  O   UNL A   1      33.652  33.289  32.876  1.00  0.00    -0.237 OA
ATOM     87  O   UNL A   1      34.595  35.570  32.714  1.00  0.00    -0.237 OA
ATOM     88  O   UNL A   1      33.433  34.578  30.781  1.00  0.00    -0.744 OA
ENDBRANCH  84  85
ENDBRANCH  52  77
BRANCH  64  89
ATOM     89  C   UNL A   1      44.630  35.288  30.110  1.00  0.00     0.058 A 
ATOM     90  C   UNL A   1      44.678  36.251  29.090  1.00  0.00     0.135 A 
ATOM     91  C   UNL A   1      45.087  35.663  31.385  1.00  0.00     0.135 A 
ATOM     92  F   UNL A   1      44.252  35.949  27.853  1.00  0.00    -0.206 F 
ATOM     93  C   UNL A   1      45.207  37.518  29.312  1.00  0.00     0.059 A 
ATOM     94  C   UNL A   1      45.583  36.937  31.640  1.00  0.00     0.059 A 
ATOM     95  F   UNL A   1      45.046  34.788  32.404  1.00  0.00    -0.206 F 
ATOM     96  C   UNL A   1      45.660  37.850  30.591  1.00  0.00     0.060 A 
BRANCH  96  97
ATOM     97  S   UNL A   1      46.351  39.494  30.864  1.00  0.00     0.124 S 
ATOM     98  O   UNL A   1      47.763  39.271  30.568  1.00  0.00    -0.237 OA
ATOM     99  O   UNL A   1      45.619  40.304  29.895  1.00  0.00    -0.237 OA
ATOM    100  O   UNL A   1      46.039  39.767  32.263  1.00  0.00    -0.744 OA
ENDBRANCH  96  97
ENDBRANCH  64  89
ENDBRANCH  38  39
ENDBRANCH  30  33
ENDBRANCH  28  29
ENDBRANCH  27  28
ENDBRANCH   1  27
TORSDOF 18
ENDMDL
