MODEL 1
REMARK VINA RESULT:     -12.0      0.000      0.000
REMARK SMILES CCOc1ccccc1N1CCN(c2ccc(NC(=O)C(C)(C)C)c(C(=O)NCCCCNC(=O)c3ccc(-c4c5nc(c(-c6c(F)cc(S(=O)(=O)[O-])cc6F)c6ccc([nH]6)c(-c6c(F)cc(S(=O)(=O)[O-])cc6F)c6nc(c(-c7c(F)cc(S(=O)(=O)[O-])cc7F)c7ccc4[nH]7)C=C6)C=C5)cc3)c2)CC1
REMARK SMILES IDX 30 1 29 2 28 3 26 4 27 5 25 7 14 8 15 9 102 10 16 11 17 12
REMARK SMILES IDX 13 13 10 14 11 15 104 16 12 17 103 18 9 19 4 20 5 21 6 22
REMARK SMILES IDX 8 23 7 24 3 25 2 26 1 27 18 28 19 29 20 31 21 32 22 33 23 34
REMARK SMILES IDX 24 35 31 36 32 37 33 38 34 39 35 41 36 42 37 43 101 44 38 45
REMARK SMILES IDX 100 46 39 47 40 48 41 49 94 50 42 51 99 52 93 53 95 54 43 55
REMARK SMILES IDX 98 56 92 57 91 58 44 60 78 61 57 62 77 63 58 64 61 65 76 66
REMARK SMILES IDX 96 67 59 68 60 69 75 71 97 72 62 73 45 74 46 75 55 76 47 77
REMARK SMILES IDX 48 78 54 79 56 80 49 81 50 82 51 83 52 84 53 85 79 86 80 87
REMARK SMILES IDX 89 88 81 89 82 90 88 91 90 92 83 93 84 94 85 95 86 96 87 97
REMARK SMILES IDX 63 98 64 99 73 100 65 101 66 102 72 103 74 104 67 105 68 106
REMARK SMILES IDX 69 107 70 108 71 109
REMARK H PARENT 28 6 18 30 33 40 95 59 61 70
REMARK Flexibility Score: inf
ROOT
ATOM      1  C   UNL A   1      35.154  30.019  27.409  1.00  0.00     0.023 C 
ENDROOT
BRANCH   1   2
ATOM      2  C   UNL A   1      33.984  29.393  26.665  1.00  0.00     0.116 C 
BRANCH   2   3
ATOM      3  N   UNL A   1      34.212  28.926  25.297  1.00  0.00    -0.352 N 
ATOM      4  C   UNL A   1      33.499  27.999  24.532  1.00  0.00     0.253 C 
ATOM      5  O   UNL A   1      33.857  27.765  23.380  1.00  0.00    -0.269 OA
ATOM      6  H   UNL A   1      34.990  29.327  24.846  1.00  0.00     0.163 HD
BRANCH   4   7
ATOM      7  C   UNL A   1      32.364  27.209  25.114  1.00  0.00     0.065 A 
ATOM      8  C   UNL A   1      31.677  24.920  25.316  1.00  0.00     0.038 A 
ATOM      9  C   UNL A   1      30.356  25.353  25.275  1.00  0.00     0.028 A 
ATOM     10  C   UNL A   1      32.638  25.898  25.508  1.00  0.00     0.042 A 
ATOM     11  C   UNL A   1      30.041  26.710  25.244  1.00  0.00     0.029 A 
ATOM     12  C   UNL A   1      31.031  27.678  25.107  1.00  0.00     0.054 A 
BRANCH   8  13
ATOM     13  N   UNL A   1      32.041  23.632  24.961  1.00  0.00    -0.368 N 
ATOM     14  N   UNL A   1      32.907  20.985  24.468  1.00  0.00    -0.365 N 
ATOM     15  C   UNL A   1      31.825  21.150  25.425  1.00  0.00     0.138 C 
ATOM     16  C   UNL A   1      32.806  21.849  23.293  1.00  0.00     0.138 C 
ATOM     17  C   UNL A   1      31.863  22.577  25.982  1.00  0.00     0.138 C 
ATOM     18  C   UNL A   1      32.720  23.341  23.680  1.00  0.00     0.138 C 
BRANCH  14  19
ATOM     19  C   UNL A   1      33.627  19.812  24.381  1.00  0.00     0.079 A 
ATOM     20  C   UNL A   1      34.926  19.708  24.920  1.00  0.00     0.142 A 
ATOM     21  C   UNL A   1      35.653  18.518  24.842  1.00  0.00     0.048 A 
ATOM     22  C   UNL A   1      35.085  17.398  24.236  1.00  0.00     0.004 A 
ATOM     23  C   UNL A   1      33.084  18.671  23.773  1.00  0.00     0.030 A 
ATOM     24  C   UNL A   1      33.803  17.476  23.697  1.00  0.00     0.002 A 
BRANCH  20  25
ATOM     25  O   UNL A   1      35.526  20.812  25.483  1.00  0.00    -0.492 OA
BRANCH  25  26
ATOM     26  C   UNL A   1      36.796  21.102  24.891  1.00  0.00     0.226 C 
ATOM     27  C   UNL A   1      36.639  22.154  23.810  1.00  0.00     0.049 C 
ENDBRANCH  25  26
ENDBRANCH  20  25
ENDBRANCH  14  19
ENDBRANCH   8  13
BRANCH  12  28
ATOM     28  N   UNL A   1      30.769  29.063  24.963  1.00  0.00    -0.325 N 
ATOM     29  C   UNL A   1      30.150  29.881  24.056  1.00  0.00     0.229 C 
ATOM     30  H   UNL A   1      31.130  29.577  25.720  1.00  0.00     0.169 HD
ATOM     31  O   UNL A   1      30.163  31.091  24.328  1.00  0.00    -0.274 OA
BRANCH  29  32
ATOM     32  C   UNL A   1      29.457  29.418  22.752  1.00  0.00     0.041 C 
ATOM     33  C   UNL A   1      28.106  28.747  23.091  1.00  0.00     0.021 C 
ATOM     34  C   UNL A   1      29.369  30.570  21.724  1.00  0.00     0.021 C 
ATOM     35  C   UNL A   1      30.304  28.318  22.059  1.00  0.00     0.021 C 
ENDBRANCH  29  32
ENDBRANCH  12  28
ENDBRANCH   4   7
ENDBRANCH   2   3
ENDBRANCH   1   2
BRANCH   1  36
ATOM     36  C   UNL A   1      35.007  31.469  27.836  1.00  0.00     0.023 C 
BRANCH  36  37
ATOM     37  C   UNL A   1      36.094  32.027  28.747  1.00  0.00     0.116 C 
BRANCH  37  38
ATOM     38  N   UNL A   1      35.904  31.740  30.163  1.00  0.00    -0.352 N 
ATOM     39  C   UNL A   1      36.679  30.979  31.013  1.00  0.00     0.251 C 
ATOM     40  H   UNL A   1      35.107  32.149  30.572  1.00  0.00     0.163 HD
ATOM     41  O   UNL A   1      36.322  30.811  32.177  1.00  0.00    -0.269 OA
BRANCH  39  42
ATOM     42  C   UNL A   1      37.911  30.328  30.512  1.00  0.00     0.039 A 
ATOM     43  C   UNL A   1      38.150  30.293  29.135  1.00  0.00     0.014 A 
ATOM     44  C   UNL A   1      38.851  29.794  31.396  1.00  0.00     0.014 A 
ATOM     45  C   UNL A   1      39.373  29.814  28.655  1.00  0.00     0.010 A 
ATOM     46  C   UNL A   1      40.101  29.405  30.924  1.00  0.00     0.010 A 
ATOM     47  C   UNL A   1      40.380  29.413  29.548  1.00  0.00    -0.014 A 
BRANCH  47  48
ATOM     48  C   UNL A   1      41.728  29.002  29.070  1.00  0.00     0.031 A 
ATOM     49  C   UNL A   1      42.835  30.018  28.975  1.00  0.00     0.074 A 
ATOM     50  C   UNL A   1      41.935  27.738  28.648  1.00  0.00     0.049 A 
ATOM     51  N   UNL A   1      44.048  29.878  28.508  1.00  0.00    -0.248 NA
ATOM     52  C   UNL A   1      42.527  31.383  29.435  1.00  0.00     0.031 C 
ATOM     53  C   UNL A   1      40.928  26.674  28.630  1.00  0.00     0.029 A 
ATOM     54  N   UNL A   1      43.059  27.134  28.140  1.00  0.00    -0.354 N 
ATOM     55  C   UNL A   1      44.639  31.133  28.599  1.00  0.00     0.074 A 
ATOM     56  C   UNL A   1      43.632  32.036  29.111  1.00  0.00     0.031 C 
ATOM     57  C   UNL A   1      41.486  25.546  28.159  1.00  0.00     0.029 A 
ATOM     58  C   UNL A   1      42.877  25.812  27.807  1.00  0.00     0.049 A 
ATOM     59  H   UNL A   1      43.916  27.604  28.023  1.00  0.00     0.167 HD
ATOM     60  C   UNL A   1      45.911  31.497  28.307  1.00  0.00     0.037 A 
ATOM     61  C   UNL A   1      43.731  24.915  27.274  1.00  0.00     0.037 A 
ATOM     62  C   UNL A   1      46.919  30.586  27.830  1.00  0.00     0.049 A 
ATOM     63  C   UNL A   1      45.146  25.336  26.981  1.00  0.00     0.074 A 
ATOM     64  C   UNL A   1      48.253  30.842  27.567  1.00  0.00     0.029 A 
ATOM     65  N   UNL A   1      46.705  29.245  27.548  1.00  0.00    -0.354 N 
ATOM     66  N   UNL A   1      45.705  26.512  27.138  1.00  0.00    -0.248 NA
ATOM     67  C   UNL A   1      46.051  24.307  26.450  1.00  0.00     0.031 C 
ATOM     68  C   UNL A   1      48.837  29.665  27.086  1.00  0.00     0.029 A 
ATOM     69  C   UNL A   1      47.880  28.663  27.100  1.00  0.00     0.049 A 
ATOM     70  H   UNL A   1      45.846  28.776  27.651  1.00  0.00     0.167 HD
ATOM     71  C   UNL A   1      47.034  26.357  26.757  1.00  0.00     0.074 A 
ATOM     72  C   UNL A   1      47.197  24.970  26.370  1.00  0.00     0.031 C 
ATOM     73  C   UNL A   1      48.029  27.276  26.734  1.00  0.00     0.037 A 
BRANCH  60  74
ATOM     74  C   UNL A   1      46.287  32.939  28.507  1.00  0.00     0.058 A 
ATOM     75  C   UNL A   1      46.149  33.886  27.478  1.00  0.00     0.135 A 
ATOM     76  C   UNL A   1      46.760  33.390  29.751  1.00  0.00     0.135 A 
ATOM     77  F   UNL A   1      45.717  33.509  26.264  1.00  0.00    -0.206 F 
ATOM     78  C   UNL A   1      46.495  35.220  27.666  1.00  0.00     0.059 A 
ATOM     79  C   UNL A   1      47.084  34.726  29.969  1.00  0.00     0.059 A 
ATOM     80  F   UNL A   1      46.912  32.529  30.768  1.00  0.00    -0.206 F 
ATOM     81  C   UNL A   1      46.962  35.631  28.914  1.00  0.00     0.060 A 
BRANCH  81  82
ATOM     82  S   UNL A   1      47.400  37.368  29.141  1.00  0.00     0.124 S 
ATOM     83  O   UNL A   1      47.572  37.437  30.589  1.00  0.00    -0.237 OA
ATOM     84  O   UNL A   1      48.620  37.487  28.351  1.00  0.00    -0.237 OA
ATOM     85  O   UNL A   1      46.241  38.082  28.613  1.00  0.00    -0.744 OA
ENDBRANCH  81  82
ENDBRANCH  60  74
BRANCH  61  86
ATOM     86  C   UNL A   1      43.281  23.520  27.015  1.00  0.00     0.058 A 
ATOM     87  C   UNL A   1      42.994  23.085  25.712  1.00  0.00     0.135 A 
ATOM     88  C   UNL A   1      43.139  22.593  28.058  1.00  0.00     0.135 A 
ATOM     89  F   UNL A   1      43.108  23.935  24.681  1.00  0.00    -0.206 F 
ATOM     90  C   UNL A   1      42.564  21.787  25.455  1.00  0.00     0.059 A 
ATOM     91  C   UNL A   1      42.736  21.282  27.822  1.00  0.00     0.059 A 
ATOM     92  F   UNL A   1      43.418  22.952  29.321  1.00  0.00    -0.206 F 
ATOM     93  C   UNL A   1      42.441  20.891  26.517  1.00  0.00     0.060 A 
BRANCH  93  94
ATOM     94  S   UNL A   1      41.929  19.195  26.165  1.00  0.00     0.124 S 
ATOM     95  O   UNL A   1      42.260  18.522  27.416  1.00  0.00    -0.237 OA
ATOM     96  O   UNL A   1      40.505  19.357  25.885  1.00  0.00    -0.237 OA
ATOM     97  O   UNL A   1      42.749  18.830  25.013  1.00  0.00    -0.744 OA
ENDBRANCH  93  94
ENDBRANCH  61  86
BRANCH  73  98
ATOM     98  C   UNL A   1      49.399  26.809  26.325  1.00  0.00     0.058 A 
ATOM     99  C   UNL A   1      49.847  26.898  24.997  1.00  0.00     0.135 A 
ATOM    100  C   UNL A   1      50.293  26.314  27.288  1.00  0.00     0.135 A 
ATOM    101  F   UNL A   1      49.030  27.359  24.038  1.00  0.00    -0.206 F 
ATOM    102  C   UNL A   1      51.128  26.491  24.636  1.00  0.00     0.059 A 
ATOM    103  C   UNL A   1      51.587  25.927  26.953  1.00  0.00     0.059 A 
ATOM    104  F   UNL A   1      49.918  26.218  28.573  1.00  0.00    -0.206 F 
ATOM    105  C   UNL A   1      51.991  26.007  25.621  1.00  0.00     0.060 A 
BRANCH 105 106
ATOM    106  S   UNL A   1      53.660  25.511  25.145  1.00  0.00     0.124 S 
ATOM    107  O   UNL A   1      54.464  26.151  26.180  1.00  0.00    -0.237 OA
ATOM    108  O   UNL A   1      53.584  24.054  25.210  1.00  0.00    -0.237 OA
ATOM    109  O   UNL A   1      53.808  26.064  23.801  1.00  0.00    -0.744 OA
ENDBRANCH 105 106
ENDBRANCH  73  98
ENDBRANCH  47  48
ENDBRANCH  39  42
ENDBRANCH  37  38
ENDBRANCH  36  37
ENDBRANCH   1  36
TORSDOF 20
ENDMDL
MODEL 2
REMARK VINA RESULT:     -12.0      1.159      2.194
REMARK SMILES CCOc1ccccc1N1CCN(c2ccc(NC(=O)C(C)(C)C)c(C(=O)NCCCCNC(=O)c3ccc(-c4c5nc(c(-c6c(F)cc(S(=O)(=O)[O-])cc6F)c6ccc([nH]6)c(-c6c(F)cc(S(=O)(=O)[O-])cc6F)c6nc(c(-c7c(F)cc(S(=O)(=O)[O-])cc7F)c7ccc4[nH]7)C=C6)C=C5)cc3)c2)CC1
REMARK SMILES IDX 30 1 29 2 28 3 26 4 27 5 25 7 14 8 15 9 102 10 16 11 17 12
REMARK SMILES IDX 13 13 10 14 11 15 104 16 12 17 103 18 9 19 4 20 5 21 6 22
REMARK SMILES IDX 8 23 7 24 3 25 2 26 1 27 18 28 19 29 20 31 21 32 22 33 23 34
REMARK SMILES IDX 24 35 31 36 32 37 33 38 34 39 35 41 36 42 37 43 101 44 38 45
REMARK SMILES IDX 100 46 39 47 40 48 41 49 94 50 42 51 99 52 93 53 95 54 43 55
REMARK SMILES IDX 98 56 92 57 91 58 44 60 78 61 57 62 77 63 58 64 61 65 76 66
REMARK SMILES IDX 96 67 59 68 60 69 75 71 97 72 62 73 45 74 46 75 55 76 47 77
REMARK SMILES IDX 48 78 54 79 56 80 49 81 50 82 51 83 52 84 53 85 79 86 80 87
REMARK SMILES IDX 89 88 81 89 82 90 88 91 90 92 83 93 84 94 85 95 86 96 87 97
REMARK SMILES IDX 63 98 64 99 73 100 65 101 66 102 72 103 74 104 67 105 68 106
REMARK SMILES IDX 69 107 70 108 71 109
REMARK H PARENT 28 6 18 30 33 40 95 59 61 70
REMARK Flexibility Score: inf
ROOT
ATOM      1  C   UNL A   1      34.069  31.219  27.509  1.00  0.00     0.023 C 
ENDROOT
BRANCH   1   2
ATOM      2  C   UNL A   1      33.616  29.899  26.902  1.00  0.00     0.116 C 
BRANCH   2   3
ATOM      3  N   UNL A   1      32.487  29.210  27.526  1.00  0.00    -0.352 N 
ATOM      4  C   UNL A   1      31.623  28.243  27.004  1.00  0.00     0.253 C 
ATOM      5  O   UNL A   1      30.740  27.775  27.718  1.00  0.00    -0.269 OA
ATOM      6  H   UNL A   1      32.308  29.467  28.459  1.00  0.00     0.163 HD
BRANCH   4   7
ATOM      7  C   UNL A   1      31.684  27.832  25.563  1.00  0.00     0.065 A 
ATOM      8  C   UNL A   1      32.787  26.196  24.198  1.00  0.00     0.038 A 
ATOM      9  C   UNL A   1      32.763  27.110  23.151  1.00  0.00     0.028 A 
ATOM     10  C   UNL A   1      31.996  26.499  25.294  1.00  0.00     0.042 A 
ATOM     11  C   UNL A   1      32.125  28.343  23.280  1.00  0.00     0.029 A 
ATOM     12  C   UNL A   1      31.614  28.766  24.503  1.00  0.00     0.054 A 
BRANCH   8  13
ATOM     13  N   UNL A   1      33.710  25.165  24.255  1.00  0.00    -0.368 N 
ATOM     14  N   UNL A   1      35.394  22.895  24.326  1.00  0.00    -0.365 N 
ATOM     15  C   UNL A   1      34.914  23.310  23.018  1.00  0.00     0.138 C 
ATOM     16  C   UNL A   1      35.781  23.999  25.202  1.00  0.00     0.138 C 
ATOM     17  C   UNL A   1      33.636  24.137  23.195  1.00  0.00     0.138 C 
ATOM     18  C   UNL A   1      34.628  25.007  25.403  1.00  0.00     0.138 C 
BRANCH  14  19
ATOM     19  C   UNL A   1      35.941  21.646  24.536  1.00  0.00     0.079 A 
ATOM     20  C   UNL A   1      35.126  20.512  24.728  1.00  0.00     0.142 A 
ATOM     21  C   UNL A   1      35.678  19.245  24.930  1.00  0.00     0.048 A 
ATOM     22  C   UNL A   1      37.063  19.084  24.927  1.00  0.00     0.004 A 
ATOM     23  C   UNL A   1      37.330  21.455  24.543  1.00  0.00     0.030 A 
ATOM     24  C   UNL A   1      37.889  20.190  24.739  1.00  0.00     0.002 A 
BRANCH  20  25
ATOM     25  O   UNL A   1      33.757  20.651  24.780  1.00  0.00    -0.492 OA
BRANCH  25  26
ATOM     26  C   UNL A   1      33.265  20.696  26.123  1.00  0.00     0.226 C 
ATOM     27  C   UNL A   1      32.650  22.052  26.409  1.00  0.00     0.049 C 
ENDBRANCH  25  26
ENDBRANCH  20  25
ENDBRANCH  14  19
ENDBRANCH   8  13
BRANCH  12  28
ATOM     28  N   UNL A   1      31.051  30.047  24.725  1.00  0.00    -0.325 N 
ATOM     29  C   UNL A   1      29.993  30.777  24.253  1.00  0.00     0.229 C 
ATOM     30  H   UNL A   1      31.556  30.547  25.405  1.00  0.00     0.169 HD
ATOM     31  O   UNL A   1      29.868  31.912  24.734  1.00  0.00    -0.274 OA
BRANCH  29  32
ATOM     32  C   UNL A   1      28.975  30.301  23.189  1.00  0.00     0.041 C 
ATOM     33  C   UNL A   1      27.654  31.090  23.345  1.00  0.00     0.021 C 
ATOM     34  C   UNL A   1      29.588  30.336  21.770  1.00  0.00     0.021 C 
ATOM     35  C   UNL A   1      28.602  28.815  23.434  1.00  0.00     0.021 C 
ENDBRANCH  29  32
ENDBRANCH  12  28
ENDBRANCH   4   7
ENDBRANCH   2   3
ENDBRANCH   1   2
BRANCH   1  36
ATOM     36  C   UNL A   1      35.469  31.269  28.093  1.00  0.00     0.023 C 
BRANCH  36  37
ATOM     37  C   UNL A   1      35.877  30.106  28.989  1.00  0.00     0.116 C 
BRANCH  37  38
ATOM     38  N   UNL A   1      35.839  30.398  30.417  1.00  0.00    -0.352 N 
ATOM     39  C   UNL A   1      36.879  30.494  31.317  1.00  0.00     0.251 C 
ATOM     40  H   UNL A   1      34.941  30.547  30.792  1.00  0.00     0.163 HD
ATOM     41  O   UNL A   1      36.639  30.698  32.506  1.00  0.00    -0.269 OA
BRANCH  39  42
ATOM     42  C   UNL A   1      38.275  30.303  30.864  1.00  0.00     0.039 A 
ATOM     43  C   UNL A   1      39.181  29.652  31.706  1.00  0.00     0.014 A 
ATOM     44  C   UNL A   1      38.681  30.721  29.594  1.00  0.00     0.014 A 
ATOM     45  C   UNL A   1      40.460  29.334  31.237  1.00  0.00     0.010 A 
ATOM     46  C   UNL A   1      39.918  30.322  29.097  1.00  0.00     0.010 A 
ATOM     47  C   UNL A   1      40.823  29.621  29.910  1.00  0.00    -0.014 A 
BRANCH  47  48
ATOM     48  C   UNL A   1      42.135  29.197  29.352  1.00  0.00     0.031 A 
ATOM     49  C   UNL A   1      43.255  30.196  29.219  1.00  0.00     0.074 A 
ATOM     50  C   UNL A   1      42.297  27.940  28.894  1.00  0.00     0.049 A 
ATOM     51  N   UNL A   1      44.438  30.044  28.685  1.00  0.00    -0.248 NA
ATOM     52  C   UNL A   1      42.997  31.555  29.722  1.00  0.00     0.031 C 
ATOM     53  C   UNL A   1      41.270  26.893  28.908  1.00  0.00     0.029 A 
ATOM     54  N   UNL A   1      43.380  27.327  28.314  1.00  0.00    -0.354 N 
ATOM     55  C   UNL A   1      45.056  31.287  28.769  1.00  0.00     0.074 A 
ATOM     56  C   UNL A   1      44.096  32.196  29.353  1.00  0.00     0.031 C 
ATOM     57  C   UNL A   1      41.781  25.767  28.385  1.00  0.00     0.029 A 
ATOM     58  C   UNL A   1      43.156  26.016  27.964  1.00  0.00     0.049 A 
ATOM     59  H   UNL A   1      44.239  27.784  28.161  1.00  0.00     0.167 HD
ATOM     60  C   UNL A   1      46.318  31.634  28.418  1.00  0.00     0.037 A 
ATOM     61  C   UNL A   1      43.964  25.115  27.368  1.00  0.00     0.037 A 
ATOM     62  C   UNL A   1      47.282  30.716  27.869  1.00  0.00     0.049 A 
ATOM     63  C   UNL A   1      45.369  25.517  27.008  1.00  0.00     0.074 A 
ATOM     64  C   UNL A   1      48.605  30.954  27.540  1.00  0.00     0.029 A 
ATOM     65  N   UNL A   1      47.028  29.385  27.571  1.00  0.00    -0.354 N 
ATOM     66  N   UNL A   1      45.957  26.680  27.159  1.00  0.00    -0.248 NA
ATOM     67  C   UNL A   1      46.225  24.484  26.409  1.00  0.00     0.031 C 
ATOM     68  C   UNL A   1      49.140  29.778  27.004  1.00  0.00     0.029 A 
ATOM     69  C   UNL A   1      48.167  28.793  27.049  1.00  0.00     0.049 A 
ATOM     70  H   UNL A   1      46.167  28.930  27.710  1.00  0.00     0.167 HD
ATOM     71  C   UNL A   1      47.261  26.510  26.705  1.00  0.00     0.074 A 
ATOM     72  C   UNL A   1      47.377  25.129  26.281  1.00  0.00     0.031 C 
ATOM     73  C   UNL A   1      48.270  27.412  26.647  1.00  0.00     0.037 A 
BRANCH  60  74
ATOM     74  C   UNL A   1      46.731  33.066  28.627  1.00  0.00     0.058 A 
ATOM     75  C   UNL A   1      47.332  33.492  29.823  1.00  0.00     0.135 A 
ATOM     76  C   UNL A   1      46.556  34.017  27.608  1.00  0.00     0.135 A 
ATOM     77  F   UNL A   1      47.509  32.630  30.836  1.00  0.00    -0.206 F 
ATOM     78  C   UNL A   1      47.716  34.815  30.013  1.00  0.00     0.059 A 
ATOM     79  C   UNL A   1      46.960  35.340  27.766  1.00  0.00     0.059 A 
ATOM     80  F   UNL A   1      45.988  33.664  26.444  1.00  0.00    -0.206 F 
ATOM     81  C   UNL A   1      47.526  35.732  28.978  1.00  0.00     0.060 A 
BRANCH  81  82
ATOM     82  S   UNL A   1      48.036  37.444  29.240  1.00  0.00     0.124 S 
ATOM     83  O   UNL A   1      48.616  37.372  30.578  1.00  0.00    -0.237 OA
ATOM     84  O   UNL A   1      48.981  37.658  28.150  1.00  0.00    -0.237 OA
ATOM     85  O   UNL A   1      46.786  38.190  29.138  1.00  0.00    -0.744 OA
ENDBRANCH  81  82
ENDBRANCH  60  74
BRANCH  61  86
ATOM     86  C   UNL A   1      43.475  23.734  27.105  1.00  0.00     0.058 A 
ATOM     87  C   UNL A   1      43.349  22.802  28.146  1.00  0.00     0.135 A 
ATOM     88  C   UNL A   1      43.115  23.321  25.813  1.00  0.00     0.135 A 
ATOM     89  F   UNL A   1      43.687  23.146  29.398  1.00  0.00    -0.206 F 
ATOM     90  C   UNL A   1      42.902  21.506  27.914  1.00  0.00     0.059 A 
ATOM     91  C   UNL A   1      42.640  22.038  25.561  1.00  0.00     0.059 A 
ATOM     92  F   UNL A   1      43.199  24.179  24.784  1.00  0.00    -0.206 F 
ATOM     93  C   UNL A   1      42.547  21.133  26.617  1.00  0.00     0.060 A 
BRANCH  93  94
ATOM     94  S   UNL A   1      41.922  19.462  26.336  1.00  0.00     0.124 S 
ATOM     95  O   UNL A   1      42.549  19.123  25.064  1.00  0.00    -0.237 OA
ATOM     96  O   UNL A   1      42.423  18.747  27.506  1.00  0.00    -0.237 OA
ATOM     97  O   UNL A   1      40.474  19.648  26.298  1.00  0.00    -0.744 OA
ENDBRANCH  93  94
ENDBRANCH  61  86
BRANCH  73  98
ATOM     98  C   UNL A   1      49.607  26.930  26.155  1.00  0.00     0.058 A 
ATOM     99  C   UNL A   1      50.017  27.108  24.825  1.00  0.00     0.135 A 
ATOM    100  C   UNL A   1      50.512  26.328  27.045  1.00  0.00     0.135 A 
ATOM    101  F   UNL A   1      49.188  27.674  23.933  1.00  0.00    -0.206 F 
ATOM    102  C   UNL A   1      51.269  26.685  24.388  1.00  0.00     0.059 A 
ATOM    103  C   UNL A   1      51.778  25.922  26.637  1.00  0.00     0.059 A 
ATOM    104  F   UNL A   1      50.174  26.144  28.331  1.00  0.00    -0.206 F 
ATOM    105  C   UNL A   1      52.143  26.094  25.303  1.00  0.00     0.060 A 
BRANCH 105 106
ATOM    106  S   UNL A   1      53.775  25.577  24.732  1.00  0.00     0.124 S 
ATOM    107  O   UNL A   1      53.747  26.004  23.337  1.00  0.00    -0.237 OA
ATOM    108  O   UNL A   1      54.668  26.332  25.608  1.00  0.00    -0.237 OA
ATOM    109  O   UNL A   1      53.770  24.133  24.948  1.00  0.00    -0.744 OA
ENDBRANCH 105 106
ENDBRANCH  73  98
ENDBRANCH  47  48
ENDBRANCH  39  42
ENDBRANCH  37  38
ENDBRANCH  36  37
ENDBRANCH   1  36
TORSDOF 20
ENDMDL
MODEL 3
REMARK VINA RESULT:     -11.7      1.314      7.905
REMARK SMILES CCOc1ccccc1N1CCN(c2ccc(NC(=O)C(C)(C)C)c(C(=O)NCCCCNC(=O)c3ccc(-c4c5nc(c(-c6c(F)cc(S(=O)(=O)[O-])cc6F)c6ccc([nH]6)c(-c6c(F)cc(S(=O)(=O)[O-])cc6F)c6nc(c(-c7c(F)cc(S(=O)(=O)[O-])cc7F)c7ccc4[nH]7)C=C6)C=C5)cc3)c2)CC1
REMARK SMILES IDX 30 1 29 2 28 3 26 4 27 5 25 7 14 8 15 9 102 10 16 11 17 12
REMARK SMILES IDX 13 13 10 14 11 15 104 16 12 17 103 18 9 19 4 20 5 21 6 22
REMARK SMILES IDX 8 23 7 24 3 25 2 26 1 27 18 28 19 29 20 31 21 32 22 33 23 34
REMARK SMILES IDX 24 35 31 36 32 37 33 38 34 39 35 41 36 42 37 43 101 44 38 45
REMARK SMILES IDX 100 46 39 47 40 48 41 49 94 50 42 51 99 52 93 53 95 54 43 55
REMARK SMILES IDX 98 56 92 57 91 58 44 60 78 61 57 62 77 63 58 64 61 65 76 66
REMARK SMILES IDX 96 67 59 68 60 69 75 71 97 72 62 73 45 74 46 75 55 76 47 77
REMARK SMILES IDX 48 78 54 79 56 80 49 81 50 82 51 83 52 84 53 85 79 86 80 87
REMARK SMILES IDX 89 88 81 89 82 90 88 91 90 92 83 93 84 94 85 95 86 96 87 97
REMARK SMILES IDX 63 98 64 99 73 100 65 101 66 102 72 103 74 104 67 105 68 106
REMARK SMILES IDX 69 107 70 108 71 109
REMARK H PARENT 28 6 18 30 33 40 95 59 61 70
REMARK Flexibility Score: inf
ROOT
ATOM      1  C   UNL A   1      34.722  30.687  27.447  1.00  0.00     0.023 C 
ENDROOT
BRANCH   1   2
ATOM      2  C   UNL A   1      34.043  29.404  26.991  1.00  0.00     0.116 C 
BRANCH   2   3
ATOM      3  N   UNL A   1      32.767  29.047  27.611  1.00  0.00    -0.352 N 
ATOM      4  C   UNL A   1      31.705  28.289  27.111  1.00  0.00     0.253 C 
ATOM      5  O   UNL A   1      30.719  28.091  27.818  1.00  0.00    -0.269 OA
ATOM      6  H   UNL A   1      32.637  29.395  28.523  1.00  0.00     0.163 HD
BRANCH   4   7
ATOM      7  C   UNL A   1      31.694  27.790  25.696  1.00  0.00     0.065 A 
ATOM      8  C   UNL A   1      32.710  26.057  24.386  1.00  0.00     0.038 A 
ATOM      9  C   UNL A   1      32.650  26.906  23.287  1.00  0.00     0.028 A 
ATOM     10  C   UNL A   1      31.975  26.438  25.496  1.00  0.00     0.042 A 
ATOM     11  C   UNL A   1      32.035  28.154  23.369  1.00  0.00     0.029 A 
ATOM     12  C   UNL A   1      31.587  28.659  24.586  1.00  0.00     0.054 A 
BRANCH   8  13
ATOM     13  N   UNL A   1      33.621  25.017  24.465  1.00  0.00    -0.368 N 
ATOM     14  N   UNL A   1      35.295  22.738  24.520  1.00  0.00    -0.365 N 
ATOM     15  C   UNL A   1      35.055  23.340  23.218  1.00  0.00     0.138 C 
ATOM     16  C   UNL A   1      35.501  23.703  25.599  1.00  0.00     0.138 C 
ATOM     17  C   UNL A   1      33.756  24.150  23.274  1.00  0.00     0.138 C 
ATOM     18  C   UNL A   1      34.317  24.686  25.727  1.00  0.00     0.138 C 
BRANCH  14  19
ATOM     19  C   UNL A   1      35.812  21.465  24.647  1.00  0.00     0.079 A 
ATOM     20  C   UNL A   1      34.974  20.354  24.871  1.00  0.00     0.142 A 
ATOM     21  C   UNL A   1      35.494  19.063  24.989  1.00  0.00     0.048 A 
ATOM     22  C   UNL A   1      36.867  18.856  24.870  1.00  0.00     0.004 A 
ATOM     23  C   UNL A   1      37.189  21.227  24.537  1.00  0.00     0.030 A 
ATOM     24  C   UNL A   1      37.715  19.939  24.650  1.00  0.00     0.002 A 
BRANCH  20  25
ATOM     25  O   UNL A   1      33.619  20.537  25.037  1.00  0.00    -0.492 OA
BRANCH  25  26
ATOM     26  C   UNL A   1      32.848  19.765  24.111  1.00  0.00     0.226 C 
ATOM     27  C   UNL A   1      32.332  20.652  22.993  1.00  0.00     0.049 C 
ENDBRANCH  25  26
ENDBRANCH  20  25
ENDBRANCH  14  19
ENDBRANCH   8  13
BRANCH  12  28
ATOM     28  N   UNL A   1      31.051  29.960  24.755  1.00  0.00    -0.325 N 
ATOM     29  C   UNL A   1      30.009  30.692  24.252  1.00  0.00     0.229 C 
ATOM     30  H   UNL A   1      31.568  30.477  25.412  1.00  0.00     0.169 HD
ATOM     31  O   UNL A   1      29.909  31.849  24.686  1.00  0.00    -0.274 OA
BRANCH  29  32
ATOM     32  C   UNL A   1      28.980  30.195  23.210  1.00  0.00     0.041 C 
ATOM     33  C   UNL A   1      29.525  30.437  21.784  1.00  0.00     0.021 C 
ATOM     34  C   UNL A   1      28.545  28.739  23.500  1.00  0.00     0.021 C 
ATOM     35  C   UNL A   1      27.678  31.033  23.304  1.00  0.00     0.021 C 
ENDBRANCH  29  32
ENDBRANCH  12  28
ENDBRANCH   4   7
ENDBRANCH   2   3
ENDBRANCH   1   2
BRANCH   1  36
ATOM     36  C   UNL A   1      36.052  30.549  28.165  1.00  0.00     0.023 C 
BRANCH  36  37
ATOM     37  C   UNL A   1      36.102  29.567  29.329  1.00  0.00     0.116 C 
BRANCH  37  38
ATOM     38  N   UNL A   1      36.078  30.187  30.648  1.00  0.00    -0.352 N 
ATOM     39  C   UNL A   1      37.130  30.588  31.444  1.00  0.00     0.251 C 
ATOM     40  H   UNL A   1      35.182  30.340  31.025  1.00  0.00     0.163 HD
ATOM     41  O   UNL A   1      36.907  31.049  32.562  1.00  0.00    -0.269 OA
BRANCH  39  42
ATOM     42  C   UNL A   1      38.524  30.421  30.974  1.00  0.00     0.039 A 
ATOM     43  C   UNL A   1      39.386  29.583  31.687  1.00  0.00     0.014 A 
ATOM     44  C   UNL A   1      38.969  31.048  29.807  1.00  0.00     0.014 A 
ATOM     45  C   UNL A   1      40.657  29.299  31.177  1.00  0.00     0.010 A 
ATOM     46  C   UNL A   1      40.196  30.692  29.255  1.00  0.00     0.010 A 
ATOM     47  C   UNL A   1      41.054  29.811  29.930  1.00  0.00    -0.014 A 
BRANCH  47  48
ATOM     48  C   UNL A   1      42.356  29.438  29.314  1.00  0.00     0.031 A 
ATOM     49  C   UNL A   1      42.569  28.041  28.790  1.00  0.00     0.074 A 
ATOM     50  C   UNL A   1      43.370  30.326  29.294  1.00  0.00     0.049 A 
ATOM     51  N   UNL A   1      43.651  27.500  28.296  1.00  0.00    -0.248 NA
ATOM     52  C   UNL A   1      41.422  27.122  28.865  1.00  0.00     0.031 C 
ATOM     53  C   UNL A   1      43.313  31.691  29.825  1.00  0.00     0.029 A 
ATOM     54  N   UNL A   1      44.654  30.213  28.821  1.00  0.00    -0.354 N 
ATOM     55  C   UNL A   1      43.324  26.178  28.019  1.00  0.00     0.074 A 
ATOM     56  C   UNL A   1      41.959  25.982  28.455  1.00  0.00     0.031 C 
ATOM     57  C   UNL A   1      44.497  32.292  29.627  1.00  0.00     0.029 A 
ATOM     58  C   UNL A   1      45.411  31.349  28.990  1.00  0.00     0.049 A 
ATOM     59  H   UNL A   1      45.002  29.393  28.400  1.00  0.00     0.167 HD
ATOM     60  C   UNL A   1      44.080  25.219  27.432  1.00  0.00     0.037 A 
ATOM     61  C   UNL A   1      46.696  31.604  28.672  1.00  0.00     0.037 A 
ATOM     62  C   UNL A   1      45.427  25.430  26.968  1.00  0.00     0.049 A 
ATOM     63  C   UNL A   1      47.510  30.531  27.998  1.00  0.00     0.074 A 
ATOM     64  C   UNL A   1      46.255  24.543  26.302  1.00  0.00     0.029 A 
ATOM     65  N   UNL A   1      46.141  26.609  27.118  1.00  0.00    -0.354 N 
ATOM     66  N   UNL A   1      47.160  29.307  27.683  1.00  0.00    -0.248 NA
ATOM     67  C   UNL A   1      48.889  30.877  27.625  1.00  0.00     0.031 C 
ATOM     68  C   UNL A   1      47.485  25.172  26.087  1.00  0.00     0.029 A 
ATOM     69  C   UNL A   1      47.406  26.468  26.570  1.00  0.00     0.049 A 
ATOM     70  H   UNL A   1      45.800  27.425  27.551  1.00  0.00     0.167 HD
ATOM     71  C   UNL A   1      48.262  28.747  27.045  1.00  0.00     0.074 A 
ATOM     72  C   UNL A   1      49.288  29.770  27.013  1.00  0.00     0.031 C 
ATOM     73  C   UNL A   1      48.410  27.502  26.531  1.00  0.00     0.037 A 
BRANCH  60  74
ATOM     74  C   UNL A   1      43.464  23.860  27.247  1.00  0.00     0.058 A 
ATOM     75  C   UNL A   1      42.956  23.443  26.006  1.00  0.00     0.135 A 
ATOM     76  C   UNL A   1      43.410  22.948  28.315  1.00  0.00     0.135 A 
ATOM     77  F   UNL A   1      42.967  24.278  24.955  1.00  0.00    -0.206 F 
ATOM     78  C   UNL A   1      42.390  22.184  25.836  1.00  0.00     0.059 A 
ATOM     79  C   UNL A   1      42.874  21.672  28.160  1.00  0.00     0.059 A 
ATOM     80  F   UNL A   1      43.881  23.293  29.523  1.00  0.00    -0.206 F 
ATOM     81  C   UNL A   1      42.353  21.305  26.920  1.00  0.00     0.060 A 
BRANCH  81  82
ATOM     82  S   UNL A   1      41.620  19.673  26.680  1.00  0.00     0.124 S 
ATOM     83  O   UNL A   1      42.040  19.363  25.317  1.00  0.00    -0.237 OA
ATOM     84  O   UNL A   1      42.254  18.889  27.733  1.00  0.00    -0.237 OA
ATOM     85  O   UNL A   1      40.191  19.914  26.856  1.00  0.00    -0.744 OA
ENDBRANCH  81  82
ENDBRANCH  60  74
BRANCH  61  86
ATOM     86  C   UNL A   1      47.284  32.941  28.956  1.00  0.00     0.058 A 
ATOM     87  C   UNL A   1      47.237  33.968  28.000  1.00  0.00     0.135 A 
ATOM     88  C   UNL A   1      47.895  33.224  30.187  1.00  0.00     0.135 A 
ATOM     89  F   UNL A   1      46.669  33.746  26.805  1.00  0.00    -0.206 F 
ATOM     90  C   UNL A   1      47.789  35.221  28.248  1.00  0.00     0.059 A 
ATOM     91  C   UNL A   1      48.430  34.477  30.467  1.00  0.00     0.059 A 
ATOM     92  F   UNL A   1      47.951  32.283  31.142  1.00  0.00    -0.206 F 
ATOM     93  C   UNL A   1      48.382  35.466  29.486  1.00  0.00     0.060 A 
BRANCH  93  94
ATOM     94  S   UNL A   1      49.053  37.112  29.814  1.00  0.00     0.124 S 
ATOM     95  O   UNL A   1      47.922  37.965  29.472  1.00  0.00    -0.237 OA
ATOM     96  O   UNL A   1      49.385  37.029  31.234  1.00  0.00    -0.237 OA
ATOM     97  O   UNL A   1      50.201  37.191  28.914  1.00  0.00    -0.744 OA
ENDBRANCH  93  94
ENDBRANCH  61  86
BRANCH  73  98
ATOM     98  C   UNL A   1      49.708  27.185  25.841  1.00  0.00     0.058 A 
ATOM     99  C   UNL A   1      49.882  27.375  24.461  1.00  0.00     0.135 A 
ATOM    100  C   UNL A   1      50.811  26.734  26.585  1.00  0.00     0.135 A 
ATOM    101  F   UNL A   1      48.858  27.799  23.704  1.00  0.00    -0.206 F 
ATOM    102  C   UNL A   1      51.097  27.106  23.839  1.00  0.00     0.059 A 
ATOM    103  C   UNL A   1      52.043  26.485  25.989  1.00  0.00     0.059 A 
ATOM    104  F   UNL A   1      50.702  26.546  27.910  1.00  0.00    -0.206 F 
ATOM    105  C   UNL A   1      52.173  26.662  24.612  1.00  0.00     0.060 A 
BRANCH 105 106
ATOM    106  S   UNL A   1      53.753  26.347  23.798  1.00  0.00     0.124 S 
ATOM    107  O   UNL A   1      54.242  25.193  24.544  1.00  0.00    -0.237 OA
ATOM    108  O   UNL A   1      53.348  26.085  22.419  1.00  0.00    -0.237 OA
ATOM    109  O   UNL A   1      54.494  27.589  24.002  1.00  0.00    -0.744 OA
ENDBRANCH 105 106
ENDBRANCH  73  98
ENDBRANCH  47  48
ENDBRANCH  39  42
ENDBRANCH  37  38
ENDBRANCH  36  37
ENDBRANCH   1  36
TORSDOF 20
ENDMDL
