MODEL 1
REMARK VINA RESULT:     -14.6      0.000      0.000
REMARK SMILES C[C@@H](CCC(=O)NCCCCNC(=O)c1ccc(-c2c3nc(c(-c4c(F)cc(S(=O)(=O)[O-])cc4F)c4ccc([nH]4)c(-c4c(F)cc(S(=O)(=O)[O-])cc4F)c4nc(c(-c5c(F)cc(S(=O)(=O)[O-])cc5F)c5ccc2[nH]5)C=C4)C=C3)cc1)[C@@H]1CC[C@H]2[C@@H]3CC[C@H]4CC(=O)CC[C@@]4(C)[C@H]3CC(=O)[C@@]21C
REMARK SMILES IDX 9 1 8 2 7 3 5 4 6 5 4 7 3 8 2 9 1 10 81 11 82 12 100 13
REMARK SMILES IDX 83 14 84 15 98 16 101 17 85 18 97 19 99 20 86 21 96 22 87 23
REMARK SMILES IDX 94 24 88 25 93 26 95 27 89 28 92 29 90 30 91 31 10 32 11 33
REMARK SMILES IDX 12 34 13 35 14 37 15 38 16 39 80 40 17 41 79 42 18 43 19 44
REMARK SMILES IDX 20 45 73 46 21 47 78 48 72 49 74 50 22 51 77 52 71 53 70 54
REMARK SMILES IDX 23 56 57 57 36 58 56 59 37 60 40 61 55 62 75 63 38 64 39 65
REMARK SMILES IDX 54 67 76 68 41 69 24 70 25 71 34 72 26 73 27 74 33 75 35 76
REMARK SMILES IDX 28 77 29 78 30 79 31 80 32 81 58 82 59 83 68 84 60 85 61 86
REMARK SMILES IDX 67 87 69 88 62 89 63 90 64 91 65 92 66 93 42 94 43 95 52 96
REMARK SMILES IDX 44 97 45 98 51 99 53 100 46 101 47 102 48 103 49 104 50 105
REMARK H PARENT 7 6 12 36 74 55 40 66
REMARK Flexibility Score: inf
ROOT
ATOM      1  C   UNL A   1      32.168  31.302  26.790  1.00  0.00     0.023 C 
ENDROOT
BRANCH   1   2
ATOM      2  C   UNL A   1      31.052  30.762  25.601  1.00  0.00     0.116 C 
BRANCH   2   3
ATOM      3  N   UNL A   1      30.213  31.624  24.684  1.00  0.00    -0.356 N 
ATOM      4  C   UNL A   1      29.116  31.611  23.875  1.00  0.00     0.220 C 
ATOM      5  O   UNL A   1      28.754  32.662  23.322  1.00  0.00    -0.275 OA
ATOM      6  H   UNL A   1      30.605  32.527  24.662  1.00  0.00     0.163 HD
BRANCH   4   7
ATOM      7  C   UNL A   1      28.411  30.348  23.546  1.00  0.00     0.100 C 
BRANCH   7   8
ATOM      8  C   UNL A   1      29.199  29.592  22.485  1.00  0.00     0.013 C 
BRANCH   8   9
ATOM      9  C   UNL A   1      29.560  28.138  22.918  1.00  0.00    -0.010 C 
ATOM     10  C   UNL A   1      28.177  27.727  23.602  1.00  0.00     0.008 C 
BRANCH   9  11
ATOM     11  C   UNL A   1      31.321  27.947  23.205  1.00  0.00     0.005 C 
ATOM     12  C   UNL A   1      31.936  27.594  21.793  1.00  0.00     0.005 C 
ATOM     13  C   UNL A   1      32.619  27.304  24.241  1.00  0.00     0.032 C 
ATOM     14  C   UNL A   1      33.275  26.852  21.979  1.00  0.00     0.005 C 
ATOM     15  C   UNL A   1      33.152  26.156  23.333  1.00  0.00     0.006 C 
ATOM     16  C   UNL A   1      32.799  26.762  25.742  1.00  0.00     0.139 C 
ATOM     17  C   UNL A   1      33.664  28.473  24.313  1.00  0.00     0.020 C 
ATOM     18  C   UNL A   1      34.273  25.130  23.807  1.00  0.00    -0.003 C 
ATOM     19  C   UNL A   1      34.015  25.895  26.078  1.00  0.00     0.080 C 
ATOM     20  O   UNL A   1      32.147  27.122  26.724  1.00  0.00    -0.299 OA
ATOM     21  C   UNL A   1      34.286  23.916  22.886  1.00  0.00     0.004 C 
ATOM     22  C   UNL A   1      33.960  24.639  25.237  1.00  0.00     0.006 C 
ATOM     23  C   UNL A   1      34.917  22.620  23.361  1.00  0.00     0.005 C 
ATOM     24  C   UNL A   1      34.720  23.357  25.784  1.00  0.00    -0.025 C 
ATOM     25  C   UNL A   1      34.482  22.207  24.772  1.00  0.00     0.002 C 
ATOM     26  C   UNL A   1      36.238  23.552  26.050  1.00  0.00     0.015 C 
ATOM     27  C   UNL A   1      34.051  22.965  27.141  1.00  0.00     0.012 C 
ATOM     28  C   UNL A   1      35.183  20.908  25.182  1.00  0.00     0.079 C 
ATOM     29  C   UNL A   1      37.218  22.480  25.533  1.00  0.00     0.076 C 
ATOM     30  C   UNL A   1      36.671  21.102  25.223  1.00  0.00     0.133 C 
ATOM     31  O   UNL A   1      37.427  20.157  24.993  1.00  0.00    -0.300 OA
ENDBRANCH   9  11
ENDBRANCH   8   9
ENDBRANCH   7   8
ENDBRANCH   4   7
ENDBRANCH   2   3
ENDBRANCH   1   2
BRANCH   1  32
ATOM     32  C   UNL A   1      33.591  30.653  27.356  1.00  0.00     0.023 C 
BRANCH  32  33
ATOM     33  C   UNL A   1      34.977  31.282  27.872  1.00  0.00     0.116 C 
BRANCH  33  34
ATOM     34  N   UNL A   1      35.235  31.445  29.291  1.00  0.00    -0.352 N 
ATOM     35  C   UNL A   1      36.238  31.038  30.177  1.00  0.00     0.251 C 
ATOM     36  H   UNL A   1      34.532  31.968  29.740  1.00  0.00     0.163 HD
ATOM     37  O   UNL A   1      35.916  31.178  31.365  1.00  0.00    -0.269 OA
BRANCH  35  38
ATOM     38  C   UNL A   1      37.665  30.546  29.915  1.00  0.00     0.039 A 
ATOM     39  C   UNL A   1      37.962  30.107  28.598  1.00  0.00     0.014 A 
ATOM     40  C   UNL A   1      38.704  30.387  30.831  1.00  0.00     0.014 A 
ATOM     41  C   UNL A   1      39.198  29.507  28.232  1.00  0.00     0.010 A 
ATOM     42  C   UNL A   1      39.920  29.717  30.493  1.00  0.00     0.010 A 
ATOM     43  C   UNL A   1      40.202  29.289  29.181  1.00  0.00    -0.014 A 
BRANCH  43  44
ATOM     44  C   UNL A   1      41.626  29.036  28.758  1.00  0.00     0.031 A 
ATOM     45  C   UNL A   1      42.726  30.075  28.662  1.00  0.00     0.074 A 
ATOM     46  C   UNL A   1      41.898  27.764  28.394  1.00  0.00     0.049 A 
ATOM     47  N   UNL A   1      43.994  29.905  28.351  1.00  0.00    -0.248 NA
ATOM     48  C   UNL A   1      42.370  31.475  28.919  1.00  0.00     0.031 C 
ATOM     49  C   UNL A   1      40.913  26.677  28.410  1.00  0.00     0.029 A 
ATOM     50  N   UNL A   1      43.039  27.164  27.925  1.00  0.00    -0.354 N 
ATOM     51  C   UNL A   1      44.592  31.167  28.387  1.00  0.00     0.074 A 
ATOM     52  C   UNL A   1      43.531  32.099  28.718  1.00  0.00     0.031 C 
ATOM     53  C   UNL A   1      41.476  25.559  27.943  1.00  0.00     0.029 A 
ATOM     54  C   UNL A   1      42.868  25.835  27.615  1.00  0.00     0.049 A 
ATOM     55  H   UNL A   1      43.896  27.638  27.821  1.00  0.00     0.167 HD
ATOM     56  C   UNL A   1      45.895  31.505  28.169  1.00  0.00     0.037 A 
ATOM     57  C   UNL A   1      43.728  24.918  27.135  1.00  0.00     0.037 A 
ATOM     58  C   UNL A   1      46.934  30.554  27.818  1.00  0.00     0.049 A 
ATOM     59  C   UNL A   1      45.160  25.307  26.935  1.00  0.00     0.074 A 
ATOM     60  C   UNL A   1      48.295  30.775  27.659  1.00  0.00     0.029 A 
ATOM     61  N   UNL A   1      46.726  29.206  27.552  1.00  0.00    -0.354 N 
ATOM     62  N   UNL A   1      45.723  26.479  27.102  1.00  0.00    -0.248 NA
ATOM     63  C   UNL A   1      46.082  24.245  26.514  1.00  0.00     0.031 C 
ATOM     64  C   UNL A   1      48.895  29.579  27.242  1.00  0.00     0.029 A 
ATOM     65  C   UNL A   1      47.922  28.595  27.199  1.00  0.00     0.049 A 
ATOM     66  H   UNL A   1      45.855  28.751  27.605  1.00  0.00     0.167 HD
ATOM     67  C   UNL A   1      47.072  26.291  26.837  1.00  0.00     0.074 A 
ATOM     68  C   UNL A   1      47.241  24.888  26.512  1.00  0.00     0.031 C 
ATOM     69  C   UNL A   1      48.078  27.199  26.865  1.00  0.00     0.037 A 
BRANCH  56  70
ATOM     70  C   UNL A   1      46.309  32.961  28.306  1.00  0.00     0.058 A 
ATOM     71  C   UNL A   1      46.742  33.494  29.531  1.00  0.00     0.135 A 
ATOM     72  C   UNL A   1      46.375  33.808  27.183  1.00  0.00     0.135 A 
ATOM     73  F   UNL A   1      46.725  32.736  30.639  1.00  0.00    -0.206 F 
ATOM     74  C   UNL A   1      47.184  34.813  29.648  1.00  0.00     0.059 A 
ATOM     75  C   UNL A   1      46.839  35.123  27.271  1.00  0.00     0.059 A 
ATOM     76  F   UNL A   1      46.004  33.359  25.974  1.00  0.00    -0.206 F 
ATOM     77  C   UNL A   1      47.225  35.623  28.513  1.00  0.00     0.060 A 
BRANCH  77  78
ATOM     78  S   UNL A   1      47.792  37.332  28.686  1.00  0.00     0.124 S 
ATOM     79  O   UNL A   1      47.329  37.922  27.434  1.00  0.00    -0.237 OA
ATOM     80  O   UNL A   1      47.096  37.774  29.890  1.00  0.00    -0.237 OA
ATOM     81  O   UNL A   1      49.241  37.201  28.817  1.00  0.00    -0.744 OA
ENDBRANCH  77  78
ENDBRANCH  56  70
BRANCH  57  82
ATOM     82  C   UNL A   1      43.252  23.530  26.899  1.00  0.00     0.058 A 
ATOM     83  C   UNL A   1      43.099  23.036  25.596  1.00  0.00     0.135 A 
ATOM     84  C   UNL A   1      43.011  22.649  27.967  1.00  0.00     0.135 A 
ATOM     85  F   UNL A   1      43.330  23.835  24.545  1.00  0.00    -0.206 F 
ATOM     86  C   UNL A   1      42.705  21.723  25.357  1.00  0.00     0.059 A 
ATOM     87  C   UNL A   1      42.643  21.325  27.753  1.00  0.00     0.059 A 
ATOM     88  F   UNL A   1      43.181  23.064  29.233  1.00  0.00    -0.206 F 
ATOM     89  C   UNL A   1      42.481  20.876  26.442  1.00  0.00     0.060 A 
BRANCH  89  90
ATOM     90  S   UNL A   1      42.014  19.162  26.117  1.00  0.00     0.124 S 
ATOM     91  O   UNL A   1      42.408  18.510  27.360  1.00  0.00    -0.237 OA
ATOM     92  O   UNL A   1      40.578  19.275  25.881  1.00  0.00    -0.237 OA
ATOM     93  O   UNL A   1      42.810  18.814  24.943  1.00  0.00    -0.744 OA
ENDBRANCH  89  90
ENDBRANCH  57  82
BRANCH  69  94
ATOM     94  C   UNL A   1      49.459  26.692  26.546  1.00  0.00     0.058 A 
ATOM     95  C   UNL A   1      50.272  26.101  27.525  1.00  0.00     0.135 A 
ATOM     96  C   UNL A   1      49.967  26.784  25.239  1.00  0.00     0.135 A 
ATOM     97  F   UNL A   1      49.841  26.002  28.793  1.00  0.00    -0.206 F 
ATOM     98  C   UNL A   1      51.551  25.642  27.229  1.00  0.00     0.059 A 
ATOM     99  C   UNL A   1      51.232  26.304  24.914  1.00  0.00     0.059 A 
ATOM    100  F   UNL A   1      49.231  27.340  24.265  1.00  0.00    -0.206 F 
ATOM    101  C   UNL A   1      52.022  25.746  25.918  1.00  0.00     0.060 A 
BRANCH 101 102
ATOM    102  S   UNL A   1      53.671  25.117  25.540  1.00  0.00     0.124 S 
ATOM    103  O   UNL A   1      54.419  25.519  26.727  1.00  0.00    -0.237 OA
ATOM    104  O   UNL A   1      53.433  23.684  25.396  1.00  0.00    -0.237 OA
ATOM    105  O   UNL A   1      54.027  25.814  24.308  1.00  0.00    -0.744 OA
ENDBRANCH 101 102
ENDBRANCH  69  94
ENDBRANCH  43  44
ENDBRANCH  35  38
ENDBRANCH  33  34
ENDBRANCH  32  33
ENDBRANCH   1  32
TORSDOF 17
ENDMDL
MODEL 2
REMARK VINA RESULT:     -14.4      6.206     12.165
REMARK SMILES C[C@@H](CCC(=O)NCCCCNC(=O)c1ccc(-c2c3nc(c(-c4c(F)cc(S(=O)(=O)[O-])cc4F)c4ccc([nH]4)c(-c4c(F)cc(S(=O)(=O)[O-])cc4F)c4nc(c(-c5c(F)cc(S(=O)(=O)[O-])cc5F)c5ccc2[nH]5)C=C4)C=C3)cc1)[C@@H]1CC[C@H]2[C@@H]3CC[C@H]4CC(=O)CC[C@@]4(C)[C@H]3CC(=O)[C@@]21C
REMARK SMILES IDX 9 1 8 2 7 3 5 4 6 5 4 7 3 8 2 9 1 10 81 11 82 12 100 13
REMARK SMILES IDX 83 14 84 15 98 16 101 17 85 18 97 19 99 20 86 21 96 22 87 23
REMARK SMILES IDX 94 24 88 25 93 26 95 27 89 28 92 29 90 30 91 31 10 32 11 33
REMARK SMILES IDX 12 34 13 35 14 37 15 38 16 39 80 40 17 41 79 42 18 43 19 44
REMARK SMILES IDX 20 45 73 46 21 47 78 48 72 49 74 50 22 51 77 52 71 53 70 54
REMARK SMILES IDX 23 56 57 57 36 58 56 59 37 60 40 61 55 62 75 63 38 64 39 65
REMARK SMILES IDX 54 67 76 68 41 69 24 70 25 71 34 72 26 73 27 74 33 75 35 76
REMARK SMILES IDX 28 77 29 78 30 79 31 80 32 81 58 82 59 83 68 84 60 85 61 86
REMARK SMILES IDX 67 87 69 88 62 89 63 90 64 91 65 92 66 93 42 94 43 95 52 96
REMARK SMILES IDX 44 97 45 98 51 99 53 100 46 101 47 102 48 103 49 104 50 105
REMARK H PARENT 7 6 12 36 74 55 40 66
REMARK Flexibility Score: inf
ROOT
ATOM      1  C   UNL A   1      41.125  20.349  26.428  1.00  0.00     0.023 C 
ENDROOT
BRANCH   1   2
ATOM      2  C   UNL A   1      39.563  20.982  26.097  1.00  0.00     0.116 C 
BRANCH   2   3
ATOM      3  N   UNL A   1      39.100  22.409  26.290  1.00  0.00    -0.356 N 
ATOM      4  C   UNL A   1      38.041  23.247  26.107  1.00  0.00     0.220 C 
ATOM      5  O   UNL A   1      38.117  24.421  26.502  1.00  0.00    -0.275 OA
ATOM      6  H   UNL A   1      39.835  22.921  26.697  1.00  0.00     0.163 HD
BRANCH   4   7
ATOM      7  C   UNL A   1      36.842  22.824  25.342  1.00  0.00     0.100 C 
BRANCH   7   8
ATOM      8  C   UNL A   1      35.803  22.261  26.302  1.00  0.00     0.013 C 
BRANCH   8   9
ATOM      9  C   UNL A   1      34.934  21.134  25.664  1.00  0.00    -0.010 C 
ATOM     10  C   UNL A   1      36.097  20.264  25.001  1.00  0.00     0.008 C 
BRANCH   9  11
ATOM     11  C   UNL A   1      33.281  21.710  25.268  1.00  0.00     0.005 C 
ATOM     12  C   UNL A   1      33.074  21.358  23.742  1.00  0.00     0.005 C 
ATOM     13  C   UNL A   1      32.052  22.987  25.429  1.00  0.00     0.032 C 
ATOM     14  C   UNL A   1      31.994  22.280  23.138  1.00  0.00     0.005 C 
ATOM     15  C   UNL A   1      32.053  23.554  23.977  1.00  0.00     0.006 C 
ATOM     16  C   UNL A   1      31.753  24.256  26.367  1.00  0.00     0.139 C 
ATOM     17  C   UNL A   1      30.720  22.203  25.707  1.00  0.00     0.020 C 
ATOM     18  C   UNL A   1      31.206  24.832  23.548  1.00  0.00    -0.003 C 
ATOM     19  C   UNL A   1      30.798  25.342  25.868  1.00  0.00     0.080 C 
ATOM     20  O   UNL A   1      32.076  24.370  27.551  1.00  0.00    -0.299 OA
ATOM     21  C   UNL A   1      31.717  25.368  22.217  1.00  0.00     0.004 C 
ATOM     22  C   UNL A   1      31.370  25.946  24.605  1.00  0.00     0.006 C 
ATOM     23  C   UNL A   1      31.407  26.798  21.814  1.00  0.00     0.005 C 
ATOM     24  C   UNL A   1      30.920  27.421  24.229  1.00  0.00    -0.025 C 
ATOM     25  C   UNL A   1      31.666  27.819  22.929  1.00  0.00     0.002 C 
ATOM     26  C   UNL A   1      29.389  27.626  24.070  1.00  0.00     0.015 C 
ATOM     27  C   UNL A   1      31.404  28.361  25.381  1.00  0.00     0.012 C 
ATOM     28  C   UNL A   1      31.304  29.228  22.451  1.00  0.00     0.079 C 
ATOM     29  C   UNL A   1      28.875  28.401  22.841  1.00  0.00     0.076 C 
ATOM     30  C   UNL A   1      29.844  29.311  22.113  1.00  0.00     0.133 C 
ATOM     31  O   UNL A   1      29.449  30.097  21.250  1.00  0.00    -0.300 OA
ENDBRANCH   9  11
ENDBRANCH   8   9
ENDBRANCH   7   8
ENDBRANCH   4   7
ENDBRANCH   2   3
ENDBRANCH   1   2
BRANCH   1  32
ATOM     32  C   UNL A   1      42.502  21.050  27.043  1.00  0.00     0.023 C 
BRANCH  32  33
ATOM     33  C   UNL A   1      42.963  22.570  27.295  1.00  0.00     0.116 C 
BRANCH  33  34
ATOM     34  N   UNL A   1      42.843  23.565  26.245  1.00  0.00    -0.352 N 
ATOM     35  C   UNL A   1      42.387  24.884  26.167  1.00  0.00     0.251 C 
ATOM     36  H   UNL A   1      43.160  23.229  25.376  1.00  0.00     0.163 HD
ATOM     37  O   UNL A   1      42.220  25.268  25.001  1.00  0.00    -0.269 OA
BRANCH  35  38
ATOM     38  C   UNL A   1      42.154  25.929  27.264  1.00  0.00     0.039 A 
ATOM     39  C   UNL A   1      41.077  25.694  28.158  1.00  0.00     0.014 A 
ATOM     40  C   UNL A   1      42.814  27.142  27.452  1.00  0.00     0.014 A 
ATOM     41  C   UNL A   1      40.658  26.628  29.143  1.00  0.00     0.010 A 
ATOM     42  C   UNL A   1      42.355  28.121  28.386  1.00  0.00     0.010 A 
ATOM     43  C   UNL A   1      41.286  27.872  29.269  1.00  0.00    -0.014 A 
BRANCH  43  44
ATOM     44  C   UNL A   1      41.136  28.692  30.526  1.00  0.00     0.031 A 
ATOM     45  C   UNL A   1      41.930  28.517  31.805  1.00  0.00     0.074 A 
ATOM     46  C   UNL A   1      40.163  29.628  30.486  1.00  0.00     0.049 A 
ATOM     47  N   UNL A   1      41.881  29.231  32.909  1.00  0.00    -0.248 NA
ATOM     48  C   UNL A   1      42.878  27.399  31.874  1.00  0.00     0.031 C 
ATOM     49  C   UNL A   1      39.304  29.870  29.322  1.00  0.00     0.029 A 
ATOM     50  N   UNL A   1      39.706  30.521  31.421  1.00  0.00    -0.354 N 
ATOM     51  C   UNL A   1      42.795  28.664  33.800  1.00  0.00     0.074 A 
ATOM     52  C   UNL A   1      43.360  27.518  33.112  1.00  0.00     0.031 C 
ATOM     53  C   UNL A   1      38.409  30.818  29.618  1.00  0.00     0.029 A 
ATOM     54  C   UNL A   1      38.639  31.271  30.983  1.00  0.00     0.049 A 
ATOM     55  H   UNL A   1      40.105  30.618  32.316  1.00  0.00     0.167 HD
ATOM     56  C   UNL A   1      43.127  29.066  35.060  1.00  0.00     0.037 A 
ATOM     57  C   UNL A   1      37.922  32.234  31.591  1.00  0.00     0.037 A 
ATOM     58  C   UNL A   1      42.530  30.204  35.734  1.00  0.00     0.049 A 
ATOM     59  C   UNL A   1      38.327  32.678  32.963  1.00  0.00     0.074 A 
ATOM     60  C   UNL A   1      42.850  30.746  36.971  1.00  0.00     0.029 A 
ATOM     61  N   UNL A   1      41.477  30.964  35.239  1.00  0.00    -0.354 N 
ATOM     62  N   UNL A   1      39.281  32.207  33.729  1.00  0.00    -0.248 NA
ATOM     63  C   UNL A   1      37.584  33.804  33.540  1.00  0.00     0.031 C 
ATOM     64  C   UNL A   1      41.957  31.791  37.244  1.00  0.00     0.029 A 
ATOM     65  C   UNL A   1      41.116  31.943  36.154  1.00  0.00     0.049 A 
ATOM     66  H   UNL A   1      41.048  30.826  34.364  1.00  0.00     0.167 HD
ATOM     67  C   UNL A   1      39.274  32.999  34.869  1.00  0.00     0.074 A 
ATOM     68  C   UNL A   1      38.230  33.987  34.683  1.00  0.00     0.031 C 
ATOM     69  C   UNL A   1      40.066  32.915  35.966  1.00  0.00     0.037 A 
BRANCH  56  70
ATOM     70  C   UNL A   1      44.191  28.293  35.821  1.00  0.00     0.058 A 
ATOM     71  C   UNL A   1      45.552  28.629  35.733  1.00  0.00     0.135 A 
ATOM     72  C   UNL A   1      43.843  27.274  36.729  1.00  0.00     0.135 A 
ATOM     73  F   UNL A   1      45.953  29.605  34.904  1.00  0.00    -0.206 F 
ATOM     74  C   UNL A   1      46.527  27.964  36.480  1.00  0.00     0.059 A 
ATOM     75  C   UNL A   1      44.797  26.612  37.505  1.00  0.00     0.059 A 
ATOM     76  F   UNL A   1      42.558  26.918  36.885  1.00  0.00    -0.206 F 
ATOM     77  C   UNL A   1      46.140  26.953  37.361  1.00  0.00     0.060 A 
BRANCH  77  78
ATOM     78  S   UNL A   1      47.419  26.096  38.312  1.00  0.00     0.124 S 
ATOM     79  O   UNL A   1      46.816  26.055  39.640  1.00  0.00    -0.237 OA
ATOM     80  O   UNL A   1      47.520  24.815  37.621  1.00  0.00    -0.237 OA
ATOM     81  O   UNL A   1      48.584  26.967  38.182  1.00  0.00    -0.744 OA
ENDBRANCH  77  78
ENDBRANCH  56  70
BRANCH  57  82
ATOM     82  C   UNL A   1      36.807  32.883  30.853  1.00  0.00     0.058 A 
ATOM     83  C   UNL A   1      35.473  32.568  31.147  1.00  0.00     0.135 A 
ATOM     84  C   UNL A   1      37.049  33.882  29.896  1.00  0.00     0.135 A 
ATOM     85  F   UNL A   1      35.192  31.630  32.064  1.00  0.00    -0.206 F 
ATOM     86  C   UNL A   1      34.416  33.204  30.504  1.00  0.00     0.059 A 
ATOM     87  C   UNL A   1      36.009  34.551  29.259  1.00  0.00     0.059 A 
ATOM     88  F   UNL A   1      38.309  34.247  29.607  1.00  0.00    -0.206 F 
ATOM     89  C   UNL A   1      34.695  34.196  29.563  1.00  0.00     0.060 A 
BRANCH  89  90
ATOM     90  S   UNL A   1      33.313  35.044  28.769  1.00  0.00     0.124 S 
ATOM     91  O   UNL A   1      32.741  33.977  27.959  1.00  0.00    -0.237 OA
ATOM     92  O   UNL A   1      32.518  35.474  29.915  1.00  0.00    -0.237 OA
ATOM     93  O   UNL A   1      33.963  36.121  28.026  1.00  0.00    -0.744 OA
ENDBRANCH  89  90
ENDBRANCH  57  82
BRANCH  69  94
ATOM     94  C   UNL A   1      39.835  33.936  37.048  1.00  0.00     0.058 A 
ATOM     95  C   UNL A   1      40.419  35.211  36.996  1.00  0.00     0.135 A 
ATOM     96  C   UNL A   1      39.007  33.638  38.143  1.00  0.00     0.135 A 
ATOM     97  F   UNL A   1      41.232  35.542  35.979  1.00  0.00    -0.206 F 
ATOM     98  C   UNL A   1      40.211  36.149  38.001  1.00  0.00     0.059 A 
ATOM     99  C   UNL A   1      38.762  34.571  39.146  1.00  0.00     0.059 A 
ATOM    100  F   UNL A   1      38.424  32.434  38.243  1.00  0.00    -0.206 F 
ATOM    101  C   UNL A   1      39.378  35.820  39.073  1.00  0.00     0.060 A 
BRANCH 101 102
ATOM    102  S   UNL A   1      39.091  37.056  40.356  1.00  0.00     0.124 S 
ATOM    103  O   UNL A   1      38.524  38.157  39.582  1.00  0.00    -0.237 OA
ATOM    104  O   UNL A   1      38.166  36.369  41.251  1.00  0.00    -0.237 OA
ATOM    105  O   UNL A   1      40.423  37.295  40.904  1.00  0.00    -0.744 OA
ENDBRANCH 101 102
ENDBRANCH  69  94
ENDBRANCH  43  44
ENDBRANCH  35  38
ENDBRANCH  33  34
ENDBRANCH  32  33
ENDBRANCH   1  32
TORSDOF 17
ENDMDL
MODEL 3
REMARK VINA RESULT:     -14.2      0.689      7.893
REMARK SMILES C[C@@H](CCC(=O)NCCCCNC(=O)c1ccc(-c2c3nc(c(-c4c(F)cc(S(=O)(=O)[O-])cc4F)c4ccc([nH]4)c(-c4c(F)cc(S(=O)(=O)[O-])cc4F)c4nc(c(-c5c(F)cc(S(=O)(=O)[O-])cc5F)c5ccc2[nH]5)C=C4)C=C3)cc1)[C@@H]1CC[C@H]2[C@@H]3CC[C@H]4CC(=O)CC[C@@]4(C)[C@H]3CC(=O)[C@@]21C
REMARK SMILES IDX 9 1 8 2 7 3 5 4 6 5 4 7 3 8 2 9 1 10 81 11 82 12 100 13
REMARK SMILES IDX 83 14 84 15 98 16 101 17 85 18 97 19 99 20 86 21 96 22 87 23
REMARK SMILES IDX 94 24 88 25 93 26 95 27 89 28 92 29 90 30 91 31 10 32 11 33
REMARK SMILES IDX 12 34 13 35 14 37 15 38 16 39 80 40 17 41 79 42 18 43 19 44
REMARK SMILES IDX 20 45 73 46 21 47 78 48 72 49 74 50 22 51 77 52 71 53 70 54
REMARK SMILES IDX 23 56 57 57 36 58 56 59 37 60 40 61 55 62 75 63 38 64 39 65
REMARK SMILES IDX 54 67 76 68 41 69 24 70 25 71 34 72 26 73 27 74 33 75 35 76
REMARK SMILES IDX 28 77 29 78 30 79 31 80 32 81 58 82 59 83 68 84 60 85 61 86
REMARK SMILES IDX 67 87 69 88 62 89 63 90 64 91 65 92 66 93 42 94 43 95 52 96
REMARK SMILES IDX 44 97 45 98 51 99 53 100 46 101 47 102 48 103 49 104 50 105
REMARK H PARENT 7 6 12 36 74 55 40 66
REMARK Flexibility Score: inf
ROOT
ATOM      1  C   UNL A   1      31.992  31.088  26.894  1.00  0.00     0.023 C 
ENDROOT
BRANCH   1   2
ATOM      2  C   UNL A   1      31.063  30.594  25.537  1.00  0.00     0.116 C 
BRANCH   2   3
ATOM      3  N   UNL A   1      30.216  31.474  24.645  1.00  0.00    -0.356 N 
ATOM      4  C   UNL A   1      29.105  31.480  23.854  1.00  0.00     0.220 C 
ATOM      5  O   UNL A   1      28.742  32.541  23.322  1.00  0.00    -0.275 OA
ATOM      6  H   UNL A   1      30.613  32.375  24.630  1.00  0.00     0.163 HD
BRANCH   4   7
ATOM      7  C   UNL A   1      28.387  30.226  23.518  1.00  0.00     0.100 C 
BRANCH   7   8
ATOM      8  C   UNL A   1      29.175  29.459  22.466  1.00  0.00     0.013 C 
BRANCH   8   9
ATOM      9  C   UNL A   1      29.559  28.019  22.926  1.00  0.00    -0.010 C 
ATOM     10  C   UNL A   1      28.197  27.616  23.656  1.00  0.00     0.008 C 
BRANCH   9  11
ATOM     11  C   UNL A   1      31.328  27.847  23.170  1.00  0.00     0.005 C 
ATOM     12  C   UNL A   1      31.907  27.461  21.752  1.00  0.00     0.005 C 
ATOM     13  C   UNL A   1      32.657  27.240  24.187  1.00  0.00     0.032 C 
ATOM     14  C   UNL A   1      33.256  26.732  21.921  1.00  0.00     0.005 C 
ATOM     15  C   UNL A   1      33.175  26.072  23.295  1.00  0.00     0.006 C 
ATOM     16  C   UNL A   1      32.882  26.738  25.696  1.00  0.00     0.139 C 
ATOM     17  C   UNL A   1      33.696  28.417  24.201  1.00  0.00     0.020 C 
ATOM     18  C   UNL A   1      34.315  25.065  23.765  1.00  0.00    -0.003 C 
ATOM     19  C   UNL A   1      34.112  25.887  26.021  1.00  0.00     0.080 C 
ATOM     20  O   UNL A   1      32.254  27.119  26.685  1.00  0.00    -0.299 OA
ATOM     21  C   UNL A   1      34.312  23.828  22.876  1.00  0.00     0.004 C 
ATOM     22  C   UNL A   1      34.044  24.609  25.216  1.00  0.00     0.006 C 
ATOM     23  C   UNL A   1      34.965  22.549  23.367  1.00  0.00     0.005 C 
ATOM     24  C   UNL A   1      34.828  23.348  25.775  1.00  0.00    -0.025 C 
ATOM     25  C   UNL A   1      34.571  22.170  24.800  1.00  0.00     0.002 C 
ATOM     26  C   UNL A   1      36.351  23.559  25.994  1.00  0.00     0.015 C 
ATOM     27  C   UNL A   1      34.197  22.987  27.159  1.00  0.00     0.012 C 
ATOM     28  C   UNL A   1      35.291  20.887  25.225  1.00  0.00     0.079 C 
ATOM     29  C   UNL A   1      37.324  22.481  25.480  1.00  0.00     0.076 C 
ATOM     30  C   UNL A   1      36.779  21.091  25.220  1.00  0.00     0.133 C 
ATOM     31  O   UNL A   1      37.535  20.145  24.995  1.00  0.00    -0.300 OA
ENDBRANCH   9  11
ENDBRANCH   8   9
ENDBRANCH   7   8
ENDBRANCH   4   7
ENDBRANCH   2   3
ENDBRANCH   1   2
BRANCH   1  32
ATOM     32  C   UNL A   1      33.634  31.159  27.152  1.00  0.00     0.023 C 
BRANCH  32  33
ATOM     33  C   UNL A   1      34.725  30.110  27.693  1.00  0.00     0.116 C 
BRANCH  33  34
ATOM     34  N   UNL A   1      35.174  30.153  29.073  1.00  0.00    -0.352 N 
ATOM     35  C   UNL A   1      36.344  29.802  29.754  1.00  0.00     0.251 C 
ATOM     36  H   UNL A   1      34.487  30.517  29.677  1.00  0.00     0.163 HD
ATOM     37  O   UNL A   1      36.192  29.763  30.983  1.00  0.00    -0.269 OA
BRANCH  35  38
ATOM     38  C   UNL A   1      37.766  29.553  29.239  1.00  0.00     0.039 A 
ATOM     39  C   UNL A   1      38.798  29.483  30.209  1.00  0.00     0.014 A 
ATOM     40  C   UNL A   1      38.200  29.472  27.917  1.00  0.00     0.014 A 
ATOM     41  C   UNL A   1      40.177  29.385  29.881  1.00  0.00     0.010 A 
ATOM     42  C   UNL A   1      39.587  29.451  27.572  1.00  0.00     0.010 A 
ATOM     43  C   UNL A   1      40.601  29.378  28.548  1.00  0.00    -0.014 A 
BRANCH  43  44
ATOM     44  C   UNL A   1      41.975  28.884  28.174  1.00  0.00     0.031 A 
ATOM     45  C   UNL A   1      42.345  27.456  27.825  1.00  0.00     0.074 A 
ATOM     46  C   UNL A   1      42.950  29.819  28.210  1.00  0.00     0.049 A 
ATOM     47  N   UNL A   1      43.510  26.977  27.442  1.00  0.00    -0.248 NA
ATOM     48  C   UNL A   1      41.300  26.431  27.937  1.00  0.00     0.031 C 
ATOM     49  C   UNL A   1      42.726  31.224  28.566  1.00  0.00     0.029 A 
ATOM     50  N   UNL A   1      44.300  29.750  27.979  1.00  0.00    -0.354 N 
ATOM     51  C   UNL A   1      43.341  25.603  27.254  1.00  0.00     0.074 A 
ATOM     52  C   UNL A   1      41.960  25.322  27.602  1.00  0.00     0.031 C 
ATOM     53  C   UNL A   1      43.894  31.875  28.562  1.00  0.00     0.029 A 
ATOM     54  C   UNL A   1      44.949  30.947  28.183  1.00  0.00     0.049 A 
ATOM     55  H   UNL A   1      44.759  28.927  27.694  1.00  0.00     0.167 HD
ATOM     56  C   UNL A   1      44.248  24.677  26.830  1.00  0.00     0.037 A 
ATOM     57  C   UNL A   1      46.246  31.283  28.064  1.00  0.00     0.037 A 
ATOM     58  C   UNL A   1      45.630  24.981  26.509  1.00  0.00     0.049 A 
ATOM     59  C   UNL A   1      47.216  30.257  27.567  1.00  0.00     0.074 A 
ATOM     60  C   UNL A   1      46.606  24.141  25.993  1.00  0.00     0.029 A 
ATOM     61  N   UNL A   1      46.239  26.217  26.691  1.00  0.00    -0.354 N 
ATOM     62  N   UNL A   1      46.999  28.998  27.274  1.00  0.00    -0.248 NA
ATOM     63  C   UNL A   1      48.598  30.701  27.352  1.00  0.00     0.031 C 
ATOM     64  C   UNL A   1      47.813  24.851  25.919  1.00  0.00     0.029 A 
ATOM     65  C   UNL A   1      47.578  26.152  26.331  1.00  0.00     0.049 A 
ATOM     66  H   UNL A   1      45.785  27.023  27.028  1.00  0.00     0.167 HD
ATOM     67  C   UNL A   1      48.210  28.504  26.809  1.00  0.00     0.074 A 
ATOM     68  C   UNL A   1      49.151  29.607  26.848  1.00  0.00     0.031 C 
ATOM     69  C   UNL A   1      48.511  27.252  26.385  1.00  0.00     0.037 A 
BRANCH  56  70
ATOM     70  C   UNL A   1      43.803  23.233  26.669  1.00  0.00     0.058 A 
ATOM     71  C   UNL A   1      43.502  22.426  27.778  1.00  0.00     0.135 A 
ATOM     72  C   UNL A   1      43.573  22.678  25.395  1.00  0.00     0.135 A 
ATOM     73  F   UNL A   1      43.678  22.897  29.023  1.00  0.00    -0.206 F 
ATOM     74  C   UNL A   1      43.032  21.119  27.635  1.00  0.00     0.059 A 
ATOM     75  C   UNL A   1      43.079  21.383  25.227  1.00  0.00     0.059 A 
ATOM     76  F   UNL A   1      43.813  23.401  24.290  1.00  0.00    -0.206 F 
ATOM     77  C   UNL A   1      42.827  20.604  26.355  1.00  0.00     0.060 A 
BRANCH  77  78
ATOM     78  S   UNL A   1      42.226  18.905  26.190  1.00  0.00     0.124 S 
ATOM     79  O   UNL A   1      43.130  18.373  25.175  1.00  0.00    -0.237 OA
ATOM     80  O   UNL A   1      42.405  18.375  27.537  1.00  0.00    -0.237 OA
ATOM     81  O   UNL A   1      40.839  19.071  25.764  1.00  0.00    -0.744 OA
ENDBRANCH  77  78
ENDBRANCH  56  70
BRANCH  57  82
ATOM     82  C   UNL A   1      46.662  32.682  28.350  1.00  0.00     0.058 A 
ATOM     83  C   UNL A   1      46.590  33.669  27.358  1.00  0.00     0.135 A 
ATOM     84  C   UNL A   1      47.066  33.074  29.637  1.00  0.00     0.135 A 
ATOM     85  F   UNL A   1      46.196  33.344  26.117  1.00  0.00    -0.206 F 
ATOM     86  C   UNL A   1      46.924  34.993  27.622  1.00  0.00     0.059 A 
ATOM     87  C   UNL A   1      47.379  34.397  29.932  1.00  0.00     0.059 A 
ATOM     88  F   UNL A   1      47.114  32.173  30.632  1.00  0.00    -0.206 F 
ATOM     89  C   UNL A   1      47.315  35.347  28.913  1.00  0.00     0.060 A 
BRANCH  89  90
ATOM     90  S   UNL A   1      47.702  37.077  29.254  1.00  0.00     0.124 S 
ATOM     91  O   UNL A   1      47.807  37.624  27.907  1.00  0.00    -0.237 OA
ATOM     92  O   UNL A   1      46.542  37.504  30.030  1.00  0.00    -0.237 OA
ATOM     93  O   UNL A   1      48.954  37.000  30.003  1.00  0.00    -0.744 OA
ENDBRANCH  89  90
ENDBRANCH  57  82
BRANCH  69  94
ATOM     94  C   UNL A   1      49.922  27.016  25.916  1.00  0.00     0.058 A 
ATOM     95  C   UNL A   1      50.305  27.246  24.585  1.00  0.00     0.135 A 
ATOM     96  C   UNL A   1      50.906  26.570  26.813  1.00  0.00     0.135 A 
ATOM     97  F   UNL A   1      49.400  27.657  23.682  1.00  0.00    -0.206 F 
ATOM     98  C   UNL A   1      51.606  27.018  24.153  1.00  0.00     0.059 A 
ATOM     99  C   UNL A   1      52.222  26.364  26.409  1.00  0.00     0.059 A 
ATOM    100  F   UNL A   1      50.594  26.335  28.097  1.00  0.00    -0.206 F 
ATOM    101  C   UNL A   1      52.560  26.578  25.073  1.00  0.00     0.060 A 
BRANCH 101 102
ATOM    102  S   UNL A   1      54.253  26.317  24.507  1.00  0.00     0.124 S 
ATOM    103  O   UNL A   1      54.941  27.462  25.096  1.00  0.00    -0.237 OA
ATOM    104  O   UNL A   1      54.579  25.017  25.084  1.00  0.00    -0.237 OA
ATOM    105  O   UNL A   1      54.133  26.338  23.052  1.00  0.00    -0.744 OA
ENDBRANCH 101 102
ENDBRANCH  69  94
ENDBRANCH  43  44
ENDBRANCH  35  38
ENDBRANCH  33  34
ENDBRANCH  32  33
ENDBRANCH   1  32
TORSDOF 17
ENDMDL
