MODEL 1
REMARK VINA RESULT:     -12.2      0.000      0.000
REMARK SMILES O=C(CCC(=O)N1CCC(c2nnc3ccccn23)CC1)NCCCCNC(=O)c1ccc(-c2c3nc(c(-c4c(F)cc(S(=O)(=O)[O-])cc4F)c4ccc([nH]4)c(-c4c(F)cc(S(=O)(=O)[O-])cc4F)c4nc(c(-c5c(F)cc(S(=O)(=O)[O-])cc5F)c5ccc2[nH]5)C=C4)C=C3)cc1
REMARK SMILES IDX 24 1 23 2 22 3 1 4 2 5 3 7 4 8 5 9 6 10 7 11 8 12 21 13 9 14
REMARK SMILES IDX 20 15 10 16 11 17 12 18 19 19 13 20 14 21 18 22 15 23 17 24
REMARK SMILES IDX 16 25 25 26 26 27 27 28 28 29 29 31 30 32 31 33 95 34 32 35
REMARK SMILES IDX 94 36 33 37 34 38 35 39 88 40 36 41 93 42 87 43 89 44 37 45
REMARK SMILES IDX 92 46 86 47 85 48 38 50 72 51 51 52 71 53 52 54 55 55 70 56
REMARK SMILES IDX 90 57 53 58 54 59 69 61 91 62 56 63 39 64 40 65 49 66 41 67
REMARK SMILES IDX 42 68 48 69 50 70 43 71 44 72 45 73 46 74 47 75 73 76 74 77
REMARK SMILES IDX 83 78 75 79 76 80 82 81 84 82 77 83 78 84 79 85 80 86 81 87
REMARK SMILES IDX 57 88 58 89 67 90 59 91 60 92 66 93 68 94 61 95 62 96 63 97
REMARK SMILES IDX 64 98 65 99
REMARK H PARENT 22 6 27 30 89 49 55 60
REMARK Flexibility Score: inf
ROOT
ATOM      1  C   UNL A   1      44.586  20.468  24.991  1.00  0.00     0.023 C 
ENDROOT
BRANCH   1   2
ATOM      2  C   UNL A   1      43.350  19.649  25.427  1.00  0.00     0.116 C 
BRANCH   2   3
ATOM      3  N   UNL A   1      42.108  20.397  25.697  1.00  0.00    -0.356 N 
ATOM      4  O   UNL A   1      41.799  19.550  27.822  1.00  0.00    -0.275 OA
ATOM      5  C   UNL A   1      41.528  20.402  26.980  1.00  0.00     0.220 C 
ATOM      6  H   UNL A   1      41.679  20.902  24.968  1.00  0.00     0.163 HD
BRANCH   5   7
ATOM      7  C   UNL A   1      40.671  21.666  27.338  1.00  0.00     0.110 C 
BRANCH   7   8
ATOM      8  C   UNL A   1      39.719  22.178  26.193  1.00  0.00     0.110 C 
BRANCH   8   9
ATOM      9  C   UNL A   1      38.423  21.435  25.665  1.00  0.00     0.223 C 
ATOM     10  O   UNL A   1      38.503  20.292  25.215  1.00  0.00    -0.275 OA
ATOM     11  N   UNL A   1      37.188  22.039  25.858  1.00  0.00    -0.343 N 
ATOM     12  C   UNL A   1      35.861  21.396  25.796  1.00  0.00     0.120 C 
ATOM     13  C   UNL A   1      37.127  23.439  25.734  1.00  0.00     0.120 C 
ATOM     14  C   UNL A   1      34.921  21.987  24.677  1.00  0.00     0.033 C 
ATOM     15  C   UNL A   1      36.556  23.774  24.396  1.00  0.00     0.033 C 
ATOM     16  C   UNL A   1      35.088  23.512  24.624  1.00  0.00     0.062 C 
BRANCH  16  17
ATOM     17  C   UNL A   1      34.304  24.442  23.778  1.00  0.00     0.140 A 
ATOM     18  N   UNL A   1      34.325  24.523  22.452  1.00  0.00    -0.134 NA
ATOM     19  N   UNL A   1      33.614  25.529  24.337  1.00  0.00    -0.286 N 
ATOM     20  N   UNL A   1      33.633  25.622  21.900  1.00  0.00    -0.130 NA
ATOM     21  C   UNL A   1      33.154  26.395  22.856  1.00  0.00     0.160 A 
ATOM     22  C   UNL A   1      32.755  25.861  25.947  1.00  0.00     0.095 A 
ATOM     23  C   UNL A   1      31.787  27.602  22.952  1.00  0.00     0.050 A 
ATOM     24  C   UNL A   1      31.447  26.853  25.951  1.00  0.00     0.019 A 
ATOM     25  C   UNL A   1      30.922  27.790  24.371  1.00  0.00     0.005 A 
ENDBRANCH  16  17
ENDBRANCH   8   9
ENDBRANCH   7   8
ENDBRANCH   5   7
ENDBRANCH   2   3
ENDBRANCH   1   2
BRANCH   1  26
ATOM     26  C   UNL A   1      44.499  21.982  24.696  1.00  0.00     0.023 C 
BRANCH  26  27
ATOM     27  C   UNL A   1      44.326  22.961  25.868  1.00  0.00     0.116 C 
BRANCH  27  28
ATOM     28  N   UNL A   1      43.529  24.155  25.465  1.00  0.00    -0.352 N 
ATOM     29  C   UNL A   1      42.657  25.311  25.889  1.00  0.00     0.251 C 
ATOM     30  H   UNL A   1      43.604  24.215  24.485  1.00  0.00     0.163 HD
ATOM     31  O   UNL A   1      42.379  25.511  24.645  1.00  0.00    -0.269 OA
BRANCH  29  32
ATOM     32  C   UNL A   1      42.163  26.283  27.747  1.00  0.00     0.039 A 
ATOM     33  C   UNL A   1      42.867  27.399  28.454  1.00  0.00     0.014 A 
ATOM     34  C   UNL A   1      40.989  26.008  28.746  1.00  0.00     0.014 A 
ATOM     35  C   UNL A   1      42.559  28.017  29.621  1.00  0.00     0.010 A 
ATOM     36  C   UNL A   1      40.509  26.776  29.784  1.00  0.00     0.010 A 
ATOM     37  C   UNL A   1      41.324  27.793  30.159  1.00  0.00    -0.014 A 
BRANCH  37  38
ATOM     38  C   UNL A   1      41.058  28.659  31.249  1.00  0.00     0.031 A 
ATOM     39  C   UNL A   1      42.036  28.588  32.336  1.00  0.00     0.074 A 
ATOM     40  C   UNL A   1      40.151  29.602  30.973  1.00  0.00     0.049 A 
ATOM     41  N   UNL A   1      42.072  29.312  33.400  1.00  0.00    -0.248 NA
ATOM     42  C   UNL A   1      43.110  27.573  32.226  1.00  0.00     0.031 C 
ATOM     43  C   UNL A   1      39.335  29.683  29.741  1.00  0.00     0.029 A 
ATOM     44  N   UNL A   1      39.827  30.710  31.665  1.00  0.00    -0.354 N 
ATOM     45  C   UNL A   1      43.128  28.805  34.121  1.00  0.00     0.074 A 
ATOM     46  C   UNL A   1      43.701  27.699  33.399  1.00  0.00     0.031 C 
ATOM     47  C   UNL A   1      38.588  30.791  29.790  1.00  0.00     0.029 A 
ATOM     48  C   UNL A   1      38.813  31.414  31.081  1.00  0.00     0.049 A 
ATOM     49  H   UNL A   1      40.272  30.983  32.500  1.00  0.00     0.167 HD
ATOM     50  C   UNL A   1      43.536  29.271  35.309  1.00  0.00     0.037 A 
ATOM     51  C   UNL A   1      38.105  32.405  31.625  1.00  0.00     0.037 A 
ATOM     52  C   UNL A   1      42.870  30.374  35.935  1.00  0.00     0.049 A 
ATOM     53  C   UNL A   1      38.521  32.818  33.001  1.00  0.00     0.074 A 
ATOM     54  C   UNL A   1      43.135  30.951  37.154  1.00  0.00     0.029 A 
ATOM     55  N   UNL A   1      41.788  31.058  35.379  1.00  0.00    -0.354 N 
ATOM     56  N   UNL A   1      39.492  32.333  33.745  1.00  0.00    -0.248 NA
ATOM     57  C   UNL A   1      37.762  33.901  33.612  1.00  0.00     0.031 C 
ATOM     58  C   UNL A   1      42.166  31.932  37.370  1.00  0.00     0.029 A 
ATOM     59  C   UNL A   1      41.353  32.037  36.246  1.00  0.00     0.049 A 
ATOM     60  H   UNL A   1      41.394  30.870  34.496  1.00  0.00     0.167 HD
ATOM     61  C   UNL A   1      39.485  33.076  34.911  1.00  0.00     0.074 A 
ATOM     62  C   UNL A   1      38.419  34.054  34.753  1.00  0.00     0.031 C 
ATOM     63  C   UNL A   1      40.276  32.975  36.010  1.00  0.00     0.037 A 
BRANCH  50  64
ATOM     64  C   UNL A   1      44.643  28.536  35.976  1.00  0.00     0.058 A 
ATOM     65  C   UNL A   1      45.993  28.862  35.767  1.00  0.00     0.135 A 
ATOM     66  C   UNL A   1      44.343  27.456  36.817  1.00  0.00     0.135 A 
ATOM     67  F   UNL A   1      46.333  29.843  34.914  1.00  0.00    -0.206 F 
ATOM     68  C   UNL A   1      47.010  28.142  36.376  1.00  0.00     0.059 A 
ATOM     69  C   UNL A   1      45.342  26.749  37.469  1.00  0.00     0.059 A 
ATOM     70  F   UNL A   1      43.070  27.071  36.999  1.00  0.00    -0.206 F 
ATOM     71  C   UNL A   1      46.671  27.099  37.241  1.00  0.00     0.060 A 
BRANCH  71  72
ATOM     72  S   UNL A   1      48.003  26.224  38.076  1.00  0.00     0.124 S 
ATOM     73  O   UNL A   1      47.287  25.095  38.664  1.00  0.00    -0.237 OA
ATOM     74  O   UNL A   1      48.895  25.902  36.969  1.00  0.00    -0.237 OA
ATOM     75  O   UNL A   1      48.512  27.207  39.027  1.00  0.00    -0.744 OA
ENDBRANCH  71  72
ENDBRANCH  50  64
BRANCH  51  76
ATOM     76  C   UNL A   1      36.963  32.974  30.889  1.00  0.00     0.058 A 
ATOM     77  C   UNL A   1      35.654  32.671  31.271  1.00  0.00     0.135 A 
ATOM     78  C   UNL A   1      37.155  33.882  29.833  1.00  0.00     0.135 A 
ATOM     79  F   UNL A   1      35.430  31.832  32.294  1.00  0.00    -0.206 F 
ATOM     80  C   UNL A   1      34.567  33.219  30.606  1.00  0.00     0.059 A 
ATOM     81  C   UNL A   1      36.085  34.473  29.179  1.00  0.00     0.059 A 
ATOM     82  F   UNL A   1      38.396  34.235  29.460  1.00  0.00    -0.206 F 
ATOM     83  C   UNL A   1      34.794  34.119  29.563  1.00  0.00     0.060 A 
BRANCH  83  84
ATOM     84  S   UNL A   1      33.366  34.831  28.726  1.00  0.00     0.124 S 
ATOM     85  O   UNL A   1      32.438  35.008  29.836  1.00  0.00    -0.237 OA
ATOM     86  O   UNL A   1      33.927  36.054  28.162  1.00  0.00    -0.237 OA
ATOM     87  O   UNL A   1      32.998  33.807  27.753  1.00  0.00    -0.744 OA
ENDBRANCH  83  84
ENDBRANCH  51  76
BRANCH  63  88
ATOM     88  C   UNL A   1      40.036  33.989  37.084  1.00  0.00     0.058 A 
ATOM     89  C   UNL A   1      40.591  35.275  37.026  1.00  0.00     0.135 A 
ATOM     90  C   UNL A   1      39.190  33.673  38.160  1.00  0.00     0.135 A 
ATOM     91  F   UNL A   1      41.412  35.615  36.019  1.00  0.00    -0.206 F 
ATOM     92  C   UNL A   1      40.346  36.205  38.024  1.00  0.00     0.059 A 
ATOM     93  C   UNL A   1      38.890  34.606  39.139  1.00  0.00     0.059 A 
ATOM     94  F   UNL A   1      38.626  32.458  38.246  1.00  0.00    -0.206 F 
ATOM     95  C   UNL A   1      39.485  35.863  39.069  1.00  0.00     0.060 A 
BRANCH  95  96
ATOM     96  S   UNL A   1      39.139  37.102  40.330  1.00  0.00     0.124 S 
ATOM     97  O   UNL A   1      38.508  38.155  39.540  1.00  0.00    -0.237 OA
ATOM     98  O   UNL A   1      38.259  36.375  41.239  1.00  0.00    -0.237 OA
ATOM     99  O   UNL A   1      40.459  37.423  40.863  1.00  0.00    -0.744 OA
ENDBRANCH  95  96
ENDBRANCH  63  88
ENDBRANCH  37  38
ENDBRANCH  29  32
ENDBRANCH  27  28
ENDBRANCH  26  27
ENDBRANCH   1  26
TORSDOF 17
ENDMDL
MODEL 2
REMARK VINA RESULT:     -12.2      0.824      8.199
REMARK SMILES O=C(CCC(=O)N1CCC(c2nnc3ccccn23)CC1)NCCCCNC(=O)c1ccc(-c2c3nc(c(-c4c(F)cc(S(=O)(=O)[O-])cc4F)c4ccc([nH]4)c(-c4c(F)cc(S(=O)(=O)[O-])cc4F)c4nc(c(-c5c(F)cc(S(=O)(=O)[O-])cc5F)c5ccc2[nH]5)C=C4)C=C3)cc1
REMARK SMILES IDX 24 1 23 2 22 3 1 4 2 5 3 7 4 8 5 9 6 10 7 11 8 12 21 13 9 14
REMARK SMILES IDX 20 15 10 16 11 17 12 18 19 19 13 20 14 21 18 22 15 23 17 24
REMARK SMILES IDX 16 25 25 26 26 27 27 28 28 29 29 31 30 32 31 33 95 34 32 35
REMARK SMILES IDX 94 36 33 37 34 38 35 39 88 40 36 41 93 42 87 43 89 44 37 45
REMARK SMILES IDX 92 46 86 47 85 48 38 50 72 51 51 52 71 53 52 54 55 55 70 56
REMARK SMILES IDX 90 57 53 58 54 59 69 61 91 62 56 63 39 64 40 65 49 66 41 67
REMARK SMILES IDX 42 68 48 69 50 70 43 71 44 72 45 73 46 74 47 75 73 76 74 77
REMARK SMILES IDX 83 78 75 79 76 80 82 81 84 82 77 83 78 84 79 85 80 86 81 87
REMARK SMILES IDX 57 88 58 89 67 90 59 91 60 92 66 93 68 94 61 95 62 96 63 97
REMARK SMILES IDX 64 98 65 99
REMARK H PARENT 22 6 27 30 89 49 55 60
REMARK Flexibility Score: inf
ROOT
ATOM      1  C   UNL A   1      44.917  21.665  24.476  1.00  0.00     0.023 C 
ENDROOT
BRANCH   1   2
ATOM      2  C   UNL A   1      44.089  20.718  25.374  1.00  0.00     0.116 C 
BRANCH   2   3
ATOM      3  N   UNL A   1      42.668  21.055  25.578  1.00  0.00    -0.356 N 
ATOM      4  O   UNL A   1      41.977  18.882  25.937  1.00  0.00    -0.275 OA
ATOM      5  C   UNL A   1      41.749  20.085  26.024  1.00  0.00     0.220 C 
ATOM      6  H   UNL A   1      42.358  21.972  25.401  1.00  0.00     0.163 HD
BRANCH   5   7
ATOM      7  C   UNL A   1      40.509  20.631  26.815  1.00  0.00     0.110 C 
BRANCH   7   8
ATOM      8  C   UNL A   1      39.471  21.446  25.957  1.00  0.00     0.110 C 
BRANCH   8   9
ATOM      9  C   UNL A   1      38.107  20.886  25.377  1.00  0.00     0.223 C 
ATOM     10  O   UNL A   1      38.065  19.767  24.862  1.00  0.00    -0.275 OA
ATOM     11  N   UNL A   1      36.945  21.614  25.594  1.00  0.00    -0.343 N 
ATOM     12  C   UNL A   1      35.555  21.129  25.485  1.00  0.00     0.120 C 
ATOM     13  C   UNL A   1      37.044  23.016  25.551  1.00  0.00     0.120 C 
ATOM     14  C   UNL A   1      34.704  21.884  24.394  1.00  0.00     0.033 C 
ATOM     15  C   UNL A   1      36.534  23.488  24.229  1.00  0.00     0.033 C 
ATOM     16  C   UNL A   1      35.043  23.381  24.430  1.00  0.00     0.062 C 
BRANCH  16  17
ATOM     17  C   UNL A   1      34.381  24.440  23.632  1.00  0.00     0.140 A 
ATOM     18  N   UNL A   1      34.149  24.426  22.324  1.00  0.00    -0.134 NA
ATOM     19  N   UNL A   1      34.139  25.714  24.172  1.00  0.00    -0.286 N 
ATOM     20  N   UNL A   1      33.679  25.638  21.778  1.00  0.00    -0.130 NA
ATOM     21  C   UNL A   1      33.633  26.577  22.703  1.00  0.00     0.160 A 
ATOM     22  C   UNL A   1      33.752  26.383  25.857  1.00  0.00     0.095 A 
ATOM     23  C   UNL A   1      32.692  28.130  22.897  1.00  0.00     0.050 A 
ATOM     24  C   UNL A   1      32.789  27.706  25.976  1.00  0.00     0.019 A 
ATOM     25  C   UNL A   1      32.220  28.650  24.415  1.00  0.00     0.005 A 
ENDBRANCH  16  17
ENDBRANCH   8   9
ENDBRANCH   7   8
ENDBRANCH   5   7
ENDBRANCH   2   3
ENDBRANCH   1   2
BRANCH   1  26
ATOM     26  C   UNL A   1      45.962  22.639  25.064  1.00  0.00     0.023 C 
BRANCH  26  27
ATOM     27  C   UNL A   1      45.507  24.036  25.517  1.00  0.00     0.116 C 
BRANCH  27  28
ATOM     28  N   UNL A   1      44.020  24.134  25.561  1.00  0.00    -0.352 N 
ATOM     29  C   UNL A   1      42.797  24.719  26.226  1.00  0.00     0.251 C 
ATOM     30  H   UNL A   1      43.686  23.561  24.833  1.00  0.00     0.163 HD
ATOM     31  O   UNL A   1      42.076  23.898  25.540  1.00  0.00    -0.269 OA
BRANCH  29  32
ATOM     32  C   UNL A   1      42.402  26.304  27.631  1.00  0.00     0.039 A 
ATOM     33  C   UNL A   1      41.478  26.322  28.809  1.00  0.00     0.014 A 
ATOM     34  C   UNL A   1      42.976  27.759  27.695  1.00  0.00     0.014 A 
ATOM     35  C   UNL A   1      41.228  27.314  29.699  1.00  0.00     0.010 A 
ATOM     36  C   UNL A   1      42.941  28.683  28.717  1.00  0.00     0.010 A 
ATOM     37  C   UNL A   1      42.070  28.389  29.714  1.00  0.00    -0.014 A 
BRANCH  37  38
ATOM     38  C   UNL A   1      41.823  29.237  30.823  1.00  0.00     0.031 A 
ATOM     39  C   UNL A   1      40.586  30.014  30.734  1.00  0.00     0.074 A 
ATOM     40  C   UNL A   1      42.587  28.961  31.886  1.00  0.00     0.049 A 
ATOM     41  N   UNL A   1      40.092  30.796  31.627  1.00  0.00    -0.248 NA
ATOM     42  C   UNL A   1      39.800  29.907  29.482  1.00  0.00     0.031 C 
ATOM     43  C   UNL A   1      43.717  28.005  31.915  1.00  0.00     0.029 A 
ATOM     44  N   UNL A   1      42.474  29.389  33.157  1.00  0.00    -0.354 N 
ATOM     45  C   UNL A   1      38.972  31.330  31.032  1.00  0.00     0.074 A 
ATOM     46  C   UNL A   1      38.861  30.810  29.693  1.00  0.00     0.031 C 
ATOM     47  C   UNL A   1      44.200  27.945  33.160  1.00  0.00     0.029 A 
ATOM     48  C   UNL A   1      43.476  28.918  33.957  1.00  0.00     0.049 A 
ATOM     49  H   UNL A   1      41.750  29.975  33.475  1.00  0.00     0.167 HD
ATOM     50  C   UNL A   1      38.138  32.202  31.614  1.00  0.00     0.037 A 
ATOM     51  C   UNL A   1      43.790  29.338  35.184  1.00  0.00     0.037 A 
ATOM     52  C   UNL A   1      38.367  32.658  32.952  1.00  0.00     0.049 A 
ATOM     53  C   UNL A   1      42.900  30.398  35.753  1.00  0.00     0.074 A 
ATOM     54  C   UNL A   1      37.638  33.566  33.681  1.00  0.00     0.029 A 
ATOM     55  N   UNL A   1      39.427  32.237  33.757  1.00  0.00    -0.354 N 
ATOM     56  N   UNL A   1      41.848  30.969  35.203  1.00  0.00    -0.248 NA
ATOM     57  C   UNL A   1      43.223  30.869  37.093  1.00  0.00     0.031 C 
ATOM     58  C   UNL A   1      38.298  33.752  34.897  1.00  0.00     0.029 A 
ATOM     59  C   UNL A   1      39.388  32.891  34.969  1.00  0.00     0.049 A 
ATOM     60  H   UNL A   1      40.103  31.570  33.496  1.00  0.00     0.167 HD
ATOM     61  C   UNL A   1      41.359  31.853  36.146  1.00  0.00     0.074 A 
ATOM     62  C   UNL A   1      42.228  31.717  37.306  1.00  0.00     0.031 C 
ATOM     63  C   UNL A   1      40.297  32.696  36.077  1.00  0.00     0.037 A 
BRANCH  50  64
ATOM     64  C   UNL A   1      37.029  32.734  30.777  1.00  0.00     0.058 A 
ATOM     65  C   UNL A   1      37.190  33.854  29.945  1.00  0.00     0.135 A 
ATOM     66  C   UNL A   1      35.768  32.128  30.840  1.00  0.00     0.135 A 
ATOM     67  F   UNL A   1      38.360  34.513  29.906  1.00  0.00    -0.206 F 
ATOM     68  C   UNL A   1      36.133  34.351  29.198  1.00  0.00     0.059 A 
ATOM     69  C   UNL A   1      34.708  32.583  30.070  1.00  0.00     0.059 A 
ATOM     70  F   UNL A   1      35.553  31.093  31.667  1.00  0.00    -0.206 F 
ATOM     71  C   UNL A   1      34.901  33.695  29.253  1.00  0.00     0.060 A 
BRANCH  71  72
ATOM     72  S   UNL A   1      33.563  34.313  28.221  1.00  0.00     0.124 S 
ATOM     73  O   UNL A   1      34.294  35.117  27.245  1.00  0.00    -0.237 OA
ATOM     74  O   UNL A   1      32.977  33.078  27.713  1.00  0.00    -0.237 OA
ATOM     75  O   UNL A   1      32.731  35.064  29.156  1.00  0.00    -0.744 OA
ENDBRANCH  71  72
ENDBRANCH  50  64
BRANCH  51  76
ATOM     76  C   UNL A   1      44.982  28.797  35.857  1.00  0.00     0.058 A 
ATOM     77  C   UNL A   1      44.885  27.659  36.662  1.00  0.00     0.135 A 
ATOM     78  C   UNL A   1      46.253  29.365  35.659  1.00  0.00     0.135 A 
ATOM     79  F   UNL A   1      43.694  27.070  36.850  1.00  0.00    -0.206 F 
ATOM     80  C   UNL A   1      46.002  27.120  37.282  1.00  0.00     0.059 A 
ATOM     81  C   UNL A   1      47.390  28.821  36.237  1.00  0.00     0.059 A 
ATOM     82  F   UNL A   1      46.401  30.435  34.861  1.00  0.00    -0.206 F 
ATOM     83  C   UNL A   1      47.250  27.708  37.062  1.00  0.00     0.060 A 
BRANCH  83  84
ATOM     84  S   UNL A   1      48.689  26.979  37.864  1.00  0.00     0.124 S 
ATOM     85  O   UNL A   1      49.590  28.124  37.938  1.00  0.00    -0.237 OA
ATOM     86  O   UNL A   1      48.127  26.525  39.132  1.00  0.00    -0.237 OA
ATOM     87  O   UNL A   1      49.090  25.919  36.945  1.00  0.00    -0.744 OA
ENDBRANCH  83  84
ENDBRANCH  51  76
BRANCH  63  88
ATOM     88  C   UNL A   1      40.006  33.482  37.318  1.00  0.00     0.058 A 
ATOM     89  C   UNL A   1      40.700  34.660  37.627  1.00  0.00     0.135 A 
ATOM     90  C   UNL A   1      38.976  33.065  38.177  1.00  0.00     0.135 A 
ATOM     91  F   UNL A   1      41.698  35.088  36.838  1.00  0.00    -0.206 F 
ATOM     92  C   UNL A   1      40.407  35.381  38.775  1.00  0.00     0.059 A 
ATOM     93  C   UNL A   1      38.632  33.801  39.299  1.00  0.00     0.059 A 
ATOM     94  F   UNL A   1      38.277  31.952  37.909  1.00  0.00    -0.206 F 
ATOM     95  C   UNL A   1      39.365  34.949  39.597  1.00  0.00     0.060 A 
BRANCH  95  96
ATOM     96  S   UNL A   1      38.966  35.927  41.055  1.00  0.00     0.124 S 
ATOM     97  O   UNL A   1      37.973  35.082  41.711  1.00  0.00    -0.237 OA
ATOM     98  O   UNL A   1      40.260  36.022  41.722  1.00  0.00    -0.237 OA
ATOM     99  O   UNL A   1      38.458  37.177  40.498  1.00  0.00    -0.744 OA
ENDBRANCH  95  96
ENDBRANCH  63  88
ENDBRANCH  37  38
ENDBRANCH  29  32
ENDBRANCH  27  28
ENDBRANCH  26  27
ENDBRANCH   1  26
TORSDOF 17
ENDMDL
MODEL 3
REMARK VINA RESULT:     -12.0      4.665     12.463
REMARK SMILES O=C(CCC(=O)N1CCC(c2nnc3ccccn23)CC1)NCCCCNC(=O)c1ccc(-c2c3nc(c(-c4c(F)cc(S(=O)(=O)[O-])cc4F)c4ccc([nH]4)c(-c4c(F)cc(S(=O)(=O)[O-])cc4F)c4nc(c(-c5c(F)cc(S(=O)(=O)[O-])cc5F)c5ccc2[nH]5)C=C4)C=C3)cc1
REMARK SMILES IDX 24 1 23 2 22 3 1 4 2 5 3 7 4 8 5 9 6 10 7 11 8 12 21 13 9 14
REMARK SMILES IDX 20 15 10 16 11 17 12 18 19 19 13 20 14 21 18 22 15 23 17 24
REMARK SMILES IDX 16 25 25 26 26 27 27 28 28 29 29 31 30 32 31 33 95 34 32 35
REMARK SMILES IDX 94 36 33 37 34 38 35 39 88 40 36 41 93 42 87 43 89 44 37 45
REMARK SMILES IDX 92 46 86 47 85 48 38 50 72 51 51 52 71 53 52 54 55 55 70 56
REMARK SMILES IDX 90 57 53 58 54 59 69 61 91 62 56 63 39 64 40 65 49 66 41 67
REMARK SMILES IDX 42 68 48 69 50 70 43 71 44 72 45 73 46 74 47 75 73 76 74 77
REMARK SMILES IDX 83 78 75 79 76 80 82 81 84 82 77 83 78 84 79 85 80 86 81 87
REMARK SMILES IDX 57 88 58 89 67 90 59 91 60 92 66 93 68 94 61 95 62 96 63 97
REMARK SMILES IDX 64 98 65 99
REMARK H PARENT 22 6 27 30 89 49 55 60
REMARK Flexibility Score: inf
ROOT
ATOM      1  C   UNL A   1      35.976  33.364  29.176  1.00  0.00     0.023 C 
ENDROOT
BRANCH   1   2
ATOM      2  C   UNL A   1      37.009  34.351  29.765  1.00  0.00     0.116 C 
BRANCH   2   3
ATOM      3  N   UNL A   1      37.515  34.066  31.120  1.00  0.00    -0.356 N 
ATOM      4  O   UNL A   1      35.743  35.046  32.228  1.00  0.00    -0.275 OA
ATOM      5  C   UNL A   1      36.718  34.301  32.258  1.00  0.00     0.220 C 
ATOM      6  H   UNL A   1      38.424  33.704  31.231  1.00  0.00     0.163 HD
BRANCH   5   7
ATOM      7  C   UNL A   1      37.030  33.406  33.507  1.00  0.00     0.110 C 
BRANCH   7   8
ATOM      8  C   UNL A   1      38.277  32.457  33.359  1.00  0.00     0.110 C 
BRANCH   8   9
ATOM      9  C   UNL A   1      39.561  32.465  34.287  1.00  0.00     0.223 C 
ATOM     10  O   UNL A   1      40.086  33.532  34.611  1.00  0.00    -0.275 OA
ATOM     11  N   UNL A   1      39.988  31.265  34.839  1.00  0.00    -0.343 N 
ATOM     12  C   UNL A   1      40.896  31.086  35.990  1.00  0.00     0.120 C 
ATOM     13  C   UNL A   1      39.873  30.110  34.044  1.00  0.00     0.120 C 
ATOM     14  C   UNL A   1      42.222  30.310  35.637  1.00  0.00     0.033 C 
ATOM     15  C   UNL A   1      41.216  29.787  33.478  1.00  0.00     0.033 C 
ATOM     16  C   UNL A   1      41.899  29.162  34.669  1.00  0.00     0.062 C 
BRANCH  16  17
ATOM     17  C   UNL A   1      42.857  28.141  34.184  1.00  0.00     0.140 A 
ATOM     18  N   UNL A   1      43.963  28.355  33.481  1.00  0.00    -0.134 NA
ATOM     19  N   UNL A   1      42.544  26.772  34.224  1.00  0.00    -0.286 N 
ATOM     20  N   UNL A   1      44.596  27.199  32.978  1.00  0.00    -0.130 NA
ATOM     21  C   UNL A   1      43.892  26.122  33.269  1.00  0.00     0.160 A 
ATOM     22  C   UNL A   1      41.543  25.679  35.338  1.00  0.00     0.095 A 
ATOM     23  C   UNL A   1      44.291  24.347  33.436  1.00  0.00     0.050 A 
ATOM     24  C   UNL A   1      42.026  24.125  35.556  1.00  0.00     0.019 A 
ATOM     25  C   UNL A   1      43.480  23.400  34.550  1.00  0.00     0.005 A 
ENDBRANCH  16  17
ENDBRANCH   8   9
ENDBRANCH   7   8
ENDBRANCH   5   7
ENDBRANCH   2   3
ENDBRANCH   1   2
BRANCH   1  26
ATOM     26  C   UNL A   1      34.456  33.633  29.251  1.00  0.00     0.023 C 
BRANCH  26  27
ATOM     27  C   UNL A   1      33.579  33.296  28.034  1.00  0.00     0.116 C 
BRANCH  27  28
ATOM     28  N   UNL A   1      33.527  31.825  27.794  1.00  0.00    -0.352 N 
ATOM     29  C   UNL A   1      34.283  30.525  27.658  1.00  0.00     0.251 C 
ATOM     30  H   UNL A   1      32.577  31.603  27.665  1.00  0.00     0.163 HD
ATOM     31  O   UNL A   1      33.195  29.980  27.227  1.00  0.00    -0.269 OA
BRANCH  29  32
ATOM     32  C   UNL A   1      36.278  29.837  28.089  1.00  0.00     0.039 A 
ATOM     33  C   UNL A   1      37.488  29.813  27.207  1.00  0.00     0.014 A 
ATOM     34  C   UNL A   1      36.864  29.200  29.394  1.00  0.00     0.014 A 
ATOM     35  C   UNL A   1      38.746  29.384  27.474  1.00  0.00     0.010 A 
ATOM     36  C   UNL A   1      38.173  29.002  29.774  1.00  0.00     0.010 A 
ATOM     37  C   UNL A   1      39.079  29.142  28.775  1.00  0.00    -0.014 A 
BRANCH  37  38
ATOM     38  C   UNL A   1      40.469  28.912  28.930  1.00  0.00     0.031 A 
ATOM     39  C   UNL A   1      41.188  29.974  29.636  1.00  0.00     0.074 A 
ATOM     40  C   UNL A   1      40.831  27.647  28.688  1.00  0.00     0.049 A 
ATOM     41  N   UNL A   1      42.430  29.983  29.972  1.00  0.00    -0.248 NA
ATOM     42  C   UNL A   1      40.423  31.186  30.010  1.00  0.00     0.031 C 
ATOM     43  C   UNL A   1      39.957  26.588  28.135  1.00  0.00     0.029 A 
ATOM     44  N   UNL A   1      41.993  27.022  28.953  1.00  0.00    -0.354 N 
ATOM     45  C   UNL A   1      42.620  31.222  30.540  1.00  0.00     0.074 A 
ATOM     46  C   UNL A   1      41.382  31.956  30.488  1.00  0.00     0.031 C 
ATOM     47  C   UNL A   1      40.644  25.442  28.090  1.00  0.00     0.029 A 
ATOM     48  C   UNL A   1      42.001  25.728  28.516  1.00  0.00     0.049 A 
ATOM     49  H   UNL A   1      42.752  27.449  29.412  1.00  0.00     0.167 HD
ATOM     50  C   UNL A   1      43.781  31.662  31.044  1.00  0.00     0.037 A 
ATOM     51  C   UNL A   1      43.060  24.923  28.406  1.00  0.00     0.037 A 
ATOM     52  C   UNL A   1      44.951  30.838  31.023  1.00  0.00     0.049 A 
ATOM     53  C   UNL A   1      44.360  25.497  28.874  1.00  0.00     0.074 A 
ATOM     54  C   UNL A   1      46.218  31.142  31.462  1.00  0.00     0.029 A 
ATOM     55  N   UNL A   1      44.990  29.538  30.516  1.00  0.00    -0.354 N 
ATOM     56  N   UNL A   1      44.597  26.689  29.380  1.00  0.00    -0.248 NA
ATOM     57  C   UNL A   1      45.528  24.633  28.765  1.00  0.00     0.031 C 
ATOM     58  C   UNL A   1      47.039  30.057  31.151  1.00  0.00     0.029 A 
ATOM     59  C   UNL A   1      46.270  29.035  30.605  1.00  0.00     0.049 A 
ATOM     60  H   UNL A   1      44.216  29.052  30.149  1.00  0.00     0.167 HD
ATOM     61  C   UNL A   1      45.945  26.712  29.682  1.00  0.00     0.074 A 
ATOM     62  C   UNL A   1      46.458  25.400  29.315  1.00  0.00     0.031 C 
ATOM     63  C   UNL A   1      46.699  27.709  30.214  1.00  0.00     0.037 A 
BRANCH  50  64
ATOM     64  C   UNL A   1      43.811  33.065  31.537  1.00  0.00     0.058 A 
ATOM     65  C   UNL A   1      43.971  34.160  30.671  1.00  0.00     0.135 A 
ATOM     66  C   UNL A   1      43.715  33.314  32.912  1.00  0.00     0.135 A 
ATOM     67  F   UNL A   1      44.139  33.967  29.352  1.00  0.00    -0.206 F 
ATOM     68  C   UNL A   1      44.028  35.457  31.157  1.00  0.00     0.059 A 
ATOM     69  C   UNL A   1      43.728  34.606  33.415  1.00  0.00     0.059 A 
ATOM     70  F   UNL A   1      43.622  32.295  33.781  1.00  0.00    -0.206 F 
ATOM     71  C   UNL A   1      43.885  35.670  32.529  1.00  0.00     0.060 A 
BRANCH  71  72
ATOM     72  S   UNL A   1      43.890  37.365  33.131  1.00  0.00     0.124 S 
ATOM     73  O   UNL A   1      42.704  37.377  33.983  1.00  0.00    -0.237 OA
ATOM     74  O   UNL A   1      45.171  37.437  33.825  1.00  0.00    -0.237 OA
ATOM     75  O   UNL A   1      43.793  38.160  31.910  1.00  0.00    -0.744 OA
ENDBRANCH  71  72
ENDBRANCH  50  64
BRANCH  51  76
ATOM     76  C   UNL A   1      42.903  23.590  27.800  1.00  0.00     0.058 A 
ATOM     77  C   UNL A   1      42.548  22.492  28.588  1.00  0.00     0.135 A 
ATOM     78  C   UNL A   1      43.038  23.398  26.414  1.00  0.00     0.135 A 
ATOM     79  F   UNL A   1      42.380  22.642  29.911  1.00  0.00    -0.206 F 
ATOM     80  C   UNL A   1      42.370  21.236  28.030  1.00  0.00     0.059 A 
ATOM     81  C   UNL A   1      42.827  22.160  25.828  1.00  0.00     0.059 A 
ATOM     82  F   UNL A   1      43.337  24.433  25.612  1.00  0.00    -0.206 F 
ATOM     83  C   UNL A   1      42.510  21.081  26.649  1.00  0.00     0.060 A 
BRANCH  83  84
ATOM     84  S   UNL A   1      42.257  19.442  25.946  1.00  0.00     0.124 S 
ATOM     85  O   UNL A   1      42.755  18.586  27.016  1.00  0.00    -0.237 OA
ATOM     86  O   UNL A   1      40.813  19.425  25.735  1.00  0.00    -0.237 OA
ATOM     87  O   UNL A   1      43.063  19.465  24.730  1.00  0.00    -0.744 OA
ENDBRANCH  83  84
ENDBRANCH  51  76
BRANCH  63  88
ATOM     88  C   UNL A   1      48.136  27.376  30.471  1.00  0.00     0.058 A 
ATOM     89  C   UNL A   1      48.547  26.733  31.646  1.00  0.00     0.135 A 
ATOM     90  C   UNL A   1      49.100  27.667  29.492  1.00  0.00     0.135 A 
ATOM     91  F   UNL A   1      47.658  26.446  32.610  1.00  0.00    -0.206 F 
ATOM     92  C   UNL A   1      49.881  26.421  31.860  1.00  0.00     0.059 A 
ATOM     93  C   UNL A   1      50.429  27.314  29.664  1.00  0.00     0.059 A 
ATOM     94  F   UNL A   1      48.746  28.269  28.346  1.00  0.00    -0.206 F 
ATOM     95  C   UNL A   1      50.811  26.707  30.858  1.00  0.00     0.060 A 
BRANCH  95  96
ATOM     96  S   UNL A   1      52.530  26.248  31.133  1.00  0.00     0.124 S 
ATOM     97  O   UNL A   1      53.054  26.243  29.771  1.00  0.00    -0.237 OA
ATOM     98  O   UNL A   1      53.001  27.331  31.991  1.00  0.00    -0.237 OA
ATOM     99  O   UNL A   1      52.436  24.941  31.775  1.00  0.00    -0.744 OA
ENDBRANCH  95  96
ENDBRANCH  63  88
ENDBRANCH  37  38
ENDBRANCH  29  32
ENDBRANCH  27  28
ENDBRANCH  26  27
ENDBRANCH   1  26
TORSDOF 17
ENDMDL
