MODEL 1
REMARK VINA RESULT:     -12.4      0.000      0.000
REMARK SMILES [NH3+][C@@H](Cc1cn(-c2nc(Cl)nc(N3CCOCC3)n2)c2ccccc12)C(=O)NCCCCNC(=O)c1ccc(-c2c3nc(c(-c4c(F)cc(S(=O)(=O)[O-])cc4F)c4ccc([nH]4)c(-c4c(F)cc(S(=O)(=O)[O-])cc4F)c4nc(c(-c5c(F)cc(S(=O)(=O)[O-])cc5F)c5ccc2[nH]5)C=C4)C=C3)cc1
REMARK SMILES IDX 30 1 29 2 28 3 26 4 27 5 2 7 1 8 3 12 4 13 5 14 25 15 6 16
REMARK SMILES IDX 20 17 24 18 21 19 23 20 22 21 7 22 8 23 19 24 9 25 12 26
REMARK SMILES IDX 10 27 11 28 13 29 14 30 18 31 15 32 17 33 16 34 31 35 32 36
REMARK SMILES IDX 33 37 34 38 35 40 36 41 37 42 101 43 38 44 100 45 39 46
REMARK SMILES IDX 40 47 41 48 94 49 42 50 99 51 93 52 95 53 43 54 98 55 92 56
REMARK SMILES IDX 91 57 44 59 78 60 57 61 77 62 58 63 61 64 76 65 96 66 59 67
REMARK SMILES IDX 60 68 75 70 97 71 62 72 45 73 46 74 55 75 47 76 48 77 54 78
REMARK SMILES IDX 56 79 49 80 50 81 51 82 52 83 53 84 79 85 80 86 89 87 81 88
REMARK SMILES IDX 82 89 88 90 90 91 83 92 84 93 85 94 86 95 87 96 63 97 64 98
REMARK SMILES IDX 73 99 65 100 66 101 72 102 74 103 67 104 68 105 69 106
REMARK SMILES IDX 70 107 71 108
REMARK H PARENT 28 6 1 9 1 10 1 11 33 39 95 58 61 69
REMARK Flexibility Score: inf
ROOT
ATOM      1  C   UNL A   1      34.409  21.127  25.211  1.00  0.00     0.023 C 
ENDROOT
BRANCH   1   2
ATOM      2  C   UNL A   1      33.753  21.110  26.558  1.00  0.00     0.116 C 
BRANCH   2   3
ATOM      3  N   UNL A   1      33.412  22.363  27.156  1.00  0.00    -0.351 N 
ATOM      4  C   UNL A   1      32.171  22.943  27.087  1.00  0.00     0.278 C 
ATOM      5  O   UNL A   1      32.002  23.992  27.719  1.00  0.00    -0.268 OA
ATOM      6  H   UNL A   1      34.116  22.842  27.650  1.00  0.00     0.163 HD
BRANCH   4   7
ATOM      7  C   UNL A   1      31.013  22.331  26.213  1.00  0.00     0.275 C 
BRANCH   7   8
ATOM      8  N   UNL A   1      29.710  22.433  26.895  1.00  0.00    -0.347 N 
ATOM      9  H   UNL A   1      29.579  21.622  27.500  1.00  0.00     0.345 HD
ATOM     10  H   UNL A   1      28.963  22.464  26.201  1.00  0.00     0.345 HD
ATOM     11  H   UNL A   1      29.686  23.284  27.458  1.00  0.00     0.345 HD
ENDBRANCH   7   8
BRANCH   7  12
ATOM     12  C   UNL A   1      31.009  22.591  24.688  1.00  0.00     0.113 C 
BRANCH  12  13
ATOM     13  C   UNL A   1      31.067  23.974  24.039  1.00  0.00    -0.015 A 
ATOM     14  C   UNL A   1      30.526  25.207  24.379  1.00  0.00     0.099 A 
ATOM     15  C   UNL A   1      31.784  24.220  22.822  1.00  0.00     0.004 A 
ATOM     16  N   UNL A   1      31.148  26.221  23.648  1.00  0.00    -0.285 N 
ATOM     17  C   UNL A   1      31.793  25.605  22.567  1.00  0.00     0.056 A 
ATOM     18  C   UNL A   1      32.452  23.339  21.938  1.00  0.00     0.010 A 
ATOM     19  C   UNL A   1      32.468  26.111  21.438  1.00  0.00     0.027 A 
ATOM     20  C   UNL A   1      33.094  23.838  20.808  1.00  0.00     0.001 A 
ATOM     21  C   UNL A   1      33.099  25.205  20.566  1.00  0.00     0.002 A 
BRANCH  16  22
ATOM     22  C   UNL A   1      31.154  27.623  24.042  1.00  0.00     0.240 A 
ATOM     23  N   UNL A   1      30.244  28.430  23.538  1.00  0.00    -0.181 NA
ATOM     24  N   UNL A   1      32.085  28.029  24.938  1.00  0.00    -0.176 NA
ATOM     25  C   UNL A   1      30.302  29.643  24.093  1.00  0.00     0.228 A 
ATOM     26  C   UNL A   1      32.150  29.324  25.311  1.00  0.00     0.231 A 
ATOM     27  Cl  UNL A   1      29.004  30.680  23.667  1.00  0.00    -0.041 Cl
ATOM     28  N   UNL A   1      31.201  30.159  24.943  1.00  0.00    -0.182 NA
BRANCH  26  29
ATOM     29  N   UNL A   1      33.209  29.738  26.136  1.00  0.00    -0.336 N 
ATOM     30  C   UNL A   1      32.937  30.731  27.192  1.00  0.00     0.148 C 
ATOM     31  C   UNL A   1      34.045  28.696  26.770  1.00  0.00     0.148 C 
ATOM     32  C   UNL A   1      34.217  31.410  27.718  1.00  0.00     0.181 C 
ATOM     33  C   UNL A   1      35.334  29.380  27.320  1.00  0.00     0.181 C 
ATOM     34  O   UNL A   1      35.071  30.421  28.287  1.00  0.00    -0.378 OA
ENDBRANCH  26  29
ENDBRANCH  16  22
ENDBRANCH  12  13
ENDBRANCH   7  12
ENDBRANCH   4   7
ENDBRANCH   2   3
ENDBRANCH   1   2
BRANCH   1  35
ATOM     35  C   UNL A   1      35.935  20.954  25.161  1.00  0.00     0.023 C 
BRANCH  35  36
ATOM     36  C   UNL A   1      37.139  21.973  25.088  1.00  0.00     0.116 C 
BRANCH  36  37
ATOM     37  N   UNL A   1      38.557  21.792  25.550  1.00  0.00    -0.352 N 
ATOM     38  C   UNL A   1      39.444  22.213  26.558  1.00  0.00     0.251 C 
ATOM     39  H   UNL A   1      39.022  21.171  24.943  1.00  0.00     0.163 HD
ATOM     40  O   UNL A   1      40.071  21.283  27.088  1.00  0.00    -0.269 OA
BRANCH  38  41
ATOM     41  C   UNL A   1      39.994  23.591  26.873  1.00  0.00     0.039 A 
ATOM     42  C   UNL A   1      41.298  23.947  27.175  1.00  0.00     0.014 A 
ATOM     43  C   UNL A   1      39.086  24.671  26.811  1.00  0.00     0.014 A 
ATOM     44  C   UNL A   1      41.569  25.225  27.761  1.00  0.00     0.010 A 
ATOM     45  C   UNL A   1      39.372  25.954  27.335  1.00  0.00     0.010 A 
ATOM     46  C   UNL A   1      40.573  26.209  27.984  1.00  0.00    -0.014 A 
BRANCH  46  47
ATOM     47  C   UNL A   1      40.828  27.419  28.873  1.00  0.00     0.031 A 
ATOM     48  C   UNL A   1      41.996  28.293  28.478  1.00  0.00     0.074 A 
ATOM     49  C   UNL A   1      40.103  27.860  29.946  1.00  0.00     0.049 A 
ATOM     50  N   UNL A   1      43.068  28.587  29.153  1.00  0.00    -0.248 NA
ATOM     51  C   UNL A   1      42.013  28.803  27.097  1.00  0.00     0.031 C 
ATOM     52  C   UNL A   1      38.845  27.335  30.488  1.00  0.00     0.029 A 
ATOM     53  N   UNL A   1      40.293  28.972  30.748  1.00  0.00    -0.354 N 
ATOM     54  C   UNL A   1      43.824  29.434  28.337  1.00  0.00     0.074 A 
ATOM     55  C   UNL A   1      43.214  29.376  27.034  1.00  0.00     0.031 C 
ATOM     56  C   UNL A   1      38.259  28.255  31.285  1.00  0.00     0.029 A 
ATOM     57  C   UNL A   1      39.149  29.387  31.439  1.00  0.00     0.049 A 
ATOM     58  H   UNL A   1      41.161  29.432  30.826  1.00  0.00     0.167 HD
ATOM     59  C   UNL A   1      44.795  30.278  28.794  1.00  0.00     0.037 A 
ATOM     60  C   UNL A   1      38.901  30.579  32.055  1.00  0.00     0.037 A 
ATOM     61  C   UNL A   1      45.241  29.948  30.118  1.00  0.00     0.049 A 
ATOM     62  C   UNL A   1      40.208  31.205  32.364  1.00  0.00     0.074 A 
ATOM     63  C   UNL A   1      45.851  28.857  30.705  1.00  0.00     0.029 A 
ATOM     64  N   UNL A   1      44.836  30.742  31.162  1.00  0.00    -0.354 N 
ATOM     65  N   UNL A   1      41.035  30.759  33.267  1.00  0.00    -0.248 NA
ATOM     66  C   UNL A   1      40.786  32.087  31.364  1.00  0.00     0.031 C 
ATOM     67  C   UNL A   1      45.329  28.809  32.030  1.00  0.00     0.029 A 
ATOM     68  C   UNL A   1      44.464  29.894  32.171  1.00  0.00     0.049 A 
ATOM     69  H   UNL A   1      44.817  31.726  31.180  1.00  0.00     0.167 HD
ATOM     70  C   UNL A   1      42.290  30.936  32.706  1.00  0.00     0.074 A 
ATOM     71  C   UNL A   1      42.078  31.828  31.570  1.00  0.00     0.031 C 
ATOM     72  C   UNL A   1      43.338  30.130  33.041  1.00  0.00     0.037 A 
BRANCH  59  73
ATOM     73  C   UNL A   1      45.125  31.612  28.149  1.00  0.00     0.058 A 
ATOM     74  C   UNL A   1      46.427  31.874  27.671  1.00  0.00     0.135 A 
ATOM     75  C   UNL A   1      44.275  32.736  28.235  1.00  0.00     0.135 A 
ATOM     76  F   UNL A   1      47.330  30.885  27.564  1.00  0.00    -0.206 F 
ATOM     77  C   UNL A   1      46.866  33.167  27.365  1.00  0.00     0.059 A 
ATOM     78  C   UNL A   1      44.671  34.019  27.876  1.00  0.00     0.059 A 
ATOM     79  F   UNL A   1      43.051  32.664  28.770  1.00  0.00    -0.206 F 
ATOM     80  C   UNL A   1      45.982  34.234  27.487  1.00  0.00     0.060 A 
BRANCH  80  81
ATOM     81  S   UNL A   1      46.569  35.918  27.230  1.00  0.00     0.124 S 
ATOM     82  O   UNL A   1      46.364  36.081  25.795  1.00  0.00    -0.237 OA
ATOM     83  O   UNL A   1      45.682  36.685  28.097  1.00  0.00    -0.237 OA
ATOM     84  O   UNL A   1      47.962  35.858  27.664  1.00  0.00    -0.744 OA
ENDBRANCH  80  81
ENDBRANCH  59  73
BRANCH  60  85
ATOM     85  C   UNL A   1      37.620  31.357  32.070  1.00  0.00     0.058 A 
ATOM     86  C   UNL A   1      37.014  31.793  33.268  1.00  0.00     0.135 A 
ATOM     87  C   UNL A   1      37.105  31.931  30.890  1.00  0.00     0.135 A 
ATOM     88  F   UNL A   1      37.444  31.329  34.452  1.00  0.00    -0.206 F 
ATOM     89  C   UNL A   1      36.001  32.768  33.292  1.00  0.00     0.059 A 
ATOM     90  C   UNL A   1      36.091  32.890  30.888  1.00  0.00     0.059 A 
ATOM     91  F   UNL A   1      37.637  31.653  29.692  1.00  0.00    -0.206 F 
ATOM     92  C   UNL A   1      35.561  33.327  32.092  1.00  0.00     0.060 A 
BRANCH  92  93
ATOM     93  S   UNL A   1      34.389  34.708  32.109  1.00  0.00     0.124 S 
ATOM     94  O   UNL A   1      33.256  34.138  32.829  1.00  0.00    -0.237 OA
ATOM     95  O   UNL A   1      35.140  35.741  32.813  1.00  0.00    -0.237 OA
ATOM     96  O   UNL A   1      34.156  34.972  30.690  1.00  0.00    -0.744 OA
ENDBRANCH  92  93
ENDBRANCH  60  85
BRANCH  72  97
ATOM     97  C   UNL A   1      43.202  29.221  34.232  1.00  0.00     0.058 A 
ATOM     98  C   UNL A   1      42.529  27.986  34.200  1.00  0.00     0.135 A 
ATOM     99  C   UNL A   1      43.933  29.525  35.391  1.00  0.00     0.135 A 
ATOM    100  F   UNL A   1      41.898  27.574  33.092  1.00  0.00    -0.206 F 
ATOM    101  C   UNL A   1      42.555  27.110  35.285  1.00  0.00     0.059 A 
ATOM    102  C   UNL A   1      44.000  28.651  36.472  1.00  0.00     0.059 A 
ATOM    103  F   UNL A   1      44.648  30.661  35.456  1.00  0.00    -0.206 F 
ATOM    104  C   UNL A   1      43.301  27.446  36.414  1.00  0.00     0.060 A 
BRANCH 104 105
ATOM    105  S   UNL A   1      43.429  26.262  37.770  1.00  0.00     0.124 S 
ATOM    106  O   UNL A   1      42.023  26.069  38.139  1.00  0.00    -0.237 OA
ATOM    107  O   UNL A   1      44.067  25.113  37.118  1.00  0.00    -0.237 OA
ATOM    108  O   UNL A   1      44.245  26.942  38.753  1.00  0.00    -0.744 OA
ENDBRANCH 104 105
ENDBRANCH  72  97
ENDBRANCH  46  47
ENDBRANCH  38  41
ENDBRANCH  36  37
ENDBRANCH  35  36
ENDBRANCH   1  35
TORSDOF 19
ENDMDL
MODEL 2
REMARK VINA RESULT:     -12.3      1.438      2.394
REMARK SMILES [NH3+][C@@H](Cc1cn(-c2nc(Cl)nc(N3CCOCC3)n2)c2ccccc12)C(=O)NCCCCNC(=O)c1ccc(-c2c3nc(c(-c4c(F)cc(S(=O)(=O)[O-])cc4F)c4ccc([nH]4)c(-c4c(F)cc(S(=O)(=O)[O-])cc4F)c4nc(c(-c5c(F)cc(S(=O)(=O)[O-])cc5F)c5ccc2[nH]5)C=C4)C=C3)cc1
REMARK SMILES IDX 30 1 29 2 28 3 26 4 27 5 2 7 1 8 3 12 4 13 5 14 25 15 6 16
REMARK SMILES IDX 20 17 24 18 21 19 23 20 22 21 7 22 8 23 19 24 9 25 12 26
REMARK SMILES IDX 10 27 11 28 13 29 14 30 18 31 15 32 17 33 16 34 31 35 32 36
REMARK SMILES IDX 33 37 34 38 35 40 36 41 37 42 101 43 38 44 100 45 39 46
REMARK SMILES IDX 40 47 41 48 94 49 42 50 99 51 93 52 95 53 43 54 98 55 92 56
REMARK SMILES IDX 91 57 44 59 78 60 57 61 77 62 58 63 61 64 76 65 96 66 59 67
REMARK SMILES IDX 60 68 75 70 97 71 62 72 45 73 46 74 55 75 47 76 48 77 54 78
REMARK SMILES IDX 56 79 49 80 50 81 51 82 52 83 53 84 79 85 80 86 89 87 81 88
REMARK SMILES IDX 82 89 88 90 90 91 83 92 84 93 85 94 86 95 87 96 63 97 64 98
REMARK SMILES IDX 73 99 65 100 66 101 72 102 74 103 67 104 68 105 69 106
REMARK SMILES IDX 70 107 71 108
REMARK H PARENT 28 6 1 9 1 10 1 11 33 39 95 58 61 69
REMARK Flexibility Score: inf
ROOT
ATOM      1  C   UNL A   1      34.317  20.790  24.906  1.00  0.00     0.023 C 
ENDROOT
BRANCH   1   2
ATOM      2  C   UNL A   1      33.479  20.781  26.148  1.00  0.00     0.116 C 
BRANCH   2   3
ATOM      3  N   UNL A   1      33.432  21.974  26.936  1.00  0.00    -0.351 N 
ATOM      4  C   UNL A   1      32.285  22.670  27.220  1.00  0.00     0.278 C 
ATOM      5  O   UNL A   1      32.387  23.640  27.980  1.00  0.00    -0.268 OA
ATOM      6  H   UNL A   1      34.280  22.318  27.299  1.00  0.00     0.163 HD
BRANCH   4   7
ATOM      7  C   UNL A   1      30.897  22.285  26.584  1.00  0.00     0.275 C 
BRANCH   7   8
ATOM      8  N   UNL A   1      29.782  22.575  27.504  1.00  0.00    -0.347 N 
ATOM      9  H   UNL A   1      28.904  22.280  27.077  1.00  0.00     0.345 HD
ATOM     10  H   UNL A   1      29.748  23.576  27.694  1.00  0.00     0.345 HD
ATOM     11  H   UNL A   1      29.922  22.068  28.378  1.00  0.00     0.345 HD
ENDBRANCH   7   8
BRANCH   7  12
ATOM     12  C   UNL A   1      30.647  22.595  25.089  1.00  0.00     0.113 C 
BRANCH  12  13
ATOM     13  C   UNL A   1      30.816  23.970  24.443  1.00  0.00    -0.015 A 
ATOM     14  C   UNL A   1      30.259  25.216  24.700  1.00  0.00     0.099 A 
ATOM     15  C   UNL A   1      31.691  24.192  23.329  1.00  0.00     0.004 A 
ATOM     16  N   UNL A   1      30.990  26.212  24.050  1.00  0.00    -0.285 N 
ATOM     17  C   UNL A   1      31.759  25.574  23.068  1.00  0.00     0.056 A 
ATOM     18  C   UNL A   1      32.453  23.292  22.547  1.00  0.00     0.010 A 
ATOM     19  C   UNL A   1      32.586  26.058  22.034  1.00  0.00     0.027 A 
ATOM     20  C   UNL A   1      33.246  23.768  21.507  1.00  0.00     0.001 A 
ATOM     21  C   UNL A   1      33.309  25.133  21.258  1.00  0.00     0.002 A 
BRANCH  16  22
ATOM     22  C   UNL A   1      30.970  27.617  24.432  1.00  0.00     0.240 A 
ATOM     23  N   UNL A   1      31.547  27.980  25.558  1.00  0.00    -0.181 NA
ATOM     24  N   UNL A   1      30.378  28.498  23.589  1.00  0.00    -0.176 NA
ATOM     25  C   UNL A   1      31.556  29.308  25.700  1.00  0.00     0.228 A 
ATOM     26  C   UNL A   1      30.307  29.805  23.913  1.00  0.00     0.231 A 
ATOM     27  Cl  UNL A   1      32.496  29.873  27.018  1.00  0.00    -0.041 Cl
ATOM     28  N   UNL A   1      30.966  30.257  24.960  1.00  0.00    -0.182 NA
BRANCH  26  29
ATOM     29  N   UNL A   1      29.571  30.668  23.084  1.00  0.00    -0.336 N 
ATOM     30  C   UNL A   1      28.497  30.101  22.247  1.00  0.00     0.148 C 
ATOM     31  C   UNL A   1      29.006  31.895  23.685  1.00  0.00     0.148 C 
ATOM     32  C   UNL A   1      28.078  31.038  21.097  1.00  0.00     0.181 C 
ATOM     33  C   UNL A   1      28.564  32.841  22.526  1.00  0.00     0.181 C 
ATOM     34  O   UNL A   1      27.579  32.256  21.644  1.00  0.00    -0.378 OA
ENDBRANCH  26  29
ENDBRANCH  16  22
ENDBRANCH  12  13
ENDBRANCH   7  12
ENDBRANCH   4   7
ENDBRANCH   2   3
ENDBRANCH   1   2
BRANCH   1  35
ATOM     35  C   UNL A   1      35.843  20.724  25.079  1.00  0.00     0.023 C 
BRANCH  35  36
ATOM     36  C   UNL A   1      36.961  21.825  25.262  1.00  0.00     0.116 C 
BRANCH  36  37
ATOM     37  N   UNL A   1      38.409  21.648  25.621  1.00  0.00    -0.352 N 
ATOM     38  C   UNL A   1      39.358  22.053  26.578  1.00  0.00     0.251 C 
ATOM     39  H   UNL A   1      38.837  21.047  24.968  1.00  0.00     0.163 HD
ATOM     40  O   UNL A   1      40.028  21.116  27.040  1.00  0.00    -0.269 OA
BRANCH  38  41
ATOM     41  C   UNL A   1      39.915  23.428  26.892  1.00  0.00     0.039 A 
ATOM     42  C   UNL A   1      41.226  23.782  27.164  1.00  0.00     0.014 A 
ATOM     43  C   UNL A   1      39.006  24.509  26.860  1.00  0.00     0.014 A 
ATOM     44  C   UNL A   1      41.511  25.055  27.754  1.00  0.00     0.010 A 
ATOM     45  C   UNL A   1      39.305  25.787  27.389  1.00  0.00     0.010 A 
ATOM     46  C   UNL A   1      40.521  26.037  28.010  1.00  0.00    -0.014 A 
BRANCH  46  47
ATOM     47  C   UNL A   1      40.798  27.239  28.903  1.00  0.00     0.031 A 
ATOM     48  C   UNL A   1      42.007  28.068  28.536  1.00  0.00     0.074 A 
ATOM     49  C   UNL A   1      40.062  27.710  29.955  1.00  0.00     0.049 A 
ATOM     50  N   UNL A   1      43.072  28.324  29.238  1.00  0.00    -0.248 NA
ATOM     51  C   UNL A   1      42.079  28.573  27.154  1.00  0.00     0.031 C 
ATOM     52  C   UNL A   1      38.771  27.234  30.465  1.00  0.00     0.029 A 
ATOM     53  N   UNL A   1      40.272  28.817  30.759  1.00  0.00    -0.354 N 
ATOM     54  C   UNL A   1      43.880  29.140  28.440  1.00  0.00     0.074 A 
ATOM     55  C   UNL A   1      43.301  29.101  27.122  1.00  0.00     0.031 C 
ATOM     56  C   UNL A   1      38.199  28.177  31.245  1.00  0.00     0.029 A 
ATOM     57  C   UNL A   1      39.127  29.276  31.419  1.00  0.00     0.049 A 
ATOM     58  H   UNL A   1      41.154  29.245  30.858  1.00  0.00     0.167 HD
ATOM     59  C   UNL A   1      44.869  29.949  28.921  1.00  0.00     0.037 A 
ATOM     60  C   UNL A   1      38.908  30.478  32.026  1.00  0.00     0.037 A 
ATOM     61  C   UNL A   1      45.267  29.607  30.256  1.00  0.00     0.049 A 
ATOM     62  C   UNL A   1      40.228  31.057  32.368  1.00  0.00     0.074 A 
ATOM     63  C   UNL A   1      45.821  28.496  30.862  1.00  0.00     0.029 A 
ATOM     64  N   UNL A   1      44.866  30.419  31.287  1.00  0.00    -0.354 N 
ATOM     65  N   UNL A   1      41.014  30.583  33.293  1.00  0.00    -0.248 NA
ATOM     66  C   UNL A   1      40.864  31.913  31.381  1.00  0.00     0.031 C 
ATOM     67  C   UNL A   1      45.263  28.472  32.172  1.00  0.00     0.029 A 
ATOM     68  C   UNL A   1      44.436  29.588  32.288  1.00  0.00     0.049 A 
ATOM     69  H   UNL A   1      44.882  31.403  31.303  1.00  0.00     0.167 HD
ATOM     70  C   UNL A   1      42.289  30.712  32.764  1.00  0.00     0.074 A 
ATOM     71  C   UNL A   1      42.140  31.608  31.621  1.00  0.00     0.031 C 
ATOM     72  C   UNL A   1      43.298  29.869  33.128  1.00  0.00     0.037 A 
BRANCH  59  73
ATOM     73  C   UNL A   1      45.265  31.267  28.281  1.00  0.00     0.058 A 
ATOM     74  C   UNL A   1      44.309  32.288  28.090  1.00  0.00     0.135 A 
ATOM     75  C   UNL A   1      46.490  31.452  27.602  1.00  0.00     0.135 A 
ATOM     76  F   UNL A   1      43.100  32.211  28.671  1.00  0.00    -0.206 F 
ATOM     77  C   UNL A   1      44.533  33.374  27.238  1.00  0.00     0.059 A 
ATOM     78  C   UNL A   1      46.756  32.555  26.801  1.00  0.00     0.059 A 
ATOM     79  F   UNL A   1      47.450  30.520  27.599  1.00  0.00    -0.206 F 
ATOM     80  C   UNL A   1      45.757  33.488  26.585  1.00  0.00     0.060 A 
BRANCH  80  81
ATOM     81  S   UNL A   1      46.010  34.804  25.380  1.00  0.00     0.124 S 
ATOM     82  O   UNL A   1      47.423  34.634  25.058  1.00  0.00    -0.237 OA
ATOM     83  O   UNL A   1      45.064  34.440  24.331  1.00  0.00    -0.237 OA
ATOM     84  O   UNL A   1      45.675  36.013  26.127  1.00  0.00    -0.744 OA
ENDBRANCH  80  81
ENDBRANCH  59  73
BRANCH  60  85
ATOM     85  C   UNL A   1      37.656  31.303  32.006  1.00  0.00     0.058 A 
ATOM     86  C   UNL A   1      36.999  31.711  33.187  1.00  0.00     0.135 A 
ATOM     87  C   UNL A   1      37.229  31.947  30.827  1.00  0.00     0.135 A 
ATOM     88  F   UNL A   1      37.345  31.180  34.371  1.00  0.00    -0.206 F 
ATOM     89  C   UNL A   1      36.022  32.722  33.200  1.00  0.00     0.059 A 
ATOM     90  C   UNL A   1      36.252  32.944  30.812  1.00  0.00     0.059 A 
ATOM     91  F   UNL A   1      37.818  31.701  29.649  1.00  0.00    -0.206 F 
ATOM     92  C   UNL A   1      35.671  33.348  32.004  1.00  0.00     0.060 A 
BRANCH  92  93
ATOM     93  S   UNL A   1      34.551  34.771  32.019  1.00  0.00     0.124 S 
ATOM     94  O   UNL A   1      34.393  35.050  30.596  1.00  0.00    -0.237 OA
ATOM     95  O   UNL A   1      33.377  34.233  32.699  1.00  0.00    -0.237 OA
ATOM     96  O   UNL A   1      35.293  35.780  32.772  1.00  0.00    -0.744 OA
ENDBRANCH  92  93
ENDBRANCH  60  85
BRANCH  72  97
ATOM     97  C   UNL A   1      43.097  28.969  34.317  1.00  0.00     0.058 A 
ATOM     98  C   UNL A   1      42.336  27.786  34.283  1.00  0.00     0.135 A 
ATOM     99  C   UNL A   1      43.849  29.216  35.476  1.00  0.00     0.135 A 
ATOM    100  F   UNL A   1      41.676  27.424  33.175  1.00  0.00    -0.206 F 
ATOM    101  C   UNL A   1      42.300  26.908  35.366  1.00  0.00     0.059 A 
ATOM    102  C   UNL A   1      43.854  28.338  36.555  1.00  0.00     0.059 A 
ATOM    103  F   UNL A   1      44.645  30.297  35.543  1.00  0.00    -0.206 F 
ATOM    104  C   UNL A   1      43.069  27.187  36.495  1.00  0.00     0.060 A 
BRANCH 104 105
ATOM    105  S   UNL A   1      43.112  25.993  37.848  1.00  0.00     0.124 S 
ATOM    106  O   UNL A   1      43.771  24.844  37.219  1.00  0.00    -0.237 OA
ATOM    107  O   UNL A   1      43.911  26.696  38.857  1.00  0.00    -0.237 OA
ATOM    108  O   UNL A   1      41.718  25.802  38.191  1.00  0.00    -0.744 OA
ENDBRANCH 104 105
ENDBRANCH  72  97
ENDBRANCH  46  47
ENDBRANCH  38  41
ENDBRANCH  36  37
ENDBRANCH  35  36
ENDBRANCH   1  35
TORSDOF 19
ENDMDL
MODEL 3
REMARK VINA RESULT:     -12.1      1.724      2.887
REMARK SMILES [NH3+][C@@H](Cc1cn(-c2nc(Cl)nc(N3CCOCC3)n2)c2ccccc12)C(=O)NCCCCNC(=O)c1ccc(-c2c3nc(c(-c4c(F)cc(S(=O)(=O)[O-])cc4F)c4ccc([nH]4)c(-c4c(F)cc(S(=O)(=O)[O-])cc4F)c4nc(c(-c5c(F)cc(S(=O)(=O)[O-])cc5F)c5ccc2[nH]5)C=C4)C=C3)cc1
REMARK SMILES IDX 30 1 29 2 28 3 26 4 27 5 2 7 1 8 3 12 4 13 5 14 25 15 6 16
REMARK SMILES IDX 20 17 24 18 21 19 23 20 22 21 7 22 8 23 19 24 9 25 12 26
REMARK SMILES IDX 10 27 11 28 13 29 14 30 18 31 15 32 17 33 16 34 31 35 32 36
REMARK SMILES IDX 33 37 34 38 35 40 36 41 37 42 101 43 38 44 100 45 39 46
REMARK SMILES IDX 40 47 41 48 94 49 42 50 99 51 93 52 95 53 43 54 98 55 92 56
REMARK SMILES IDX 91 57 44 59 78 60 57 61 77 62 58 63 61 64 76 65 96 66 59 67
REMARK SMILES IDX 60 68 75 70 97 71 62 72 45 73 46 74 55 75 47 76 48 77 54 78
REMARK SMILES IDX 56 79 49 80 50 81 51 82 52 83 53 84 79 85 80 86 89 87 81 88
REMARK SMILES IDX 82 89 88 90 90 91 83 92 84 93 85 94 86 95 87 96 63 97 64 98
REMARK SMILES IDX 73 99 65 100 66 101 72 102 74 103 67 104 68 105 69 106
REMARK SMILES IDX 70 107 71 108
REMARK H PARENT 28 6 1 9 1 10 1 11 33 39 95 58 61 69
REMARK Flexibility Score: inf
ROOT
ATOM      1  C   UNL A   1      34.294  20.553  24.647  1.00  0.00     0.023 C 
ENDROOT
BRANCH   1   2
ATOM      2  C   UNL A   1      33.288  20.250  25.715  1.00  0.00     0.116 C 
BRANCH   2   3
ATOM      3  N   UNL A   1      33.447  20.882  26.988  1.00  0.00    -0.351 N 
ATOM      4  C   UNL A   1      32.926  22.108  27.315  1.00  0.00     0.278 C 
ATOM      5  O   UNL A   1      33.079  22.494  28.480  1.00  0.00    -0.268 OA
ATOM      6  H   UNL A   1      33.965  20.405  27.676  1.00  0.00     0.163 HD
BRANCH   4   7
ATOM      7  C   UNL A   1      32.198  23.014  26.253  1.00  0.00     0.275 C 
BRANCH   7   8
ATOM      8  N   UNL A   1      30.839  23.378  26.696  1.00  0.00    -0.347 N 
ATOM      9  H   UNL A   1      30.252  22.544  26.712  1.00  0.00     0.345 HD
ATOM     10  H   UNL A   1      30.442  24.061  26.051  1.00  0.00     0.345 HD
ATOM     11  H   UNL A   1      30.883  23.781  27.632  1.00  0.00     0.345 HD
ENDBRANCH   7   8
BRANCH   7  12
ATOM     12  C   UNL A   1      33.003  24.123  25.535  1.00  0.00     0.113 C 
BRANCH  12  13
ATOM     13  C   UNL A   1      32.414  25.440  25.031  1.00  0.00    -0.015 A 
ATOM     14  C   UNL A   1      31.380  25.747  24.157  1.00  0.00     0.099 A 
ATOM     15  C   UNL A   1      32.921  26.715  25.449  1.00  0.00     0.004 A 
ATOM     16  N   UNL A   1      31.020  27.090  24.292  1.00  0.00    -0.285 N 
ATOM     17  C   UNL A   1      32.078  27.728  24.953  1.00  0.00     0.056 A 
ATOM     18  C   UNL A   1      34.036  27.060  26.248  1.00  0.00     0.010 A 
ATOM     19  C   UNL A   1      32.343  29.079  25.256  1.00  0.00     0.027 A 
ATOM     20  C   UNL A   1      34.315  28.396  26.522  1.00  0.00     0.001 A 
ATOM     21  C   UNL A   1      33.476  29.388  26.030  1.00  0.00     0.002 A 
BRANCH  16  22
ATOM     22  C   UNL A   1      29.735  27.634  23.876  1.00  0.00     0.240 A 
ATOM     23  N   UNL A   1      28.662  26.876  23.969  1.00  0.00    -0.181 NA
ATOM     24  N   UNL A   1      29.698  28.914  23.435  1.00  0.00    -0.176 NA
ATOM     25  C   UNL A   1      27.553  27.558  23.673  1.00  0.00     0.228 A 
ATOM     26  C   UNL A   1      28.538  29.454  23.009  1.00  0.00     0.231 A 
ATOM     27  Cl  UNL A   1      26.095  26.716  23.999  1.00  0.00    -0.041 Cl
ATOM     28  N   UNL A   1      27.408  28.799  23.187  1.00  0.00    -0.182 NA
BRANCH  26  29
ATOM     29  N   UNL A   1      28.557  30.735  22.434  1.00  0.00    -0.336 N 
ATOM     30  C   UNL A   1      27.716  30.994  21.251  1.00  0.00     0.148 C 
ATOM     31  C   UNL A   1      28.366  31.900  23.325  1.00  0.00     0.148 C 
ATOM     32  C   UNL A   1      28.147  32.254  20.475  1.00  0.00     0.181 C 
ATOM     33  C   UNL A   1      28.784  33.181  22.540  1.00  0.00     0.181 C 
ATOM     34  O   UNL A   1      28.026  33.391  21.327  1.00  0.00    -0.378 OA
ENDBRANCH  26  29
ENDBRANCH  16  22
ENDBRANCH  12  13
ENDBRANCH   7  12
ENDBRANCH   4   7
ENDBRANCH   2   3
ENDBRANCH   1   2
BRANCH   1  35
ATOM     35  C   UNL A   1      35.780  20.490  25.032  1.00  0.00     0.023 C 
BRANCH  35  36
ATOM     36  C   UNL A   1      36.826  21.578  25.496  1.00  0.00     0.116 C 
BRANCH  36  37
ATOM     37  N   UNL A   1      38.326  21.501  25.505  1.00  0.00    -0.352 N 
ATOM     38  C   UNL A   1      39.441  21.915  26.257  1.00  0.00     0.251 C 
ATOM     39  H   UNL A   1      38.632  20.991  24.720  1.00  0.00     0.163 HD
ATOM     40  O   UNL A   1      40.261  21.007  26.469  1.00  0.00    -0.269 OA
BRANCH  38  41
ATOM     41  C   UNL A   1      39.962  23.306  26.564  1.00  0.00     0.039 A 
ATOM     42  C   UNL A   1      41.267  23.700  26.805  1.00  0.00     0.014 A 
ATOM     43  C   UNL A   1      39.017  24.356  26.563  1.00  0.00     0.014 A 
ATOM     44  C   UNL A   1      41.526  24.980  27.394  1.00  0.00     0.010 A 
ATOM     45  C   UNL A   1      39.288  25.641  27.090  1.00  0.00     0.010 A 
ATOM     46  C   UNL A   1      40.512  25.927  27.681  1.00  0.00    -0.014 A 
BRANCH  46  47
ATOM     47  C   UNL A   1      40.773  27.134  28.573  1.00  0.00     0.031 A 
ATOM     48  C   UNL A   1      41.921  28.024  28.158  1.00  0.00     0.074 A 
ATOM     49  C   UNL A   1      40.066  27.559  29.664  1.00  0.00     0.049 A 
ATOM     50  N   UNL A   1      43.005  28.326  28.812  1.00  0.00    -0.248 NA
ATOM     51  C   UNL A   1      41.903  28.544  26.781  1.00  0.00     0.031 C 
ATOM     52  C   UNL A   1      38.826  27.016  30.229  1.00  0.00     0.029 A 
ATOM     53  N   UNL A   1      40.261  28.668  30.470  1.00  0.00    -0.354 N 
ATOM     54  C   UNL A   1      43.733  29.187  27.985  1.00  0.00     0.074 A 
ATOM     55  C   UNL A   1      43.096  29.131  26.696  1.00  0.00     0.031 C 
ATOM     56  C   UNL A   1      38.247  27.924  31.046  1.00  0.00     0.029 A 
ATOM     57  C   UNL A   1      39.128  29.065  31.188  1.00  0.00     0.049 A 
ATOM     58  H   UNL A   1      41.125  29.138  30.532  1.00  0.00     0.167 HD
ATOM     59  C   UNL A   1      44.705  30.038  28.428  1.00  0.00     0.037 A 
ATOM     60  C   UNL A   1      38.880  30.250  31.818  1.00  0.00     0.037 A 
ATOM     61  C   UNL A   1      45.183  29.704  29.739  1.00  0.00     0.049 A 
ATOM     62  C   UNL A   1      40.186  30.889  32.103  1.00  0.00     0.074 A 
ATOM     63  C   UNL A   1      45.818  28.616  30.305  1.00  0.00     0.029 A 
ATOM     64  N   UNL A   1      44.792  30.487  30.797  1.00  0.00    -0.354 N 
ATOM     65  N   UNL A   1      41.038  30.446  32.984  1.00  0.00    -0.248 NA
ATOM     66  C   UNL A   1      40.732  31.784  31.097  1.00  0.00     0.031 C 
ATOM     67  C   UNL A   1      45.325  28.553  31.641  1.00  0.00     0.029 A 
ATOM     68  C   UNL A   1      44.451  29.627  31.808  1.00  0.00     0.049 A 
ATOM     69  H   UNL A   1      44.762  31.470  30.823  1.00  0.00     0.167 HD
ATOM     70  C   UNL A   1      42.278  30.641  32.398  1.00  0.00     0.074 A 
ATOM     71  C   UNL A   1      42.031  31.539  31.273  1.00  0.00     0.031 C 
ATOM     72  C   UNL A   1      43.342  29.845  32.704  1.00  0.00     0.037 A 
BRANCH  59  73
ATOM     73  C   UNL A   1      45.006  31.380  27.785  1.00  0.00     0.058 A 
ATOM     74  C   UNL A   1      46.252  31.615  27.165  1.00  0.00     0.135 A 
ATOM     75  C   UNL A   1      44.212  32.529  28.000  1.00  0.00     0.135 A 
ATOM     76  F   UNL A   1      47.100  30.600  26.926  1.00  0.00    -0.206 F 
ATOM     77  C   UNL A   1      46.699  32.901  26.845  1.00  0.00     0.059 A 
ATOM     78  C   UNL A   1      44.610  33.808  27.633  1.00  0.00     0.059 A 
ATOM     79  F   UNL A   1      43.057  32.480  28.673  1.00  0.00    -0.206 F 
ATOM     80  C   UNL A   1      45.874  33.993  27.099  1.00  0.00     0.060 A 
BRANCH  80  81
ATOM     81  S   UNL A   1      46.488  35.664  26.821  1.00  0.00     0.124 S 
ATOM     82  O   UNL A   1      46.395  35.769  25.370  1.00  0.00    -0.237 OA
ATOM     83  O   UNL A   1      45.540  36.466  27.586  1.00  0.00    -0.237 OA
ATOM     84  O   UNL A   1      47.843  35.618  27.364  1.00  0.00    -0.744 OA
ENDBRANCH  80  81
ENDBRANCH  59  73
BRANCH  60  85
ATOM     85  C   UNL A   1      37.591  31.013  31.866  1.00  0.00     0.058 A 
ATOM     86  C   UNL A   1      36.998  31.420  33.081  1.00  0.00     0.135 A 
ATOM     87  C   UNL A   1      37.052  31.604  30.705  1.00  0.00     0.135 A 
ATOM     88  F   UNL A   1      37.450  30.939  34.249  1.00  0.00    -0.206 F 
ATOM     89  C   UNL A   1      35.975  32.383  33.138  1.00  0.00     0.059 A 
ATOM     90  C   UNL A   1      36.028  32.552  30.735  1.00  0.00     0.059 A 
ATOM     91  F   UNL A   1      37.570  31.354  29.495  1.00  0.00    -0.206 F 
ATOM     92  C   UNL A   1      35.512  32.959  31.956  1.00  0.00     0.060 A 
BRANCH  92  93
ATOM     93  S   UNL A   1      34.325  34.327  32.016  1.00  0.00     0.124 S 
ATOM     94  O   UNL A   1      33.343  33.837  32.977  1.00  0.00    -0.237 OA
ATOM     95  O   UNL A   1      35.157  35.438  32.463  1.00  0.00    -0.237 OA
ATOM     96  O   UNL A   1      33.851  34.425  30.637  1.00  0.00    -0.744 OA
ENDBRANCH  92  93
ENDBRANCH  60  85
BRANCH  72  97
ATOM     97  C   UNL A   1      43.243  28.926  33.891  1.00  0.00     0.058 A 
ATOM     98  C   UNL A   1      43.422  29.346  35.222  1.00  0.00     0.135 A 
ATOM     99  C   UNL A   1      42.771  27.620  33.687  1.00  0.00     0.135 A 
ATOM    100  F   UNL A   1      43.766  30.609  35.505  1.00  0.00    -0.206 F 
ATOM    101  C   UNL A   1      43.175  28.493  36.298  1.00  0.00     0.059 A 
ATOM    102  C   UNL A   1      42.486  26.764  34.746  1.00  0.00     0.059 A 
ATOM    103  F   UNL A   1      42.521  27.183  32.441  1.00  0.00    -0.206 F 
ATOM    104  C   UNL A   1      42.698  27.207  36.051  1.00  0.00     0.060 A 
BRANCH 104 105
ATOM    105  S   UNL A   1      42.268  26.144  37.446  1.00  0.00     0.124 S 
ATOM    106  O   UNL A   1      43.242  26.563  38.459  1.00  0.00    -0.237 OA
ATOM    107  O   UNL A   1      40.880  26.534  37.715  1.00  0.00    -0.237 OA
ATOM    108  O   UNL A   1      42.441  24.803  36.930  1.00  0.00    -0.744 OA
ENDBRANCH 104 105
ENDBRANCH  72  97
ENDBRANCH  46  47
ENDBRANCH  38  41
ENDBRANCH  36  37
ENDBRANCH  35  36
ENDBRANCH   1  35
TORSDOF 19
ENDMDL
