MODEL 1
REMARK VINA RESULT:     -11.5      0.000      0.000
REMARK SMILES C[C@H]1[C@@H](C(=O)NCCCCNC(=O)c2ccc(-c3c4nc(c(-c5c(F)cc(S(=O)(=O)[O-])cc5F)c5ccc([nH]5)c(-c5c(F)cc(S(=O)(=O)[O-])cc5F)c5nc(c(-c6c(F)cc(S(=O)(=O)[O-])cc6F)c6ccc3[nH]6)C=C5)C=C4)cc2)CCN1C(=O)NCC(C1CC1)C1CC1
REMARK SMILES IDX 8 1 7 2 6 3 4 4 5 5 3 7 1 8 2 9 82 10 80 11 81 12 83 13
REMARK SMILES IDX 84 14 85 15 86 17 87 18 88 19 89 20 90 21 91 22 92 23 93 24
REMARK SMILES IDX 9 25 10 26 11 27 12 28 13 30 14 31 15 32 79 33 16 34 78 35
REMARK SMILES IDX 17 36 18 37 19 38 72 39 20 40 77 41 71 42 73 43 21 44 76 45
REMARK SMILES IDX 70 46 69 47 22 49 56 50 35 51 55 52 36 53 39 54 54 55 74 56
REMARK SMILES IDX 37 57 38 58 53 60 75 61 40 62 23 63 24 64 33 65 25 66 26 67
REMARK SMILES IDX 32 68 34 69 27 70 28 71 29 72 30 73 31 74 57 75 58 76 67 77
REMARK SMILES IDX 59 78 60 79 66 80 68 81 61 82 62 83 63 84 64 85 65 86 41 87
REMARK SMILES IDX 42 88 51 89 43 90 44 91 50 92 52 93 45 94 46 95 47 96 48 97
REMARK SMILES IDX 49 98
REMARK H PARENT 6 6 85 16 11 29 73 48 39 59
REMARK Flexibility Score: inf
ROOT
ATOM      1  C   UNL A   1      32.223  28.336  24.889  1.00  0.00     0.023 C 
ENDROOT
BRANCH   1   2
ATOM      2  C   UNL A   1      33.602  27.917  24.374  1.00  0.00     0.116 C 
BRANCH   2   3
ATOM      3  N   UNL A   1      33.493  27.296  23.065  1.00  0.00    -0.356 N 
ATOM      4  C   UNL A   1      33.635  26.000  22.666  1.00  0.00     0.225 C 
ATOM      5  O   UNL A   1      33.590  25.783  21.454  1.00  0.00    -0.275 OA
ATOM      6  H   UNL A   1      33.278  27.924  22.337  1.00  0.00     0.163 HD
BRANCH   4   7
ATOM      7  C   UNL A   1      33.727  24.861  23.678  1.00  0.00     0.102 C 
ATOM      8  C   UNL A   1      31.126  24.907  24.035  1.00  0.00     0.032 C 
ATOM      9  C   UNL A   1      32.440  24.135  24.107  1.00  0.00     0.096 C 
ATOM     10  N   UNL A   1      32.650  23.758  25.495  1.00  0.00    -0.321 N 
ATOM     11  C   UNL A   1      34.413  25.247  25.004  1.00  0.00     0.037 C 
ATOM     12  C   UNL A   1      33.485  24.772  26.110  1.00  0.00     0.122 C 
BRANCH  10  13
ATOM     13  C   UNL A   1      31.970  22.875  26.278  1.00  0.00     0.317 C 
ATOM     14  O   UNL A   1      31.462  23.228  27.346  1.00  0.00    -0.249 OA
ATOM     15  N   UNL A   1      31.779  21.583  25.940  1.00  0.00    -0.338 N 
ATOM     16  H   UNL A   1      31.218  21.118  26.602  1.00  0.00     0.165 HD
BRANCH  15  17
ATOM     17  C   UNL A   1      32.181  20.684  24.857  1.00  0.00     0.121 C 
BRANCH  17  18
ATOM     18  C   UNL A   1      33.568  20.053  25.104  1.00  0.00     0.014 C 
BRANCH  18  19
ATOM     19  C   UNL A   1      33.800  18.743  24.364  1.00  0.00    -0.006 C 
ATOM     20  C   UNL A   1      33.536  17.359  24.912  1.00  0.00     0.004 C 
ATOM     21  C   UNL A   1      32.621  17.937  23.869  1.00  0.00     0.004 C 
ENDBRANCH  18  19
BRANCH  18  22
ATOM     22  C   UNL A   1      34.759  20.973  24.847  1.00  0.00    -0.006 C 
ATOM     23  C   UNL A   1      35.578  21.598  25.951  1.00  0.00     0.004 C 
ATOM     24  C   UNL A   1      36.195  20.552  25.060  1.00  0.00     0.004 C 
ENDBRANCH  18  22
ENDBRANCH  17  18
ENDBRANCH  15  17
ENDBRANCH  10  13
ENDBRANCH   4   7
ENDBRANCH   2   3
ENDBRANCH   1   2
BRANCH   1  25
ATOM     25  C   UNL A   1      32.092  28.455  26.398  1.00  0.00     0.023 C 
BRANCH  25  26
ATOM     26  C   UNL A   1      33.384  28.794  27.112  1.00  0.00     0.116 C 
BRANCH  26  27
ATOM     27  N   UNL A   1      33.418  30.147  27.659  1.00  0.00    -0.352 N 
ATOM     28  C   UNL A   1      34.459  30.800  28.280  1.00  0.00     0.251 C 
ATOM     29  H   UNL A   1      32.584  30.662  27.571  1.00  0.00     0.163 HD
ATOM     30  O   UNL A   1      34.295  31.918  28.760  1.00  0.00    -0.269 OA
BRANCH  28  31
ATOM     31  C   UNL A   1      35.759  30.109  28.401  1.00  0.00     0.039 A 
ATOM     32  C   UNL A   1      36.657  30.143  27.332  1.00  0.00     0.014 A 
ATOM     33  C   UNL A   1      36.131  29.545  29.622  1.00  0.00     0.014 A 
ATOM     34  C   UNL A   1      37.969  29.708  27.528  1.00  0.00     0.010 A 
ATOM     35  C   UNL A   1      37.464  29.237  29.848  1.00  0.00     0.010 A 
ATOM     36  C   UNL A   1      38.399  29.310  28.805  1.00  0.00    -0.014 A 
BRANCH  36  37
ATOM     37  C   UNL A   1      39.812  28.948  29.086  1.00  0.00     0.031 A 
ATOM     38  C   UNL A   1      40.734  29.978  29.680  1.00  0.00     0.074 A 
ATOM     39  C   UNL A   1      40.288  27.741  28.716  1.00  0.00     0.049 A 
ATOM     40  N   UNL A   1      42.026  29.921  29.871  1.00  0.00    -0.248 NA
ATOM     41  C   UNL A   1      40.131  31.268  30.059  1.00  0.00     0.031 C 
ATOM     42  C   UNL A   1      39.516  26.684  28.057  1.00  0.00     0.029 A 
ATOM     43  N   UNL A   1      41.546  27.205  28.831  1.00  0.00    -0.354 N 
ATOM     44  C   UNL A   1      42.391  31.173  30.351  1.00  0.00     0.074 A 
ATOM     45  C   UNL A   1      41.198  31.990  30.359  1.00  0.00     0.031 C 
ATOM     46  C   UNL A   1      40.308  25.616  27.860  1.00  0.00     0.029 A 
ATOM     47  C   UNL A   1      41.649  25.922  28.343  1.00  0.00     0.049 A 
ATOM     48  H   UNL A   1      42.305  27.692  29.226  1.00  0.00     0.167 HD
ATOM     49  C   UNL A   1      43.603  31.597  30.781  1.00  0.00     0.037 A 
ATOM     50  C   UNL A   1      42.707  25.089  28.294  1.00  0.00     0.037 A 
ATOM     51  C   UNL A   1      44.766  30.757  30.841  1.00  0.00     0.049 A 
ATOM     52  C   UNL A   1      44.027  25.555  28.846  1.00  0.00     0.074 A 
ATOM     53  C   UNL A   1      46.021  31.056  31.340  1.00  0.00     0.029 A 
ATOM     54  N   UNL A   1      44.811  29.440  30.404  1.00  0.00    -0.354 N 
ATOM     55  N   UNL A   1      44.340  26.724  29.353  1.00  0.00    -0.248 NA
ATOM     56  C   UNL A   1      45.135  24.591  28.826  1.00  0.00     0.031 C 
ATOM     57  C   UNL A   1      46.831  29.926  31.187  1.00  0.00     0.029 A 
ATOM     58  C   UNL A   1      46.073  28.914  30.620  1.00  0.00     0.049 A 
ATOM     59  H   UNL A   1      44.057  28.953  30.000  1.00  0.00     0.167 HD
ATOM     60  C   UNL A   1      45.673  26.628  29.735  1.00  0.00     0.074 A 
ATOM     61  C   UNL A   1      46.104  25.283  29.410  1.00  0.00     0.031 C 
ATOM     62  C   UNL A   1      46.471  27.567  30.301  1.00  0.00     0.037 A 
BRANCH  49  63
ATOM     63  C   UNL A   1      43.711  33.022  31.244  1.00  0.00     0.058 A 
ATOM     64  C   UNL A   1      44.125  34.047  30.376  1.00  0.00     0.135 A 
ATOM     65  C   UNL A   1      43.400  33.371  32.567  1.00  0.00     0.135 A 
ATOM     66  F   UNL A   1      44.454  33.764  29.106  1.00  0.00    -0.206 F 
ATOM     67  C   UNL A   1      44.265  35.359  30.814  1.00  0.00     0.059 A 
ATOM     68  C   UNL A   1      43.505  34.683  33.020  1.00  0.00     0.059 A 
ATOM     69  F   UNL A   1      43.002  32.432  33.439  1.00  0.00    -0.206 F 
ATOM     70  C   UNL A   1      43.958  35.666  32.140  1.00  0.00     0.060 A 
BRANCH  70  71
ATOM     71  S   UNL A   1      44.156  37.371  32.698  1.00  0.00     0.124 S 
ATOM     72  O   UNL A   1      45.562  37.385  33.092  1.00  0.00    -0.237 OA
ATOM     73  O   UNL A   1      43.829  38.135  31.498  1.00  0.00    -0.237 OA
ATOM     74  O   UNL A   1      43.196  37.483  33.791  1.00  0.00    -0.744 OA
ENDBRANCH  70  71
ENDBRANCH  49  63
BRANCH  50  75
ATOM     75  C   UNL A   1      42.551  23.715  27.748  1.00  0.00     0.058 A 
ATOM     76  C   UNL A   1      42.566  23.489  26.364  1.00  0.00     0.135 A 
ATOM     77  C   UNL A   1      42.402  22.603  28.591  1.00  0.00     0.135 A 
ATOM     78  F   UNL A   1      42.703  24.522  25.518  1.00  0.00    -0.206 F 
ATOM     79  C   UNL A   1      42.420  22.213  25.831  1.00  0.00     0.059 A 
ATOM     80  C   UNL A   1      42.275  21.314  28.082  1.00  0.00     0.059 A 
ATOM     81  F   UNL A   1      42.401  22.764  29.923  1.00  0.00    -0.206 F 
ATOM     82  C   UNL A   1      42.275  21.129  26.699  1.00  0.00     0.060 A 
BRANCH  82  83
ATOM     83  S   UNL A   1      42.139  19.469  25.999  1.00  0.00     0.124 S 
ATOM     84  O   UNL A   1      42.649  18.649  27.092  1.00  0.00    -0.237 OA
ATOM     85  O   UNL A   1      40.708  19.362  25.734  1.00  0.00    -0.237 OA
ATOM     86  O   UNL A   1      42.985  19.538  24.812  1.00  0.00    -0.744 OA
ENDBRANCH  82  83
ENDBRANCH  50  75
BRANCH  62  87
ATOM     87  C   UNL A   1      47.877  27.165  30.636  1.00  0.00     0.058 A 
ATOM     88  C   UNL A   1      48.183  26.495  31.830  1.00  0.00     0.135 A 
ATOM     89  C   UNL A   1      48.918  27.397  29.723  1.00  0.00     0.135 A 
ATOM     90  F   UNL A   1      47.222  26.256  32.736  1.00  0.00    -0.206 F 
ATOM     91  C   UNL A   1      49.480  26.083  32.117  1.00  0.00     0.059 A 
ATOM     92  C   UNL A   1      50.218  26.975  29.980  1.00  0.00     0.059 A 
ATOM     93  F   UNL A   1      48.672  28.026  28.562  1.00  0.00    -0.206 F 
ATOM     94  C   UNL A   1      50.490  26.326  31.184  1.00  0.00     0.060 A 
BRANCH  94  95
ATOM     95  S   UNL A   1      52.162  25.749  31.546  1.00  0.00     0.124 S 
ATOM     96  O   UNL A   1      52.816  25.915  30.253  1.00  0.00    -0.237 OA
ATOM     97  O   UNL A   1      52.590  26.666  32.597  1.00  0.00    -0.237 OA
ATOM     98  O   UNL A   1      51.957  24.367  31.974  1.00  0.00    -0.744 OA
ENDBRANCH  94  95
ENDBRANCH  62  87
ENDBRANCH  36  37
ENDBRANCH  28  31
ENDBRANCH  26  27
ENDBRANCH  25  26
ENDBRANCH   1  25
TORSDOF 19
ENDMDL
MODEL 2
REMARK VINA RESULT:     -11.1      2.745      3.832
REMARK SMILES C[C@H]1[C@@H](C(=O)NCCCCNC(=O)c2ccc(-c3c4nc(c(-c5c(F)cc(S(=O)(=O)[O-])cc5F)c5ccc([nH]5)c(-c5c(F)cc(S(=O)(=O)[O-])cc5F)c5nc(c(-c6c(F)cc(S(=O)(=O)[O-])cc6F)c6ccc3[nH]6)C=C5)C=C4)cc2)CCN1C(=O)NCC(C1CC1)C1CC1
REMARK SMILES IDX 8 1 7 2 6 3 4 4 5 5 3 7 1 8 2 9 82 10 80 11 81 12 83 13
REMARK SMILES IDX 84 14 85 15 86 17 87 18 88 19 89 20 90 21 91 22 92 23 93 24
REMARK SMILES IDX 9 25 10 26 11 27 12 28 13 30 14 31 15 32 79 33 16 34 78 35
REMARK SMILES IDX 17 36 18 37 19 38 72 39 20 40 77 41 71 42 73 43 21 44 76 45
REMARK SMILES IDX 70 46 69 47 22 49 56 50 35 51 55 52 36 53 39 54 54 55 74 56
REMARK SMILES IDX 37 57 38 58 53 60 75 61 40 62 23 63 24 64 33 65 25 66 26 67
REMARK SMILES IDX 32 68 34 69 27 70 28 71 29 72 30 73 31 74 57 75 58 76 67 77
REMARK SMILES IDX 59 78 60 79 66 80 68 81 61 82 62 83 63 84 64 85 65 86 41 87
REMARK SMILES IDX 42 88 51 89 43 90 44 91 50 92 52 93 45 94 46 95 47 96 48 97
REMARK SMILES IDX 49 98
REMARK H PARENT 6 6 85 16 11 29 73 48 39 59
REMARK Flexibility Score: inf
ROOT
ATOM      1  C   UNL A   1      33.641  30.479  27.196  1.00  0.00     0.023 C 
ENDROOT
BRANCH   1   2
ATOM      2  C   UNL A   1      32.212  30.225  26.709  1.00  0.00     0.116 C 
BRANCH   2   3
ATOM      3  N   UNL A   1      32.196  29.965  25.281  1.00  0.00    -0.356 N 
ATOM      4  C   UNL A   1      31.926  28.832  24.572  1.00  0.00     0.225 C 
ATOM      5  O   UNL A   1      32.097  28.883  23.353  1.00  0.00    -0.275 OA
ATOM      6  H   UNL A   1      32.422  30.746  24.725  1.00  0.00     0.163 HD
BRANCH   4   7
ATOM      7  C   UNL A   1      31.326  27.598  25.242  1.00  0.00     0.102 C 
ATOM      8  C   UNL A   1      33.649  26.377  25.181  1.00  0.00     0.032 C 
ATOM      9  C   UNL A   1      32.267  26.522  25.810  1.00  0.00     0.096 C 
ATOM     10  N   UNL A   1      31.570  25.260  25.628  1.00  0.00    -0.321 N 
ATOM     11  C   UNL A   1      30.335  26.817  24.356  1.00  0.00     0.037 C 
ATOM     12  C   UNL A   1      30.772  25.362  24.421  1.00  0.00     0.122 C 
BRANCH  10  13
ATOM     13  C   UNL A   1      31.806  24.038  26.182  1.00  0.00     0.317 C 
ATOM     14  O   UNL A   1      31.424  23.772  27.326  1.00  0.00    -0.249 OA
ATOM     15  N   UNL A   1      32.433  23.039  25.529  1.00  0.00    -0.338 N 
ATOM     16  H   UNL A   1      32.460  22.217  26.071  1.00  0.00     0.165 HD
BRANCH  15  17
ATOM     17  C   UNL A   1      33.088  22.845  24.234  1.00  0.00     0.121 C 
BRANCH  17  18
ATOM     18  C   UNL A   1      34.155  21.731  24.277  1.00  0.00     0.014 C 
BRANCH  18  19
ATOM     19  C   UNL A   1      35.526  22.197  24.745  1.00  0.00    -0.006 C 
ATOM     20  C   UNL A   1      36.830  21.460  24.536  1.00  0.00     0.004 C 
ATOM     21  C   UNL A   1      36.536  22.701  23.740  1.00  0.00     0.004 C 
ENDBRANCH  18  19
BRANCH  18  22
ATOM     22  C   UNL A   1      33.768  20.487  25.072  1.00  0.00    -0.006 C 
ATOM     23  C   UNL A   1      32.624  19.579  24.687  1.00  0.00     0.004 C 
ATOM     24  C   UNL A   1      34.041  19.078  24.596  1.00  0.00     0.004 C 
ENDBRANCH  18  22
ENDBRANCH  17  18
ENDBRANCH  15  17
ENDBRANCH  10  13
ENDBRANCH   4   7
ENDBRANCH   2   3
ENDBRANCH   1   2
BRANCH   1  25
ATOM     25  C   UNL A   1      34.572  29.280  27.155  1.00  0.00     0.023 C 
BRANCH  25  26
ATOM     26  C   UNL A   1      35.811  29.421  28.015  1.00  0.00     0.116 C 
BRANCH  26  27
ATOM     27  N   UNL A   1      35.534  29.835  29.387  1.00  0.00    -0.352 N 
ATOM     28  C   UNL A   1      36.423  30.098  30.405  1.00  0.00     0.251 C 
ATOM     29  H   UNL A   1      34.582  29.942  29.614  1.00  0.00     0.163 HD
ATOM     30  O   UNL A   1      36.017  30.358  31.534  1.00  0.00    -0.269 OA
BRANCH  28  31
ATOM     31  C   UNL A   1      37.870  30.009  30.123  1.00  0.00     0.039 A 
ATOM     32  C   UNL A   1      38.723  29.452  31.079  1.00  0.00     0.014 A 
ATOM     33  C   UNL A   1      38.352  30.357  28.861  1.00  0.00     0.014 A 
ATOM     34  C   UNL A   1      40.037  29.143  30.725  1.00  0.00     0.010 A 
ATOM     35  C   UNL A   1      39.613  29.931  28.475  1.00  0.00     0.010 A 
ATOM     36  C   UNL A   1      40.474  29.322  29.402  1.00  0.00    -0.014 A 
BRANCH  36  37
ATOM     37  C   UNL A   1      41.826  28.903  28.952  1.00  0.00     0.031 A 
ATOM     38  C   UNL A   1      42.932  29.922  28.888  1.00  0.00     0.074 A 
ATOM     39  C   UNL A   1      42.032  27.646  28.508  1.00  0.00     0.049 A 
ATOM     40  N   UNL A   1      44.137  29.806  28.394  1.00  0.00    -0.248 NA
ATOM     41  C   UNL A   1      42.623  31.270  29.396  1.00  0.00     0.031 C 
ATOM     42  C   UNL A   1      41.021  26.587  28.444  1.00  0.00     0.029 A 
ATOM     43  N   UNL A   1      43.164  27.049  28.013  1.00  0.00    -0.354 N 
ATOM     44  C   UNL A   1      44.708  31.068  28.496  1.00  0.00     0.074 A 
ATOM     45  C   UNL A   1      43.698  31.951  29.035  1.00  0.00     0.031 C 
ATOM     46  C   UNL A   1      41.588  25.463  27.972  1.00  0.00     0.029 A 
ATOM     47  C   UNL A   1      42.989  25.728  27.667  1.00  0.00     0.049 A 
ATOM     48  H   UNL A   1      44.023  27.521  27.915  1.00  0.00     0.167 HD
ATOM     49  C   UNL A   1      45.972  31.454  28.201  1.00  0.00     0.037 A 
ATOM     50  C   UNL A   1      43.863  24.835  27.164  1.00  0.00     0.037 A 
ATOM     51  C   UNL A   1      46.992  30.556  27.737  1.00  0.00     0.049 A 
ATOM     52  C   UNL A   1      45.283  25.266  26.913  1.00  0.00     0.074 A 
ATOM     53  C   UNL A   1      48.327  30.820  27.491  1.00  0.00     0.029 A 
ATOM     54  N   UNL A   1      46.793  29.208  27.467  1.00  0.00    -0.354 N 
ATOM     55  N   UNL A   1      45.823  26.451  27.074  1.00  0.00    -0.248 NA
ATOM     56  C   UNL A   1      46.213  24.241  26.422  1.00  0.00     0.031 C 
ATOM     57  C   UNL A   1      48.932  29.637  27.053  1.00  0.00     0.029 A 
ATOM     58  C   UNL A   1      47.981  28.630  27.056  1.00  0.00     0.049 A 
ATOM     59  H   UNL A   1      45.934  28.736  27.555  1.00  0.00     0.167 HD
ATOM     60  C   UNL A   1      47.161  26.308  26.725  1.00  0.00     0.074 A 
ATOM     61  C   UNL A   1      47.351  24.920  26.357  1.00  0.00     0.031 C 
ATOM     62  C   UNL A   1      48.146  27.241  26.709  1.00  0.00     0.037 A 
BRANCH  49  63
ATOM     63  C   UNL A   1      46.317  32.902  28.403  1.00  0.00     0.058 A 
ATOM     64  C   UNL A   1      46.796  33.379  29.634  1.00  0.00     0.135 A 
ATOM     65  C   UNL A   1      46.168  33.826  27.357  1.00  0.00     0.135 A 
ATOM     66  F   UNL A   1      46.937  32.541  30.674  1.00  0.00    -0.206 F 
ATOM     67  C   UNL A   1      47.076  34.726  29.835  1.00  0.00     0.059 A 
ATOM     68  C   UNL A   1      46.470  35.175  27.525  1.00  0.00     0.059 A 
ATOM     69  F   UNL A   1      45.712  33.426  26.159  1.00  0.00    -0.206 F 
ATOM     70  C   UNL A   1      46.904  35.617  28.775  1.00  0.00     0.060 A 
BRANCH  70  71
ATOM     71  S   UNL A   1      47.261  37.365  29.052  1.00  0.00     0.124 S 
ATOM     72  O   UNL A   1      48.414  37.567  28.180  1.00  0.00    -0.237 OA
ATOM     73  O   UNL A   1      46.023  38.010  28.625  1.00  0.00    -0.237 OA
ATOM     74  O   UNL A   1      47.537  37.430  30.484  1.00  0.00    -0.744 OA
ENDBRANCH  70  71
ENDBRANCH  49  63
BRANCH  50  75
ATOM     75  C   UNL A   1      43.436  23.434  26.910  1.00  0.00     0.058 A 
ATOM     76  C   UNL A   1      43.205  22.981  25.602  1.00  0.00     0.135 A 
ATOM     77  C   UNL A   1      43.264  22.517  27.959  1.00  0.00     0.135 A 
ATOM     78  F   UNL A   1      43.353  23.822  24.567  1.00  0.00    -0.206 F 
ATOM     79  C   UNL A   1      42.803  21.676  25.342  1.00  0.00     0.059 A 
ATOM     80  C   UNL A   1      42.882  21.200  27.722  1.00  0.00     0.059 A 
ATOM     81  F   UNL A   1      43.491  22.896  29.226  1.00  0.00    -0.206 F 
ATOM     82  C   UNL A   1      42.645  20.791  26.409  1.00  0.00     0.060 A 
BRANCH  82  83
ATOM     83  S   UNL A   1      42.173  19.083  26.057  1.00  0.00     0.124 S 
ATOM     84  O   UNL A   1      40.762  19.233  25.718  1.00  0.00    -0.237 OA
ATOM     85  O   UNL A   1      43.062  18.738  24.952  1.00  0.00    -0.237 OA
ATOM     86  O   UNL A   1      42.451  18.394  27.313  1.00  0.00    -0.744 OA
ENDBRANCH  82  83
ENDBRANCH  50  75
BRANCH  62  87
ATOM     87  C   UNL A   1      49.519  26.787  26.313  1.00  0.00     0.058 A 
ATOM     88  C   UNL A   1      50.011  26.988  25.014  1.00  0.00     0.135 A 
ATOM     89  C   UNL A   1      50.374  26.201  27.260  1.00  0.00     0.135 A 
ATOM     90  F   UNL A   1      49.229  27.538  24.073  1.00  0.00    -0.206 F 
ATOM     91  C   UNL A   1      51.301  26.607  24.662  1.00  0.00     0.059 A 
ATOM     92  C   UNL A   1      51.675  25.833  26.936  1.00  0.00     0.059 A 
ATOM     93  F   UNL A   1      49.951  25.998  28.518  1.00  0.00    -0.206 F 
ATOM     94  C   UNL A   1      52.127  26.033  25.631  1.00  0.00     0.060 A 
BRANCH  94  95
ATOM     95  S   UNL A   1      53.815  25.582  25.176  1.00  0.00     0.124 S 
ATOM     96  O   UNL A   1      53.940  24.263  25.786  1.00  0.00    -0.237 OA
ATOM     97  O   UNL A   1      53.764  25.604  23.718  1.00  0.00    -0.237 OA
ATOM     98  O   UNL A   1      54.621  26.636  25.785  1.00  0.00    -0.744 OA
ENDBRANCH  94  95
ENDBRANCH  62  87
ENDBRANCH  36  37
ENDBRANCH  28  31
ENDBRANCH  26  27
ENDBRANCH  25  26
ENDBRANCH   1  25
TORSDOF 19
ENDMDL
MODEL 3
REMARK VINA RESULT:     -11.1      4.768     10.465
REMARK SMILES C[C@H]1[C@@H](C(=O)NCCCCNC(=O)c2ccc(-c3c4nc(c(-c5c(F)cc(S(=O)(=O)[O-])cc5F)c5ccc([nH]5)c(-c5c(F)cc(S(=O)(=O)[O-])cc5F)c5nc(c(-c6c(F)cc(S(=O)(=O)[O-])cc6F)c6ccc3[nH]6)C=C5)C=C4)cc2)CCN1C(=O)NCC(C1CC1)C1CC1
REMARK SMILES IDX 8 1 7 2 6 3 4 4 5 5 3 7 1 8 2 9 82 10 80 11 81 12 83 13
REMARK SMILES IDX 84 14 85 15 86 17 87 18 88 19 89 20 90 21 91 22 92 23 93 24
REMARK SMILES IDX 9 25 10 26 11 27 12 28 13 30 14 31 15 32 79 33 16 34 78 35
REMARK SMILES IDX 17 36 18 37 19 38 72 39 20 40 77 41 71 42 73 43 21 44 76 45
REMARK SMILES IDX 70 46 69 47 22 49 56 50 35 51 55 52 36 53 39 54 54 55 74 56
REMARK SMILES IDX 37 57 38 58 53 60 75 61 40 62 23 63 24 64 33 65 25 66 26 67
REMARK SMILES IDX 32 68 34 69 27 70 28 71 29 72 30 73 31 74 57 75 58 76 67 77
REMARK SMILES IDX 59 78 60 79 66 80 68 81 61 82 62 83 63 84 64 85 65 86 41 87
REMARK SMILES IDX 42 88 51 89 43 90 44 91 50 92 52 93 45 94 46 95 47 96 48 97
REMARK SMILES IDX 49 98
REMARK H PARENT 6 6 85 16 11 29 73 48 39 59
REMARK Flexibility Score: inf
ROOT
ATOM      1  C   UNL A   1      38.756  21.607  25.490  1.00  0.00     0.023 C 
ENDROOT
BRANCH   1   2
ATOM      2  C   UNL A   1      37.276  21.921  25.721  1.00  0.00     0.116 C 
BRANCH   2   3
ATOM      3  N   UNL A   1      36.447  20.793  25.334  1.00  0.00    -0.356 N 
ATOM      4  C   UNL A   1      35.121  20.711  25.025  1.00  0.00     0.225 C 
ATOM      5  O   UNL A   1      34.663  19.583  24.834  1.00  0.00    -0.275 OA
ATOM      6  H   UNL A   1      36.928  19.935  25.287  1.00  0.00     0.163 HD
BRANCH   4   7
ATOM      7  C   UNL A   1      34.276  21.963  24.808  1.00  0.00     0.102 C 
ATOM      8  C   UNL A   1      33.871  22.194  27.392  1.00  0.00     0.032 C 
ATOM      9  C   UNL A   1      33.928  22.851  26.016  1.00  0.00     0.096 C 
ATOM     10  N   UNL A   1      32.608  23.391  25.735  1.00  0.00    -0.321 N 
ATOM     11  C   UNL A   1      32.922  21.700  24.119  1.00  0.00     0.037 C 
ATOM     12  C   UNL A   1      31.875  22.399  24.972  1.00  0.00     0.122 C 
BRANCH  10  13
ATOM     13  C   UNL A   1      31.941  24.427  26.315  1.00  0.00     0.317 C 
ATOM     14  O   UNL A   1      31.071  24.229  27.168  1.00  0.00    -0.249 OA
ATOM     15  N   UNL A   1      32.195  25.721  26.029  1.00  0.00    -0.338 N 
ATOM     16  H   UNL A   1      31.654  26.325  26.588  1.00  0.00     0.165 HD
BRANCH  15  17
ATOM     17  C   UNL A   1      33.055  26.471  25.113  1.00  0.00     0.121 C 
BRANCH  17  18
ATOM     18  C   UNL A   1      32.298  26.947  23.855  1.00  0.00     0.014 C 
BRANCH  18  19
ATOM     19  C   UNL A   1      31.912  25.829  22.898  1.00  0.00    -0.006 C 
ATOM     20  C   UNL A   1      32.216  25.786  21.417  1.00  0.00     0.004 C 
ATOM     21  C   UNL A   1      32.972  24.894  22.362  1.00  0.00     0.004 C 
ENDBRANCH  18  19
BRANCH  18  22
ATOM     22  C   UNL A   1      31.064  27.805  24.121  1.00  0.00    -0.006 C 
ATOM     23  C   UNL A   1      31.115  29.131  24.843  1.00  0.00     0.004 C 
ATOM     24  C   UNL A   1      30.768  29.088  23.378  1.00  0.00     0.004 C 
ENDBRANCH  18  22
ENDBRANCH  17  18
ENDBRANCH  15  17
ENDBRANCH  10  13
ENDBRANCH   4   7
ENDBRANCH   2   3
ENDBRANCH   1   2
BRANCH   1  25
ATOM     25  C   UNL A   1      39.661  21.772  26.699  1.00  0.00     0.023 C 
BRANCH  25  26
ATOM     26  C   UNL A   1      39.949  23.212  27.071  1.00  0.00     0.116 C 
BRANCH  26  27
ATOM     27  N   UNL A   1      40.651  23.961  26.033  1.00  0.00    -0.352 N 
ATOM     28  C   UNL A   1      41.238  25.204  26.115  1.00  0.00     0.251 C 
ATOM     29  H   UNL A   1      40.714  23.516  25.157  1.00  0.00     0.163 HD
ATOM     30  O   UNL A   1      41.721  25.731  25.117  1.00  0.00    -0.269 OA
BRANCH  28  31
ATOM     31  C   UNL A   1      41.230  25.909  27.413  1.00  0.00     0.039 A 
ATOM     32  C   UNL A   1      42.346  26.657  27.795  1.00  0.00     0.014 A 
ATOM     33  C   UNL A   1      40.064  25.931  28.180  1.00  0.00     0.014 A 
ATOM     34  C   UNL A   1      42.249  27.514  28.892  1.00  0.00     0.010 A 
ATOM     35  C   UNL A   1      39.932  26.877  29.185  1.00  0.00     0.010 A 
ATOM     36  C   UNL A   1      41.022  27.678  29.557  1.00  0.00    -0.014 A 
BRANCH  36  37
ATOM     37  C   UNL A   1      40.844  28.662  30.655  1.00  0.00     0.031 A 
ATOM     38  C   UNL A   1      41.693  28.550  31.893  1.00  0.00     0.074 A 
ATOM     39  C   UNL A   1      39.860  29.583  30.586  1.00  0.00     0.049 A 
ATOM     40  N   UNL A   1      41.606  29.207  33.019  1.00  0.00    -0.248 NA
ATOM     41  C   UNL A   1      42.747  27.520  31.883  1.00  0.00     0.031 C 
ATOM     42  C   UNL A   1      38.917  29.742  29.476  1.00  0.00     0.029 A 
ATOM     43  N   UNL A   1      39.481  30.552  31.480  1.00  0.00    -0.354 N 
ATOM     44  C   UNL A   1      42.560  28.645  33.858  1.00  0.00     0.074 A 
ATOM     45  C   UNL A   1      43.169  27.550  33.137  1.00  0.00     0.031 C 
ATOM     46  C   UNL A   1      38.094  30.771  29.740  1.00  0.00     0.029 A 
ATOM     47  C   UNL A   1      38.424  31.321  31.050  1.00  0.00     0.049 A 
ATOM     48  H   UNL A   1      39.925  30.687  32.349  1.00  0.00     0.167 HD
ATOM     49  C   UNL A   1      42.925  29.026  35.105  1.00  0.00     0.037 A 
ATOM     50  C   UNL A   1      37.796  32.354  31.646  1.00  0.00     0.037 A 
ATOM     51  C   UNL A   1      42.368  30.163  35.786  1.00  0.00     0.049 A 
ATOM     52  C   UNL A   1      38.266  32.809  33.001  1.00  0.00     0.074 A 
ATOM     53  C   UNL A   1      42.725  30.691  37.013  1.00  0.00     0.029 A 
ATOM     54  N   UNL A   1      41.348  30.960  35.285  1.00  0.00    -0.354 N 
ATOM     55  N   UNL A   1      39.214  32.302  33.755  1.00  0.00    -0.248 NA
ATOM     56  C   UNL A   1      37.592  33.976  33.583  1.00  0.00     0.031 C 
ATOM     57  C   UNL A   1      41.906  31.797  37.265  1.00  0.00     0.029 A 
ATOM     58  C   UNL A   1      41.061  31.975  36.180  1.00  0.00     0.049 A 
ATOM     59  H   UNL A   1      40.896  30.822  34.422  1.00  0.00     0.167 HD
ATOM     60  C   UNL A   1      39.264  33.104  34.890  1.00  0.00     0.074 A 
ATOM     61  C   UNL A   1      38.260  34.134  34.717  1.00  0.00     0.031 C 
ATOM     62  C   UNL A   1      40.066  32.997  35.978  1.00  0.00     0.037 A 
BRANCH  49  63
ATOM     63  C   UNL A   1      43.993  28.221  35.789  1.00  0.00     0.058 A 
ATOM     64  C   UNL A   1      45.349  28.576  35.703  1.00  0.00     0.135 A 
ATOM     65  C   UNL A   1      43.661  27.082  36.538  1.00  0.00     0.135 A 
ATOM     66  F   UNL A   1      45.723  29.645  34.982  1.00  0.00    -0.206 F 
ATOM     67  C   UNL A   1      46.342  27.809  36.302  1.00  0.00     0.059 A 
ATOM     68  C   UNL A   1      44.635  26.314  37.170  1.00  0.00     0.059 A 
ATOM     69  F   UNL A   1      42.380  26.695  36.651  1.00  0.00    -0.206 F 
ATOM     70  C   UNL A   1      45.975  26.676  37.029  1.00  0.00     0.060 A 
BRANCH  70  71
ATOM     71  S   UNL A   1      47.275  25.682  37.790  1.00  0.00     0.124 S 
ATOM     72  O   UNL A   1      46.590  25.165  38.971  1.00  0.00    -0.237 OA
ATOM     73  O   UNL A   1      47.571  24.701  36.750  1.00  0.00    -0.237 OA
ATOM     74  O   UNL A   1      48.333  26.653  38.052  1.00  0.00    -0.744 OA
ENDBRANCH  70  71
ENDBRANCH  49  63
BRANCH  50  75
ATOM     75  C   UNL A   1      36.690  33.059  30.947  1.00  0.00     0.058 A 
ATOM     76  C   UNL A   1      35.357  32.873  31.345  1.00  0.00     0.135 A 
ATOM     77  C   UNL A   1      36.937  33.940  29.883  1.00  0.00     0.135 A 
ATOM     78  F   UNL A   1      35.071  32.037  32.355  1.00  0.00    -0.206 F 
ATOM     79  C   UNL A   1      34.307  33.521  30.705  1.00  0.00     0.059 A 
ATOM     80  C   UNL A   1      35.904  34.616  29.240  1.00  0.00     0.059 A 
ATOM     81  F   UNL A   1      38.196  34.167  29.476  1.00  0.00    -0.206 F 
ATOM     82  C   UNL A   1      34.590  34.392  29.652  1.00  0.00     0.060 A 
BRANCH  82  83
ATOM     83  S   UNL A   1      33.223  35.269  28.860  1.00  0.00     0.124 S 
ATOM     84  O   UNL A   1      32.633  34.214  28.044  1.00  0.00    -0.237 OA
ATOM     85  O   UNL A   1      32.433  35.708  30.006  1.00  0.00    -0.237 OA
ATOM     86  O   UNL A   1      33.893  36.336  28.124  1.00  0.00    -0.744 OA
ENDBRANCH  82  83
ENDBRANCH  50  75
BRANCH  62  87
ATOM     87  C   UNL A   1      39.916  34.036  37.049  1.00  0.00     0.058 A 
ATOM     88  C   UNL A   1      40.494  35.308  36.922  1.00  0.00     0.135 A 
ATOM     89  C   UNL A   1      39.133  33.777  38.185  1.00  0.00     0.135 A 
ATOM     90  F   UNL A   1      41.256  35.601  35.857  1.00  0.00    -0.206 F 
ATOM     91  C   UNL A   1      40.315  36.285  37.896  1.00  0.00     0.059 A 
ATOM     92  C   UNL A   1      38.922  34.746  39.160  1.00  0.00     0.059 A 
ATOM     93  F   UNL A   1      38.550  32.577  38.345  1.00  0.00    -0.206 F 
ATOM     94  C   UNL A   1      39.525  35.995  39.010  1.00  0.00     0.060 A 
BRANCH  94  95
ATOM     95  S   UNL A   1      39.262  37.283  40.247  1.00  0.00     0.124 S 
ATOM     96  O   UNL A   1      38.485  36.569  41.254  1.00  0.00    -0.237 OA
ATOM     97  O   UNL A   1      40.626  37.634  40.629  1.00  0.00    -0.237 OA
ATOM     98  O   UNL A   1      38.539  38.316  39.510  1.00  0.00    -0.744 OA
ENDBRANCH  94  95
ENDBRANCH  62  87
ENDBRANCH  36  37
ENDBRANCH  28  31
ENDBRANCH  26  27
ENDBRANCH  25  26
ENDBRANCH   1  25
TORSDOF 19
ENDMDL
