MODEL 1
REMARK VINA RESULT:     -11.7      0.000      0.000
REMARK SMILES CC(C)(C)c1csc(C[NH2+][C@H]2CCC[C@@H](C(=O)NCCCCNC(=O)c3ccc(-c4c5nc(c(-c6c(F)cc(S(=O)(=O)[O-])cc6F)c6ccc([nH]6)c(-c6c(F)cc(S(=O)(=O)[O-])cc6F)c6nc(c(-c7c(F)cc(S(=O)(=O)[O-])cc7F)c7ccc4[nH]7)C=C6)C=C5)cc3)C2)n1
REMARK SMILES IDX 20 1 19 2 18 3 16 4 17 5 15 7 11 8 12 9 92 10 13 11 14 12
REMARK SMILES IDX 10 13 9 16 8 17 5 18 6 19 93 20 7 21 2 22 1 23 3 24 4 25
REMARK SMILES IDX 21 26 22 27 23 28 24 29 25 31 26 32 27 33 91 34 28 35 90 36
REMARK SMILES IDX 29 37 30 38 31 39 84 40 32 41 89 42 83 43 85 44 33 45 88 46
REMARK SMILES IDX 82 47 81 48 34 50 68 51 47 52 67 53 48 54 51 55 66 56 86 57
REMARK SMILES IDX 49 58 50 59 65 61 87 62 52 63 35 64 36 65 45 66 37 67 38 68
REMARK SMILES IDX 44 69 46 70 39 71 40 72 41 73 42 74 43 75 69 76 70 77 79 78
REMARK SMILES IDX 71 79 72 80 78 81 80 82 73 83 74 84 75 85 76 86 77 87 53 88
REMARK SMILES IDX 54 89 63 90 55 91 56 92 62 93 64 94 57 95 58 96 59 97 60 98
REMARK SMILES IDX 61 99
REMARK H PARENT 18 6 10 14 10 15 23 30 85 49 51 60
REMARK Flexibility Score: inf
ROOT
ATOM      1  C   UNL A   1      40.716  21.008  27.408  1.00  0.00     0.023 C 
ENDROOT
BRANCH   1   2
ATOM      2  C   UNL A   1      39.958  21.428  26.149  1.00  0.00     0.116 C 
BRANCH   2   3
ATOM      3  N   UNL A   1      38.967  22.442  26.444  1.00  0.00    -0.356 N 
ATOM      4  C   UNL A   1      37.788  22.734  25.836  1.00  0.00     0.223 C 
ATOM      5  O   UNL A   1      37.197  23.736  26.236  1.00  0.00    -0.275 OA
ATOM      6  H   UNL A   1      39.184  23.015  27.216  1.00  0.00     0.163 HD
BRANCH   4   7
ATOM      7  C   UNL A   1      37.283  21.864  24.684  1.00  0.00     0.084 C 
ATOM      8  C   UNL A   1      34.774  21.347  25.268  1.00  0.00     0.183 C 
ATOM      9  C   UNL A   1      34.395  22.210  24.054  1.00  0.00     0.065 C 
ATOM     10  C   UNL A   1      36.221  20.822  25.102  1.00  0.00     0.078 C 
ATOM     11  C   UNL A   1      35.404  23.314  23.761  1.00  0.00     0.007 C 
ATOM     12  C   UNL A   1      36.796  22.734  23.522  1.00  0.00     0.014 C 
BRANCH   8  13
ATOM     13  N   UNL A   1      34.678  22.000  26.565  1.00  0.00    -0.338 N 
ATOM     14  H   UNL A   1      35.337  21.531  27.188  1.00  0.00     0.346 HD
ATOM     15  H   UNL A   1      34.873  22.981  26.369  1.00  0.00     0.346 HD
BRANCH  13  16
ATOM     16  C   UNL A   1      33.383  22.012  27.233  1.00  0.00     0.329 C 
BRANCH  16  17
ATOM     17  C   UNL A   1      32.526  23.177  26.783  1.00  0.00     0.147 A 
ATOM     18  C   UNL A   1      31.966  25.256  26.201  1.00  0.00     0.057 A 
ATOM     19  C   UNL A   1      30.712  24.671  26.210  1.00  0.00     0.091 A 
ATOM     20  N   UNL A   1      32.996  24.385  26.540  1.00  0.00    -0.240 NA
ATOM     21  S   UNL A   1      30.829  23.000  26.564  1.00  0.00    -0.121 S 
BRANCH  18  22
ATOM     22  C   UNL A   1      32.310  26.707  25.896  1.00  0.00     0.005 C 
ATOM     23  C   UNL A   1      33.835  26.868  25.714  1.00  0.00     0.017 C 
ATOM     24  C   UNL A   1      31.853  27.607  27.059  1.00  0.00     0.017 C 
ATOM     25  C   UNL A   1      31.632  27.194  24.598  1.00  0.00     0.017 C 
ENDBRANCH  18  22
ENDBRANCH  16  17
ENDBRANCH  13  16
ENDBRANCH   8  13
ENDBRANCH   4   7
ENDBRANCH   2   3
ENDBRANCH   1   2
BRANCH   1  26
ATOM     26  C   UNL A   1      42.127  21.588  27.539  1.00  0.00     0.023 C 
BRANCH  26  27
ATOM     27  C   UNL A   1      42.198  23.102  27.700  1.00  0.00     0.116 C 
BRANCH  27  28
ATOM     28  N   UNL A   1      42.326  23.794  26.429  1.00  0.00    -0.352 N 
ATOM     29  C   UNL A   1      42.096  25.116  26.135  1.00  0.00     0.251 C 
ATOM     30  H   UNL A   1      42.618  23.238  25.672  1.00  0.00     0.163 HD
ATOM     31  O   UNL A   1      42.102  25.488  24.963  1.00  0.00    -0.269 OA
BRANCH  29  32
ATOM     32  C   UNL A   1      41.818  26.080  27.221  1.00  0.00     0.039 A 
ATOM     33  C   UNL A   1      40.725  25.854  28.061  1.00  0.00     0.014 A 
ATOM     34  C   UNL A   1      42.627  27.204  27.412  1.00  0.00     0.014 A 
ATOM     35  C   UNL A   1      40.474  26.727  29.123  1.00  0.00     0.010 A 
ATOM     36  C   UNL A   1      42.424  28.026  28.518  1.00  0.00     0.010 A 
ATOM     37  C   UNL A   1      41.338  27.805  29.378  1.00  0.00    -0.014 A 
BRANCH  37  38
ATOM     38  C   UNL A   1      41.107  28.724  30.525  1.00  0.00     0.031 A 
ATOM     39  C   UNL A   1      41.950  28.604  31.767  1.00  0.00     0.074 A 
ATOM     40  C   UNL A   1      40.110  29.629  30.470  1.00  0.00     0.049 A 
ATOM     41  N   UNL A   1      41.865  29.269  32.891  1.00  0.00    -0.248 NA
ATOM     42  C   UNL A   1      43.010  27.582  31.755  1.00  0.00     0.031 C 
ATOM     43  C   UNL A   1      39.194  29.814  29.341  1.00  0.00     0.029 A 
ATOM     44  N   UNL A   1      39.691  30.559  31.388  1.00  0.00    -0.354 N 
ATOM     45  C   UNL A   1      42.847  28.739  33.720  1.00  0.00     0.074 A 
ATOM     46  C   UNL A   1      43.474  27.657  32.993  1.00  0.00     0.031 C 
ATOM     47  C   UNL A   1      38.340  30.810  29.625  1.00  0.00     0.029 A 
ATOM     48  C   UNL A   1      38.617  31.310  30.968  1.00  0.00     0.049 A 
ATOM     49  H   UNL A   1      40.120  30.679  32.267  1.00  0.00     0.167 HD
ATOM     50  C   UNL A   1      43.212  29.133  34.964  1.00  0.00     0.037 A 
ATOM     51  C   UNL A   1      37.929  32.284  31.596  1.00  0.00     0.037 A 
ATOM     52  C   UNL A   1      42.597  30.225  35.673  1.00  0.00     0.049 A 
ATOM     53  C   UNL A   1      38.350  32.703  32.980  1.00  0.00     0.074 A 
ATOM     54  C   UNL A   1      42.925  30.736  36.917  1.00  0.00     0.029 A 
ATOM     55  N   UNL A   1      41.528  30.976  35.204  1.00  0.00    -0.354 N 
ATOM     56  N   UNL A   1      39.319  32.229  33.726  1.00  0.00    -0.248 NA
ATOM     57  C   UNL A   1      37.593  33.798  33.601  1.00  0.00     0.031 C 
ATOM     58  C   UNL A   1      42.023  31.761  37.221  1.00  0.00     0.029 A 
ATOM     59  C   UNL A   1      41.173  31.932  36.140  1.00  0.00     0.049 A 
ATOM     60  H   UNL A   1      41.087  30.846  34.333  1.00  0.00     0.167 HD
ATOM     61  C   UNL A   1      39.313  32.993  34.888  1.00  0.00     0.074 A 
ATOM     62  C   UNL A   1      38.248  33.964  34.741  1.00  0.00     0.031 C 
ATOM     63  C   UNL A   1      40.120  32.904  35.976  1.00  0.00     0.037 A 
BRANCH  50  64
ATOM     64  C   UNL A   1      44.328  28.379  35.638  1.00  0.00     0.058 A 
ATOM     65  C   UNL A   1      44.078  27.260  36.450  1.00  0.00     0.135 A 
ATOM     66  C   UNL A   1      45.666  28.755  35.441  1.00  0.00     0.135 A 
ATOM     67  F   UNL A   1      42.818  26.862  36.688  1.00  0.00    -0.206 F 
ATOM     68  C   UNL A   1      45.111  26.564  37.069  1.00  0.00     0.059 A 
ATOM     69  C   UNL A   1      46.717  28.054  36.024  1.00  0.00     0.059 A 
ATOM     70  F   UNL A   1      45.965  29.816  34.674  1.00  0.00    -0.206 F 
ATOM     71  C   UNL A   1      46.429  26.969  36.850  1.00  0.00     0.060 A 
BRANCH  71  72
ATOM     72  S   UNL A   1      47.757  26.050  37.655  1.00  0.00     0.124 S 
ATOM     73  O   UNL A   1      48.838  27.032  37.645  1.00  0.00    -0.237 OA
ATOM     74  O   UNL A   1      47.183  25.755  38.964  1.00  0.00    -0.237 OA
ATOM     75  O   UNL A   1      47.951  24.895  36.783  1.00  0.00    -0.744 OA
ENDBRANCH  71  72
ENDBRANCH  50  64
BRANCH  51  76
ATOM     76  C   UNL A   1      36.786  32.948  30.912  1.00  0.00     0.058 A 
ATOM     77  C   UNL A   1      35.461  32.664  31.275  1.00  0.00     0.135 A 
ATOM     78  C   UNL A   1      36.994  33.883  29.887  1.00  0.00     0.135 A 
ATOM     79  F   UNL A   1      35.209  31.772  32.246  1.00  0.00    -0.206 F 
ATOM     80  C   UNL A   1      34.382  33.265  30.635  1.00  0.00     0.059 A 
ATOM     81  C   UNL A   1      35.932  34.521  29.250  1.00  0.00     0.059 A 
ATOM     82  F   UNL A   1      38.242  34.204  29.511  1.00  0.00    -0.206 F 
ATOM     83  C   UNL A   1      34.630  34.196  29.624  1.00  0.00     0.060 A 
BRANCH  83  84
ATOM     84  S   UNL A   1      33.223  35.003  28.828  1.00  0.00     0.124 S 
ATOM     85  O   UNL A   1      32.408  35.375  29.979  1.00  0.00    -0.237 OA
ATOM     86  O   UNL A   1      33.865  36.104  28.117  1.00  0.00    -0.237 OA
ATOM     87  O   UNL A   1      32.672  33.954  27.977  1.00  0.00    -0.744 OA
ENDBRANCH  83  84
ENDBRANCH  51  76
BRANCH  63  88
ATOM     88  C   UNL A   1      39.927  33.918  37.071  1.00  0.00     0.058 A 
ATOM     89  C   UNL A   1      40.465  35.212  36.994  1.00  0.00     0.135 A 
ATOM     90  C   UNL A   1      39.149  33.598  38.197  1.00  0.00     0.135 A 
ATOM     91  F   UNL A   1      41.218  35.569  35.943  1.00  0.00    -0.206 F 
ATOM     92  C   UNL A   1      40.266  36.143  38.009  1.00  0.00     0.059 A 
ATOM     93  C   UNL A   1      38.910  34.524  39.208  1.00  0.00     0.059 A 
ATOM     94  F   UNL A   1      38.599  32.379  38.316  1.00  0.00    -0.206 F 
ATOM     95  C   UNL A   1      39.486  35.790  39.112  1.00  0.00     0.060 A 
BRANCH  95  96
ATOM     96  S   UNL A   1      39.218  37.013  40.412  1.00  0.00     0.124 S 
ATOM     97  O   UNL A   1      40.583  37.272  40.858  1.00  0.00    -0.237 OA
ATOM     98  O   UNL A   1      38.569  38.101  39.686  1.00  0.00    -0.237 OA
ATOM     99  O   UNL A   1      38.367  36.312  41.369  1.00  0.00    -0.744 OA
ENDBRANCH  95  96
ENDBRANCH  63  88
ENDBRANCH  37  38
ENDBRANCH  29  32
ENDBRANCH  27  28
ENDBRANCH  26  27
ENDBRANCH   1  26
TORSDOF 18
ENDMDL
MODEL 2
REMARK VINA RESULT:     -11.6      6.308     12.186
REMARK SMILES CC(C)(C)c1csc(C[NH2+][C@H]2CCC[C@@H](C(=O)NCCCCNC(=O)c3ccc(-c4c5nc(c(-c6c(F)cc(S(=O)(=O)[O-])cc6F)c6ccc([nH]6)c(-c6c(F)cc(S(=O)(=O)[O-])cc6F)c6nc(c(-c7c(F)cc(S(=O)(=O)[O-])cc7F)c7ccc4[nH]7)C=C6)C=C5)cc3)C2)n1
REMARK SMILES IDX 20 1 19 2 18 3 16 4 17 5 15 7 11 8 12 9 92 10 13 11 14 12
REMARK SMILES IDX 10 13 9 16 8 17 5 18 6 19 93 20 7 21 2 22 1 23 3 24 4 25
REMARK SMILES IDX 21 26 22 27 23 28 24 29 25 31 26 32 27 33 91 34 28 35 90 36
REMARK SMILES IDX 29 37 30 38 31 39 84 40 32 41 89 42 83 43 85 44 33 45 88 46
REMARK SMILES IDX 82 47 81 48 34 50 68 51 47 52 67 53 48 54 51 55 66 56 86 57
REMARK SMILES IDX 49 58 50 59 65 61 87 62 52 63 35 64 36 65 45 66 37 67 38 68
REMARK SMILES IDX 44 69 46 70 39 71 40 72 41 73 42 74 43 75 69 76 70 77 79 78
REMARK SMILES IDX 71 79 72 80 78 81 80 82 73 83 74 84 75 85 76 86 77 87 53 88
REMARK SMILES IDX 54 89 63 90 55 91 56 92 62 93 64 94 57 95 58 96 59 97 60 98
REMARK SMILES IDX 61 99
REMARK H PARENT 18 6 10 14 10 15 23 30 85 49 51 60
REMARK Flexibility Score: inf
ROOT
ATOM      1  C   UNL A   1      34.664  32.323  29.131  1.00  0.00     0.023 C 
ENDROOT
BRANCH   1   2
ATOM      2  C   UNL A   1      34.313  32.044  27.669  1.00  0.00     0.116 C 
BRANCH   2   3
ATOM      3  N   UNL A   1      34.705  30.706  27.278  1.00  0.00    -0.356 N 
ATOM      4  C   UNL A   1      33.958  29.596  27.042  1.00  0.00     0.223 C 
ATOM      5  O   UNL A   1      34.575  28.554  26.833  1.00  0.00    -0.275 OA
ATOM      6  H   UNL A   1      35.675  30.581  27.163  1.00  0.00     0.163 HD
BRANCH   4   7
ATOM      7  C   UNL A   1      32.432  29.674  27.091  1.00  0.00     0.084 C 
ATOM      8  C   UNL A   1      31.635  28.993  24.682  1.00  0.00     0.183 C 
ATOM      9  C   UNL A   1      31.041  27.728  25.320  1.00  0.00     0.065 C 
ATOM     10  C   UNL A   1      31.780  30.099  25.755  1.00  0.00     0.078 C 
ATOM     11  C   UNL A   1      31.799  27.266  26.559  1.00  0.00     0.007 C 
ATOM     12  C   UNL A   1      31.839  28.364  27.618  1.00  0.00     0.014 C 
BRANCH   8  13
ATOM     13  N   UNL A   1      32.924  28.829  24.028  1.00  0.00    -0.338 N 
ATOM     14  H   UNL A   1      33.372  29.746  24.008  1.00  0.00     0.346 HD
ATOM     15  H   UNL A   1      33.399  28.115  24.580  1.00  0.00     0.346 HD
BRANCH  13  16
ATOM     16  C   UNL A   1      32.943  28.308  22.667  1.00  0.00     0.329 C 
BRANCH  16  17
ATOM     17  C   UNL A   1      33.035  26.796  22.642  1.00  0.00     0.147 A 
ATOM     18  C   UNL A   1      33.661  24.732  23.209  1.00  0.00     0.057 A 
ATOM     19  C   UNL A   1      32.938  24.450  22.064  1.00  0.00     0.091 A 
ATOM     20  N   UNL A   1      33.713  26.086  23.523  1.00  0.00    -0.240 NA
ATOM     21  S   UNL A   1      32.248  25.877  21.419  1.00  0.00    -0.121 S 
BRANCH  18  22
ATOM     22  C   UNL A   1      34.399  23.748  24.107  1.00  0.00     0.005 C 
ATOM     23  C   UNL A   1      35.510  23.028  23.312  1.00  0.00     0.017 C 
ATOM     24  C   UNL A   1      33.414  22.694  24.646  1.00  0.00     0.017 C 
ATOM     25  C   UNL A   1      35.067  24.458  25.303  1.00  0.00     0.017 C 
ENDBRANCH  18  22
ENDBRANCH  16  17
ENDBRANCH  13  16
ENDBRANCH   8  13
ENDBRANCH   4   7
ENDBRANCH   2   3
ENDBRANCH   1   2
BRANCH   1  26
ATOM     26  C   UNL A   1      35.764  33.366  29.345  1.00  0.00     0.023 C 
BRANCH  26  27
ATOM     27  C   UNL A   1      36.741  33.062  30.473  1.00  0.00     0.116 C 
BRANCH  27  28
ATOM     28  N   UNL A   1      36.298  31.965  31.317  1.00  0.00    -0.352 N 
ATOM     29  C   UNL A   1      36.856  30.722  31.487  1.00  0.00     0.251 C 
ATOM     30  H   UNL A   1      35.482  32.137  31.840  1.00  0.00     0.163 HD
ATOM     31  O   UNL A   1      36.246  29.864  32.123  1.00  0.00    -0.269 OA
BRANCH  29  32
ATOM     32  C   UNL A   1      38.170  30.410  30.886  1.00  0.00     0.039 A 
ATOM     33  C   UNL A   1      39.258  30.169  31.729  1.00  0.00     0.014 A 
ATOM     34  C   UNL A   1      38.335  30.359  29.499  1.00  0.00     0.014 A 
ATOM     35  C   UNL A   1      40.496  29.825  31.182  1.00  0.00     0.010 A 
ATOM     36  C   UNL A   1      39.547  29.936  28.959  1.00  0.00     0.010 A 
ATOM     37  C   UNL A   1      40.645  29.678  29.792  1.00  0.00    -0.014 A 
BRANCH  37  38
ATOM     38  C   UNL A   1      41.946  29.278  29.194  1.00  0.00     0.031 A 
ATOM     39  C   UNL A   1      43.045  30.296  29.033  1.00  0.00     0.074 A 
ATOM     40  C   UNL A   1      42.122  28.018  28.750  1.00  0.00     0.049 A 
ATOM     41  N   UNL A   1      44.225  30.159  28.483  1.00  0.00    -0.248 NA
ATOM     42  C   UNL A   1      42.771  31.654  29.530  1.00  0.00     0.031 C 
ATOM     43  C   UNL A   1      41.120  26.951  28.807  1.00  0.00     0.029 A 
ATOM     44  N   UNL A   1      43.204  27.420  28.153  1.00  0.00    -0.354 N 
ATOM     45  C   UNL A   1      44.825  31.410  28.556  1.00  0.00     0.074 A 
ATOM     46  C   UNL A   1      43.857  32.308  29.147  1.00  0.00     0.031 C 
ATOM     47  C   UNL A   1      41.642  25.827  28.290  1.00  0.00     0.029 A 
ATOM     48  C   UNL A   1      43.000  26.098  27.828  1.00  0.00     0.049 A 
ATOM     49  H   UNL A   1      44.050  27.892  27.974  1.00  0.00     0.167 HD
ATOM     50  C   UNL A   1      46.077  31.775  28.188  1.00  0.00     0.037 A 
ATOM     51  C   UNL A   1      43.809  25.209  27.220  1.00  0.00     0.037 A 
ATOM     52  C   UNL A   1      47.043  30.870  27.619  1.00  0.00     0.049 A 
ATOM     53  C   UNL A   1      45.196  25.638  26.817  1.00  0.00     0.074 A 
ATOM     54  C   UNL A   1      48.354  31.127  27.258  1.00  0.00     0.029 A 
ATOM     55  N   UNL A   1      46.804  29.534  27.328  1.00  0.00    -0.354 N 
ATOM     56  N   UNL A   1      45.767  26.811  26.946  1.00  0.00    -0.248 NA
ATOM     57  C   UNL A   1      46.052  24.617  26.196  1.00  0.00     0.031 C 
ATOM     58  C   UNL A   1      48.891  29.962  26.702  1.00  0.00     0.029 A 
ATOM     59  C   UNL A   1      47.936  28.960  26.775  1.00  0.00     0.049 A 
ATOM     60  H   UNL A   1      45.954  29.064  27.490  1.00  0.00     0.167 HD
ATOM     61  C   UNL A   1      47.062  26.660  26.460  1.00  0.00     0.074 A 
ATOM     62  C   UNL A   1      47.189  25.280  26.041  1.00  0.00     0.031 C 
ATOM     63  C   UNL A   1      48.056  27.579  26.375  1.00  0.00     0.037 A 
BRANCH  50  64
ATOM     64  C   UNL A   1      46.475  33.213  28.389  1.00  0.00     0.058 A 
ATOM     65  C   UNL A   1      46.283  34.179  27.389  1.00  0.00     0.135 A 
ATOM     66  C   UNL A   1      47.021  33.639  29.610  1.00  0.00     0.135 A 
ATOM     67  F   UNL A   1      45.779  33.828  26.194  1.00  0.00    -0.206 F 
ATOM     68  C   UNL A   1      46.649  35.508  27.578  1.00  0.00     0.059 A 
ATOM     69  C   UNL A   1      47.364  34.969  29.835  1.00  0.00     0.059 A 
ATOM     70  F   UNL A   1      47.227  32.760  30.604  1.00  0.00    -0.206 F 
ATOM     71  C   UNL A   1      47.189  35.893  28.806  1.00  0.00     0.060 A 
BRANCH  71  72
ATOM     72  S   UNL A   1      47.653  37.623  29.038  1.00  0.00     0.124 S 
ATOM     73  O   UNL A   1      47.538  38.139  27.677  1.00  0.00    -0.237 OA
ATOM     74  O   UNL A   1      46.642  38.093  29.980  1.00  0.00    -0.237 OA
ATOM     75  O   UNL A   1      49.011  37.545  29.566  1.00  0.00    -0.744 OA
ENDBRANCH  71  72
ENDBRANCH  50  64
BRANCH  51  76
ATOM     76  C   UNL A   1      43.339  23.818  26.979  1.00  0.00     0.058 A 
ATOM     77  C   UNL A   1      42.930  23.403  25.702  1.00  0.00     0.135 A 
ATOM     78  C   UNL A   1      43.296  22.873  28.015  1.00  0.00     0.135 A 
ATOM     79  F   UNL A   1      42.948  24.270  24.678  1.00  0.00    -0.206 F 
ATOM     80  C   UNL A   1      42.475  22.110  25.464  1.00  0.00     0.059 A 
ATOM     81  C   UNL A   1      42.872  21.565  27.797  1.00  0.00     0.059 A 
ATOM     82  F   UNL A   1      43.692  23.212  29.252  1.00  0.00    -0.206 F 
ATOM     83  C   UNL A   1      42.452  21.197  26.520  1.00  0.00     0.060 A 
BRANCH  83  84
ATOM     84  S   UNL A   1      41.900  19.509  26.191  1.00  0.00     0.124 S 
ATOM     85  O   UNL A   1      42.666  19.176  24.996  1.00  0.00    -0.237 OA
ATOM     86  O   UNL A   1      42.291  18.816  27.414  1.00  0.00    -0.237 OA
ATOM     87  O   UNL A   1      40.461  19.658  25.998  1.00  0.00    -0.744 OA
ENDBRANCH  83  84
ENDBRANCH  51  76
BRANCH  63  88
ATOM     88  C   UNL A   1      49.392  27.113  25.863  1.00  0.00     0.058 A 
ATOM     89  C   UNL A   1      49.743  27.194  24.506  1.00  0.00     0.135 A 
ATOM     90  C   UNL A   1      50.355  26.617  26.759  1.00  0.00     0.135 A 
ATOM     91  F   UNL A   1      48.860  27.656  23.607  1.00  0.00    -0.206 F 
ATOM     92  C   UNL A   1      50.988  26.771  24.051  1.00  0.00     0.059 A 
ATOM     93  C   UNL A   1      51.618  26.220  26.330  1.00  0.00     0.059 A 
ATOM     94  F   UNL A   1      50.079  26.530  28.070  1.00  0.00    -0.206 F 
ATOM     95  C   UNL A   1      51.919  26.286  24.971  1.00  0.00     0.060 A 
BRANCH  95  96
ATOM     96  S   UNL A   1      53.539  25.761  24.370  1.00  0.00     0.124 S 
ATOM     97  O   UNL A   1      54.425  26.684  25.072  1.00  0.00    -0.237 OA
ATOM     98  O   UNL A   1      53.596  24.370  24.808  1.00  0.00    -0.237 OA
ATOM     99  O   UNL A   1      53.446  25.954  22.927  1.00  0.00    -0.744 OA
ENDBRANCH  95  96
ENDBRANCH  63  88
ENDBRANCH  37  38
ENDBRANCH  29  32
ENDBRANCH  27  28
ENDBRANCH  26  27
ENDBRANCH   1  26
TORSDOF 18
ENDMDL
MODEL 3
REMARK VINA RESULT:     -11.6      6.290     12.147
REMARK SMILES CC(C)(C)c1csc(C[NH2+][C@H]2CCC[C@@H](C(=O)NCCCCNC(=O)c3ccc(-c4c5nc(c(-c6c(F)cc(S(=O)(=O)[O-])cc6F)c6ccc([nH]6)c(-c6c(F)cc(S(=O)(=O)[O-])cc6F)c6nc(c(-c7c(F)cc(S(=O)(=O)[O-])cc7F)c7ccc4[nH]7)C=C6)C=C5)cc3)C2)n1
REMARK SMILES IDX 20 1 19 2 18 3 16 4 17 5 15 7 11 8 12 9 92 10 13 11 14 12
REMARK SMILES IDX 10 13 9 16 8 17 5 18 6 19 93 20 7 21 2 22 1 23 3 24 4 25
REMARK SMILES IDX 21 26 22 27 23 28 24 29 25 31 26 32 27 33 91 34 28 35 90 36
REMARK SMILES IDX 29 37 30 38 31 39 84 40 32 41 89 42 83 43 85 44 33 45 88 46
REMARK SMILES IDX 82 47 81 48 34 50 68 51 47 52 67 53 48 54 51 55 66 56 86 57
REMARK SMILES IDX 49 58 50 59 65 61 87 62 52 63 35 64 36 65 45 66 37 67 38 68
REMARK SMILES IDX 44 69 46 70 39 71 40 72 41 73 42 74 43 75 69 76 70 77 79 78
REMARK SMILES IDX 71 79 72 80 78 81 80 82 73 83 74 84 75 85 76 86 77 87 53 88
REMARK SMILES IDX 54 89 63 90 55 91 56 92 62 93 64 94 57 95 58 96 59 97 60 98
REMARK SMILES IDX 61 99
REMARK H PARENT 18 6 10 14 10 15 23 30 85 49 51 60
REMARK Flexibility Score: inf
ROOT
ATOM      1  C   UNL A   1      34.624  32.353  29.195  1.00  0.00     0.023 C 
ENDROOT
BRANCH   1   2
ATOM      2  C   UNL A   1      34.229  32.110  27.738  1.00  0.00     0.116 C 
BRANCH   2   3
ATOM      3  N   UNL A   1      34.658  30.803  27.286  1.00  0.00    -0.356 N 
ATOM      4  C   UNL A   1      33.939  29.702  26.946  1.00  0.00     0.223 C 
ATOM      5  O   UNL A   1      34.581  28.681  26.705  1.00  0.00    -0.275 OA
ATOM      6  H   UNL A   1      35.634  30.696  27.212  1.00  0.00     0.163 HD
BRANCH   4   7
ATOM      7  C   UNL A   1      32.411  29.760  26.925  1.00  0.00     0.084 C 
ATOM      8  C   UNL A   1      31.720  28.701  24.622  1.00  0.00     0.183 C 
ATOM      9  C   UNL A   1      31.115  27.539  25.425  1.00  0.00     0.065 C 
ATOM     10  C   UNL A   1      31.809  29.961  25.515  1.00  0.00     0.078 C 
ATOM     11  C   UNL A   1      31.828  27.287  26.748  1.00  0.00     0.007 C 
ATOM     12  C   UNL A   1      31.813  28.536  27.626  1.00  0.00     0.014 C 
BRANCH   8  13
ATOM     13  N   UNL A   1      33.036  28.460  24.050  1.00  0.00    -0.338 N 
ATOM     14  H   UNL A   1      33.544  29.345  24.079  1.00  0.00     0.346 HD
ATOM     15  H   UNL A   1      33.423  27.706  24.617  1.00  0.00     0.346 HD
BRANCH  13  16
ATOM     16  C   UNL A   1      33.110  27.962  22.683  1.00  0.00     0.329 C 
BRANCH  16  17
ATOM     17  C   UNL A   1      33.242  26.455  22.637  1.00  0.00     0.147 A 
ATOM     18  C   UNL A   1      33.873  24.394  23.214  1.00  0.00     0.057 A 
ATOM     19  C   UNL A   1      33.251  24.119  22.009  1.00  0.00     0.091 A 
ATOM     20  N   UNL A   1      33.865  25.742  23.556  1.00  0.00    -0.240 NA
ATOM     21  S   UNL A   1      32.579  25.543  21.337  1.00  0.00    -0.121 S 
BRANCH  18  22
ATOM     22  C   UNL A   1      34.561  23.410  24.149  1.00  0.00     0.005 C 
ATOM     23  C   UNL A   1      36.053  23.270  23.776  1.00  0.00     0.017 C 
ATOM     24  C   UNL A   1      33.891  22.027  24.036  1.00  0.00     0.017 C 
ATOM     25  C   UNL A   1      34.490  23.874  25.619  1.00  0.00     0.017 C 
ENDBRANCH  18  22
ENDBRANCH  16  17
ENDBRANCH  13  16
ENDBRANCH   8  13
ENDBRANCH   4   7
ENDBRANCH   2   3
ENDBRANCH   1   2
BRANCH   1  26
ATOM     26  C   UNL A   1      35.737  33.384  29.401  1.00  0.00     0.023 C 
BRANCH  26  27
ATOM     27  C   UNL A   1      36.729  33.060  30.512  1.00  0.00     0.116 C 
BRANCH  27  28
ATOM     28  N   UNL A   1      36.282  31.967  31.359  1.00  0.00    -0.352 N 
ATOM     29  C   UNL A   1      36.842  30.726  31.538  1.00  0.00     0.251 C 
ATOM     30  H   UNL A   1      35.464  32.140  31.877  1.00  0.00     0.163 HD
ATOM     31  O   UNL A   1      36.231  29.870  32.175  1.00  0.00    -0.269 OA
BRANCH  29  32
ATOM     32  C   UNL A   1      38.160  30.414  30.945  1.00  0.00     0.039 A 
ATOM     33  C   UNL A   1      39.237  30.149  31.795  1.00  0.00     0.014 A 
ATOM     34  C   UNL A   1      38.338  30.384  29.559  1.00  0.00     0.014 A 
ATOM     35  C   UNL A   1      40.478  29.805  31.254  1.00  0.00     0.010 A 
ATOM     36  C   UNL A   1      39.552  29.961  29.024  1.00  0.00     0.010 A 
ATOM     37  C   UNL A   1      40.640  29.679  29.864  1.00  0.00    -0.014 A 
BRANCH  37  38
ATOM     38  C   UNL A   1      41.944  29.279  29.272  1.00  0.00     0.031 A 
ATOM     39  C   UNL A   1      43.047  30.294  29.124  1.00  0.00     0.074 A 
ATOM     40  C   UNL A   1      42.120  28.021  28.823  1.00  0.00     0.049 A 
ATOM     41  N   UNL A   1      44.230  30.157  28.581  1.00  0.00    -0.248 NA
ATOM     42  C   UNL A   1      42.773  31.651  29.626  1.00  0.00     0.031 C 
ATOM     43  C   UNL A   1      41.114  26.957  28.868  1.00  0.00     0.029 A 
ATOM     44  N   UNL A   1      43.204  27.423  28.230  1.00  0.00    -0.354 N 
ATOM     45  C   UNL A   1      44.833  31.407  28.665  1.00  0.00     0.074 A 
ATOM     46  C   UNL A   1      43.864  32.304  29.254  1.00  0.00     0.031 C 
ATOM     47  C   UNL A   1      41.636  25.834  28.349  1.00  0.00     0.029 A 
ATOM     48  C   UNL A   1      42.998  26.104  27.897  1.00  0.00     0.049 A 
ATOM     49  H   UNL A   1      44.052  27.894  28.060  1.00  0.00     0.167 HD
ATOM     50  C   UNL A   1      46.088  31.769  28.307  1.00  0.00     0.037 A 
ATOM     51  C   UNL A   1      43.809  25.215  27.290  1.00  0.00     0.037 A 
ATOM     52  C   UNL A   1      47.055  30.865  27.740  1.00  0.00     0.049 A 
ATOM     53  C   UNL A   1      45.199  25.642  26.898  1.00  0.00     0.074 A 
ATOM     54  C   UNL A   1      48.369  31.120  27.388  1.00  0.00     0.029 A 
ATOM     55  N   UNL A   1      46.815  29.531  27.440  1.00  0.00    -0.354 N 
ATOM     56  N   UNL A   1      45.772  26.814  27.037  1.00  0.00    -0.248 NA
ATOM     57  C   UNL A   1      46.056  24.623  26.278  1.00  0.00     0.031 C 
ATOM     58  C   UNL A   1      48.907  29.957  26.829  1.00  0.00     0.029 A 
ATOM     59  C   UNL A   1      47.949  28.957  26.891  1.00  0.00     0.049 A 
ATOM     60  H   UNL A   1      45.962  29.063  27.594  1.00  0.00     0.167 HD
ATOM     61  C   UNL A   1      47.070  26.661  26.559  1.00  0.00     0.074 A 
ATOM     62  C   UNL A   1      47.197  25.283  26.133  1.00  0.00     0.031 C 
ATOM     63  C   UNL A   1      48.068  27.578  26.485  1.00  0.00     0.037 A 
BRANCH  50  64
ATOM     64  C   UNL A   1      46.489  33.206  28.518  1.00  0.00     0.058 A 
ATOM     65  C   UNL A   1      47.069  33.642  29.720  1.00  0.00     0.135 A 
ATOM     66  C   UNL A   1      46.324  34.151  27.493  1.00  0.00     0.135 A 
ATOM     67  F   UNL A   1      47.238  32.786  30.741  1.00  0.00    -0.206 F 
ATOM     68  C   UNL A   1      47.441  34.969  29.911  1.00  0.00     0.059 A 
ATOM     69  C   UNL A   1      46.718  35.477  27.650  1.00  0.00     0.059 A 
ATOM     70  F   UNL A   1      45.775  33.792  26.322  1.00  0.00    -0.206 F 
ATOM     71  C   UNL A   1      47.261  35.880  28.868  1.00  0.00     0.060 A 
BRANCH  71  72
ATOM     72  S   UNL A   1      47.754  37.596  29.131  1.00  0.00     0.124 S 
ATOM     73  O   UNL A   1      48.882  37.438  30.045  1.00  0.00    -0.237 OA
ATOM     74  O   UNL A   1      48.092  38.033  27.780  1.00  0.00    -0.237 OA
ATOM     75  O   UNL A   1      46.562  38.210  29.707  1.00  0.00    -0.744 OA
ENDBRANCH  71  72
ENDBRANCH  50  64
BRANCH  51  76
ATOM     76  C   UNL A   1      43.337  23.826  27.038  1.00  0.00     0.058 A 
ATOM     77  C   UNL A   1      43.266  22.886  28.077  1.00  0.00     0.135 A 
ATOM     78  C   UNL A   1      42.941  23.412  25.757  1.00  0.00     0.135 A 
ATOM     79  F   UNL A   1      43.638  23.231  29.320  1.00  0.00    -0.206 F 
ATOM     80  C   UNL A   1      42.841  21.581  27.854  1.00  0.00     0.059 A 
ATOM     81  C   UNL A   1      42.485  22.120  25.514  1.00  0.00     0.059 A 
ATOM     82  F   UNL A   1      42.973  24.276  24.731  1.00  0.00    -0.206 F 
ATOM     83  C   UNL A   1      42.450  21.208  26.567  1.00  0.00     0.060 A 
BRANCH  83  84
ATOM     84  S   UNL A   1      41.859  19.523  26.297  1.00  0.00     0.124 S 
ATOM     85  O   UNL A   1      42.285  18.861  27.524  1.00  0.00    -0.237 OA
ATOM     86  O   UNL A   1      40.421  19.723  26.145  1.00  0.00    -0.237 OA
ATOM     87  O   UNL A   1      42.558  19.113  25.083  1.00  0.00    -0.744 OA
ENDBRANCH  83  84
ENDBRANCH  51  76
BRANCH  63  88
ATOM     88  C   UNL A   1      49.406  27.110  25.979  1.00  0.00     0.058 A 
ATOM     89  C   UNL A   1      50.377  26.564  26.832  1.00  0.00     0.135 A 
ATOM     90  C   UNL A   1      49.700  27.172  24.607  1.00  0.00     0.135 A 
ATOM     91  F   UNL A   1      50.150  26.484  28.152  1.00  0.00    -0.206 F 
ATOM     92  C   UNL A   1      51.605  26.123  26.347  1.00  0.00     0.059 A 
ATOM     93  C   UNL A   1      50.908  26.707  24.095  1.00  0.00     0.059 A 
ATOM     94  F   UNL A   1      48.802  27.673  23.743  1.00  0.00    -0.206 F 
ATOM     95  C   UNL A   1      51.861  26.199  24.977  1.00  0.00     0.060 A 
BRANCH  95  96
ATOM     96  S   UNL A   1      53.449  25.604  24.357  1.00  0.00     0.124 S 
ATOM     97  O   UNL A   1      53.409  24.198  24.746  1.00  0.00    -0.237 OA
ATOM     98  O   UNL A   1      53.343  25.870  22.926  1.00  0.00    -0.237 OA
ATOM     99  O   UNL A   1      54.422  26.425  25.071  1.00  0.00    -0.744 OA
ENDBRANCH  95  96
ENDBRANCH  63  88
ENDBRANCH  37  38
ENDBRANCH  29  32
ENDBRANCH  27  28
ENDBRANCH  26  27
ENDBRANCH   1  26
TORSDOF 18
ENDMDL
