MODEL 1
REMARK VINA RESULT:     -10.9      0.000      0.000
REMARK SMILES C[NH2+][C@@]1(C(=O)NCCCCNC(=O)c2ccc(-c3c4nc(c(-c5c(F)cc(S(=O)(=O)[O-])cc5F)c5ccc([nH]5)c(-c5c(F)cc(S(=O)(=O)[O-])cc5F)c5nc(c(-c6c(F)cc(S(=O)(=O)[O-])cc6F)c6ccc3[nH]6)C=C5)C=C4)cc2)CCC[C@H](n2cc(I)cn2)C1
REMARK SMILES IDX 9 1 8 2 7 3 6 4 4 5 5 6 3 8 80 9 90 10 81 11 83 12 82 13
REMARK SMILES IDX 2 14 1 15 84 18 85 19 89 20 86 21 88 22 87 23 10 24 11 25
REMARK SMILES IDX 12 26 13 28 14 29 15 30 79 31 16 32 78 33 17 34 18 35 19 36
REMARK SMILES IDX 72 37 20 38 77 39 71 40 73 41 21 42 76 43 70 44 69 45 22 47
REMARK SMILES IDX 56 48 35 49 55 50 36 51 39 52 54 53 74 54 37 55 38 56 53 58
REMARK SMILES IDX 75 59 40 60 23 61 24 62 33 63 25 64 26 65 32 66 34 67 27 68
REMARK SMILES IDX 28 69 29 70 30 71 31 72 57 73 58 74 67 75 59 76 60 77 66 78
REMARK SMILES IDX 68 79 61 80 62 81 63 82 64 83 65 84 41 85 42 86 51 87 43 88
REMARK SMILES IDX 44 89 50 90 52 91 45 92 46 93 47 94 48 95 49 96
REMARK H PARENT 6 7 2 16 2 17 11 27 73 46 39 57
REMARK Flexibility Score: inf
ROOT
ATOM      1  C   UNL A   1      34.146  28.144  25.136  1.00  0.00     0.023 C 
ENDROOT
BRANCH   1   2
ATOM      2  C   UNL A   1      33.587  26.810  24.671  1.00  0.00     0.023 C 
BRANCH   2   3
ATOM      3  C   UNL A   1      34.182  25.592  25.360  1.00  0.00     0.116 C 
BRANCH   3   4
ATOM      4  N   UNL A   1      34.752  24.626  24.441  1.00  0.00    -0.351 N 
ATOM      5  C   UNL A   1      34.809  23.272  24.363  1.00  0.00     0.281 C 
ATOM      6  O   UNL A   1      34.832  22.876  23.185  1.00  0.00    -0.268 OA
ATOM      7  H   UNL A   1      35.212  25.061  23.688  1.00  0.00     0.163 HD
BRANCH   5   8
ATOM      8  C   UNL A   1      34.807  22.216  25.574  1.00  0.00     0.177 C 
ATOM      9  C   UNL A   1      35.204  20.800  25.123  1.00  0.00     0.079 C 
ATOM     10  C   UNL A   1      33.541  22.075  26.451  1.00  0.00     0.106 C 
ATOM     11  C   UNL A   1      34.063  19.839  24.748  1.00  0.00     0.009 C 
ATOM     12  C   UNL A   1      32.297  21.560  25.736  1.00  0.00     0.114 C 
ATOM     13  C   UNL A   1      32.597  20.213  25.046  1.00  0.00     0.028 C 
BRANCH   8  14
ATOM     14  N   UNL A   1      35.941  22.640  26.502  1.00  0.00    -0.336 N 
ATOM     15  C   UNL A   1      37.267  22.714  25.870  1.00  0.00     0.331 C 
ATOM     16  H   UNL A   1      35.716  23.563  26.874  1.00  0.00     0.346 HD
ATOM     17  H   UNL A   1      36.007  21.918  27.219  1.00  0.00     0.346 HD
ENDBRANCH   8  14
BRANCH  12  18
ATOM     18  N   UNL A   1      31.619  22.625  24.988  1.00  0.00    -0.268 N 
ATOM     19  C   UNL A   1      31.130  23.819  25.455  1.00  0.00     0.123 A 
ATOM     20  N   UNL A   1      31.636  22.585  23.636  1.00  0.00    -0.180 NA
ATOM     21  C   UNL A   1      30.707  24.506  24.340  1.00  0.00     0.051 A 
ATOM     22  C   UNL A   1      31.033  23.704  23.247  1.00  0.00     0.149 A 
ATOM     23  I   UNL A   1      29.809  26.302  24.286  1.00  0.00    -0.041 I 
ENDBRANCH  12  18
ENDBRANCH   5   8
ENDBRANCH   3   4
ENDBRANCH   2   3
ENDBRANCH   1   2
BRANCH   1  24
ATOM     24  C   UNL A   1      34.163  28.256  26.644  1.00  0.00     0.116 C 
BRANCH  24  25
ATOM     25  N   UNL A   1      33.737  29.580  27.091  1.00  0.00    -0.352 N 
ATOM     26  C   UNL A   1      34.388  30.460  27.926  1.00  0.00     0.251 C 
ATOM     27  H   UNL A   1      32.864  29.885  26.750  1.00  0.00     0.163 HD
ATOM     28  O   UNL A   1      33.803  31.437  28.374  1.00  0.00    -0.269 OA
BRANCH  26  29
ATOM     29  C   UNL A   1      35.795  30.184  28.286  1.00  0.00     0.039 A 
ATOM     30  C   UNL A   1      36.101  29.629  29.529  1.00  0.00     0.014 A 
ATOM     31  C   UNL A   1      36.804  30.427  27.353  1.00  0.00     0.014 A 
ATOM     32  C   UNL A   1      37.420  29.264  29.806  1.00  0.00     0.010 A 
ATOM     33  C   UNL A   1      38.071  29.919  27.569  1.00  0.00     0.010 A 
ATOM     34  C   UNL A   1      38.408  29.375  28.814  1.00  0.00    -0.014 A 
BRANCH  34  35
ATOM     35  C   UNL A   1      39.825  29.015  29.063  1.00  0.00     0.031 A 
ATOM     36  C   UNL A   1      40.744  30.045  29.675  1.00  0.00     0.074 A 
ATOM     37  C   UNL A   1      40.298  27.815  28.677  1.00  0.00     0.049 A 
ATOM     38  N   UNL A   1      42.036  29.995  29.863  1.00  0.00    -0.248 NA
ATOM     39  C   UNL A   1      40.136  31.329  30.075  1.00  0.00     0.031 C 
ATOM     40  C   UNL A   1      39.518  26.767  28.011  1.00  0.00     0.029 A 
ATOM     41  N   UNL A   1      41.553  27.274  28.785  1.00  0.00    -0.354 N 
ATOM     42  C   UNL A   1      42.391  31.244  30.363  1.00  0.00     0.074 A 
ATOM     43  C   UNL A   1      41.200  32.058  30.366  1.00  0.00     0.031 C 
ATOM     44  C   UNL A   1      40.302  25.693  27.814  1.00  0.00     0.029 A 
ATOM     45  C   UNL A   1      41.646  25.990  28.298  1.00  0.00     0.049 A 
ATOM     46  H   UNL A   1      42.316  27.758  29.173  1.00  0.00     0.167 HD
ATOM     47  C   UNL A   1      43.593  31.662  30.823  1.00  0.00     0.037 A 
ATOM     48  C   UNL A   1      42.699  25.152  28.255  1.00  0.00     0.037 A 
ATOM     49  C   UNL A   1      44.751  30.814  30.884  1.00  0.00     0.049 A 
ATOM     50  C   UNL A   1      44.015  25.621  28.815  1.00  0.00     0.074 A 
ATOM     51  C   UNL A   1      46.002  31.100  31.400  1.00  0.00     0.029 A 
ATOM     52  N   UNL A   1      44.792  29.504  30.427  1.00  0.00    -0.354 N 
ATOM     53  N   UNL A   1      44.321  26.785  29.337  1.00  0.00    -0.248 NA
ATOM     54  C   UNL A   1      45.127  24.662  28.788  1.00  0.00     0.031 C 
ATOM     55  C   UNL A   1      46.810  29.972  31.224  1.00  0.00     0.029 A 
ATOM     56  C   UNL A   1      46.049  28.970  30.640  1.00  0.00     0.049 A 
ATOM     57  H   UNL A   1      44.037  29.027  30.012  1.00  0.00     0.167 HD
ATOM     58  C   UNL A   1      45.652  26.690  29.726  1.00  0.00     0.074 A 
ATOM     59  C   UNL A   1      46.088  25.349  29.391  1.00  0.00     0.031 C 
ATOM     60  C   UNL A   1      46.446  27.625  30.306  1.00  0.00     0.037 A 
BRANCH  47  61
ATOM     61  C   UNL A   1      43.698  33.078  31.320  1.00  0.00     0.058 A 
ATOM     62  C   UNL A   1      44.157  34.118  30.494  1.00  0.00     0.135 A 
ATOM     63  C   UNL A   1      43.321  33.406  32.632  1.00  0.00     0.135 A 
ATOM     64  F   UNL A   1      44.553  33.860  29.237  1.00  0.00    -0.206 F 
ATOM     65  C   UNL A   1      44.275  35.423  30.961  1.00  0.00     0.059 A 
ATOM     66  C   UNL A   1      43.398  34.712  33.111  1.00  0.00     0.059 A 
ATOM     67  F   UNL A   1      42.878  32.453  33.467  1.00  0.00    -0.206 F 
ATOM     68  C   UNL A   1      43.891  35.710  32.272  1.00  0.00     0.060 A 
BRANCH  68  69
ATOM     69  S   UNL A   1      44.040  37.411  32.857  1.00  0.00     0.124 S 
ATOM     70  O   UNL A   1      45.412  37.428  33.356  1.00  0.00    -0.237 OA
ATOM     71  O   UNL A   1      43.799  38.182  31.642  1.00  0.00    -0.237 OA
ATOM     72  O   UNL A   1      43.001  37.512  33.877  1.00  0.00    -0.744 OA
ENDBRANCH  68  69
ENDBRANCH  47  61
BRANCH  48  73
ATOM     73  C   UNL A   1      42.538  23.779  27.708  1.00  0.00     0.058 A 
ATOM     74  C   UNL A   1      42.428  22.672  28.566  1.00  0.00     0.135 A 
ATOM     75  C   UNL A   1      42.468  23.541  26.328  1.00  0.00     0.135 A 
ATOM     76  F   UNL A   1      42.491  22.847  29.895  1.00  0.00    -0.206 F 
ATOM     77  C   UNL A   1      42.275  21.380  28.075  1.00  0.00     0.059 A 
ATOM     78  C   UNL A   1      42.290  22.260  25.813  1.00  0.00     0.059 A 
ATOM     79  F   UNL A   1      42.546  24.565  25.464  1.00  0.00    -0.206 F 
ATOM     80  C   UNL A   1      42.206  21.184  26.695  1.00  0.00     0.060 A 
BRANCH  80  81
ATOM     81  S   UNL A   1      41.962  19.506  26.071  1.00  0.00     0.124 S 
ATOM     82  O   UNL A   1      42.402  18.704  27.208  1.00  0.00    -0.237 OA
ATOM     83  O   UNL A   1      40.531  19.487  25.792  1.00  0.00    -0.237 OA
ATOM     84  O   UNL A   1      42.824  19.457  24.893  1.00  0.00    -0.744 OA
ENDBRANCH  80  81
ENDBRANCH  48  73
BRANCH  60  85
ATOM     85  C   UNL A   1      47.851  27.219  30.649  1.00  0.00     0.058 A 
ATOM     86  C   UNL A   1      48.146  26.510  31.822  1.00  0.00     0.135 A 
ATOM     87  C   UNL A   1      48.902  27.487  29.757  1.00  0.00     0.135 A 
ATOM     88  F   UNL A   1      47.175  26.234  32.707  1.00  0.00    -0.206 F 
ATOM     89  C   UNL A   1      49.442  26.099  32.112  1.00  0.00     0.059 A 
ATOM     90  C   UNL A   1      50.200  27.060  30.012  1.00  0.00     0.059 A 
ATOM     91  F   UNL A   1      48.667  28.151  28.613  1.00  0.00    -0.206 F 
ATOM     92  C   UNL A   1      50.461  26.377  31.199  1.00  0.00     0.060 A 
BRANCH  92  93
ATOM     93  S   UNL A   1      52.132  25.805  31.571  1.00  0.00     0.124 S 
ATOM     94  O   UNL A   1      52.769  25.893  30.262  1.00  0.00    -0.237 OA
ATOM     95  O   UNL A   1      52.582  26.776  32.563  1.00  0.00    -0.237 OA
ATOM     96  O   UNL A   1      51.923  24.451  32.077  1.00  0.00    -0.744 OA
ENDBRANCH  92  93
ENDBRANCH  60  85
ENDBRANCH  34  35
ENDBRANCH  26  29
ENDBRANCH  24  25
ENDBRANCH   1  24
TORSDOF 16
ENDMDL
MODEL 2
REMARK VINA RESULT:     -10.8      4.846     10.271
REMARK SMILES C[NH2+][C@@]1(C(=O)NCCCCNC(=O)c2ccc(-c3c4nc(c(-c5c(F)cc(S(=O)(=O)[O-])cc5F)c5ccc([nH]5)c(-c5c(F)cc(S(=O)(=O)[O-])cc5F)c5nc(c(-c6c(F)cc(S(=O)(=O)[O-])cc6F)c6ccc3[nH]6)C=C5)C=C4)cc2)CCC[C@H](n2cc(I)cn2)C1
REMARK SMILES IDX 9 1 8 2 7 3 6 4 4 5 5 6 3 8 80 9 90 10 81 11 83 12 82 13
REMARK SMILES IDX 2 14 1 15 84 18 85 19 89 20 86 21 88 22 87 23 10 24 11 25
REMARK SMILES IDX 12 26 13 28 14 29 15 30 79 31 16 32 78 33 17 34 18 35 19 36
REMARK SMILES IDX 72 37 20 38 77 39 71 40 73 41 21 42 76 43 70 44 69 45 22 47
REMARK SMILES IDX 56 48 35 49 55 50 36 51 39 52 54 53 74 54 37 55 38 56 53 58
REMARK SMILES IDX 75 59 40 60 23 61 24 62 33 63 25 64 26 65 32 66 34 67 27 68
REMARK SMILES IDX 28 69 29 70 30 71 31 72 57 73 58 74 67 75 59 76 60 77 66 78
REMARK SMILES IDX 68 79 61 80 62 81 63 82 64 83 65 84 41 85 42 86 51 87 43 88
REMARK SMILES IDX 44 89 50 90 52 91 45 92 46 93 47 94 48 95 49 96
REMARK H PARENT 6 7 2 16 2 17 11 27 73 46 39 57
REMARK Flexibility Score: inf
ROOT
ATOM      1  C   UNL A   1      37.789  23.439  25.571  1.00  0.00     0.023 C 
ENDROOT
BRANCH   1   2
ATOM      2  C   UNL A   1      36.338  23.837  25.785  1.00  0.00     0.023 C 
BRANCH   2   3
ATOM      3  C   UNL A   1      35.498  22.816  26.536  1.00  0.00     0.116 C 
BRANCH   3   4
ATOM      4  N   UNL A   1      34.161  23.281  26.850  1.00  0.00    -0.351 N 
ATOM      5  C   UNL A   1      32.900  22.931  26.492  1.00  0.00     0.281 C 
ATOM      6  O   UNL A   1      32.083  23.145  27.405  1.00  0.00    -0.268 OA
ATOM      7  H   UNL A   1      34.172  24.039  27.477  1.00  0.00     0.163 HD
BRANCH   5   8
ATOM      8  C   UNL A   1      32.415  22.273  25.108  1.00  0.00     0.177 C 
ATOM      9  C   UNL A   1      33.589  21.937  24.172  1.00  0.00     0.079 C 
ATOM     10  C   UNL A   1      31.349  23.002  24.258  1.00  0.00     0.106 C 
ATOM     11  C   UNL A   1      33.975  22.996  23.126  1.00  0.00     0.009 C 
ATOM     12  C   UNL A   1      31.767  24.357  23.698  1.00  0.00     0.114 C 
ATOM     13  C   UNL A   1      33.070  24.221  22.883  1.00  0.00     0.028 C 
BRANCH   8  14
ATOM     14  N   UNL A   1      31.832  20.912  25.474  1.00  0.00    -0.336 N 
ATOM     15  C   UNL A   1      32.660  19.757  25.095  1.00  0.00     0.331 C 
ATOM     16  H   UNL A   1      31.697  20.887  26.485  1.00  0.00     0.346 HD
ATOM     17  H   UNL A   1      30.963  20.824  24.947  1.00  0.00     0.346 HD
ENDBRANCH   8  14
BRANCH  12  18
ATOM     18  N   UNL A   1      31.646  25.422  24.702  1.00  0.00    -0.268 N 
ATOM     19  C   UNL A   1      32.533  26.428  24.991  1.00  0.00     0.123 A 
ATOM     20  N   UNL A   1      30.450  25.621  25.301  1.00  0.00    -0.180 NA
ATOM     21  C   UNL A   1      31.896  27.227  25.913  1.00  0.00     0.051 A 
ATOM     22  C   UNL A   1      30.622  26.687  26.077  1.00  0.00     0.149 A 
ATOM     23  I   UNL A   1      32.641  28.849  26.837  1.00  0.00    -0.041 I 
ENDBRANCH  12  18
ENDBRANCH   5   8
ENDBRANCH   3   4
ENDBRANCH   2   3
ENDBRANCH   1   2
BRANCH   1  24
ATOM     24  C   UNL A   1      38.697  24.023  26.629  1.00  0.00     0.116 C 
BRANCH  24  25
ATOM     25  N   UNL A   1      40.083  24.094  26.171  1.00  0.00    -0.352 N 
ATOM     26  C   UNL A   1      41.034  25.051  26.447  1.00  0.00     0.251 C 
ATOM     27  H   UNL A   1      40.376  23.360  25.584  1.00  0.00     0.163 HD
ATOM     28  O   UNL A   1      42.083  25.082  25.816  1.00  0.00    -0.269 OA
BRANCH  26  29
ATOM     29  C   UNL A   1      40.751  26.048  27.500  1.00  0.00     0.039 A 
ATOM     30  C   UNL A   1      39.849  25.748  28.520  1.00  0.00     0.014 A 
ATOM     31  C   UNL A   1      41.436  27.264  27.498  1.00  0.00     0.014 A 
ATOM     32  C   UNL A   1      39.683  26.652  29.572  1.00  0.00     0.010 A 
ATOM     33  C   UNL A   1      41.390  28.077  28.615  1.00  0.00     0.010 A 
ATOM     34  C   UNL A   1      40.479  27.808  29.643  1.00  0.00    -0.014 A 
BRANCH  34  35
ATOM     35  C   UNL A   1      40.331  28.806  30.731  1.00  0.00     0.031 A 
ATOM     36  C   UNL A   1      41.208  28.689  31.953  1.00  0.00     0.074 A 
ATOM     37  C   UNL A   1      39.375  29.751  30.658  1.00  0.00     0.049 A 
ATOM     38  N   UNL A   1      41.167  29.366  33.070  1.00  0.00    -0.248 NA
ATOM     39  C   UNL A   1      42.234  27.628  31.941  1.00  0.00     0.031 C 
ATOM     40  C   UNL A   1      38.422  29.916  29.556  1.00  0.00     0.029 A 
ATOM     41  N   UNL A   1      39.044  30.754  31.532  1.00  0.00    -0.354 N 
ATOM     42  C   UNL A   1      42.127  28.788  33.895  1.00  0.00     0.074 A 
ATOM     43  C   UNL A   1      42.672  27.654  33.188  1.00  0.00     0.031 C 
ATOM     44  C   UNL A   1      37.646  30.985  29.800  1.00  0.00     0.029 A 
ATOM     45  C   UNL A   1      38.016  31.555  31.091  1.00  0.00     0.049 A 
ATOM     46  H   UNL A   1      39.498  30.887  32.394  1.00  0.00     0.167 HD
ATOM     47  C   UNL A   1      42.551  29.193  35.114  1.00  0.00     0.037 A 
ATOM     48  C   UNL A   1      37.445  32.630  31.667  1.00  0.00     0.037 A 
ATOM     49  C   UNL A   1      42.052  30.369  35.771  1.00  0.00     0.049 A 
ATOM     50  C   UNL A   1      37.964  33.091  33.002  1.00  0.00     0.074 A 
ATOM     51  C   UNL A   1      42.458  30.924  36.971  1.00  0.00     0.029 A 
ATOM     52  N   UNL A   1      41.046  31.183  35.269  1.00  0.00    -0.354 N 
ATOM     53  N   UNL A   1      38.911  32.569  33.745  1.00  0.00    -0.248 NA
ATOM     54  C   UNL A   1      37.343  34.292  33.577  1.00  0.00     0.031 C 
ATOM     55  C   UNL A   1      41.672  32.056  37.211  1.00  0.00     0.029 A 
ATOM     56  C   UNL A   1      40.809  32.230  36.140  1.00  0.00     0.049 A 
ATOM     57  H   UNL A   1      40.570  31.034  34.420  1.00  0.00     0.167 HD
ATOM     58  C   UNL A   1      39.020  33.391  34.859  1.00  0.00     0.074 A 
ATOM     59  C   UNL A   1      38.050  34.454  34.687  1.00  0.00     0.031 C 
ATOM     60  C   UNL A   1      39.845  33.281  35.932  1.00  0.00     0.037 A 
BRANCH  47  61
ATOM     61  C   UNL A   1      43.620  28.378  35.789  1.00  0.00     0.058 A 
ATOM     62  C   UNL A   1      43.305  27.338  36.680  1.00  0.00     0.135 A 
ATOM     63  C   UNL A   1      44.978  28.627  35.534  1.00  0.00     0.135 A 
ATOM     64  F   UNL A   1      42.023  27.069  36.980  1.00  0.00    -0.206 F 
ATOM     65  C   UNL A   1      44.294  26.600  37.320  1.00  0.00     0.059 A 
ATOM     66  C   UNL A   1      45.986  27.878  36.137  1.00  0.00     0.059 A 
ATOM     67  F   UNL A   1      45.340  29.610  34.695  1.00  0.00    -0.206 F 
ATOM     68  C   UNL A   1      45.633  26.877  37.041  1.00  0.00     0.060 A 
BRANCH  68  69
ATOM     69  S   UNL A   1      46.904  25.902  37.873  1.00  0.00     0.124 S 
ATOM     70  O   UNL A   1      47.934  25.826  36.841  1.00  0.00    -0.237 OA
ATOM     71  O   UNL A   1      47.227  26.731  39.029  1.00  0.00    -0.237 OA
ATOM     72  O   UNL A   1      46.225  24.645  38.174  1.00  0.00    -0.744 OA
ENDBRANCH  68  69
ENDBRANCH  47  61
BRANCH  48  73
ATOM     73  C   UNL A   1      36.359  33.365  30.965  1.00  0.00     0.058 A 
ATOM     74  C   UNL A   1      35.035  33.305  31.428  1.00  0.00     0.135 A 
ATOM     75  C   UNL A   1      36.619  34.157  29.837  1.00  0.00     0.135 A 
ATOM     76  F   UNL A   1      34.734  32.559  32.502  1.00  0.00    -0.206 F 
ATOM     77  C   UNL A   1      34.005  33.986  30.787  1.00  0.00     0.059 A 
ATOM     78  C   UNL A   1      35.610  34.869  29.194  1.00  0.00     0.059 A 
ATOM     79  F   UNL A   1      37.871  34.267  29.366  1.00  0.00    -0.206 F 
ATOM     80  C   UNL A   1      34.304  34.768  29.670  1.00  0.00     0.060 A 
BRANCH  80  81
ATOM     81  S   UNL A   1      32.966  35.684  28.873  1.00  0.00     0.124 S 
ATOM     82  O   UNL A   1      33.705  36.713  28.151  1.00  0.00    -0.237 OA
ATOM     83  O   UNL A   1      32.336  34.655  28.053  1.00  0.00    -0.237 OA
ATOM     84  O   UNL A   1      32.165  36.155  30.000  1.00  0.00    -0.744 OA
ENDBRANCH  80  81
ENDBRANCH  48  73
BRANCH  60  85
ATOM     85  C   UNL A   1      39.759  34.353  36.979  1.00  0.00     0.058 A 
ATOM     86  C   UNL A   1      38.999  34.184  38.144  1.00  0.00     0.135 A 
ATOM     87  C   UNL A   1      40.502  35.537  36.841  1.00  0.00     0.135 A 
ATOM     88  F   UNL A   1      38.269  33.071  38.320  1.00  0.00    -0.206 F 
ATOM     89  C   UNL A   1      38.959  35.163  39.130  1.00  0.00     0.059 A 
ATOM     90  C   UNL A   1      40.500  36.517  37.827  1.00  0.00     0.059 A 
ATOM     91  F   UNL A   1      41.256  35.740  35.749  1.00  0.00    -0.206 F 
ATOM     92  C   UNL A   1      39.714  36.325  38.963  1.00  0.00     0.060 A 
BRANCH  92  93
ATOM     93  S   UNL A   1      39.682  37.571  40.268  1.00  0.00     0.124 S 
ATOM     94  O   UNL A   1      39.013  36.850  41.345  1.00  0.00    -0.237 OA
ATOM     95  O   UNL A   1      41.101  37.846  40.473  1.00  0.00    -0.237 OA
ATOM     96  O   UNL A   1      38.918  38.665  39.675  1.00  0.00    -0.744 OA
ENDBRANCH  92  93
ENDBRANCH  60  85
ENDBRANCH  34  35
ENDBRANCH  26  29
ENDBRANCH  24  25
ENDBRANCH   1  24
TORSDOF 16
ENDMDL
MODEL 3
REMARK VINA RESULT:     -10.7      3.094      4.012
REMARK SMILES C[NH2+][C@@]1(C(=O)NCCCCNC(=O)c2ccc(-c3c4nc(c(-c5c(F)cc(S(=O)(=O)[O-])cc5F)c5ccc([nH]5)c(-c5c(F)cc(S(=O)(=O)[O-])cc5F)c5nc(c(-c6c(F)cc(S(=O)(=O)[O-])cc6F)c6ccc3[nH]6)C=C5)C=C4)cc2)CCC[C@H](n2cc(I)cn2)C1
REMARK SMILES IDX 9 1 8 2 7 3 6 4 4 5 5 6 3 8 80 9 90 10 81 11 83 12 82 13
REMARK SMILES IDX 2 14 1 15 84 18 85 19 89 20 86 21 88 22 87 23 10 24 11 25
REMARK SMILES IDX 12 26 13 28 14 29 15 30 79 31 16 32 78 33 17 34 18 35 19 36
REMARK SMILES IDX 72 37 20 38 77 39 71 40 73 41 21 42 76 43 70 44 69 45 22 47
REMARK SMILES IDX 56 48 35 49 55 50 36 51 39 52 54 53 74 54 37 55 38 56 53 58
REMARK SMILES IDX 75 59 40 60 23 61 24 62 33 63 25 64 26 65 32 66 34 67 27 68
REMARK SMILES IDX 28 69 29 70 30 71 31 72 57 73 58 74 67 75 59 76 60 77 66 78
REMARK SMILES IDX 68 79 61 80 62 81 63 82 64 83 65 84 41 85 42 86 51 87 43 88
REMARK SMILES IDX 44 89 50 90 52 91 45 92 46 93 47 94 48 95 49 96
REMARK H PARENT 6 7 2 16 2 17 11 27 73 46 39 57
REMARK Flexibility Score: inf
ROOT
ATOM      1  C   UNL A   1      34.260  30.031  27.642  1.00  0.00     0.023 C 
ENDROOT
BRANCH   1   2
ATOM      2  C   UNL A   1      34.467  29.303  26.325  1.00  0.00     0.023 C 
BRANCH   2   3
ATOM      3  C   UNL A   1      34.044  27.843  26.326  1.00  0.00     0.116 C 
BRANCH   3   4
ATOM      4  N   UNL A   1      32.607  27.653  26.289  1.00  0.00    -0.351 N 
ATOM      5  C   UNL A   1      31.763  26.593  26.354  1.00  0.00     0.281 C 
ATOM      6  O   UNL A   1      30.681  26.893  26.888  1.00  0.00    -0.268 OA
ATOM      7  H   UNL A   1      32.125  28.506  26.193  1.00  0.00     0.163 HD
BRANCH   5   8
ATOM      8  C   UNL A   1      32.039  25.084  25.873  1.00  0.00     0.177 C 
ATOM      9  C   UNL A   1      33.523  24.694  25.976  1.00  0.00     0.079 C 
ATOM     10  C   UNL A   1      31.546  24.635  24.478  1.00  0.00     0.106 C 
ATOM     11  C   UNL A   1      34.385  24.880  24.715  1.00  0.00     0.009 C 
ATOM     12  C   UNL A   1      32.191  25.343  23.291  1.00  0.00     0.114 C 
ATOM     13  C   UNL A   1      33.727  25.213  23.361  1.00  0.00     0.028 C 
BRANCH   8  14
ATOM     14  N   UNL A   1      31.348  24.186  26.895  1.00  0.00    -0.336 N 
ATOM     15  C   UNL A   1      30.721  22.979  26.339  1.00  0.00     0.331 C 
ATOM     16  H   UNL A   1      32.045  23.894  27.580  1.00  0.00     0.346 HD
ATOM     17  H   UNL A   1      30.592  24.741  27.295  1.00  0.00     0.346 HD
ENDBRANCH   8  14
BRANCH  12  18
ATOM     18  N   UNL A   1      31.584  26.656  23.045  1.00  0.00    -0.268 N 
ATOM     19  C   UNL A   1      30.254  26.996  23.043  1.00  0.00     0.123 A 
ATOM     20  N   UNL A   1      32.380  27.749  23.024  1.00  0.00    -0.180 NA
ATOM     21  C   UNL A   1      30.223  28.362  22.888  1.00  0.00     0.051 A 
ATOM     22  C   UNL A   1      31.553  28.780  22.874  1.00  0.00     0.149 A 
ATOM     23  I   UNL A   1      28.596  29.531  22.720  1.00  0.00    -0.041 I 
ENDBRANCH  12  18
ENDBRANCH   5   8
ENDBRANCH   3   4
ENDBRANCH   2   3
ENDBRANCH   1   2
BRANCH   1  24
ATOM     24  C   UNL A   1      35.557  30.574  28.198  1.00  0.00     0.116 C 
BRANCH  24  25
ATOM     25  N   UNL A   1      35.540  30.622  29.658  1.00  0.00    -0.352 N 
ATOM     26  C   UNL A   1      36.458  30.112  30.549  1.00  0.00     0.251 C 
ATOM     27  H   UNL A   1      34.767  31.081  30.061  1.00  0.00     0.163 HD
ATOM     28  O   UNL A   1      36.193  30.048  31.743  1.00  0.00    -0.269 OA
BRANCH  26  29
ATOM     29  C   UNL A   1      37.753  29.625  30.031  1.00  0.00     0.039 A 
ATOM     30  C   UNL A   1      38.027  29.692  28.664  1.00  0.00     0.014 A 
ATOM     31  C   UNL A   1      38.718  29.154  30.922  1.00  0.00     0.014 A 
ATOM     32  C   UNL A   1      39.298  29.340  28.206  1.00  0.00     0.010 A 
ATOM     33  C   UNL A   1      40.016  28.962  30.487  1.00  0.00     0.010 A 
ATOM     34  C   UNL A   1      40.312  29.005  29.119  1.00  0.00    -0.014 A 
BRANCH  34  35
ATOM     35  C   UNL A   1      41.673  28.609  28.682  1.00  0.00     0.031 A 
ATOM     36  C   UNL A   1      42.756  29.659  28.629  1.00  0.00     0.074 A 
ATOM     37  C   UNL A   1      41.913  27.351  28.266  1.00  0.00     0.049 A 
ATOM     38  N   UNL A   1      43.974  29.569  28.162  1.00  0.00    -0.248 NA
ATOM     39  C   UNL A   1      42.405  31.008  29.112  1.00  0.00     0.031 C 
ATOM     40  C   UNL A   1      40.923  26.271  28.207  1.00  0.00     0.029 A 
ATOM     41  N   UNL A   1      43.066  26.767  27.810  1.00  0.00    -0.354 N 
ATOM     42  C   UNL A   1      44.509  30.850  28.263  1.00  0.00     0.074 A 
ATOM     43  C   UNL A   1      43.461  31.715  28.749  1.00  0.00     0.031 C 
ATOM     44  C   UNL A   1      41.525  25.145  27.786  1.00  0.00     0.029 A 
ATOM     45  C   UNL A   1      42.927  25.433  27.506  1.00  0.00     0.049 A 
ATOM     46  H   UNL A   1      43.913  27.256  27.710  1.00  0.00     0.167 HD
ATOM     47  C   UNL A   1      45.775  31.261  28.017  1.00  0.00     0.037 A 
ATOM     48  C   UNL A   1      43.835  24.546  27.056  1.00  0.00     0.037 A 
ATOM     49  C   UNL A   1      46.825  30.372  27.606  1.00  0.00     0.049 A 
ATOM     50  C   UNL A   1      45.248  25.014  26.833  1.00  0.00     0.074 A 
ATOM     51  C   UNL A   1      48.163  30.656  27.401  1.00  0.00     0.029 A 
ATOM     52  N   UNL A   1      46.657  29.017  27.356  1.00  0.00    -0.354 N 
ATOM     53  N   UNL A   1      45.754  26.215  26.987  1.00  0.00    -0.248 NA
ATOM     54  C   UNL A   1      46.218  24.006  26.383  1.00  0.00     0.031 C 
ATOM     55  C   UNL A   1      48.797  29.477  26.993  1.00  0.00     0.029 A 
ATOM     56  C   UNL A   1      47.863  28.452  26.988  1.00  0.00     0.049 A 
ATOM     57  H   UNL A   1      45.803  28.531  27.428  1.00  0.00     0.167 HD
ATOM     58  C   UNL A   1      47.105  26.103  26.680  1.00  0.00     0.074 A 
ATOM     59  C   UNL A   1      47.340  24.713  26.345  1.00  0.00     0.031 C 
ATOM     60  C   UNL A   1      48.067  27.060  26.673  1.00  0.00     0.037 A 
BRANCH  47  61
ATOM     61  C   UNL A   1      46.088  32.718  28.216  1.00  0.00     0.058 A 
ATOM     62  C   UNL A   1      45.959  33.651  27.173  1.00  0.00     0.135 A 
ATOM     63  C   UNL A   1      46.508  33.196  29.468  1.00  0.00     0.135 A 
ATOM     64  F   UNL A   1      45.582  33.250  25.948  1.00  0.00    -0.206 F 
ATOM     65  C   UNL A   1      46.270  34.995  27.353  1.00  0.00     0.059 A 
ATOM     66  C   UNL A   1      46.792  34.542  29.680  1.00  0.00     0.059 A 
ATOM     67  F   UNL A   1      46.653  32.350  30.500  1.00  0.00    -0.206 F 
ATOM     68  C   UNL A   1      46.685  35.431  28.612  1.00  0.00     0.060 A 
BRANCH  68  69
ATOM     69  S   UNL A   1      47.074  37.180  28.829  1.00  0.00     0.124 S 
ATOM     70  O   UNL A   1      48.491  37.209  28.479  1.00  0.00    -0.237 OA
ATOM     71  O   UNL A   1      46.173  37.821  27.876  1.00  0.00    -0.237 OA
ATOM     72  O   UNL A   1      46.772  37.423  30.236  1.00  0.00    -0.744 OA
ENDBRANCH  68  69
ENDBRANCH  47  61
BRANCH  48  73
ATOM     73  C   UNL A   1      43.448  23.127  26.835  1.00  0.00     0.058 A 
ATOM     74  C   UNL A   1      43.165  22.283  27.920  1.00  0.00     0.135 A 
ATOM     75  C   UNL A   1      43.331  22.590  25.545  1.00  0.00     0.135 A 
ATOM     76  F   UNL A   1      43.264  22.749  29.175  1.00  0.00    -0.206 F 
ATOM     77  C   UNL A   1      42.799  20.953  27.736  1.00  0.00     0.059 A 
ATOM     78  C   UNL A   1      42.942  21.270  25.333  1.00  0.00     0.059 A 
ATOM     79  F   UNL A   1      43.569  23.360  24.472  1.00  0.00    -0.206 F 
ATOM     80  C   UNL A   1      42.689  20.456  26.436  1.00  0.00     0.060 A 
BRANCH  80  81
ATOM     81  S   UNL A   1      42.170  18.741  26.209  1.00  0.00     0.124 S 
ATOM     82  O   UNL A   1      40.799  18.910  25.739  1.00  0.00    -0.237 OA
ATOM     83  O   UNL A   1      43.129  18.258  25.221  1.00  0.00    -0.237 OA
ATOM     84  O   UNL A   1      42.313  18.167  27.544  1.00  0.00    -0.744 OA
ENDBRANCH  80  81
ENDBRANCH  48  73
BRANCH  60  85
ATOM     85  C   UNL A   1      49.463  26.630  26.329  1.00  0.00     0.058 A 
ATOM     86  C   UNL A   1      50.306  26.038  27.281  1.00  0.00     0.135 A 
ATOM     87  C   UNL A   1      49.937  26.753  25.013  1.00  0.00     0.135 A 
ATOM     88  F   UNL A   1      49.899  25.902  28.553  1.00  0.00    -0.206 F 
ATOM     89  C   UNL A   1      51.583  25.603  26.945  1.00  0.00     0.059 A 
ATOM     90  C   UNL A   1      51.199  26.299  24.648  1.00  0.00     0.059 A 
ATOM     91  F   UNL A   1      49.162  27.301  24.063  1.00  0.00    -0.206 F 
ATOM     92  C   UNL A   1      52.018  25.735  25.625  1.00  0.00     0.060 A 
BRANCH  92  93
ATOM     93  S   UNL A   1      53.664  25.131  25.195  1.00  0.00     0.124 S 
ATOM     94  O   UNL A   1      54.487  25.772  26.215  1.00  0.00    -0.237 OA
ATOM     95  O   UNL A   1      53.509  23.686  25.319  1.00  0.00    -0.237 OA
ATOM     96  O   UNL A   1      53.860  25.620  23.833  1.00  0.00    -0.744 OA
ENDBRANCH  92  93
ENDBRANCH  60  85
ENDBRANCH  34  35
ENDBRANCH  26  29
ENDBRANCH  24  25
ENDBRANCH   1  24
TORSDOF 16
ENDMDL
