MODEL 1
REMARK VINA RESULT:     -12.4      0.000      0.000
REMARK SMILES CC[C@](C)(NC(=O)[C@H]1CNc2ccccc2O1)C(=O)NCCCCNC(=O)c1ccc(-c2c3nc(c(-c4c(F)cc(S(=O)(=O)[O-])cc4F)c4ccc([nH]4)c(-c4c(F)cc(S(=O)(=O)[O-])cc4F)c4nc(c(-c5c(F)cc(S(=O)(=O)[O-])cc5F)c5ccc2[nH]5)C=C4)C=C3)cc1
REMARK SMILES IDX 23 1 22 2 21 3 20 4 18 5 19 6 3 8 4 9 2 10 1 11 5 12 6 13
REMARK SMILES IDX 7 15 8 16 9 17 17 18 10 19 16 20 11 21 15 23 12 24 14 25
REMARK SMILES IDX 13 26 24 27 25 28 26 29 27 31 28 32 29 33 93 34 30 35 92 36
REMARK SMILES IDX 31 37 32 38 33 39 86 40 34 41 91 42 85 43 87 44 35 45 90 46
REMARK SMILES IDX 84 47 83 48 36 50 70 51 49 52 69 53 50 54 53 55 68 56 88 57
REMARK SMILES IDX 51 58 52 59 67 61 89 62 54 63 37 64 38 65 47 66 39 67 40 68
REMARK SMILES IDX 46 69 48 70 41 71 42 72 43 73 44 74 45 75 71 76 72 77 81 78
REMARK SMILES IDX 73 79 74 80 80 81 82 82 75 83 76 84 77 85 78 86 79 87 55 88
REMARK SMILES IDX 56 89 65 90 57 91 58 92 64 93 66 94 59 95 60 96 61 97 62 98
REMARK SMILES IDX 63 99
REMARK H PARENT 20 7 5 14 10 22 25 30 87 49 53 60
REMARK Flexibility Score: inf
ROOT
ATOM      1  C   UNL A   1      33.735  28.746  27.276  1.00  0.00     0.023 C 
ENDROOT
BRANCH   1   2
ATOM      2  C   UNL A   1      32.555  29.704  27.076  1.00  0.00     0.023 C 
BRANCH   2   3
ATOM      3  C   UNL A   1      32.108  30.026  25.645  1.00  0.00     0.116 C 
BRANCH   3   4
ATOM      4  N   UNL A   1      33.034  29.676  24.577  1.00  0.00    -0.354 N 
ATOM      5  C   UNL A   1      32.998  28.796  23.532  1.00  0.00     0.245 C 
ATOM      6  O   UNL A   1      33.904  28.923  22.702  1.00  0.00    -0.272 OA
ATOM      7  H   UNL A   1      33.874  30.187  24.618  1.00  0.00     0.163 HD
BRANCH   5   8
ATOM      8  C   UNL A   1      31.892  27.703  23.336  1.00  0.00     0.116 C 
ATOM      9  C   UNL A   1      30.501  28.379  23.306  1.00  0.00     0.045 C 
BRANCH   8  10
ATOM     10  C   UNL A   1      31.979  26.737  24.567  1.00  0.00     0.035 C 
ATOM     11  C   UNL A   1      30.722  26.546  25.412  1.00  0.00     0.007 C 
ENDBRANCH   8  10
BRANCH   8  12
ATOM     12  N   UNL A   1      32.061  26.928  22.074  1.00  0.00    -0.339 N 
ATOM     13  C   UNL A   1      32.899  25.878  21.757  1.00  0.00     0.263 C 
ATOM     14  H   UNL A   1      31.471  27.214  21.340  1.00  0.00     0.164 HD
ATOM     15  O   UNL A   1      33.120  25.710  20.554  1.00  0.00    -0.271 OA
BRANCH  13  16
ATOM     16  C   UNL A   1      33.435  24.908  22.836  1.00  0.00     0.281 C 
ATOM     17  C   UNL A   1      32.560  23.673  22.725  1.00  0.00     0.168 C 
ATOM     18  O   UNL A   1      34.811  24.510  22.676  1.00  0.00    -0.477 OA
ATOM     19  N   UNL A   1      32.795  22.806  23.855  1.00  0.00    -0.378 N 
ATOM     20  C   UNL A   1      35.127  23.367  23.402  1.00  0.00     0.143 A 
ATOM     21  C   UNL A   1      34.155  22.537  24.004  1.00  0.00     0.077 A 
ATOM     22  H   UNL A   1      32.089  22.452  24.442  1.00  0.00     0.160 HD
ATOM     23  C   UNL A   1      36.473  23.013  23.469  1.00  0.00     0.049 A 
ATOM     24  C   UNL A   1      34.555  21.432  24.758  1.00  0.00     0.029 A 
ATOM     25  C   UNL A   1      36.856  21.867  24.174  1.00  0.00     0.004 A 
ATOM     26  C   UNL A   1      35.903  21.090  24.831  1.00  0.00     0.002 A 
ENDBRANCH  13  16
ENDBRANCH   8  12
ENDBRANCH   5   8
ENDBRANCH   3   4
ENDBRANCH   2   3
ENDBRANCH   1   2
BRANCH   1  27
ATOM     27  C   UNL A   1      35.107  29.365  27.472  1.00  0.00     0.116 C 
BRANCH  27  28
ATOM     28  N   UNL A   1      35.161  30.182  28.664  1.00  0.00    -0.352 N 
ATOM     29  C   UNL A   1      36.199  30.326  29.553  1.00  0.00     0.251 C 
ATOM     30  H   UNL A   1      34.350  30.702  28.866  1.00  0.00     0.163 HD
ATOM     31  O   UNL A   1      35.986  30.856  30.644  1.00  0.00    -0.269 OA
BRANCH  29  32
ATOM     32  C   UNL A   1      37.562  29.843  29.217  1.00  0.00     0.039 A 
ATOM     33  C   UNL A   1      38.403  29.419  30.250  1.00  0.00     0.014 A 
ATOM     34  C   UNL A   1      38.038  29.861  27.901  1.00  0.00     0.014 A 
ATOM     35  C   UNL A   1      39.707  28.998  29.965  1.00  0.00     0.010 A 
ATOM     36  C   UNL A   1      39.312  29.376  27.609  1.00  0.00     0.010 A 
ATOM     37  C   UNL A   1      40.171  28.965  28.640  1.00  0.00    -0.014 A 
BRANCH  37  38
ATOM     38  C   UNL A   1      41.571  28.578  28.322  1.00  0.00     0.031 A 
ATOM     39  C   UNL A   1      42.655  29.626  28.324  1.00  0.00     0.074 A 
ATOM     40  C   UNL A   1      41.866  27.305  27.992  1.00  0.00     0.049 A 
ATOM     41  N   UNL A   1      43.921  29.508  28.012  1.00  0.00    -0.248 NA
ATOM     42  C   UNL A   1      42.256  30.992  28.700  1.00  0.00     0.031 C 
ATOM     43  C   UNL A   1      40.903  26.204  27.916  1.00  0.00     0.029 A 
ATOM     44  N   UNL A   1      43.062  26.724  27.650  1.00  0.00    -0.354 N 
ATOM     45  C   UNL A   1      44.461  30.785  28.129  1.00  0.00     0.074 A 
ATOM     46  C   UNL A   1      43.378  31.669  28.498  1.00  0.00     0.031 C 
ATOM     47  C   UNL A   1      41.550  25.079  27.569  1.00  0.00     0.029 A 
ATOM     48  C   UNL A   1      42.965  25.381  27.372  1.00  0.00     0.049 A 
ATOM     49  H   UNL A   1      43.910  27.222  27.609  1.00  0.00     0.167 HD
ATOM     50  C   UNL A   1      45.746  31.182  27.968  1.00  0.00     0.037 A 
ATOM     51  C   UNL A   1      43.908  24.495  26.997  1.00  0.00     0.037 A 
ATOM     52  C   UNL A   1      46.831  30.293  27.649  1.00  0.00     0.049 A 
ATOM     53  C   UNL A   1      45.335  24.954  26.848  1.00  0.00     0.074 A 
ATOM     54  C   UNL A   1      48.179  30.587  27.533  1.00  0.00     0.029 A 
ATOM     55  N   UNL A   1      46.696  28.935  27.403  1.00  0.00    -0.354 N 
ATOM     56  N   UNL A   1      45.835  26.155  27.016  1.00  0.00    -0.248 NA
ATOM     57  C   UNL A   1      46.325  23.938  26.466  1.00  0.00     0.031 C 
ATOM     58  C   UNL A   1      48.854  29.411  27.187  1.00  0.00     0.029 A 
ATOM     59  C   UNL A   1      47.932  28.379  27.124  1.00  0.00     0.049 A 
ATOM     60  H   UNL A   1      45.845  28.439  27.425  1.00  0.00     0.167 HD
ATOM     61  C   UNL A   1      47.201  26.033  26.785  1.00  0.00     0.074 A 
ATOM     62  C   UNL A   1      47.450  24.640  26.475  1.00  0.00     0.031 C 
ATOM     63  C   UNL A   1      48.163  26.987  26.827  1.00  0.00     0.037 A 
BRANCH  50  64
ATOM     64  C   UNL A   1      46.049  32.645  28.141  1.00  0.00     0.058 A 
ATOM     65  C   UNL A   1      46.461  33.170  29.375  1.00  0.00     0.135 A 
ATOM     66  C   UNL A   1      45.951  33.527  27.054  1.00  0.00     0.135 A 
ATOM     67  F   UNL A   1      46.555  32.373  30.452  1.00  0.00    -0.206 F 
ATOM     68  C   UNL A   1      46.735  34.524  29.535  1.00  0.00     0.059 A 
ATOM     69  C   UNL A   1      46.245  34.882  27.183  1.00  0.00     0.059 A 
ATOM     70  F   UNL A   1      45.562  33.078  25.851  1.00  0.00    -0.206 F 
ATOM     71  C   UNL A   1      46.620  35.374  28.433  1.00  0.00     0.060 A 
BRANCH  71  72
ATOM     72  S   UNL A   1      46.975  37.130  28.654  1.00  0.00     0.124 S 
ATOM     73  O   UNL A   1      45.640  37.712  28.543  1.00  0.00    -0.237 OA
ATOM     74  O   UNL A   1      47.571  37.165  29.986  1.00  0.00    -0.237 OA
ATOM     75  O   UNL A   1      47.885  37.434  27.555  1.00  0.00    -0.744 OA
ENDBRANCH  71  72
ENDBRANCH  50  64
BRANCH  51  76
ATOM     76  C   UNL A   1      43.541  23.073  26.765  1.00  0.00     0.058 A 
ATOM     77  C   UNL A   1      43.170  22.244  27.833  1.00  0.00     0.135 A 
ATOM     78  C   UNL A   1      43.542  22.520  25.476  1.00  0.00     0.135 A 
ATOM     79  F   UNL A   1      43.162  22.728  29.085  1.00  0.00    -0.206 F 
ATOM     80  C   UNL A   1      42.827  20.912  27.636  1.00  0.00     0.059 A 
ATOM     81  C   UNL A   1      43.181  21.196  25.250  1.00  0.00     0.059 A 
ATOM     82  F   UNL A   1      43.875  23.278  24.419  1.00  0.00    -0.206 F 
ATOM     83  C   UNL A   1      42.834  20.397  26.339  1.00  0.00     0.060 A 
BRANCH  83  84
ATOM     84  S   UNL A   1      42.337  18.678  26.085  1.00  0.00     0.124 S 
ATOM     85  O   UNL A   1      42.606  18.099  27.396  1.00  0.00    -0.237 OA
ATOM     86  O   UNL A   1      40.929  18.814  25.723  1.00  0.00    -0.237 OA
ATOM     87  O   UNL A   1      43.213  18.234  25.005  1.00  0.00    -0.744 OA
ENDBRANCH  83  84
ENDBRANCH  51  76
BRANCH  63  88
ATOM     88  C   UNL A   1      49.577  26.557  26.561  1.00  0.00     0.058 A 
ATOM     89  C   UNL A   1      50.405  26.081  27.589  1.00  0.00     0.135 A 
ATOM     90  C   UNL A   1      50.090  26.569  25.255  1.00  0.00     0.135 A 
ATOM     91  F   UNL A   1      49.963  26.056  28.856  1.00  0.00    -0.206 F 
ATOM     92  C   UNL A   1      51.702  25.649  27.333  1.00  0.00     0.059 A 
ATOM     93  C   UNL A   1      51.377  26.122  24.973  1.00  0.00     0.059 A 
ATOM     94  F   UNL A   1      49.333  27.006  24.235  1.00  0.00    -0.206 F 
ATOM     95  C   UNL A   1      52.180  25.674  26.020  1.00  0.00     0.060 A 
BRANCH  95  96
ATOM     96  S   UNL A   1      53.851  25.076  25.693  1.00  0.00     0.124 S 
ATOM     97  O   UNL A   1      54.527  25.393  26.948  1.00  0.00    -0.237 OA
ATOM     98  O   UNL A   1      53.634  23.656  25.432  1.00  0.00    -0.237 OA
ATOM     99  O   UNL A   1      54.271  25.861  24.536  1.00  0.00    -0.744 OA
ENDBRANCH  95  96
ENDBRANCH  63  88
ENDBRANCH  37  38
ENDBRANCH  29  32
ENDBRANCH  27  28
ENDBRANCH   1  27
TORSDOF 17
ENDMDL
MODEL 2
REMARK VINA RESULT:     -12.2      6.751     12.016
REMARK SMILES CC[C@](C)(NC(=O)[C@H]1CNc2ccccc2O1)C(=O)NCCCCNC(=O)c1ccc(-c2c3nc(c(-c4c(F)cc(S(=O)(=O)[O-])cc4F)c4ccc([nH]4)c(-c4c(F)cc(S(=O)(=O)[O-])cc4F)c4nc(c(-c5c(F)cc(S(=O)(=O)[O-])cc5F)c5ccc2[nH]5)C=C4)C=C3)cc1
REMARK SMILES IDX 23 1 22 2 21 3 20 4 18 5 19 6 3 8 4 9 2 10 1 11 5 12 6 13
REMARK SMILES IDX 7 15 8 16 9 17 17 18 10 19 16 20 11 21 15 23 12 24 14 25
REMARK SMILES IDX 13 26 24 27 25 28 26 29 27 31 28 32 29 33 93 34 30 35 92 36
REMARK SMILES IDX 31 37 32 38 33 39 86 40 34 41 91 42 85 43 87 44 35 45 90 46
REMARK SMILES IDX 84 47 83 48 36 50 70 51 49 52 69 53 50 54 53 55 68 56 88 57
REMARK SMILES IDX 51 58 52 59 67 61 89 62 54 63 37 64 38 65 47 66 39 67 40 68
REMARK SMILES IDX 46 69 48 70 41 71 42 72 43 73 44 74 45 75 71 76 72 77 81 78
REMARK SMILES IDX 73 79 74 80 80 81 82 82 75 83 76 84 77 85 78 86 79 87 55 88
REMARK SMILES IDX 56 89 65 90 57 91 58 92 64 93 66 94 59 95 60 96 61 97 62 98
REMARK SMILES IDX 63 99
REMARK H PARENT 20 7 5 14 10 22 25 30 87 49 53 60
REMARK Flexibility Score: inf
ROOT
ATOM      1  C   UNL A   1      37.758  23.022  25.935  1.00  0.00     0.023 C 
ENDROOT
BRANCH   1   2
ATOM      2  C   UNL A   1      36.237  23.200  26.006  1.00  0.00     0.023 C 
BRANCH   2   3
ATOM      3  C   UNL A   1      35.579  24.240  25.091  1.00  0.00     0.116 C 
BRANCH   3   4
ATOM      4  N   UNL A   1      35.039  23.752  23.830  1.00  0.00    -0.354 N 
ATOM      5  C   UNL A   1      33.865  23.941  23.157  1.00  0.00     0.245 C 
ATOM      6  O   UNL A   1      33.845  23.514  21.997  1.00  0.00    -0.272 OA
ATOM      7  H   UNL A   1      35.658  23.150  23.357  1.00  0.00     0.163 HD
BRANCH   5   8
ATOM      8  C   UNL A   1      32.612  24.668  23.755  1.00  0.00     0.116 C 
ATOM      9  C   UNL A   1      31.429  24.548  22.765  1.00  0.00     0.045 C 
BRANCH   8  10
ATOM     10  C   UNL A   1      32.997  26.176  23.930  1.00  0.00     0.035 C 
ATOM     11  C   UNL A   1      33.026  27.054  22.682  1.00  0.00     0.007 C 
ENDBRANCH   8  10
BRANCH   8  12
ATOM     12  N   UNL A   1      32.183  24.101  25.064  1.00  0.00    -0.339 N 
ATOM     13  C   UNL A   1      32.053  22.795  25.491  1.00  0.00     0.263 C 
ATOM     14  H   UNL A   1      31.955  24.776  25.744  1.00  0.00     0.164 HD
ATOM     15  O   UNL A   1      31.302  22.616  26.455  1.00  0.00    -0.271 OA
BRANCH  13  16
ATOM     16  C   UNL A   1      32.883  21.648  24.870  1.00  0.00     0.281 C 
ATOM     17  C   UNL A   1      33.476  20.906  26.055  1.00  0.00     0.168 C 
ATOM     18  O   UNL A   1      32.135  20.711  24.072  1.00  0.00    -0.477 OA
ATOM     19  N   UNL A   1      34.481  19.977  25.593  1.00  0.00    -0.378 N 
ATOM     20  C   UNL A   1      32.813  19.513  23.871  1.00  0.00     0.143 A 
ATOM     21  C   UNL A   1      33.975  19.151  24.590  1.00  0.00     0.077 A 
ATOM     22  H   UNL A   1      35.400  19.932  25.941  1.00  0.00     0.160 HD
ATOM     23  C   UNL A   1      32.262  18.620  22.956  1.00  0.00     0.049 A 
ATOM     24  C   UNL A   1      34.626  17.951  24.298  1.00  0.00     0.029 A 
ATOM     25  C   UNL A   1      32.890  17.393  22.718  1.00  0.00     0.004 A 
ATOM     26  C   UNL A   1      34.078  17.067  23.373  1.00  0.00     0.002 A 
ENDBRANCH  13  16
ENDBRANCH   8  12
ENDBRANCH   5   8
ENDBRANCH   3   4
ENDBRANCH   2   3
ENDBRANCH   1   2
BRANCH   1  27
ATOM     27  C   UNL A   1      38.615  24.230  26.268  1.00  0.00     0.116 C 
BRANCH  27  28
ATOM     28  N   UNL A   1      40.025  23.943  26.123  1.00  0.00    -0.352 N 
ATOM     29  C   UNL A   1      41.095  24.649  26.617  1.00  0.00     0.251 C 
ATOM     30  H   UNL A   1      40.248  23.137  25.602  1.00  0.00     0.163 HD
ATOM     31  O   UNL A   1      42.224  24.410  26.185  1.00  0.00    -0.269 OA
BRANCH  29  32
ATOM     32  C   UNL A   1      40.903  25.696  27.651  1.00  0.00     0.039 A 
ATOM     33  C   UNL A   1      41.816  26.754  27.720  1.00  0.00     0.014 A 
ATOM     34  C   UNL A   1      39.869  25.613  28.590  1.00  0.00     0.014 A 
ATOM     35  C   UNL A   1      41.682  27.732  28.712  1.00  0.00     0.010 A 
ATOM     36  C   UNL A   1      39.694  26.625  29.534  1.00  0.00     0.010 A 
ATOM     37  C   UNL A   1      40.615  27.681  29.623  1.00  0.00    -0.014 A 
BRANCH  37  38
ATOM     38  C   UNL A   1      40.488  28.676  30.720  1.00  0.00     0.031 A 
ATOM     39  C   UNL A   1      41.374  28.566  31.936  1.00  0.00     0.074 A 
ATOM     40  C   UNL A   1      39.559  29.650  30.651  1.00  0.00     0.049 A 
ATOM     41  N   UNL A   1      41.378  29.291  33.026  1.00  0.00    -0.248 NA
ATOM     42  C   UNL A   1      42.368  27.481  31.935  1.00  0.00     0.031 C 
ATOM     43  C   UNL A   1      38.615  29.844  29.549  1.00  0.00     0.029 A 
ATOM     44  N   UNL A   1      39.250  30.655  31.533  1.00  0.00    -0.354 N 
ATOM     45  C   UNL A   1      42.353  28.734  33.848  1.00  0.00     0.074 A 
ATOM     46  C   UNL A   1      42.889  27.587  33.150  1.00  0.00     0.031 C 
ATOM     47  C   UNL A   1      37.846  30.913  29.812  1.00  0.00     0.029 A 
ATOM     48  C   UNL A   1      38.222  31.465  31.111  1.00  0.00     0.049 A 
ATOM     49  H   UNL A   1      39.721  30.786  32.388  1.00  0.00     0.167 HD
ATOM     50  C   UNL A   1      42.779  29.153  35.063  1.00  0.00     0.037 A 
ATOM     51  C   UNL A   1      37.646  32.528  31.705  1.00  0.00     0.037 A 
ATOM     52  C   UNL A   1      42.280  30.323  35.735  1.00  0.00     0.049 A 
ATOM     53  C   UNL A   1      38.154  32.991  33.044  1.00  0.00     0.074 A 
ATOM     54  C   UNL A   1      42.696  30.870  36.937  1.00  0.00     0.029 A 
ATOM     55  N   UNL A   1      41.259  31.132  35.261  1.00  0.00    -0.354 N 
ATOM     56  N   UNL A   1      39.113  32.483  33.781  1.00  0.00    -0.248 NA
ATOM     57  C   UNL A   1      37.507  34.174  33.630  1.00  0.00     0.031 C 
ATOM     58  C   UNL A   1      41.905  31.993  37.202  1.00  0.00     0.029 A 
ATOM     59  C   UNL A   1      41.022  32.166  36.150  1.00  0.00     0.049 A 
ATOM     60  H   UNL A   1      40.773  30.992  34.415  1.00  0.00     0.167 HD
ATOM     61  C   UNL A   1      39.201  33.300  34.904  1.00  0.00     0.074 A 
ATOM     62  C   UNL A   1      38.205  34.339  34.745  1.00  0.00     0.031 C 
ATOM     63  C   UNL A   1      40.032  33.199  35.970  1.00  0.00     0.037 A 
BRANCH  50  64
ATOM     64  C   UNL A   1      43.848  28.341  35.743  1.00  0.00     0.058 A 
ATOM     65  C   UNL A   1      45.212  28.592  35.527  1.00  0.00     0.135 A 
ATOM     66  C   UNL A   1      43.504  27.318  36.640  1.00  0.00     0.135 A 
ATOM     67  F   UNL A   1      45.595  29.549  34.666  1.00  0.00    -0.206 F 
ATOM     68  C   UNL A   1      46.199  27.837  36.151  1.00  0.00     0.059 A 
ATOM     69  C   UNL A   1      44.475  26.566  37.297  1.00  0.00     0.059 A 
ATOM     70  F   UNL A   1      42.215  27.037  36.884  1.00  0.00    -0.206 F 
ATOM     71  C   UNL A   1      45.819  26.822  37.033  1.00  0.00     0.060 A 
BRANCH  71  72
ATOM     72  S   UNL A   1      47.109  25.847  37.835  1.00  0.00     0.124 S 
ATOM     73  O   UNL A   1      46.374  24.640  38.203  1.00  0.00    -0.237 OA
ATOM     74  O   UNL A   1      48.092  25.687  36.768  1.00  0.00    -0.237 OA
ATOM     75  O   UNL A   1      47.530  26.690  38.950  1.00  0.00    -0.744 OA
ENDBRANCH  71  72
ENDBRANCH  50  64
BRANCH  51  76
ATOM     76  C   UNL A   1      36.540  33.251  31.022  1.00  0.00     0.058 A 
ATOM     77  C   UNL A   1      36.795  34.069  29.912  1.00  0.00     0.135 A 
ATOM     78  C   UNL A   1      35.212  33.130  31.455  1.00  0.00     0.135 A 
ATOM     79  F   UNL A   1      38.052  34.221  29.467  1.00  0.00    -0.206 F 
ATOM     80  C   UNL A   1      35.774  34.754  29.263  1.00  0.00     0.059 A 
ATOM     81  C   UNL A   1      34.170  33.788  30.809  1.00  0.00     0.059 A 
ATOM     82  F   UNL A   1      34.915  32.346  32.504  1.00  0.00    -0.206 F 
ATOM     83  C   UNL A   1      34.464  34.606  29.719  1.00  0.00     0.060 A 
BRANCH  83  84
ATOM     84  S   UNL A   1      33.137  35.460  28.838  1.00  0.00     0.124 S 
ATOM     85  O   UNL A   1      33.888  36.423  28.041  1.00  0.00    -0.237 OA
ATOM     86  O   UNL A   1      32.506  34.372  28.098  1.00  0.00    -0.237 OA
ATOM     87  O   UNL A   1      32.330  36.024  29.916  1.00  0.00    -0.744 OA
ENDBRANCH  83  84
ENDBRANCH  51  76
BRANCH  63  88
ATOM     88  C   UNL A   1      39.924  34.253  37.034  1.00  0.00     0.058 A 
ATOM     89  C   UNL A   1      40.506  35.520  36.875  1.00  0.00     0.135 A 
ATOM     90  C   UNL A   1      39.185  34.010  38.202  1.00  0.00     0.135 A 
ATOM     91  F   UNL A   1      41.229  35.798  35.779  1.00  0.00    -0.206 F 
ATOM     92  C   UNL A   1      40.373  36.506  37.847  1.00  0.00     0.059 A 
ATOM     93  C   UNL A   1      39.021  34.988  39.178  1.00  0.00     0.059 A 
ATOM     94  F   UNL A   1      38.600  32.817  38.397  1.00  0.00    -0.206 F 
ATOM     95  C   UNL A   1      39.628  36.230  38.996  1.00  0.00     0.060 A 
BRANCH  95  96
ATOM     96  S   UNL A   1      39.430  37.528  40.234  1.00  0.00     0.124 S 
ATOM     97  O   UNL A   1      40.804  37.996  40.391  1.00  0.00    -0.237 OA
ATOM     98  O   UNL A   1      38.516  38.457  39.575  1.00  0.00    -0.237 OA
ATOM     99  O   UNL A   1      38.872  36.820  41.382  1.00  0.00    -0.744 OA
ENDBRANCH  95  96
ENDBRANCH  63  88
ENDBRANCH  37  38
ENDBRANCH  29  32
ENDBRANCH  27  28
ENDBRANCH   1  27
TORSDOF 17
ENDMDL
MODEL 3
REMARK VINA RESULT:     -12.2      2.565      3.374
REMARK SMILES CC[C@](C)(NC(=O)[C@H]1CNc2ccccc2O1)C(=O)NCCCCNC(=O)c1ccc(-c2c3nc(c(-c4c(F)cc(S(=O)(=O)[O-])cc4F)c4ccc([nH]4)c(-c4c(F)cc(S(=O)(=O)[O-])cc4F)c4nc(c(-c5c(F)cc(S(=O)(=O)[O-])cc5F)c5ccc2[nH]5)C=C4)C=C3)cc1
REMARK SMILES IDX 23 1 22 2 21 3 20 4 18 5 19 6 3 8 4 9 2 10 1 11 5 12 6 13
REMARK SMILES IDX 7 15 8 16 9 17 17 18 10 19 16 20 11 21 15 23 12 24 14 25
REMARK SMILES IDX 13 26 24 27 25 28 26 29 27 31 28 32 29 33 93 34 30 35 92 36
REMARK SMILES IDX 31 37 32 38 33 39 86 40 34 41 91 42 85 43 87 44 35 45 90 46
REMARK SMILES IDX 84 47 83 48 36 50 70 51 49 52 69 53 50 54 53 55 68 56 88 57
REMARK SMILES IDX 51 58 52 59 67 61 89 62 54 63 37 64 38 65 47 66 39 67 40 68
REMARK SMILES IDX 46 69 48 70 41 71 42 72 43 73 44 74 45 75 71 76 72 77 81 78
REMARK SMILES IDX 73 79 74 80 80 81 82 82 75 83 76 84 77 85 78 86 79 87 55 88
REMARK SMILES IDX 56 89 65 90 57 91 58 92 64 93 66 94 59 95 60 96 61 97 62 98
REMARK SMILES IDX 63 99
REMARK H PARENT 20 7 5 14 10 22 25 30 87 49 53 60
REMARK Flexibility Score: inf
ROOT
ATOM      1  C   UNL A   1      33.975  28.411  25.475  1.00  0.00     0.023 C 
ENDROOT
BRANCH   1   2
ATOM      2  C   UNL A   1      33.139  29.345  24.592  1.00  0.00     0.023 C 
BRANCH   2   3
ATOM      3  C   UNL A   1      32.616  28.811  23.253  1.00  0.00     0.116 C 
BRANCH   3   4
ATOM      4  N   UNL A   1      31.179  28.603  23.149  1.00  0.00    -0.354 N 
ATOM      5  C   UNL A   1      30.363  27.510  23.238  1.00  0.00     0.245 C 
ATOM      6  O   UNL A   1      29.153  27.756  23.298  1.00  0.00    -0.272 OA
ATOM      7  H   UNL A   1      30.684  29.436  22.975  1.00  0.00     0.163 HD
BRANCH   5   8
ATOM      8  C   UNL A   1      30.874  26.030  23.295  1.00  0.00     0.116 C 
ATOM      9  C   UNL A   1      29.669  25.078  23.480  1.00  0.00     0.045 C 
BRANCH   8  10
ATOM     10  C   UNL A   1      31.824  25.919  24.536  1.00  0.00     0.035 C 
ATOM     11  C   UNL A   1      31.192  25.974  25.924  1.00  0.00     0.007 C 
ENDBRANCH   8  10
BRANCH   8  12
ATOM     12  N   UNL A   1      31.605  25.622  22.062  1.00  0.00    -0.339 N 
ATOM     13  C   UNL A   1      32.838  25.024  21.892  1.00  0.00     0.263 C 
ATOM     14  H   UNL A   1      31.124  25.809  21.224  1.00  0.00     0.164 HD
ATOM     15  O   UNL A   1      33.362  25.178  20.785  1.00  0.00    -0.271 OA
BRANCH  13  16
ATOM     16  C   UNL A   1      33.467  24.127  22.983  1.00  0.00     0.281 C 
ATOM     17  C   UNL A   1      32.789  22.778  22.824  1.00  0.00     0.168 C 
ATOM     18  O   UNL A   1      34.892  23.939  22.878  1.00  0.00    -0.477 OA
ATOM     19  N   UNL A   1      33.104  21.938  23.955  1.00  0.00    -0.378 N 
ATOM     20  C   UNL A   1      35.344  22.845  23.607  1.00  0.00     0.143 A 
ATOM     21  C   UNL A   1      34.482  21.871  24.159  1.00  0.00     0.077 A 
ATOM     22  H   UNL A   1      32.435  21.474  24.508  1.00  0.00     0.160 HD
ATOM     23  C   UNL A   1      36.723  22.692  23.728  1.00  0.00     0.049 A 
ATOM     24  C   UNL A   1      35.010  20.825  24.919  1.00  0.00     0.029 A 
ATOM     25  C   UNL A   1      37.243  21.604  24.438  1.00  0.00     0.004 A 
ATOM     26  C   UNL A   1      36.389  20.684  25.047  1.00  0.00     0.002 A 
ENDBRANCH  13  16
ENDBRANCH   8  12
ENDBRANCH   5   8
ENDBRANCH   3   4
ENDBRANCH   2   3
ENDBRANCH   1   2
BRANCH   1  27
ATOM     27  C   UNL A   1      33.756  28.493  26.975  1.00  0.00     0.116 C 
BRANCH  27  28
ATOM     28  N   UNL A   1      33.624  29.861  27.423  1.00  0.00    -0.352 N 
ATOM     29  C   UNL A   1      34.511  30.607  28.162  1.00  0.00     0.251 C 
ATOM     30  H   UNL A   1      32.790  30.318  27.167  1.00  0.00     0.163 HD
ATOM     31  O   UNL A   1      34.130  31.662  28.671  1.00  0.00    -0.269 OA
BRANCH  29  32
ATOM     32  C   UNL A   1      35.910  30.151  28.357  1.00  0.00     0.039 A 
ATOM     33  C   UNL A   1      36.279  29.612  29.594  1.00  0.00     0.014 A 
ATOM     34  C   UNL A   1      36.874  30.305  27.354  1.00  0.00     0.014 A 
ATOM     35  C   UNL A   1      37.601  29.213  29.818  1.00  0.00     0.010 A 
ATOM     36  C   UNL A   1      38.175  29.843  27.555  1.00  0.00     0.010 A 
ATOM     37  C   UNL A   1      38.560  29.318  28.798  1.00  0.00    -0.014 A 
BRANCH  37  38
ATOM     38  C   UNL A   1      39.982  28.955  29.035  1.00  0.00     0.031 A 
ATOM     39  C   UNL A   1      40.926  29.974  29.620  1.00  0.00     0.074 A 
ATOM     40  C   UNL A   1      40.439  27.734  28.690  1.00  0.00     0.049 A 
ATOM     41  N   UNL A   1      42.213  29.880  29.844  1.00  0.00    -0.248 NA
ATOM     42  C   UNL A   1      40.352  31.282  29.976  1.00  0.00     0.031 C 
ATOM     43  C   UNL A   1      39.638  26.671  28.081  1.00  0.00     0.029 A 
ATOM     44  N   UNL A   1      41.693  27.187  28.797  1.00  0.00    -0.354 N 
ATOM     45  C   UNL A   1      42.604  31.119  30.340  1.00  0.00     0.074 A 
ATOM     46  C   UNL A   1      41.429  31.962  30.344  1.00  0.00     0.031 C 
ATOM     47  C   UNL A   1      40.416  25.594  27.885  1.00  0.00     0.029 A 
ATOM     48  C   UNL A   1      41.775  25.897  28.328  1.00  0.00     0.049 A 
ATOM     49  H   UNL A   1      42.463  27.672  29.174  1.00  0.00     0.167 HD
ATOM     50  C   UNL A   1      43.825  31.514  30.774  1.00  0.00     0.037 A 
ATOM     51  C   UNL A   1      42.825  25.055  28.260  1.00  0.00     0.037 A 
ATOM     52  C   UNL A   1      44.981  30.659  30.815  1.00  0.00     0.049 A 
ATOM     53  C   UNL A   1      44.166  25.507  28.773  1.00  0.00     0.074 A 
ATOM     54  C   UNL A   1      46.245  30.944  31.302  1.00  0.00     0.029 A 
ATOM     55  N   UNL A   1      45.015  29.351  30.358  1.00  0.00    -0.354 N 
ATOM     56  N   UNL A   1      44.504  26.665  29.288  1.00  0.00    -0.248 NA
ATOM     57  C   UNL A   1      45.268  24.536  28.701  1.00  0.00     0.031 C 
ATOM     58  C   UNL A   1      47.051  29.816  31.112  1.00  0.00     0.029 A 
ATOM     59  C   UNL A   1      46.279  28.818  30.541  1.00  0.00     0.049 A 
ATOM     60  H   UNL A   1      44.251  28.870  29.963  1.00  0.00     0.167 HD
ATOM     61  C   UNL A   1      45.849  26.553  29.625  1.00  0.00     0.074 A 
ATOM     62  C   UNL A   1      46.260  25.212  29.263  1.00  0.00     0.031 C 
ATOM     63  C   UNL A   1      46.669  27.477  30.184  1.00  0.00     0.037 A 
BRANCH  50  64
ATOM     64  C   UNL A   1      43.969  32.934  31.248  1.00  0.00     0.058 A 
ATOM     65  C   UNL A   1      43.761  33.286  32.590  1.00  0.00     0.135 A 
ATOM     66  C   UNL A   1      44.345  33.949  30.355  1.00  0.00     0.135 A 
ATOM     67  F   UNL A   1      43.384  32.357  33.483  1.00  0.00    -0.206 F 
ATOM     68  C   UNL A   1      43.889  34.601  33.025  1.00  0.00     0.059 A 
ATOM     69  C   UNL A   1      44.505  35.268  30.773  1.00  0.00     0.059 A 
ATOM     70  F   UNL A   1      44.557  33.667  29.060  1.00  0.00    -0.206 F 
ATOM     71  C   UNL A   1      44.258  35.587  32.107  1.00  0.00     0.060 A 
BRANCH  71  72
ATOM     72  S   UNL A   1      44.418  37.290  32.684  1.00  0.00     0.124 S 
ATOM     73  O   UNL A   1      45.792  37.302  33.177  1.00  0.00    -0.237 OA
ATOM     74  O   UNL A   1      44.177  38.058  31.467  1.00  0.00    -0.237 OA
ATOM     75  O   UNL A   1      43.383  37.400  33.707  1.00  0.00    -0.744 OA
ENDBRANCH  71  72
ENDBRANCH  50  64
BRANCH  51  76
ATOM     76  C   UNL A   1      42.644  23.685  27.713  1.00  0.00     0.058 A 
ATOM     77  C   UNL A   1      42.703  23.451  26.331  1.00  0.00     0.135 A 
ATOM     78  C   UNL A   1      42.424  22.585  28.555  1.00  0.00     0.135 A 
ATOM     79  F   UNL A   1      42.905  24.474  25.486  1.00  0.00    -0.206 F 
ATOM     80  C   UNL A   1      42.535  22.177  25.801  1.00  0.00     0.059 A 
ATOM     81  C   UNL A   1      42.274  21.298  28.050  1.00  0.00     0.059 A 
ATOM     82  F   UNL A   1      42.375  22.756  29.885  1.00  0.00    -0.206 F 
ATOM     83  C   UNL A   1      42.321  21.105  26.669  1.00  0.00     0.060 A 
BRANCH  83  84
ATOM     84  S   UNL A   1      42.154  19.446  25.975  1.00  0.00     0.124 S 
ATOM     85  O   UNL A   1      40.717  19.369  25.742  1.00  0.00    -0.237 OA
ATOM     86  O   UNL A   1      42.992  19.524  24.782  1.00  0.00    -0.237 OA
ATOM     87  O   UNL A   1      42.670  18.587  27.037  1.00  0.00    -0.744 OA
ENDBRANCH  83  84
ENDBRANCH  51  76
BRANCH  63  88
ATOM     88  C   UNL A   1      48.085  27.063  30.469  1.00  0.00     0.058 A 
ATOM     89  C   UNL A   1      49.122  27.320  29.559  1.00  0.00     0.135 A 
ATOM     90  C   UNL A   1      48.414  26.452  31.688  1.00  0.00     0.135 A 
ATOM     91  F   UNL A   1      48.856  27.896  28.377  1.00  0.00    -0.206 F 
ATOM     92  C   UNL A   1      50.437  26.968  29.843  1.00  0.00     0.059 A 
ATOM     93  C   UNL A   1      49.726  26.111  32.001  1.00  0.00     0.059 A 
ATOM     94  F   UNL A   1      47.458  26.195  32.596  1.00  0.00    -0.206 F 
ATOM     95  C   UNL A   1      50.730  26.363  31.067  1.00  0.00     0.060 A 
BRANCH  95  96
ATOM     96  S   UNL A   1      52.445  25.945  31.442  1.00  0.00     0.124 S 
ATOM     97  O   UNL A   1      52.312  24.577  31.936  1.00  0.00    -0.237 OA
ATOM     98  O   UNL A   1      53.096  26.087  30.143  1.00  0.00    -0.237 OA
ATOM     99  O   UNL A   1      52.827  26.940  32.439  1.00  0.00    -0.744 OA
ENDBRANCH  95  96
ENDBRANCH  63  88
ENDBRANCH  37  38
ENDBRANCH  29  32
ENDBRANCH  27  28
ENDBRANCH   1  27
TORSDOF 17
ENDMDL
