MODEL 1
REMARK VINA RESULT:     -11.6      0.000      0.000
REMARK SMILES CN(C)c1cc(C(F)(F)F)cc(-c2cccc(/C=C/C(=O)NCCCCNC(=O)c3ccc(-c4c5nc(c(-c6c(F)cc(S(=O)(=O)[O-])cc6F)c6ccc([nH]6)c(-c6c(F)cc(S(=O)(=O)[O-])cc6F)c6nc(c(-c7c(F)cc(S(=O)(=O)[O-])cc7F)c7ccc4[nH]7)C=C6)C=C5)cc3)c2)n1
REMARK SMILES IDX 24 1 23 2 22 3 20 4 21 5 19 7 18 8 17 9 13 10 14 11 96 12
REMARK SMILES IDX 15 13 16 14 12 15 4 16 5 17 97 18 6 19 11 20 2 21 1 22 3 23
REMARK SMILES IDX 7 24 8 25 9 26 10 27 25 28 26 29 27 30 28 31 29 33 30 34
REMARK SMILES IDX 31 35 95 36 32 37 94 38 33 39 34 40 35 41 88 42 36 43 93 44
REMARK SMILES IDX 87 45 89 46 37 47 92 48 86 49 85 50 38 52 72 53 51 54 71 55
REMARK SMILES IDX 52 56 55 57 70 58 90 59 53 60 54 61 69 63 91 64 56 65 39 66
REMARK SMILES IDX 40 67 49 68 41 69 42 70 48 71 50 72 43 73 44 74 45 75 46 76
REMARK SMILES IDX 47 77 73 78 74 79 83 80 75 81 76 82 82 83 84 84 77 85 78 86
REMARK SMILES IDX 79 87 80 88 81 89 57 90 58 91 67 92 59 93 60 94 66 95 68 96
REMARK SMILES IDX 61 97 62 98 63 99 64 100 65 101
REMARK H PARENT 22 6 27 32 89 51 55 62
REMARK Flexibility Score: inf
ROOT
ATOM      1  C   UNL A   1      45.522  23.404  26.462  1.00  0.00     0.023 C 
ENDROOT
BRANCH   1   2
ATOM      2  C   UNL A   1      44.385  22.678  27.183  1.00  0.00     0.116 C 
BRANCH   2   3
ATOM      3  N   UNL A   1      44.042  21.435  26.516  1.00  0.00    -0.353 N 
ATOM      4  C   UNL A   1      42.857  21.018  25.994  1.00  0.00     0.243 C 
ATOM      5  O   UNL A   1      42.801  19.970  25.355  1.00  0.00    -0.270 OA
ATOM      6  H   UNL A   1      44.784  20.793  26.428  1.00  0.00     0.163 HD
BRANCH   4   7
ATOM      7  C   UNL A   1      41.642  21.854  26.111  1.00  0.00     0.072 C 
ATOM      8  C   UNL A   1      40.395  21.373  26.015  1.00  0.00     0.014 C 
BRANCH   8   9
ATOM      9  C   UNL A   1      39.186  22.200  26.094  1.00  0.00    -0.025 A 
ATOM     10  C   UNL A   1      36.821  22.484  25.530  1.00  0.00     0.001 A 
ATOM     11  C   UNL A   1      36.879  23.784  26.055  1.00  0.00     0.010 A 
ATOM     12  C   UNL A   1      37.990  21.705  25.552  1.00  0.00     0.018 A 
ATOM     13  C   UNL A   1      38.061  24.284  26.604  1.00  0.00     0.001 A 
ATOM     14  C   UNL A   1      39.211  23.495  26.622  1.00  0.00     0.008 A 
BRANCH  10  15
ATOM     15  C   UNL A   1      35.573  21.964  24.963  1.00  0.00     0.073 A 
ATOM     16  C   UNL A   1      34.182  20.100  24.737  1.00  0.00     0.129 A 
ATOM     17  C   UNL A   1      33.310  20.833  23.938  1.00  0.00     0.060 A 
ATOM     18  N   UNL A   1      35.299  20.667  25.239  1.00  0.00    -0.231 NA
ATOM     19  C   UNL A   1      33.577  22.177  23.654  1.00  0.00     0.061 A 
ATOM     20  C   UNL A   1      34.737  22.749  24.181  1.00  0.00     0.042 A 
BRANCH  16  21
ATOM     21  N   UNL A   1      33.897  18.771  25.048  1.00  0.00    -0.363 N 
ATOM     22  C   UNL A   1      32.506  18.453  25.326  1.00  0.00     0.144 C 
ATOM     23  C   UNL A   1      34.685  17.778  24.332  1.00  0.00     0.144 C 
ENDBRANCH  16  21
BRANCH  19  24
ATOM     24  C   UNL A   1      32.643  22.997  22.810  1.00  0.00     0.416 C 
ATOM     25  F   UNL A   1      32.728  24.327  23.079  1.00  0.00    -0.166 F 
ATOM     26  F   UNL A   1      32.902  22.865  21.480  1.00  0.00    -0.166 F 
ATOM     27  F   UNL A   1      31.332  22.663  22.966  1.00  0.00    -0.166 F 
ENDBRANCH  19  24
ENDBRANCH  10  15
ENDBRANCH   8   9
ENDBRANCH   4   7
ENDBRANCH   2   3
ENDBRANCH   1   2
BRANCH   1  28
ATOM     28  C   UNL A   1      45.871  24.777  27.040  1.00  0.00     0.023 C 
BRANCH  28  29
ATOM     29  C   UNL A   1      45.039  25.939  26.507  1.00  0.00     0.116 C 
BRANCH  29  30
ATOM     30  N   UNL A   1      43.957  25.522  25.626  1.00  0.00    -0.352 N 
ATOM     31  C   UNL A   1      42.613  25.796  25.739  1.00  0.00     0.251 C 
ATOM     32  H   UNL A   1      44.222  24.974  24.852  1.00  0.00     0.163 HD
ATOM     33  O   UNL A   1      41.811  25.291  24.965  1.00  0.00    -0.269 OA
BRANCH  31  34
ATOM     34  C   UNL A   1      42.150  26.669  26.838  1.00  0.00     0.039 A 
ATOM     35  C   UNL A   1      41.524  26.086  27.943  1.00  0.00     0.014 A 
ATOM     36  C   UNL A   1      42.382  28.046  26.799  1.00  0.00     0.014 A 
ATOM     37  C   UNL A   1      41.201  26.877  29.047  1.00  0.00     0.010 A 
ATOM     38  C   UNL A   1      42.114  28.821  27.923  1.00  0.00     0.010 A 
ATOM     39  C   UNL A   1      41.531  28.241  29.061  1.00  0.00    -0.014 A 
BRANCH  39  40
ATOM     40  C   UNL A   1      41.299  29.079  30.265  1.00  0.00     0.031 A 
ATOM     41  C   UNL A   1      42.146  28.887  31.491  1.00  0.00     0.074 A 
ATOM     42  C   UNL A   1      40.268  29.947  30.281  1.00  0.00     0.049 A 
ATOM     43  N   UNL A   1      42.035  29.448  32.667  1.00  0.00    -0.248 NA
ATOM     44  C   UNL A   1      43.246  27.915  31.390  1.00  0.00     0.031 C 
ATOM     45  C   UNL A   1      39.338  30.178  29.173  1.00  0.00     0.029 A 
ATOM     46  N   UNL A   1      39.815  30.782  31.272  1.00  0.00    -0.354 N 
ATOM     47  C   UNL A   1      43.032  28.882  33.452  1.00  0.00     0.074 A 
ATOM     48  C   UNL A   1      43.712  27.904  32.630  1.00  0.00     0.031 C 
ATOM     49  C   UNL A   1      38.435  31.103  29.540  1.00  0.00     0.029 A 
ATOM     50  C   UNL A   1      38.701  31.506  30.919  1.00  0.00     0.049 A 
ATOM     51  H   UNL A   1      40.249  30.857  32.152  1.00  0.00     0.167 HD
ATOM     52  C   UNL A   1      43.361  29.166  34.735  1.00  0.00     0.037 A 
ATOM     53  C   UNL A   1      37.970  32.388  31.627  1.00  0.00     0.037 A 
ATOM     54  C   UNL A   1      42.703  30.165  35.535  1.00  0.00     0.049 A 
ATOM     55  C   UNL A   1      38.376  32.711  33.038  1.00  0.00     0.074 A 
ATOM     56  C   UNL A   1      43.006  30.575  36.821  1.00  0.00     0.029 A 
ATOM     57  N   UNL A   1      41.609  30.913  35.125  1.00  0.00    -0.354 N 
ATOM     58  N   UNL A   1      39.362  32.213  33.745  1.00  0.00    -0.248 NA
ATOM     59  C   UNL A   1      37.575  33.719  33.747  1.00  0.00     0.031 C 
ATOM     60  C   UNL A   1      42.078  31.550  37.201  1.00  0.00     0.029 A 
ATOM     61  C   UNL A   1      41.217  31.774  36.136  1.00  0.00     0.049 A 
ATOM     62  H   UNL A   1      41.174  30.841  34.244  1.00  0.00     0.167 HD
ATOM     63  C   UNL A   1      39.317  32.864  34.972  1.00  0.00     0.074 A 
ATOM     64  C   UNL A   1      38.211  33.798  34.908  1.00  0.00     0.031 C 
ATOM     65  C   UNL A   1      40.120  32.704  36.052  1.00  0.00     0.037 A 
BRANCH  52  66
ATOM     66  C   UNL A   1      44.492  28.387  35.348  1.00  0.00     0.058 A 
ATOM     67  C   UNL A   1      44.266  27.188  36.042  1.00  0.00     0.135 A 
ATOM     68  C   UNL A   1      45.817  28.831  35.221  1.00  0.00     0.135 A 
ATOM     69  F   UNL A   1      43.015  26.726  36.205  1.00  0.00    -0.206 F 
ATOM     70  C   UNL A   1      45.309  26.474  36.619  1.00  0.00     0.059 A 
ATOM     71  C   UNL A   1      46.881  28.119  35.768  1.00  0.00     0.059 A 
ATOM     72  F   UNL A   1      46.089  29.972  34.567  1.00  0.00    -0.206 F 
ATOM     73  C   UNL A   1      46.614  26.950  36.480  1.00  0.00     0.060 A 
BRANCH  73  74
ATOM     74  S   UNL A   1      47.961  26.016  37.238  1.00  0.00     0.124 S 
ATOM     75  O   UNL A   1      48.778  27.089  37.796  1.00  0.00    -0.237 OA
ATOM     76  O   UNL A   1      47.259  25.185  38.211  1.00  0.00    -0.237 OA
ATOM     77  O   UNL A   1      48.550  25.296  36.114  1.00  0.00    -0.744 OA
ENDBRANCH  73  74
ENDBRANCH  52  66
BRANCH  53  78
ATOM     78  C   UNL A   1      36.796  33.050  30.999  1.00  0.00     0.058 A 
ATOM     79  C   UNL A   1      36.968  34.062  30.045  1.00  0.00     0.135 A 
ATOM     80  C   UNL A   1      35.485  32.669  31.323  1.00  0.00     0.135 A 
ATOM     81  F   UNL A   1      38.203  34.462  29.707  1.00  0.00    -0.206 F 
ATOM     82  C   UNL A   1      35.880  34.685  29.440  1.00  0.00     0.059 A 
ATOM     83  C   UNL A   1      34.382  33.262  30.717  1.00  0.00     0.059 A 
ATOM     84  F   UNL A   1      35.269  31.692  32.218  1.00  0.00    -0.206 F 
ATOM     85  C   UNL A   1      34.591  34.276  29.782  1.00  0.00     0.060 A 
BRANCH  85  86
ATOM     86  S   UNL A   1      33.187  35.051  28.950  1.00  0.00     0.124 S 
ATOM     87  O   UNL A   1      33.826  36.183  28.289  1.00  0.00    -0.237 OA
ATOM     88  O   UNL A   1      32.718  33.982  28.075  1.00  0.00    -0.237 OA
ATOM     89  O   UNL A   1      32.290  35.385  30.053  1.00  0.00    -0.744 OA
ENDBRANCH  85  86
ENDBRANCH  53  78
BRANCH  65  90
ATOM     90  C   UNL A   1      39.856  33.579  37.245  1.00  0.00     0.058 A 
ATOM     91  C   UNL A   1      40.473  34.831  37.389  1.00  0.00     0.135 A 
ATOM     92  C   UNL A   1      38.932  33.183  38.225  1.00  0.00     0.135 A 
ATOM     93  F   UNL A   1      41.370  35.251  36.484  1.00  0.00    -0.206 F 
ATOM     94  C   UNL A   1      40.194  35.655  38.475  1.00  0.00     0.059 A 
ATOM     95  C   UNL A   1      38.621  34.000  39.306  1.00  0.00     0.059 A 
ATOM     96  F   UNL A   1      38.310  31.998  38.126  1.00  0.00    -0.206 F 
ATOM     97  C   UNL A   1      39.264  35.231  39.427  1.00  0.00     0.060 A 
BRANCH  97  98
ATOM     98  S   UNL A   1      38.877  36.327  40.809  1.00  0.00     0.124 S 
ATOM     99  O   UNL A   1      38.500  37.554  40.115  1.00  0.00    -0.237 OA
ATOM    100  O   UNL A   1      37.791  35.618  41.478  1.00  0.00    -0.237 OA
ATOM    101  O   UNL A   1      40.130  36.386  41.556  1.00  0.00    -0.744 OA
ENDBRANCH  97  98
ENDBRANCH  65  90
ENDBRANCH  39  40
ENDBRANCH  31  34
ENDBRANCH  29  30
ENDBRANCH  28  29
ENDBRANCH   1  28
TORSDOF 18
ENDMDL
MODEL 2
REMARK VINA RESULT:     -11.6      2.505      4.238
REMARK SMILES CN(C)c1cc(C(F)(F)F)cc(-c2cccc(/C=C/C(=O)NCCCCNC(=O)c3ccc(-c4c5nc(c(-c6c(F)cc(S(=O)(=O)[O-])cc6F)c6ccc([nH]6)c(-c6c(F)cc(S(=O)(=O)[O-])cc6F)c6nc(c(-c7c(F)cc(S(=O)(=O)[O-])cc7F)c7ccc4[nH]7)C=C6)C=C5)cc3)c2)n1
REMARK SMILES IDX 24 1 23 2 22 3 20 4 21 5 19 7 18 8 17 9 13 10 14 11 96 12
REMARK SMILES IDX 15 13 16 14 12 15 4 16 5 17 97 18 6 19 11 20 2 21 1 22 3 23
REMARK SMILES IDX 7 24 8 25 9 26 10 27 25 28 26 29 27 30 28 31 29 33 30 34
REMARK SMILES IDX 31 35 95 36 32 37 94 38 33 39 34 40 35 41 88 42 36 43 93 44
REMARK SMILES IDX 87 45 89 46 37 47 92 48 86 49 85 50 38 52 72 53 51 54 71 55
REMARK SMILES IDX 52 56 55 57 70 58 90 59 53 60 54 61 69 63 91 64 56 65 39 66
REMARK SMILES IDX 40 67 49 68 41 69 42 70 48 71 50 72 43 73 44 74 45 75 46 76
REMARK SMILES IDX 47 77 73 78 74 79 83 80 75 81 76 82 82 83 84 84 77 85 78 86
REMARK SMILES IDX 79 87 80 88 81 89 57 90 58 91 67 92 59 93 60 94 66 95 68 96
REMARK SMILES IDX 61 97 62 98 63 99 64 100 65 101
REMARK H PARENT 22 6 27 32 89 51 55 62
REMARK Flexibility Score: inf
ROOT
ATOM      1  C   UNL A   1      38.672  23.758  26.549  1.00  0.00     0.023 C 
ENDROOT
BRANCH   1   2
ATOM      2  C   UNL A   1      37.740  23.401  25.391  1.00  0.00     0.116 C 
BRANCH   2   3
ATOM      3  N   UNL A   1      37.569  21.964  25.272  1.00  0.00    -0.353 N 
ATOM      4  C   UNL A   1      36.445  21.204  25.367  1.00  0.00     0.243 C 
ATOM      5  O   UNL A   1      36.491  20.002  25.112  1.00  0.00    -0.270 OA
ATOM      6  H   UNL A   1      38.397  21.461  25.094  1.00  0.00     0.163 HD
BRANCH   4   7
ATOM      7  C   UNL A   1      35.140  21.820  25.694  1.00  0.00     0.072 C 
ATOM      8  C   UNL A   1      34.233  22.176  24.774  1.00  0.00     0.014 C 
BRANCH   8   9
ATOM      9  C   UNL A   1      32.952  22.819  25.087  1.00  0.00    -0.025 A 
ATOM     10  C   UNL A   1      31.666  24.889  25.312  1.00  0.00     0.001 A 
ATOM     11  C   UNL A   1      30.598  24.140  25.825  1.00  0.00     0.010 A 
ATOM     12  C   UNL A   1      32.843  24.212  24.952  1.00  0.00     0.018 A 
ATOM     13  C   UNL A   1      30.692  22.753  25.956  1.00  0.00     0.001 A 
ATOM     14  C   UNL A   1      31.866  22.096  25.590  1.00  0.00     0.008 A 
BRANCH  10  15
ATOM     15  C   UNL A   1      31.555  26.345  25.169  1.00  0.00     0.073 A 
ATOM     16  C   UNL A   1      32.161  28.425  26.044  1.00  0.00     0.129 A 
ATOM     17  C   UNL A   1      31.408  29.068  25.066  1.00  0.00     0.060 A 
ATOM     18  N   UNL A   1      32.227  27.078  26.088  1.00  0.00    -0.231 NA
ATOM     19  C   UNL A   1      30.717  28.321  24.105  1.00  0.00     0.061 A 
ATOM     20  C   UNL A   1      30.796  26.929  24.164  1.00  0.00     0.042 A 
BRANCH  16  21
ATOM     21  N   UNL A   1      32.877  29.171  26.980  1.00  0.00    -0.363 N 
ATOM     22  C   UNL A   1      34.291  28.862  27.112  1.00  0.00     0.144 C 
ATOM     23  C   UNL A   1      32.477  30.565  27.106  1.00  0.00     0.144 C 
ENDBRANCH  16  21
BRANCH  19  24
ATOM     24  C   UNL A   1      29.913  28.991  23.028  1.00  0.00     0.416 C 
ATOM     25  F   UNL A   1      29.138  28.115  22.334  1.00  0.00    -0.166 F 
ATOM     26  F   UNL A   1      29.062  29.930  23.528  1.00  0.00    -0.166 F 
ATOM     27  F   UNL A   1      30.673  29.637  22.101  1.00  0.00    -0.166 F 
ENDBRANCH  19  24
ENDBRANCH  10  15
ENDBRANCH   8   9
ENDBRANCH   4   7
ENDBRANCH   2   3
ENDBRANCH   1   2
BRANCH   1  28
ATOM     28  C   UNL A   1      39.816  22.767  26.777  1.00  0.00     0.023 C 
BRANCH  28  29
ATOM     29  C   UNL A   1      41.186  23.396  27.009  1.00  0.00     0.116 C 
BRANCH  29  30
ATOM     30  N   UNL A   1      41.642  24.220  25.900  1.00  0.00    -0.352 N 
ATOM     31  C   UNL A   1      41.931  25.566  25.900  1.00  0.00     0.251 C 
ATOM     32  H   UNL A   1      41.757  23.755  25.039  1.00  0.00     0.163 HD
ATOM     33  O   UNL A   1      42.215  26.138  24.857  1.00  0.00    -0.269 OA
BRANCH  31  34
ATOM     34  C   UNL A   1      41.846  26.316  27.172  1.00  0.00     0.039 A 
ATOM     35  C   UNL A   1      42.774  27.330  27.418  1.00  0.00     0.014 A 
ATOM     36  C   UNL A   1      40.825  26.051  28.087  1.00  0.00     0.014 A 
ATOM     37  C   UNL A   1      42.629  28.136  28.549  1.00  0.00     0.010 A 
ATOM     38  C   UNL A   1      40.647  26.892  29.181  1.00  0.00     0.010 A 
ATOM     39  C   UNL A   1      41.541  27.948  29.416  1.00  0.00    -0.014 A 
BRANCH  39  40
ATOM     40  C   UNL A   1      41.303  28.860  30.563  1.00  0.00     0.031 A 
ATOM     41  C   UNL A   1      42.118  28.723  31.817  1.00  0.00     0.074 A 
ATOM     42  C   UNL A   1      40.291  29.749  30.505  1.00  0.00     0.049 A 
ATOM     43  N   UNL A   1      41.994  29.354  32.956  1.00  0.00    -0.248 NA
ATOM     44  C   UNL A   1      43.198  27.723  31.799  1.00  0.00     0.031 C 
ATOM     45  C   UNL A   1      39.391  29.934  29.364  1.00  0.00     0.029 A 
ATOM     46  N   UNL A   1      39.836  30.651  31.434  1.00  0.00    -0.354 N 
ATOM     47  C   UNL A   1      42.961  28.815  33.795  1.00  0.00     0.074 A 
ATOM     48  C   UNL A   1      43.636  27.775  33.049  1.00  0.00     0.031 C 
ATOM     49  C   UNL A   1      38.502  30.898  29.655  1.00  0.00     0.029 A 
ATOM     50  C   UNL A   1      38.747  31.376  31.014  1.00  0.00     0.049 A 
ATOM     51  H   UNL A   1      40.252  30.768  32.319  1.00  0.00     0.167 HD
ATOM     52  C   UNL A   1      43.268  29.167  35.067  1.00  0.00     0.037 A 
ATOM     53  C   UNL A   1      38.020  32.314  31.652  1.00  0.00     0.037 A 
ATOM     54  C   UNL A   1      42.616  30.225  35.791  1.00  0.00     0.049 A 
ATOM     55  C   UNL A   1      38.403  32.711  33.051  1.00  0.00     0.074 A 
ATOM     56  C   UNL A   1      42.900  30.703  37.059  1.00  0.00     0.029 A 
ATOM     57  N   UNL A   1      41.548  30.970  35.313  1.00  0.00    -0.354 N 
ATOM     58  N   UNL A   1      39.362  32.235  33.808  1.00  0.00    -0.248 NA
ATOM     59  C   UNL A   1      37.610  33.776  33.681  1.00  0.00     0.031 C 
ATOM     60  C   UNL A   1      41.986  31.719  37.359  1.00  0.00     0.029 A 
ATOM     61  C   UNL A   1      41.154  31.898  36.264  1.00  0.00     0.049 A 
ATOM     62  H   UNL A   1      41.131  30.857  34.429  1.00  0.00     0.167 HD
ATOM     63  C   UNL A   1      39.305  32.958  34.993  1.00  0.00     0.074 A 
ATOM     64  C   UNL A   1      38.222  33.909  34.850  1.00  0.00     0.031 C 
ATOM     65  C   UNL A   1      40.080  32.845  36.100  1.00  0.00     0.037 A 
BRANCH  52  66
ATOM     66  C   UNL A   1      44.367  28.401  35.751  1.00  0.00     0.058 A 
ATOM     67  C   UNL A   1      45.713  28.777  35.623  1.00  0.00     0.135 A 
ATOM     68  C   UNL A   1      44.069  27.294  36.561  1.00  0.00     0.135 A 
ATOM     69  F   UNL A   1      46.054  29.819  34.848  1.00  0.00    -0.206 F 
ATOM     70  C   UNL A   1      46.730  28.061  36.245  1.00  0.00     0.059 A 
ATOM     71  C   UNL A   1      45.068  26.579  37.214  1.00  0.00     0.059 A 
ATOM     72  F   UNL A   1      42.797  26.893  36.717  1.00  0.00    -0.206 F 
ATOM     73  C   UNL A   1      46.397  26.960  37.036  1.00  0.00     0.060 A 
BRANCH  73  74
ATOM     74  S   UNL A   1      47.727  26.036  37.835  1.00  0.00     0.124 S 
ATOM     75  O   UNL A   1      48.467  27.108  38.495  1.00  0.00    -0.237 OA
ATOM     76  O   UNL A   1      46.996  25.134  38.720  1.00  0.00    -0.237 OA
ATOM     77  O   UNL A   1      48.413  25.394  36.718  1.00  0.00    -0.744 OA
ENDBRANCH  73  74
ENDBRANCH  52  66
BRANCH  53  78
ATOM     78  C   UNL A   1      36.876  32.963  30.959  1.00  0.00     0.058 A 
ATOM     79  C   UNL A   1      37.091  33.933  29.971  1.00  0.00     0.135 A 
ATOM     80  C   UNL A   1      35.550  32.610  31.255  1.00  0.00     0.135 A 
ATOM     81  F   UNL A   1      38.342  34.305  29.658  1.00  0.00    -0.206 F 
ATOM     82  C   UNL A   1      36.032  34.543  29.306  1.00  0.00     0.059 A 
ATOM     83  C   UNL A   1      34.475  33.190  30.589  1.00  0.00     0.059 A 
ATOM     84  F   UNL A   1      35.294  31.673  32.181  1.00  0.00    -0.206 F 
ATOM     85  C   UNL A   1      34.727  34.162  29.621  1.00  0.00     0.060 A 
BRANCH  85  86
ATOM     86  S   UNL A   1      33.360  34.918  28.713  1.00  0.00     0.124 S 
ATOM     87  O   UNL A   1      33.014  33.860  27.770  1.00  0.00    -0.237 OA
ATOM     88  O   UNL A   1      32.390  35.174  29.772  1.00  0.00    -0.237 OA
ATOM     89  O   UNL A   1      33.968  36.111  28.130  1.00  0.00    -0.744 OA
ENDBRANCH  85  86
ENDBRANCH  53  78
BRANCH  65  90
ATOM     90  C   UNL A   1      39.810  33.794  37.233  1.00  0.00     0.058 A 
ATOM     91  C   UNL A   1      38.946  33.455  38.285  1.00  0.00     0.135 A 
ATOM     92  C   UNL A   1      40.468  35.032  37.293  1.00  0.00     0.135 A 
ATOM     93  F   UNL A   1      38.288  32.286  38.270  1.00  0.00    -0.206 F 
ATOM     94  C   UNL A   1      38.731  34.321  39.353  1.00  0.00     0.059 A 
ATOM     95  C   UNL A   1      40.286  35.903  38.362  1.00  0.00     0.059 A 
ATOM     96  F   UNL A   1      41.311  35.398  36.314  1.00  0.00    -0.206 F 
ATOM     97  C   UNL A   1      39.408  35.542  39.383  1.00  0.00     0.060 A 
BRANCH  97  98
ATOM     98  S   UNL A   1      39.155  36.640  40.794  1.00  0.00     0.124 S 
ATOM     99  O   UNL A   1      40.516  36.790  41.297  1.00  0.00    -0.237 OA
ATOM    100  O   UNL A   1      38.574  37.824  40.172  1.00  0.00    -0.237 OA
ATOM    101  O   UNL A   1      38.247  35.883  41.653  1.00  0.00    -0.744 OA
ENDBRANCH  97  98
ENDBRANCH  65  90
ENDBRANCH  39  40
ENDBRANCH  31  34
ENDBRANCH  29  30
ENDBRANCH  28  29
ENDBRANCH   1  28
TORSDOF 18
ENDMDL
MODEL 3
REMARK VINA RESULT:     -11.5      5.155     12.450
REMARK SMILES CN(C)c1cc(C(F)(F)F)cc(-c2cccc(/C=C/C(=O)NCCCCNC(=O)c3ccc(-c4c5nc(c(-c6c(F)cc(S(=O)(=O)[O-])cc6F)c6ccc([nH]6)c(-c6c(F)cc(S(=O)(=O)[O-])cc6F)c6nc(c(-c7c(F)cc(S(=O)(=O)[O-])cc7F)c7ccc4[nH]7)C=C6)C=C5)cc3)c2)n1
REMARK SMILES IDX 24 1 23 2 22 3 20 4 21 5 19 7 18 8 17 9 13 10 14 11 96 12
REMARK SMILES IDX 15 13 16 14 12 15 4 16 5 17 97 18 6 19 11 20 2 21 1 22 3 23
REMARK SMILES IDX 7 24 8 25 9 26 10 27 25 28 26 29 27 30 28 31 29 33 30 34
REMARK SMILES IDX 31 35 95 36 32 37 94 38 33 39 34 40 35 41 88 42 36 43 93 44
REMARK SMILES IDX 87 45 89 46 37 47 92 48 86 49 85 50 38 52 72 53 51 54 71 55
REMARK SMILES IDX 52 56 55 57 70 58 90 59 53 60 54 61 69 63 91 64 56 65 39 66
REMARK SMILES IDX 40 67 49 68 41 69 42 70 48 71 50 72 43 73 44 74 45 75 46 76
REMARK SMILES IDX 47 77 73 78 74 79 83 80 75 81 76 82 82 83 84 84 77 85 78 86
REMARK SMILES IDX 79 87 80 88 81 89 57 90 58 91 67 92 59 93 60 94 66 95 68 96
REMARK SMILES IDX 61 97 62 98 63 99 64 100 65 101
REMARK H PARENT 22 6 27 32 89 51 55 62
REMARK Flexibility Score: inf
ROOT
ATOM      1  C   UNL A   1      33.965  35.262  29.337  1.00  0.00     0.023 C 
ENDROOT
BRANCH   1   2
ATOM      2  C   UNL A   1      33.885  34.423  30.612  1.00  0.00     0.116 C 
BRANCH   2   3
ATOM      3  N   UNL A   1      33.478  35.226  31.751  1.00  0.00    -0.353 N 
ATOM      4  C   UNL A   1      34.212  35.717  32.786  1.00  0.00     0.243 C 
ATOM      5  O   UNL A   1      33.698  36.486  33.595  1.00  0.00    -0.270 OA
ATOM      6  H   UNL A   1      32.519  35.452  31.778  1.00  0.00     0.163 HD
BRANCH   4   7
ATOM      7  C   UNL A   1      35.653  35.403  32.908  1.00  0.00     0.072 C 
ATOM      8  C   UNL A   1      36.125  34.252  33.406  1.00  0.00     0.014 C 
BRANCH   8   9
ATOM      9  C   UNL A   1      37.551  33.948  33.562  1.00  0.00    -0.025 A 
ATOM     10  C   UNL A   1      39.333  32.270  33.544  1.00  0.00     0.001 A 
ATOM     11  C   UNL A   1      40.225  33.249  34.004  1.00  0.00     0.010 A 
ATOM     12  C   UNL A   1      37.993  32.635  33.334  1.00  0.00     0.018 A 
ATOM     13  C   UNL A   1      39.799  34.560  34.227  1.00  0.00     0.001 A 
ATOM     14  C   UNL A   1      38.466  34.907  34.008  1.00  0.00     0.008 A 
BRANCH  10  15
ATOM     15  C   UNL A   1      39.791  30.897  33.304  1.00  0.00     0.073 A 
ATOM     16  C   UNL A   1      41.632  29.461  33.218  1.00  0.00     0.129 A 
ATOM     17  C   UNL A   1      40.806  28.406  32.842  1.00  0.00     0.060 A 
ATOM     18  N   UNL A   1      41.122  30.690  33.443  1.00  0.00    -0.231 NA
ATOM     19  C   UNL A   1      39.428  28.606  32.705  1.00  0.00     0.061 A 
ATOM     20  C   UNL A   1      38.915  29.883  32.941  1.00  0.00     0.042 A 
BRANCH  16  21
ATOM     21  N   UNL A   1      43.000  29.252  33.389  1.00  0.00    -0.363 N 
ATOM     22  C   UNL A   1      43.580  29.729  34.634  1.00  0.00     0.144 C 
ATOM     23  C   UNL A   1      43.515  28.006  32.840  1.00  0.00     0.144 C 
ENDBRANCH  16  21
BRANCH  19  24
ATOM     24  C   UNL A   1      38.511  27.480  32.318  1.00  0.00     0.416 C 
ATOM     25  F   UNL A   1      37.243  27.903  32.068  1.00  0.00    -0.166 F 
ATOM     26  F   UNL A   1      38.925  26.844  31.188  1.00  0.00    -0.166 F 
ATOM     27  F   UNL A   1      38.405  26.512  33.270  1.00  0.00    -0.166 F 
ENDBRANCH  19  24
ENDBRANCH  10  15
ENDBRANCH   8   9
ENDBRANCH   4   7
ENDBRANCH   2   3
ENDBRANCH   1   2
BRANCH   1  28
ATOM     28  C   UNL A   1      34.666  34.574  28.163  1.00  0.00     0.023 C 
BRANCH  28  29
ATOM     29  C   UNL A   1      35.142  33.151  28.432  1.00  0.00     0.116 C 
BRANCH  29  30
ATOM     30  N   UNL A   1      34.164  32.134  28.074  1.00  0.00    -0.352 N 
ATOM     31  C   UNL A   1      34.364  30.782  27.902  1.00  0.00     0.251 C 
ATOM     32  H   UNL A   1      33.243  32.454  27.935  1.00  0.00     0.163 HD
ATOM     33  O   UNL A   1      33.453  30.068  27.505  1.00  0.00    -0.269 OA
BRANCH  31  34
ATOM     34  C   UNL A   1      35.706  30.219  28.158  1.00  0.00     0.039 A 
ATOM     35  C   UNL A   1      36.592  30.077  27.088  1.00  0.00     0.014 A 
ATOM     36  C   UNL A   1      36.101  29.883  29.455  1.00  0.00     0.014 A 
ATOM     37  C   UNL A   1      37.906  29.673  27.331  1.00  0.00     0.010 A 
ATOM     38  C   UNL A   1      37.426  29.539  29.703  1.00  0.00     0.010 A 
ATOM     39  C   UNL A   1      38.343  29.441  28.645  1.00  0.00    -0.014 A 
BRANCH  39  40
ATOM     40  C   UNL A   1      39.762  29.118  28.940  1.00  0.00     0.031 A 
ATOM     41  C   UNL A   1      40.677  30.177  29.487  1.00  0.00     0.074 A 
ATOM     42  C   UNL A   1      40.244  27.899  28.630  1.00  0.00     0.049 A 
ATOM     43  N   UNL A   1      41.963  30.119  29.715  1.00  0.00    -0.248 NA
ATOM     44  C   UNL A   1      40.070  31.483  29.792  1.00  0.00     0.031 C 
ATOM     45  C   UNL A   1      39.467  26.807  28.038  1.00  0.00     0.029 A 
ATOM     46  N   UNL A   1      41.508  27.378  28.750  1.00  0.00    -0.354 N 
ATOM     47  C   UNL A   1      42.325  31.382  30.166  1.00  0.00     0.074 A 
ATOM     48  C   UNL A   1      41.130  32.198  30.141  1.00  0.00     0.031 C 
ATOM     49  C   UNL A   1      40.268  25.743  27.860  1.00  0.00     0.029 A 
ATOM     50  C   UNL A   1      41.619  26.086  28.293  1.00  0.00     0.049 A 
ATOM     51  H   UNL A   1      42.264  27.882  29.130  1.00  0.00     0.167 HD
ATOM     52  C   UNL A   1      43.540  31.816  30.581  1.00  0.00     0.037 A 
ATOM     53  C   UNL A   1      42.691  25.273  28.222  1.00  0.00     0.037 A 
ATOM     54  C   UNL A   1      44.716  30.989  30.636  1.00  0.00     0.049 A 
ATOM     55  C   UNL A   1      44.021  25.766  28.719  1.00  0.00     0.074 A 
ATOM     56  C   UNL A   1      45.977  31.316  31.105  1.00  0.00     0.029 A 
ATOM     57  N   UNL A   1      44.777  29.670  30.210  1.00  0.00    -0.354 N 
ATOM     58  N   UNL A   1      44.332  26.945  29.204  1.00  0.00    -0.248 NA
ATOM     59  C   UNL A   1      45.144  24.820  28.667  1.00  0.00     0.031 C 
ATOM     60  C   UNL A   1      46.809  30.204  30.936  1.00  0.00     0.029 A 
ATOM     61  C   UNL A   1      46.057  29.172  30.395  1.00  0.00     0.049 A 
ATOM     62  H   UNL A   1      44.023  29.164  29.832  1.00  0.00     0.167 HD
ATOM     63  C   UNL A   1      45.679  26.874  29.537  1.00  0.00     0.074 A 
ATOM     64  C   UNL A   1      46.122  25.535  29.207  1.00  0.00     0.031 C 
ATOM     65  C   UNL A   1      46.477  27.833  30.070  1.00  0.00     0.037 A 
BRANCH  52  66
ATOM     66  C   UNL A   1      43.651  33.252  31.014  1.00  0.00     0.058 A 
ATOM     67  C   UNL A   1      43.611  33.615  32.369  1.00  0.00     0.135 A 
ATOM     68  C   UNL A   1      43.823  34.273  30.066  1.00  0.00     0.135 A 
ATOM     69  F   UNL A   1      43.433  32.679  33.315  1.00  0.00    -0.206 F 
ATOM     70  C   UNL A   1      43.701  34.944  32.769  1.00  0.00     0.059 A 
ATOM     71  C   UNL A   1      43.942  35.607  30.444  1.00  0.00     0.059 A 
ATOM     72  F   UNL A   1      43.869  33.979  28.757  1.00  0.00    -0.206 F 
ATOM     73  C   UNL A   1      43.863  35.934  31.798  1.00  0.00     0.060 A 
BRANCH  73  74
ATOM     74  S   UNL A   1      43.975  37.656  32.329  1.00  0.00     0.124 S 
ATOM     75  O   UNL A   1      42.972  37.696  33.389  1.00  0.00    -0.237 OA
ATOM     76  O   UNL A   1      45.363  37.760  32.767  1.00  0.00    -0.237 OA
ATOM     77  O   UNL A   1      43.644  38.406  31.121  1.00  0.00    -0.744 OA
ENDBRANCH  73  74
ENDBRANCH  52  66
BRANCH  53  78
ATOM     78  C   UNL A   1      42.540  23.895  27.684  1.00  0.00     0.058 A 
ATOM     79  C   UNL A   1      42.408  22.798  28.547  1.00  0.00     0.135 A 
ATOM     80  C   UNL A   1      42.501  23.652  26.302  1.00  0.00     0.135 A 
ATOM     81  F   UNL A   1      42.444  22.981  29.875  1.00  0.00    -0.206 F 
ATOM     82  C   UNL A   1      42.256  21.503  28.060  1.00  0.00     0.059 A 
ATOM     83  C   UNL A   1      42.328  22.369  25.792  1.00  0.00     0.059 A 
ATOM     84  F   UNL A   1      42.605  24.672  25.437  1.00  0.00    -0.206 F 
ATOM     85  C   UNL A   1      42.215  21.300  26.680  1.00  0.00     0.060 A 
BRANCH  85  86
ATOM     86  S   UNL A   1      41.960  19.623  26.058  1.00  0.00     0.124 S 
ATOM     87  O   UNL A   1      42.833  19.607  24.890  1.00  0.00    -0.237 OA
ATOM     88  O   UNL A   1      42.389  18.806  27.188  1.00  0.00    -0.237 OA
ATOM     89  O   UNL A   1      40.527  19.587  25.778  1.00  0.00    -0.744 OA
ENDBRANCH  85  86
ENDBRANCH  53  78
BRANCH  65  90
ATOM     90  C   UNL A   1      47.903  27.461  30.362  1.00  0.00     0.058 A 
ATOM     91  C   UNL A   1      48.929  27.699  29.436  1.00  0.00     0.135 A 
ATOM     92  C   UNL A   1      48.252  26.912  31.606  1.00  0.00     0.135 A 
ATOM     93  F   UNL A   1      48.645  28.215  28.230  1.00  0.00    -0.206 F 
ATOM     94  C   UNL A   1      50.254  27.391  29.727  1.00  0.00     0.059 A 
ATOM     95  C   UNL A   1      49.573  26.617  31.927  1.00  0.00     0.059 A 
ATOM     96  F   UNL A   1      47.308  26.673  32.529  1.00  0.00    -0.206 F 
ATOM     97  C   UNL A   1      50.566  26.852  30.977  1.00  0.00     0.060 A 
BRANCH  97  98
ATOM     98  S   UNL A   1      52.294  26.495  31.362  1.00  0.00     0.124 S 
ATOM     99  O   UNL A   1      52.911  26.575  30.042  1.00  0.00    -0.237 OA
ATOM    100  O   UNL A   1      52.639  27.567  32.288  1.00  0.00    -0.237 OA
ATOM    101  O   UNL A   1      52.241  25.160  31.951  1.00  0.00    -0.744 OA
ENDBRANCH  97  98
ENDBRANCH  65  90
ENDBRANCH  39  40
ENDBRANCH  31  34
ENDBRANCH  29  30
ENDBRANCH  28  29
ENDBRANCH   1  28
TORSDOF 18
ENDMDL
