MODEL 1
REMARK VINA RESULT:     -11.7      0.000      0.000
REMARK SMILES Nc1cc(Br)ccc1C(=O)NC1(C(=O)NCCCCNC(=O)c2ccc(-c3c4nc(c(-c5c(F)cc(S(=O)(=O)[O-])cc5F)c5ccc([nH]5)c(-c5c(F)cc(S(=O)(=O)[O-])cc5F)c5nc(c(-c6c(F)cc(S(=O)(=O)[O-])cc6F)c6ccc3[nH]6)C=C5)C=C4)cc2)CC1
REMARK SMILES IDX 17 1 16 2 15 3 13 4 14 5 12 7 89 8 90 9 11 10 9 11 10 12
REMARK SMILES IDX 8 14 2 15 3 16 4 17 7 18 5 19 6 20 1 21 18 24 19 25 20 26
REMARK SMILES IDX 21 27 22 29 23 30 24 31 88 32 25 33 87 34 26 35 27 36 28 37
REMARK SMILES IDX 81 38 29 39 86 40 80 41 82 42 30 43 85 44 79 45 78 46 31 48
REMARK SMILES IDX 65 49 44 50 64 51 45 52 48 53 63 54 83 55 46 56 47 57 62 59
REMARK SMILES IDX 84 60 49 61 32 62 33 63 42 64 34 65 35 66 41 67 43 68 36 69
REMARK SMILES IDX 37 70 38 71 39 72 40 73 66 74 67 75 76 76 68 77 69 78 75 79
REMARK SMILES IDX 77 80 70 81 71 82 72 83 73 84 74 85 50 86 51 87 60 88 52 89
REMARK SMILES IDX 53 90 59 91 61 92 54 93 55 94 56 95 57 96 58 97
REMARK H PARENT 15 6 11 13 1 22 1 23 20 28 82 47 48 58
REMARK Flexibility Score: inf
ROOT
ATOM      1  C   UNL A   1      37.323  21.701  24.690  1.00  0.00     0.023 C 
ENDROOT
BRANCH   1   2
ATOM      2  C   UNL A   1      35.801  21.580  24.628  1.00  0.00     0.116 C 
BRANCH   2   3
ATOM      3  N   UNL A   1      35.162  21.609  25.925  1.00  0.00    -0.354 N 
ATOM      4  C   UNL A   1      33.869  21.469  26.349  1.00  0.00     0.245 C 
ATOM      5  O   UNL A   1      33.724  21.247  27.554  1.00  0.00    -0.272 OA
ATOM      6  H   UNL A   1      35.796  21.762  26.663  1.00  0.00     0.163 HD
BRANCH   4   7
ATOM      7  C   UNL A   1      32.603  21.591  25.496  1.00  0.00     0.119 C 
ATOM      8  C   UNL A   1      32.361  20.314  24.666  1.00  0.00     0.041 C 
ATOM      9  C   UNL A   1      32.451  21.635  23.990  1.00  0.00     0.041 C 
BRANCH   7  10
ATOM     10  N   UNL A   1      31.479  22.037  26.295  1.00  0.00    -0.338 N 
ATOM     11  C   UNL A   1      30.990  23.259  26.689  1.00  0.00     0.254 C 
ATOM     12  O   UNL A   1      30.071  23.214  27.519  1.00  0.00    -0.269 OA
ATOM     13  H   UNL A   1      30.939  21.288  26.636  1.00  0.00     0.164 HD
BRANCH  11  14
ATOM     14  C   UNL A   1      31.391  24.610  26.177  1.00  0.00     0.062 A 
ATOM     15  C   UNL A   1      30.575  25.628  25.662  1.00  0.00     0.045 A 
ATOM     16  C   UNL A   1      31.154  26.852  25.260  1.00  0.00     0.042 A 
ATOM     17  C   UNL A   1      32.527  27.051  25.296  1.00  0.00     0.020 A 
ATOM     18  C   UNL A   1      32.789  24.840  26.188  1.00  0.00     0.017 A 
ATOM     19  Br  UNL A   1      33.259  28.685  24.692  1.00  0.00    -0.051 Br
ATOM     20  C   UNL A   1      33.356  26.039  25.744  1.00  0.00     0.016 A 
BRANCH  15  21
ATOM     21  N   UNL A   1      29.218  25.498  25.409  1.00  0.00    -0.398 N 
ATOM     22  H   UNL A   1      28.582  26.149  25.786  1.00  0.00     0.156 HD
ATOM     23  H   UNL A   1      28.890  24.754  24.855  1.00  0.00     0.156 HD
ENDBRANCH  15  21
ENDBRANCH  11  14
ENDBRANCH   7  10
ENDBRANCH   4   7
ENDBRANCH   2   3
ENDBRANCH   1   2
BRANCH   1  24
ATOM     24  C   UNL A   1      38.078  20.431  25.075  1.00  0.00     0.023 C 
BRANCH  24  25
ATOM     25  C   UNL A   1      39.273  20.645  25.991  1.00  0.00     0.116 C 
BRANCH  25  26
ATOM     26  N   UNL A   1      40.198  19.520  25.993  1.00  0.00    -0.352 N 
ATOM     27  C   UNL A   1      41.566  19.506  26.125  1.00  0.00     0.251 C 
ATOM     28  H   UNL A   1      39.780  18.635  25.881  1.00  0.00     0.163 HD
ATOM     29  O   UNL A   1      42.178  18.452  25.977  1.00  0.00    -0.269 OA
BRANCH  27  30
ATOM     30  C   UNL A   1      42.297  20.761  26.409  1.00  0.00     0.039 A 
ATOM     31  C   UNL A   1      42.527  21.172  27.722  1.00  0.00     0.014 A 
ATOM     32  C   UNL A   1      42.739  21.551  25.343  1.00  0.00     0.014 A 
ATOM     33  C   UNL A   1      43.021  22.446  27.968  1.00  0.00     0.010 A 
ATOM     34  C   UNL A   1      43.331  22.793  25.595  1.00  0.00     0.010 A 
ATOM     35  C   UNL A   1      43.430  23.274  26.909  1.00  0.00    -0.014 A 
BRANCH  35  36
ATOM     36  C   UNL A   1      43.956  24.628  27.221  1.00  0.00     0.031 A 
ATOM     37  C   UNL A   1      45.389  24.990  26.925  1.00  0.00     0.074 A 
ATOM     38  C   UNL A   1      43.107  25.561  27.700  1.00  0.00     0.049 A 
ATOM     39  N   UNL A   1      45.988  26.145  27.068  1.00  0.00    -0.248 NA
ATOM     40  C   UNL A   1      46.266  23.927  26.408  1.00  0.00     0.031 C 
ATOM     41  C   UNL A   1      41.699  25.323  28.033  1.00  0.00     0.029 A 
ATOM     42  N   UNL A   1      43.284  26.897  27.954  1.00  0.00    -0.354 N 
ATOM     43  C   UNL A   1      47.307  25.945  26.678  1.00  0.00     0.074 A 
ATOM     44  C   UNL A   1      47.433  24.551  26.316  1.00  0.00     0.031 C 
ATOM     45  C   UNL A   1      41.126  26.485  28.380  1.00  0.00     0.029 A 
ATOM     46  C   UNL A   1      42.134  27.539  28.354  1.00  0.00     0.049 A 
ATOM     47  H   UNL A   1      44.151  27.354  27.858  1.00  0.00     0.167 HD
ATOM     48  C   UNL A   1      48.315  26.847  26.613  1.00  0.00     0.037 A 
ATOM     49  C   UNL A   1      41.914  28.829  28.670  1.00  0.00     0.037 A 
ATOM     50  C   UNL A   1      48.173  28.242  26.933  1.00  0.00     0.049 A 
ATOM     51  C   UNL A   1      43.053  29.805  28.594  1.00  0.00     0.074 A 
ATOM     52  C   UNL A   1      49.131  29.239  26.863  1.00  0.00     0.029 A 
ATOM     53  N   UNL A   1      47.003  28.841  27.373  1.00  0.00    -0.354 N 
ATOM     54  N   UNL A   1      44.287  29.596  28.204  1.00  0.00    -0.248 NA
ATOM     55  C   UNL A   1      42.779  31.186  29.014  1.00  0.00     0.031 C 
ATOM     56  C   UNL A   1      48.550  30.435  27.293  1.00  0.00     0.029 A 
ATOM     57  C   UNL A   1      47.219  30.191  27.595  1.00  0.00     0.049 A 
ATOM     58  H   UNL A   1      46.145  28.377  27.508  1.00  0.00     0.167 HD
ATOM     59  C   UNL A   1      44.933  30.819  28.321  1.00  0.00     0.074 A 
ATOM     60  C   UNL A   1      43.952  31.769  28.802  1.00  0.00     0.031 C 
ATOM     61  C   UNL A   1      46.227  31.125  28.061  1.00  0.00     0.037 A 
BRANCH  48  62
ATOM     62  C   UNL A   1      49.670  26.374  26.168  1.00  0.00     0.058 A 
ATOM     63  C   UNL A   1      50.127  26.588  24.859  1.00  0.00     0.135 A 
ATOM     64  C   UNL A   1      50.563  25.803  27.090  1.00  0.00     0.135 A 
ATOM     65  F   UNL A   1      49.308  27.115  23.935  1.00  0.00    -0.206 F 
ATOM     66  C   UNL A   1      51.424  26.259  24.480  1.00  0.00     0.059 A 
ATOM     67  C   UNL A   1      51.872  25.483  26.739  1.00  0.00     0.059 A 
ATOM     68  F   UNL A   1      50.174  25.575  28.355  1.00  0.00    -0.206 F 
ATOM     69  C   UNL A   1      52.292  25.714  25.429  1.00  0.00     0.060 A 
BRANCH  69  70
ATOM     70  S   UNL A   1      53.988  25.342  24.931  1.00  0.00     0.124 S 
ATOM     71  O   UNL A   1      54.751  25.974  26.002  1.00  0.00    -0.237 OA
ATOM     72  O   UNL A   1      53.996  23.883  24.925  1.00  0.00    -0.237 OA
ATOM     73  O   UNL A   1      54.104  25.974  23.621  1.00  0.00    -0.744 OA
ENDBRANCH  69  70
ENDBRANCH  48  62
BRANCH  49  74
ATOM     74  C   UNL A   1      40.557  29.266  29.090  1.00  0.00     0.058 A 
ATOM     75  C   UNL A   1      40.254  29.485  30.441  1.00  0.00     0.135 A 
ATOM     76  C   UNL A   1      39.544  29.492  28.146  1.00  0.00     0.135 A 
ATOM     77  F   UNL A   1      41.189  29.279  31.381  1.00  0.00    -0.206 F 
ATOM     78  C   UNL A   1      38.989  29.902  30.844  1.00  0.00     0.059 A 
ATOM     79  C   UNL A   1      38.280  29.932  28.520  1.00  0.00     0.059 A 
ATOM     80  F   UNL A   1      39.791  29.312  26.839  1.00  0.00    -0.206 F 
ATOM     81  C   UNL A   1      38.008  30.123  29.875  1.00  0.00     0.060 A 
BRANCH  81  82
ATOM     82  S   UNL A   1      36.382  30.704  30.400  1.00  0.00     0.124 S 
ATOM     83  O   UNL A   1      35.646  30.689  29.141  1.00  0.00    -0.237 OA
ATOM     84  O   UNL A   1      35.994  29.691  31.378  1.00  0.00    -0.237 OA
ATOM     85  O   UNL A   1      36.661  32.024  30.955  1.00  0.00    -0.744 OA
ENDBRANCH  81  82
ENDBRANCH  49  74
BRANCH  61  86
ATOM     86  C   UNL A   1      46.669  32.543  28.276  1.00  0.00     0.058 A 
ATOM     87  C   UNL A   1      47.301  32.932  29.464  1.00  0.00     0.135 A 
ATOM     88  C   UNL A   1      46.565  33.485  27.241  1.00  0.00     0.135 A 
ATOM     89  F   UNL A   1      47.415  32.067  30.485  1.00  0.00    -0.206 F 
ATOM     90  C   UNL A   1      47.825  34.210  29.619  1.00  0.00     0.059 A 
ATOM     91  C   UNL A   1      47.101  34.763  27.366  1.00  0.00     0.059 A 
ATOM     92  F   UNL A   1      45.973  33.154  26.082  1.00  0.00    -0.206 F 
ATOM     93  C   UNL A   1      47.731  35.115  28.559  1.00  0.00     0.060 A 
BRANCH  93  94
ATOM     94  S   UNL A   1      48.497  36.740  28.742  1.00  0.00     0.124 S 
ATOM     95  O   UNL A   1      47.739  37.532  27.779  1.00  0.00    -0.237 OA
ATOM     96  O   UNL A   1      48.250  37.044  30.148  1.00  0.00    -0.237 OA
ATOM     97  O   UNL A   1      49.895  36.498  28.394  1.00  0.00    -0.744 OA
ENDBRANCH  93  94
ENDBRANCH  61  86
ENDBRANCH  35  36
ENDBRANCH  27  30
ENDBRANCH  25  26
ENDBRANCH  24  25
ENDBRANCH   1  24
TORSDOF 17
ENDMDL
MODEL 2
REMARK VINA RESULT:     -11.7      6.815     12.239
REMARK SMILES Nc1cc(Br)ccc1C(=O)NC1(C(=O)NCCCCNC(=O)c2ccc(-c3c4nc(c(-c5c(F)cc(S(=O)(=O)[O-])cc5F)c5ccc([nH]5)c(-c5c(F)cc(S(=O)(=O)[O-])cc5F)c5nc(c(-c6c(F)cc(S(=O)(=O)[O-])cc6F)c6ccc3[nH]6)C=C5)C=C4)cc2)CC1
REMARK SMILES IDX 17 1 16 2 15 3 13 4 14 5 12 7 89 8 90 9 11 10 9 11 10 12
REMARK SMILES IDX 8 14 2 15 3 16 4 17 7 18 5 19 6 20 1 21 18 24 19 25 20 26
REMARK SMILES IDX 21 27 22 29 23 30 24 31 88 32 25 33 87 34 26 35 27 36 28 37
REMARK SMILES IDX 81 38 29 39 86 40 80 41 82 42 30 43 85 44 79 45 78 46 31 48
REMARK SMILES IDX 65 49 44 50 64 51 45 52 48 53 63 54 83 55 46 56 47 57 62 59
REMARK SMILES IDX 84 60 49 61 32 62 33 63 42 64 34 65 35 66 41 67 43 68 36 69
REMARK SMILES IDX 37 70 38 71 39 72 40 73 66 74 67 75 76 76 68 77 69 78 75 79
REMARK SMILES IDX 77 80 70 81 71 82 72 83 73 84 74 85 50 86 51 87 60 88 52 89
REMARK SMILES IDX 53 90 59 91 61 92 54 93 55 94 56 95 57 96 58 97
REMARK H PARENT 15 6 11 13 1 22 1 23 20 28 82 47 48 58
REMARK Flexibility Score: inf
ROOT
ATOM      1  C   UNL A   1      31.967  30.523  26.853  1.00  0.00     0.023 C 
ENDROOT
BRANCH   1   2
ATOM      2  C   UNL A   1      31.482  29.736  25.636  1.00  0.00     0.116 C 
BRANCH   2   3
ATOM      3  N   UNL A   1      32.505  29.526  24.634  1.00  0.00    -0.354 N 
ATOM      4  C   UNL A   1      32.524  28.912  23.412  1.00  0.00     0.245 C 
ATOM      5  O   UNL A   1      33.489  29.185  22.693  1.00  0.00    -0.272 OA
ATOM      6  H   UNL A   1      33.376  29.910  24.887  1.00  0.00     0.163 HD
BRANCH   4   7
ATOM      7  C   UNL A   1      31.501  27.910  22.870  1.00  0.00     0.119 C 
ATOM      8  C   UNL A   1      30.219  28.622  22.392  1.00  0.00     0.041 C 
ATOM      9  C   UNL A   1      30.134  27.537  23.405  1.00  0.00     0.041 C 
BRANCH   7  10
ATOM     10  N   UNL A   1      32.111  27.013  21.908  1.00  0.00    -0.338 N 
ATOM     11  C   UNL A   1      32.836  25.850  21.988  1.00  0.00     0.254 C 
ATOM     12  O   UNL A   1      33.323  25.460  20.918  1.00  0.00    -0.269 OA
ATOM     13  H   UNL A   1      31.972  27.308  20.979  1.00  0.00     0.164 HD
BRANCH  11  14
ATOM     14  C   UNL A   1      33.037  24.981  23.194  1.00  0.00     0.062 A 
ATOM     15  C   UNL A   1      32.381  23.788  23.531  1.00  0.00     0.045 A 
ATOM     16  C   UNL A   1      32.746  23.098  24.709  1.00  0.00     0.042 A 
ATOM     17  C   UNL A   1      33.694  23.610  25.585  1.00  0.00     0.020 A 
ATOM     18  C   UNL A   1      33.990  25.482  24.115  1.00  0.00     0.017 A 
ATOM     19  Br  UNL A   1      34.104  22.680  27.177  1.00  0.00    -0.051 Br
ATOM     20  C   UNL A   1      34.310  24.816  25.302  1.00  0.00     0.016 A 
BRANCH  15  21
ATOM     21  N   UNL A   1      31.301  23.260  22.841  1.00  0.00    -0.398 N 
ATOM     22  H   UNL A   1      30.383  23.469  23.130  1.00  0.00     0.156 HD
ATOM     23  H   UNL A   1      31.452  22.677  22.063  1.00  0.00     0.156 HD
ENDBRANCH  15  21
ENDBRANCH  11  14
ENDBRANCH   7  10
ENDBRANCH   4   7
ENDBRANCH   2   3
ENDBRANCH   1   2
BRANCH   1  24
ATOM     24  C   UNL A   1      31.824  32.040  26.766  1.00  0.00     0.023 C 
BRANCH  24  25
ATOM     25  C   UNL A   1      32.962  32.831  27.393  1.00  0.00     0.116 C 
BRANCH  25  26
ATOM     26  N   UNL A   1      32.581  34.191  27.749  1.00  0.00    -0.352 N 
ATOM     27  C   UNL A   1      33.085  35.018  28.725  1.00  0.00     0.251 C 
ATOM     28  H   UNL A   1      31.852  34.576  27.210  1.00  0.00     0.163 HD
ATOM     29  O   UNL A   1      32.538  36.096  28.946  1.00  0.00    -0.269 OA
BRANCH  27  30
ATOM     30  C   UNL A   1      34.254  34.594  29.526  1.00  0.00     0.039 A 
ATOM     31  C   UNL A   1      35.547  34.708  29.015  1.00  0.00     0.014 A 
ATOM     32  C   UNL A   1      34.052  34.053  30.799  1.00  0.00     0.014 A 
ATOM     33  C   UNL A   1      36.607  34.113  29.688  1.00  0.00     0.010 A 
ATOM     34  C   UNL A   1      35.137  33.546  31.521  1.00  0.00     0.010 A 
ATOM     35  C   UNL A   1      36.417  33.524  30.949  1.00  0.00    -0.014 A 
BRANCH  35  36
ATOM     36  C   UNL A   1      37.582  32.904  31.633  1.00  0.00     0.031 A 
ATOM     37  C   UNL A   1      38.025  33.379  32.993  1.00  0.00     0.074 A 
ATOM     38  C   UNL A   1      38.189  31.848  31.053  1.00  0.00     0.049 A 
ATOM     39  N   UNL A   1      38.974  32.901  33.758  1.00  0.00    -0.248 NA
ATOM     40  C   UNL A   1      37.325  34.538  33.570  1.00  0.00     0.031 C 
ATOM     41  C   UNL A   1      37.851  31.306  29.733  1.00  0.00     0.029 A 
ATOM     42  N   UNL A   1      39.185  31.020  31.503  1.00  0.00    -0.354 N 
ATOM     43  C   UNL A   1      38.996  33.706  34.891  1.00  0.00     0.074 A 
ATOM     44  C   UNL A   1      37.984  34.722  34.707  1.00  0.00     0.031 C 
ATOM     45  C   UNL A   1      38.575  30.199  29.513  1.00  0.00     0.029 A 
ATOM     46  C   UNL A   1      39.472  29.985  30.643  1.00  0.00     0.049 A 
ATOM     47  H   UNL A   1      39.650  31.154  32.361  1.00  0.00     0.167 HD
ATOM     48  C   UNL A   1      39.778  33.594  35.990  1.00  0.00     0.037 A 
ATOM     49  C   UNL A   1      40.360  28.979  30.748  1.00  0.00     0.037 A 
ATOM     50  C   UNL A   1      40.754  32.555  36.187  1.00  0.00     0.049 A 
ATOM     51  C   UNL A   1      41.218  28.885  31.977  1.00  0.00     0.074 A 
ATOM     52  C   UNL A   1      41.568  32.342  37.286  1.00  0.00     0.029 A 
ATOM     53  N   UNL A   1      41.041  31.552  35.275  1.00  0.00    -0.354 N 
ATOM     54  N   UNL A   1      41.207  29.646  33.044  1.00  0.00    -0.248 NA
ATOM     55  C   UNL A   1      42.219  27.809  32.014  1.00  0.00     0.031 C 
ATOM     56  C   UNL A   1      42.373  31.230  37.024  1.00  0.00     0.029 A 
ATOM     57  C   UNL A   1      42.032  30.727  35.778  1.00  0.00     0.049 A 
ATOM     58  H   UNL A   1      40.604  31.441  34.399  1.00  0.00     0.167 HD
ATOM     59  C   UNL A   1      42.189  29.136  33.883  1.00  0.00     0.074 A 
ATOM     60  C   UNL A   1      42.765  27.991  33.210  1.00  0.00     0.031 C 
ATOM     61  C   UNL A   1      42.584  29.583  35.099  1.00  0.00     0.037 A 
BRANCH  48  62
ATOM     62  C   UNL A   1      39.618  34.610  37.087  1.00  0.00     0.058 A 
ATOM     63  C   UNL A   1      38.790  34.367  38.193  1.00  0.00     0.135 A 
ATOM     64  C   UNL A   1      40.388  35.785  37.087  1.00  0.00     0.135 A 
ATOM     65  F   UNL A   1      38.022  33.267  38.235  1.00  0.00    -0.206 F 
ATOM     66  C   UNL A   1      38.733  35.252  39.265  1.00  0.00     0.059 A 
ATOM     67  C   UNL A   1      40.362  36.675  38.158  1.00  0.00     0.059 A 
ATOM     68  F   UNL A   1      41.194  36.064  36.051  1.00  0.00    -0.206 F 
ATOM     69  C   UNL A   1      39.530  36.399  39.242  1.00  0.00     0.060 A 
BRANCH  69  70
ATOM     70  S   UNL A   1      39.482  37.508  40.667  1.00  0.00     0.124 S 
ATOM     71  O   UNL A   1      38.495  38.494  40.235  1.00  0.00    -0.237 OA
ATOM     72  O   UNL A   1      39.057  36.616  41.740  1.00  0.00    -0.237 OA
ATOM     73  O   UNL A   1      40.853  37.997  40.765  1.00  0.00    -0.744 OA
ENDBRANCH  69  70
ENDBRANCH  48  62
BRANCH  49  74
ATOM     74  C   UNL A   1      40.481  27.983  29.651  1.00  0.00     0.058 A 
ATOM     75  C   UNL A   1      39.612  26.886  29.570  1.00  0.00     0.135 A 
ATOM     76  C   UNL A   1      41.456  28.122  28.652  1.00  0.00     0.135 A 
ATOM     77  F   UNL A   1      38.664  26.709  30.505  1.00  0.00    -0.206 F 
ATOM     78  C   UNL A   1      39.711  25.953  28.543  1.00  0.00     0.059 A 
ATOM     79  C   UNL A   1      41.561  27.217  27.601  1.00  0.00     0.059 A 
ATOM     80  F   UNL A   1      42.300  29.164  28.676  1.00  0.00    -0.206 F 
ATOM     81  C   UNL A   1      40.690  26.128  27.563  1.00  0.00     0.060 A 
BRANCH  81  82
ATOM     82  S   UNL A   1      40.788  24.937  26.209  1.00  0.00     0.124 S 
ATOM     83  O   UNL A   1      39.393  24.532  26.077  1.00  0.00    -0.237 OA
ATOM     84  O   UNL A   1      41.324  25.750  25.121  1.00  0.00    -0.237 OA
ATOM     85  O   UNL A   1      41.697  23.918  26.726  1.00  0.00    -0.744 OA
ENDBRANCH  81  82
ENDBRANCH  49  74
BRANCH  61  86
ATOM     86  C   UNL A   1      43.682  28.836  35.798  1.00  0.00     0.058 A 
ATOM     87  C   UNL A   1      45.012  29.273  35.730  1.00  0.00     0.135 A 
ATOM     88  C   UNL A   1      43.384  27.749  36.634  1.00  0.00     0.135 A 
ATOM     89  F   UNL A   1      45.346  30.304  34.937  1.00  0.00    -0.206 F 
ATOM     90  C   UNL A   1      46.012  28.662  36.476  1.00  0.00     0.059 A 
ATOM     91  C   UNL A   1      44.365  27.135  37.405  1.00  0.00     0.059 A 
ATOM     92  F   UNL A   1      42.122  27.300  36.734  1.00  0.00    -0.206 F 
ATOM     93  C   UNL A   1      45.677  27.600  37.320  1.00  0.00     0.060 A 
BRANCH  93  94
ATOM     94  S   UNL A   1      46.971  26.876  38.350  1.00  0.00     0.124 S 
ATOM     95  O   UNL A   1      48.133  26.972  37.474  1.00  0.00    -0.237 OA
ATOM     96  O   UNL A   1      46.976  27.762  39.511  1.00  0.00    -0.237 OA
ATOM     97  O   UNL A   1      46.486  25.522  38.605  1.00  0.00    -0.744 OA
ENDBRANCH  93  94
ENDBRANCH  61  86
ENDBRANCH  35  36
ENDBRANCH  27  30
ENDBRANCH  25  26
ENDBRANCH  24  25
ENDBRANCH   1  24
TORSDOF 17
ENDMDL
MODEL 3
REMARK VINA RESULT:     -11.5      3.432      7.995
REMARK SMILES Nc1cc(Br)ccc1C(=O)NC1(C(=O)NCCCCNC(=O)c2ccc(-c3c4nc(c(-c5c(F)cc(S(=O)(=O)[O-])cc5F)c5ccc([nH]5)c(-c5c(F)cc(S(=O)(=O)[O-])cc5F)c5nc(c(-c6c(F)cc(S(=O)(=O)[O-])cc6F)c6ccc3[nH]6)C=C5)C=C4)cc2)CC1
REMARK SMILES IDX 17 1 16 2 15 3 13 4 14 5 12 7 89 8 90 9 11 10 9 11 10 12
REMARK SMILES IDX 8 14 2 15 3 16 4 17 7 18 5 19 6 20 1 21 18 24 19 25 20 26
REMARK SMILES IDX 21 27 22 29 23 30 24 31 88 32 25 33 87 34 26 35 27 36 28 37
REMARK SMILES IDX 81 38 29 39 86 40 80 41 82 42 30 43 85 44 79 45 78 46 31 48
REMARK SMILES IDX 65 49 44 50 64 51 45 52 48 53 63 54 83 55 46 56 47 57 62 59
REMARK SMILES IDX 84 60 49 61 32 62 33 63 42 64 34 65 35 66 41 67 43 68 36 69
REMARK SMILES IDX 37 70 38 71 39 72 40 73 66 74 67 75 76 76 68 77 69 78 75 79
REMARK SMILES IDX 77 80 70 81 71 82 72 83 73 84 74 85 50 86 51 87 60 88 52 89
REMARK SMILES IDX 53 90 59 91 61 92 54 93 55 94 56 95 57 96 58 97
REMARK H PARENT 15 6 11 13 1 22 1 23 20 28 82 47 48 58
REMARK Flexibility Score: inf
ROOT
ATOM      1  C   UNL A   1      33.082  29.293  24.864  1.00  0.00     0.023 C 
ENDROOT
BRANCH   1   2
ATOM      2  C   UNL A   1      31.812  28.936  24.093  1.00  0.00     0.116 C 
BRANCH   2   3
ATOM      3  N   UNL A   1      32.011  27.917  23.085  1.00  0.00    -0.354 N 
ATOM      4  C   UNL A   1      31.498  26.664  22.890  1.00  0.00     0.245 C 
ATOM      5  O   UNL A   1      31.660  26.192  21.761  1.00  0.00    -0.272 OA
ATOM      6  H   UNL A   1      32.654  28.184  22.389  1.00  0.00     0.163 HD
BRANCH   4   7
ATOM      7  C   UNL A   1      30.786  25.789  23.925  1.00  0.00     0.119 C 
ATOM      8  C   UNL A   1      29.371  26.323  24.231  1.00  0.00     0.041 C 
ATOM      9  C   UNL A   1      30.346  26.123  25.336  1.00  0.00     0.041 C 
BRANCH   7  10
ATOM     10  N   UNL A   1      30.857  24.388  23.560  1.00  0.00    -0.338 N 
ATOM     11  C   UNL A   1      31.832  23.422  23.603  1.00  0.00     0.254 C 
ATOM     12  O   UNL A   1      31.540  22.356  23.041  1.00  0.00    -0.269 OA
ATOM     13  H   UNL A   1      30.007  24.051  23.196  1.00  0.00     0.164 HD
BRANCH  11  14
ATOM     14  C   UNL A   1      33.155  23.490  24.306  1.00  0.00     0.062 A 
ATOM     15  C   UNL A   1      33.415  23.493  25.684  1.00  0.00     0.045 A 
ATOM     16  C   UNL A   1      34.749  23.530  26.144  1.00  0.00     0.042 A 
ATOM     17  C   UNL A   1      35.817  23.635  25.263  1.00  0.00     0.020 A 
ATOM     18  C   UNL A   1      34.266  23.611  23.434  1.00  0.00     0.017 A 
ATOM     19  Br  UNL A   1      37.582  23.741  25.930  1.00  0.00    -0.051 Br
ATOM     20  C   UNL A   1      35.581  23.694  23.902  1.00  0.00     0.016 A 
BRANCH  15  21
ATOM     21  N   UNL A   1      32.442  23.568  26.668  1.00  0.00    -0.398 N 
ATOM     22  H   UNL A   1      32.698  23.753  27.602  1.00  0.00     0.156 HD
ATOM     23  H   UNL A   1      31.495  23.434  26.436  1.00  0.00     0.156 HD
ENDBRANCH  15  21
ENDBRANCH  11  14
ENDBRANCH   7  10
ENDBRANCH   4   7
ENDBRANCH   2   3
ENDBRANCH   1   2
BRANCH   1  24
ATOM     24  C   UNL A   1      33.652  28.192  25.755  1.00  0.00     0.023 C 
BRANCH  24  25
ATOM     25  C   UNL A   1      33.424  28.387  27.246  1.00  0.00     0.116 C 
BRANCH  25  26
ATOM     26  N   UNL A   1      33.363  29.789  27.634  1.00  0.00    -0.352 N 
ATOM     27  C   UNL A   1      34.331  30.591  28.191  1.00  0.00     0.251 C 
ATOM     28  H   UNL A   1      32.496  30.229  27.476  1.00  0.00     0.163 HD
ATOM     29  O   UNL A   1      34.038  31.726  28.560  1.00  0.00    -0.269 OA
BRANCH  27  30
ATOM     30  C   UNL A   1      35.705  30.076  28.376  1.00  0.00     0.039 A 
ATOM     31  C   UNL A   1      36.135  29.622  29.622  1.00  0.00     0.014 A 
ATOM     32  C   UNL A   1      36.585  30.069  27.289  1.00  0.00     0.014 A 
ATOM     33  C   UNL A   1      37.480  29.344  29.828  1.00  0.00     0.010 A 
ATOM     34  C   UNL A   1      37.919  29.691  27.475  1.00  0.00     0.010 A 
ATOM     35  C   UNL A   1      38.390  29.375  28.758  1.00  0.00    -0.014 A 
BRANCH  35  36
ATOM     36  C   UNL A   1      39.820  29.067  29.024  1.00  0.00     0.031 A 
ATOM     37  C   UNL A   1      40.411  27.737  28.635  1.00  0.00     0.074 A 
ATOM     38  C   UNL A   1      40.605  30.030  29.548  1.00  0.00     0.049 A 
ATOM     39  N   UNL A   1      41.653  27.333  28.730  1.00  0.00    -0.248 NA
ATOM     40  C   UNL A   1      39.501  26.726  28.072  1.00  0.00     0.031 C 
ATOM     41  C   UNL A   1      40.140  31.354  29.973  1.00  0.00     0.029 A 
ATOM     42  N   UNL A   1      41.956  30.067  29.779  1.00  0.00    -0.354 N 
ATOM     43  C   UNL A   1      41.670  26.026  28.259  1.00  0.00     0.074 A 
ATOM     44  C   UNL A   1      40.310  25.688  27.901  1.00  0.00     0.031 C 
ATOM     45  C   UNL A   1      41.196  32.094  30.345  1.00  0.00     0.029 A 
ATOM     46  C   UNL A   1      42.403  31.281  30.247  1.00  0.00     0.049 A 
ATOM     47  H   UNL A   1      42.551  29.296  29.625  1.00  0.00     0.167 HD
ATOM     48  C   UNL A   1      42.727  25.191  28.122  1.00  0.00     0.037 A 
ATOM     49  C   UNL A   1      43.644  31.696  30.565  1.00  0.00     0.037 A 
ATOM     50  C   UNL A   1      44.085  25.547  28.439  1.00  0.00     0.049 A 
ATOM     51  C   UNL A   1      44.796  30.745  30.409  1.00  0.00     0.074 A 
ATOM     52  C   UNL A   1      45.227  24.777  28.300  1.00  0.00     0.029 A 
ATOM     53  N   UNL A   1      44.487  26.772  28.947  1.00  0.00    -0.354 N 
ATOM     54  N   UNL A   1      44.790  29.520  29.943  1.00  0.00    -0.248 NA
ATOM     55  C   UNL A   1      46.119  31.222  30.834  1.00  0.00     0.031 C 
ATOM     56  C   UNL A   1      46.316  25.524  28.756  1.00  0.00     0.029 A 
ATOM     57  C   UNL A   1      45.858  26.774  29.143  1.00  0.00     0.049 A 
ATOM     58  H   UNL A   1      43.888  27.529  29.140  1.00  0.00     0.167 HD
ATOM     59  C   UNL A   1      46.106  29.084  30.008  1.00  0.00     0.074 A 
ATOM     60  C   UNL A   1      46.887  30.180  30.543  1.00  0.00     0.031 C 
ATOM     61  C   UNL A   1      46.620  27.879  29.664  1.00  0.00     0.037 A 
BRANCH  48  62
ATOM     62  C   UNL A   1      42.480  23.805  27.596  1.00  0.00     0.058 A 
ATOM     63  C   UNL A   1      42.448  23.540  26.219  1.00  0.00     0.135 A 
ATOM     64  C   UNL A   1      42.388  22.715  28.477  1.00  0.00     0.135 A 
ATOM     65  F   UNL A   1      42.516  24.548  25.335  1.00  0.00    -0.206 F 
ATOM     66  C   UNL A   1      42.339  22.242  25.732  1.00  0.00     0.059 A 
ATOM     67  C   UNL A   1      42.298  21.405  28.013  1.00  0.00     0.059 A 
ATOM     68  F   UNL A   1      42.411  22.916  29.805  1.00  0.00    -0.206 F 
ATOM     69  C   UNL A   1      42.273  21.179  26.637  1.00  0.00     0.060 A 
BRANCH  69  70
ATOM     70  S   UNL A   1      42.185  19.498  25.985  1.00  0.00     0.124 S 
ATOM     71  O   UNL A   1      43.112  19.573  24.860  1.00  0.00    -0.237 OA
ATOM     72  O   UNL A   1      42.634  18.700  27.121  1.00  0.00    -0.237 OA
ATOM     73  O   UNL A   1      40.779  19.344  25.628  1.00  0.00    -0.744 OA
ENDBRANCH  69  70
ENDBRANCH  48  62
BRANCH  49  74
ATOM     74  C   UNL A   1      43.854  33.079  31.067  1.00  0.00     0.058 A 
ATOM     75  C   UNL A   1      43.920  33.348  32.441  1.00  0.00     0.135 A 
ATOM     76  C   UNL A   1      44.015  34.155  30.180  1.00  0.00     0.135 A 
ATOM     77  F   UNL A   1      43.769  32.352  33.328  1.00  0.00    -0.206 F 
ATOM     78  C   UNL A   1      44.124  34.638  32.922  1.00  0.00     0.059 A 
ATOM     79  C   UNL A   1      44.245  35.448  30.634  1.00  0.00     0.059 A 
ATOM     80  F   UNL A   1      43.978  33.945  28.855  1.00  0.00    -0.206 F 
ATOM     81  C   UNL A   1      44.287  35.682  32.008  1.00  0.00     0.060 A 
BRANCH  81  82
ATOM     82  S   UNL A   1      44.593  37.346  32.637  1.00  0.00     0.124 S 
ATOM     83  O   UNL A   1      45.400  37.918  31.565  1.00  0.00    -0.237 OA
ATOM     84  O   UNL A   1      43.240  37.879  32.773  1.00  0.00    -0.237 OA
ATOM     85  O   UNL A   1      45.293  37.105  33.895  1.00  0.00    -0.744 OA
ENDBRANCH  81  82
ENDBRANCH  49  74
BRANCH  61  86
ATOM     86  C   UNL A   1      48.096  27.670  29.838  1.00  0.00     0.058 A 
ATOM     87  C   UNL A   1      48.607  27.026  30.973  1.00  0.00     0.135 A 
ATOM     88  C   UNL A   1      48.989  28.011  28.811  1.00  0.00     0.135 A 
ATOM     89  F   UNL A   1      47.792  26.689  31.985  1.00  0.00    -0.206 F 
ATOM     90  C   UNL A   1      49.958  26.717  31.082  1.00  0.00     0.059 A 
ATOM     91  C   UNL A   1      50.341  27.693  28.889  1.00  0.00     0.059 A 
ATOM     92  F   UNL A   1      48.543  28.624  27.703  1.00  0.00    -0.206 F 
ATOM     93  C   UNL A   1      50.815  27.045  30.028  1.00  0.00     0.060 A 
BRANCH  93  94
ATOM     94  S   UNL A   1      52.549  26.555  30.145  1.00  0.00     0.124 S 
ATOM     95  O   UNL A   1      52.506  25.572  31.222  1.00  0.00    -0.237 OA
ATOM     96  O   UNL A   1      52.813  26.024  28.812  1.00  0.00    -0.237 OA
ATOM     97  O   UNL A   1      53.235  27.805  30.464  1.00  0.00    -0.744 OA
ENDBRANCH  93  94
ENDBRANCH  61  86
ENDBRANCH  35  36
ENDBRANCH  27  30
ENDBRANCH  25  26
ENDBRANCH  24  25
ENDBRANCH   1  24
TORSDOF 17
ENDMDL
