MODEL 1
REMARK VINA RESULT:     -13.0      0.000      0.000
REMARK SMILES O=C(NCCCCNC(=O)[C@H]1[C@H]2CC[C@H](CC2)[C@H]1C(=O)Nc1ccc(C(=O)N2CCCC2)cc1)c1ccc(-c2c3nc(c(-c4c(F)cc(S(=O)(=O)[O-])cc4F)c4ccc([nH]4)c(-c4c(F)cc(S(=O)(=O)[O-])cc4F)c4nc(c(-c5c(F)cc(S(=O)(=O)[O-])cc5F)c5ccc2[nH]5)C=C4)C=C3)cc1
REMARK SMILES IDX 5 1 4 2 3 3 1 4 2 5 35 7 36 8 100 9 37 10 99 11 38 12 39 13
REMARK SMILES IDX 40 14 93 15 41 16 98 17 92 18 94 19 42 20 97 21 91 22 90 23
REMARK SMILES IDX 43 25 77 26 56 27 76 28 57 29 60 30 75 31 95 32 58 33 59 34
REMARK SMILES IDX 74 36 96 37 61 38 44 39 45 40 54 41 46 42 47 43 53 44 55 45
REMARK SMILES IDX 48 46 49 47 50 48 51 49 52 50 78 51 79 52 88 53 80 54 81 55
REMARK SMILES IDX 87 56 89 57 82 58 83 59 84 60 85 61 86 62 62 63 63 64 72 65
REMARK SMILES IDX 64 66 65 67 71 68 73 69 66 70 67 71 68 72 69 73 70 74 6 75
REMARK SMILES IDX 7 76 8 77 9 78 10 80 11 81 12 82 18 83 17 84 13 85 15 86
REMARK SMILES IDX 16 87 14 88 19 89 20 90 21 91 22 93 23 94 34 95 24 96 33 97
REMARK SMILES IDX 25 98 26 99 27 100 28 101 29 102 32 103 30 104 31 105
REMARK H PARENT 3 6 94 24 60 35 8 79 21 92
REMARK Flexibility Score: inf
ROOT
ATOM      1  C   UNL A   1      33.681  28.030  26.167  1.00  0.00     0.023 C 
ENDROOT
BRANCH   1   2
ATOM      2  C   UNL A   1      33.486  28.483  27.617  1.00  0.00     0.116 C 
BRANCH   2   3
ATOM      3  N   UNL A   1      33.567  29.929  27.764  1.00  0.00    -0.352 N 
ATOM      4  O   UNL A   1      34.467  31.932  28.288  1.00  0.00    -0.269 OA
ATOM      5  C   UNL A   1      34.629  30.740  28.102  1.00  0.00     0.251 C 
ATOM      6  H   UNL A   1      32.722  30.406  27.597  1.00  0.00     0.163 HD
BRANCH   5   7
ATOM      7  C   UNL A   1      35.949  30.119  28.290  1.00  0.00     0.039 A 
ATOM      8  C   UNL A   1      36.310  29.657  29.552  1.00  0.00     0.014 A 
ATOM      9  C   UNL A   1      36.852  30.103  27.222  1.00  0.00     0.014 A 
ATOM     10  C   UNL A   1      37.637  29.357  29.794  1.00  0.00     0.010 A 
ATOM     11  C   UNL A   1      38.170  29.709  27.450  1.00  0.00     0.010 A 
ATOM     12  C   UNL A   1      38.580  29.386  28.750  1.00  0.00    -0.014 A 
BRANCH  12  13
ATOM     13  C   UNL A   1      39.982  29.049  29.084  1.00  0.00     0.031 A 
ATOM     14  C   UNL A   1      40.569  27.721  28.699  1.00  0.00     0.074 A 
ATOM     15  C   UNL A   1      40.741  30.032  29.604  1.00  0.00     0.049 A 
ATOM     16  N   UNL A   1      41.810  27.324  28.774  1.00  0.00    -0.248 NA
ATOM     17  C   UNL A   1      39.648  26.705  28.161  1.00  0.00     0.031 C 
ATOM     18  C   UNL A   1      40.237  31.349  30.008  1.00  0.00     0.029 A 
ATOM     19  N   UNL A   1      42.089  30.113  29.816  1.00  0.00    -0.354 N 
ATOM     20  C   UNL A   1      41.824  26.015  28.307  1.00  0.00     0.074 A 
ATOM     21  C   UNL A   1      40.459  25.673  27.970  1.00  0.00     0.031 C 
ATOM     22  C   UNL A   1      41.272  32.136  30.331  1.00  0.00     0.029 A 
ATOM     23  C   UNL A   1      42.500  31.359  30.226  1.00  0.00     0.049 A 
ATOM     24  H   UNL A   1      42.703  29.354  29.689  1.00  0.00     0.167 HD
ATOM     25  C   UNL A   1      42.885  25.184  28.170  1.00  0.00     0.037 A 
ATOM     26  C   UNL A   1      43.735  31.823  30.488  1.00  0.00     0.037 A 
ATOM     27  C   UNL A   1      44.235  25.559  28.509  1.00  0.00     0.049 A 
ATOM     28  C   UNL A   1      44.892  30.888  30.302  1.00  0.00     0.074 A 
ATOM     29  C   UNL A   1      45.387  24.794  28.449  1.00  0.00     0.029 A 
ATOM     30  N   UNL A   1      44.613  26.816  28.961  1.00  0.00    -0.354 N 
ATOM     31  N   UNL A   1      44.881  29.643  29.885  1.00  0.00    -0.248 NA
ATOM     32  C   UNL A   1      46.223  31.408  30.628  1.00  0.00     0.031 C 
ATOM     33  C   UNL A   1      46.457  25.582  28.890  1.00  0.00     0.029 A 
ATOM     34  C   UNL A   1      45.979  26.849  29.188  1.00  0.00     0.049 A 
ATOM     35  H   UNL A   1      44.000  27.574  29.100  1.00  0.00     0.167 HD
ATOM     36  C   UNL A   1      46.202  29.222  29.916  1.00  0.00     0.074 A 
ATOM     37  C   UNL A   1      46.989  30.363  30.345  1.00  0.00     0.031 C 
ATOM     38  C   UNL A   1      46.721  28.001  29.636  1.00  0.00     0.037 A 
BRANCH  25  39
ATOM     39  C   UNL A   1      42.628  23.793  27.657  1.00  0.00     0.058 A 
ATOM     40  C   UNL A   1      42.562  23.513  26.283  1.00  0.00     0.135 A 
ATOM     41  C   UNL A   1      42.476  22.718  28.549  1.00  0.00     0.135 A 
ATOM     42  F   UNL A   1      42.677  24.505  25.385  1.00  0.00    -0.206 F 
ATOM     43  C   UNL A   1      42.342  22.221  25.811  1.00  0.00     0.059 A 
ATOM     44  C   UNL A   1      42.275  21.415  28.100  1.00  0.00     0.059 A 
ATOM     45  F   UNL A   1      42.522  22.929  29.874  1.00  0.00    -0.206 F 
ATOM     46  C   UNL A   1      42.199  21.179  26.728  1.00  0.00     0.060 A 
BRANCH  46  47
ATOM     47  S   UNL A   1      41.920  19.507  26.101  1.00  0.00     0.124 S 
ATOM     48  O   UNL A   1      40.478  19.518  25.878  1.00  0.00    -0.237 OA
ATOM     49  O   UNL A   1      42.747  19.482  24.898  1.00  0.00    -0.237 OA
ATOM     50  O   UNL A   1      42.380  18.653  27.192  1.00  0.00    -0.744 OA
ENDBRANCH  46  47
ENDBRANCH  25  39
BRANCH  26  51
ATOM     51  C   UNL A   1      43.913  33.217  30.974  1.00  0.00     0.058 A 
ATOM     52  C   UNL A   1      44.149  34.280  30.092  1.00  0.00     0.135 A 
ATOM     53  C   UNL A   1      43.807  33.514  32.342  1.00  0.00     0.135 A 
ATOM     54  F   UNL A   1      44.255  34.048  28.775  1.00  0.00    -0.206 F 
ATOM     55  C   UNL A   1      44.287  35.587  30.549  1.00  0.00     0.059 A 
ATOM     56  C   UNL A   1      43.912  34.814  32.821  1.00  0.00     0.059 A 
ATOM     57  F   UNL A   1      43.560  32.535  33.227  1.00  0.00    -0.206 F 
ATOM     58  C   UNL A   1      44.166  35.844  31.917  1.00  0.00     0.060 A 
BRANCH  58  59
ATOM     59  S   UNL A   1      44.296  37.547  32.506  1.00  0.00     0.124 S 
ATOM     60  O   UNL A   1      45.674  37.585  32.981  1.00  0.00    -0.237 OA
ATOM     61  O   UNL A   1      44.013  38.317  31.299  1.00  0.00    -0.237 OA
ATOM     62  O   UNL A   1      43.268  37.619  33.541  1.00  0.00    -0.744 OA
ENDBRANCH  58  59
ENDBRANCH  26  51
BRANCH  38  63
ATOM     63  C   UNL A   1      48.204  27.856  29.806  1.00  0.00     0.058 A 
ATOM     64  C   UNL A   1      49.083  28.102  28.741  1.00  0.00     0.135 A 
ATOM     65  C   UNL A   1      48.747  27.470  31.040  1.00  0.00     0.135 A 
ATOM     66  F   UNL A   1      48.607  28.467  27.541  1.00  0.00    -0.206 F 
ATOM     67  C   UNL A   1      50.454  27.930  28.883  1.00  0.00     0.059 A 
ATOM     68  C   UNL A   1      50.117  27.316  31.210  1.00  0.00     0.059 A 
ATOM     69  F   UNL A   1      47.943  27.234  32.089  1.00  0.00    -0.206 F 
ATOM     70  C   UNL A   1      50.961  27.529  30.120  1.00  0.00     0.060 A 
BRANCH  70  71
ATOM     71  S   UNL A   1      52.742  27.304  30.295  1.00  0.00     0.124 S 
ATOM     72  O   UNL A   1      52.812  25.955  30.847  1.00  0.00    -0.237 OA
ATOM     73  O   UNL A   1      53.216  27.454  28.923  1.00  0.00    -0.237 OA
ATOM     74  O   UNL A   1      53.130  28.377  31.207  1.00  0.00    -0.744 OA
ENDBRANCH  70  71
ENDBRANCH  38  63
ENDBRANCH  12  13
ENDBRANCH   5   7
ENDBRANCH   2   3
ENDBRANCH   1   2
BRANCH   1  75
ATOM     75  C   UNL A   1      32.998  26.719  25.730  1.00  0.00     0.023 C 
BRANCH  75  76
ATOM     76  C   UNL A   1      31.746  26.326  26.508  1.00  0.00     0.116 C 
BRANCH  76  77
ATOM     77  N   UNL A   1      31.386  24.933  26.466  1.00  0.00    -0.356 N 
ATOM     78  C   UNL A   1      32.215  23.882  26.726  1.00  0.00     0.224 C 
ATOM     79  H   UNL A   1      30.454  24.720  26.229  1.00  0.00     0.163 HD
ATOM     80  O   UNL A   1      31.726  22.979  27.414  1.00  0.00    -0.275 OA
BRANCH  78  81
ATOM     81  C   UNL A   1      33.573  23.646  26.042  1.00  0.00     0.094 C 
ATOM     82  C   UNL A   1      34.857  22.961  26.601  1.00  0.00     0.002 C 
ATOM     83  C   UNL A   1      33.501  23.443  24.505  1.00  0.00     0.094 C 
ATOM     84  C   UNL A   1      35.117  21.551  26.037  1.00  0.00     0.005 C 
ATOM     85  C   UNL A   1      36.068  23.787  26.086  1.00  0.00     0.005 C 
ATOM     86  C   UNL A   1      34.892  22.966  23.985  1.00  0.00     0.002 C 
ATOM     87  C   UNL A   1      35.222  21.567  24.507  1.00  0.00     0.005 C 
ATOM     88  C   UNL A   1      35.996  23.903  24.549  1.00  0.00     0.005 C 
BRANCH  83  89
ATOM     89  C   UNL A   1      32.305  22.816  23.727  1.00  0.00     0.228 C 
ATOM     90  O   UNL A   1      32.262  21.574  23.659  1.00  0.00    -0.274 OA
ATOM     91  N   UNL A   1      31.162  23.441  23.317  1.00  0.00    -0.326 N 
ATOM     92  H   UNL A   1      30.425  22.817  23.129  1.00  0.00     0.169 HD
BRANCH  91  93
ATOM     93  C   UNL A   1      30.819  24.777  23.109  1.00  0.00     0.041 A 
ATOM     94  C   UNL A   1      29.592  25.246  23.572  1.00  0.00     0.027 A 
ATOM     95  C   UNL A   1      31.631  25.652  22.414  1.00  0.00     0.027 A 
ATOM     96  C   UNL A   1      29.378  26.629  23.667  1.00  0.00     0.016 A 
ATOM     97  C   UNL A   1      31.374  27.036  22.441  1.00  0.00     0.016 A 
ATOM     98  C   UNL A   1      30.347  27.542  23.224  1.00  0.00     0.040 A 
BRANCH  98  99
ATOM     99  C   UNL A   1      30.280  28.938  23.779  1.00  0.00     0.253 C 
ATOM    100  O   UNL A   1      31.264  29.325  24.415  1.00  0.00    -0.269 OA
ATOM    101  N   UNL A   1      29.276  29.840  23.418  1.00  0.00    -0.339 N 
ATOM    102  C   UNL A   1      27.913  29.640  22.968  1.00  0.00     0.120 C 
ATOM    103  C   UNL A   1      29.528  31.268  23.560  1.00  0.00     0.120 C 
ATOM    104  C   UNL A   1      27.490  30.955  22.337  1.00  0.00     0.023 C 
ATOM    105  C   UNL A   1      28.221  31.971  23.197  1.00  0.00     0.023 C 
ENDBRANCH  98  99
ENDBRANCH  91  93
ENDBRANCH  83  89
ENDBRANCH  78  81
ENDBRANCH  76  77
ENDBRANCH  75  76
ENDBRANCH   1  75
TORSDOF 17
ENDMDL
MODEL 2
REMARK VINA RESULT:     -12.5      3.289      9.472
REMARK SMILES O=C(NCCCCNC(=O)[C@H]1[C@H]2CC[C@H](CC2)[C@H]1C(=O)Nc1ccc(C(=O)N2CCCC2)cc1)c1ccc(-c2c3nc(c(-c4c(F)cc(S(=O)(=O)[O-])cc4F)c4ccc([nH]4)c(-c4c(F)cc(S(=O)(=O)[O-])cc4F)c4nc(c(-c5c(F)cc(S(=O)(=O)[O-])cc5F)c5ccc2[nH]5)C=C4)C=C3)cc1
REMARK SMILES IDX 5 1 4 2 3 3 1 4 2 5 35 7 36 8 100 9 37 10 99 11 38 12 39 13
REMARK SMILES IDX 40 14 93 15 41 16 98 17 92 18 94 19 42 20 97 21 91 22 90 23
REMARK SMILES IDX 43 25 77 26 56 27 76 28 57 29 60 30 75 31 95 32 58 33 59 34
REMARK SMILES IDX 74 36 96 37 61 38 44 39 45 40 54 41 46 42 47 43 53 44 55 45
REMARK SMILES IDX 48 46 49 47 50 48 51 49 52 50 78 51 79 52 88 53 80 54 81 55
REMARK SMILES IDX 87 56 89 57 82 58 83 59 84 60 85 61 86 62 62 63 63 64 72 65
REMARK SMILES IDX 64 66 65 67 71 68 73 69 66 70 67 71 68 72 69 73 70 74 6 75
REMARK SMILES IDX 7 76 8 77 9 78 10 80 11 81 12 82 18 83 17 84 13 85 15 86
REMARK SMILES IDX 16 87 14 88 19 89 20 90 21 91 22 93 23 94 34 95 24 96 33 97
REMARK SMILES IDX 25 98 26 99 27 100 28 101 29 102 32 103 30 104 31 105
REMARK H PARENT 3 6 94 24 60 35 8 79 21 92
REMARK Flexibility Score: inf
ROOT
ATOM      1  C   UNL A   1      36.013  23.743  25.730  1.00  0.00     0.023 C 
ENDROOT
BRANCH   1   2
ATOM      2  C   UNL A   1      37.333  23.833  24.958  1.00  0.00     0.116 C 
BRANCH   2   3
ATOM      3  N   UNL A   1      38.330  22.894  25.448  1.00  0.00    -0.352 N 
ATOM      4  O   UNL A   1      40.180  22.178  26.528  1.00  0.00    -0.269 OA
ATOM      5  C   UNL A   1      39.376  23.070  26.330  1.00  0.00     0.251 C 
ATOM      6  H   UNL A   1      38.245  21.980  25.089  1.00  0.00     0.163 HD
BRANCH   5   7
ATOM      7  C   UNL A   1      39.528  24.382  26.977  1.00  0.00     0.039 A 
ATOM      8  C   UNL A   1      40.343  25.343  26.385  1.00  0.00     0.014 A 
ATOM      9  C   UNL A   1      38.937  24.597  28.227  1.00  0.00     0.014 A 
ATOM     10  C   UNL A   1      40.722  26.442  27.132  1.00  0.00     0.010 A 
ATOM     11  C   UNL A   1      39.249  25.755  28.938  1.00  0.00     0.010 A 
ATOM     12  C   UNL A   1      40.185  26.656  28.415  1.00  0.00    -0.014 A 
BRANCH  12  13
ATOM     13  C   UNL A   1      40.635  27.858  29.153  1.00  0.00     0.031 A 
ATOM     14  C   UNL A   1      39.717  29.029  29.352  1.00  0.00     0.074 A 
ATOM     15  C   UNL A   1      41.834  27.789  29.762  1.00  0.00     0.049 A 
ATOM     16  N   UNL A   1      39.892  30.087  30.097  1.00  0.00    -0.248 NA
ATOM     17  C   UNL A   1      38.438  29.018  28.622  1.00  0.00     0.031 C 
ATOM     18  C   UNL A   1      42.784  26.681  29.611  1.00  0.00     0.029 A 
ATOM     19  N   UNL A   1      42.430  28.615  30.674  1.00  0.00    -0.354 N 
ATOM     20  C   UNL A   1      38.758  30.872  29.922  1.00  0.00     0.074 A 
ATOM     21  C   UNL A   1      37.907  30.180  28.979  1.00  0.00     0.031 C 
ATOM     22  C   UNL A   1      43.798  26.851  30.469  1.00  0.00     0.029 A 
ATOM     23  C   UNL A   1      43.605  28.110  31.177  1.00  0.00     0.049 A 
ATOM     24  H   UNL A   1      42.055  29.485  30.942  1.00  0.00     0.167 HD
ATOM     25  C   UNL A   1      38.461  32.059  30.504  1.00  0.00     0.037 A 
ATOM     26  C   UNL A   1      44.437  28.610  32.109  1.00  0.00     0.037 A 
ATOM     27  C   UNL A   1      39.329  32.719  31.447  1.00  0.00     0.049 A 
ATOM     28  C   UNL A   1      44.068  29.913  32.754  1.00  0.00     0.074 A 
ATOM     29  C   UNL A   1      39.155  33.939  32.075  1.00  0.00     0.029 A 
ATOM     30  N   UNL A   1      40.534  32.201  31.904  1.00  0.00    -0.354 N 
ATOM     31  N   UNL A   1      43.003  30.654  32.554  1.00  0.00    -0.248 NA
ATOM     32  C   UNL A   1      45.008  30.452  33.740  1.00  0.00     0.031 C 
ATOM     33  C   UNL A   1      40.268  34.171  32.894  1.00  0.00     0.029 A 
ATOM     34  C   UNL A   1      41.116  33.077  32.805  1.00  0.00     0.049 A 
ATOM     35  H   UNL A   1      40.917  31.337  31.630  1.00  0.00     0.167 HD
ATOM     36  C   UNL A   1      43.154  31.761  33.376  1.00  0.00     0.074 A 
ATOM     37  C   UNL A   1      44.389  31.564  34.112  1.00  0.00     0.031 C 
ATOM     38  C   UNL A   1      42.358  32.853  33.500  1.00  0.00     0.037 A 
BRANCH  25  39
ATOM     39  C   UNL A   1      37.166  32.724  30.124  1.00  0.00     0.058 A 
ATOM     40  C   UNL A   1      35.970  32.457  30.809  1.00  0.00     0.135 A 
ATOM     41  C   UNL A   1      37.124  33.666  29.083  1.00  0.00     0.135 A 
ATOM     42  F   UNL A   1      35.946  31.549  31.798  1.00  0.00    -0.206 F 
ATOM     43  C   UNL A   1      34.777  33.088  30.467  1.00  0.00     0.059 A 
ATOM     44  C   UNL A   1      35.947  34.324  28.737  1.00  0.00     0.059 A 
ATOM     45  F   UNL A   1      38.236  33.955  28.389  1.00  0.00    -0.206 F 
ATOM     46  C   UNL A   1      34.775  34.020  29.428  1.00  0.00     0.060 A 
BRANCH  46  47
ATOM     47  S   UNL A   1      33.221  34.836  29.000  1.00  0.00     0.124 S 
ATOM     48  O   UNL A   1      32.670  33.912  28.013  1.00  0.00    -0.237 OA
ATOM     49  O   UNL A   1      32.526  34.879  30.283  1.00  0.00    -0.237 OA
ATOM     50  O   UNL A   1      33.647  36.130  28.478  1.00  0.00    -0.744 OA
ENDBRANCH  46  47
ENDBRANCH  25  39
BRANCH  26  51
ATOM     51  C   UNL A   1      45.690  27.886  32.445  1.00  0.00     0.058 A 
ATOM     52  C   UNL A   1      45.724  26.891  33.432  1.00  0.00     0.135 A 
ATOM     53  C   UNL A   1      46.879  28.154  31.747  1.00  0.00     0.135 A 
ATOM     54  F   UNL A   1      44.614  26.596  34.125  1.00  0.00    -0.206 F 
ATOM     55  C   UNL A   1      46.894  26.196  33.724  1.00  0.00     0.059 A 
ATOM     56  C   UNL A   1      48.052  27.453  31.999  1.00  0.00     0.059 A 
ATOM     57  F   UNL A   1      46.895  29.082  30.776  1.00  0.00    -0.206 F 
ATOM     58  C   UNL A   1      48.054  26.485  33.001  1.00  0.00     0.060 A 
BRANCH  58  59
ATOM     59  S   UNL A   1      49.560  25.549  33.345  1.00  0.00     0.124 S 
ATOM     60  O   UNL A   1      49.014  24.298  33.857  1.00  0.00    -0.237 OA
ATOM     61  O   UNL A   1      50.191  25.481  32.032  1.00  0.00    -0.237 OA
ATOM     62  O   UNL A   1      50.253  26.384  34.323  1.00  0.00    -0.744 OA
ENDBRANCH  58  59
ENDBRANCH  26  51
BRANCH  38  63
ATOM     63  C   UNL A   1      42.826  33.907  34.458  1.00  0.00     0.058 A 
ATOM     64  C   UNL A   1      43.653  34.958  34.032  1.00  0.00     0.135 A 
ATOM     65  C   UNL A   1      42.448  33.865  35.808  1.00  0.00     0.135 A 
ATOM     66  F   UNL A   1      44.045  35.034  32.751  1.00  0.00    -0.206 F 
ATOM     67  C   UNL A   1      44.122  35.914  34.925  1.00  0.00     0.059 A 
ATOM     68  C   UNL A   1      42.887  34.824  36.712  1.00  0.00     0.059 A 
ATOM     69  F   UNL A   1      41.651  32.882  36.257  1.00  0.00    -0.206 F 
ATOM     70  C   UNL A   1      43.739  35.834  36.265  1.00  0.00     0.060 A 
BRANCH  70  71
ATOM     71  S   UNL A   1      44.357  37.076  37.417  1.00  0.00     0.124 S 
ATOM     72  O   UNL A   1      44.754  38.145  36.507  1.00  0.00    -0.237 OA
ATOM     73  O   UNL A   1      43.187  37.349  38.246  1.00  0.00    -0.237 OA
ATOM     74  O   UNL A   1      45.453  36.390  38.097  1.00  0.00    -0.744 OA
ENDBRANCH  70  71
ENDBRANCH  38  63
ENDBRANCH  12  13
ENDBRANCH   5   7
ENDBRANCH   2   3
ENDBRANCH   1   2
BRANCH   1  75
ATOM     75  C   UNL A   1      34.718  24.095  24.974  1.00  0.00     0.023 C 
BRANCH  75  76
ATOM     76  C   UNL A   1      34.771  23.957  23.455  1.00  0.00     0.116 C 
BRANCH  76  77
ATOM     77  N   UNL A   1      33.806  24.727  22.715  1.00  0.00    -0.356 N 
ATOM     78  C   UNL A   1      33.596  26.070  22.825  1.00  0.00     0.224 C 
ATOM     79  H   UNL A   1      33.246  24.238  22.069  1.00  0.00     0.163 HD
ATOM     80  O   UNL A   1      33.438  26.670  21.756  1.00  0.00    -0.275 OA
BRANCH  78  81
ATOM     81  C   UNL A   1      33.309  26.807  24.144  1.00  0.00     0.094 C 
ATOM     82  C   UNL A   1      33.719  28.247  24.582  1.00  0.00     0.002 C 
ATOM     83  C   UNL A   1      31.978  26.412  24.834  1.00  0.00     0.094 C 
ATOM     84  C   UNL A   1      32.560  29.262  24.574  1.00  0.00     0.005 C 
ATOM     85  C   UNL A   1      34.119  28.164  26.082  1.00  0.00     0.005 C 
ATOM     86  C   UNL A   1      31.693  27.403  26.005  1.00  0.00     0.002 C 
ATOM     87  C   UNL A   1      31.407  28.808  25.476  1.00  0.00     0.005 C 
ATOM     88  C   UNL A   1      32.966  27.529  26.888  1.00  0.00     0.005 C 
BRANCH  83  89
ATOM     89  C   UNL A   1      30.686  25.929  24.109  1.00  0.00     0.228 C 
ATOM     90  O   UNL A   1      29.902  26.807  23.704  1.00  0.00    -0.274 OA
ATOM     91  N   UNL A   1      30.417  24.676  23.638  1.00  0.00    -0.326 N 
ATOM     92  H   UNL A   1      29.705  24.662  22.958  1.00  0.00     0.169 HD
BRANCH  91  93
ATOM     93  C   UNL A   1      30.936  23.412  23.918  1.00  0.00     0.041 A 
ATOM     94  C   UNL A   1      31.262  22.560  22.866  1.00  0.00     0.027 A 
ATOM     95  C   UNL A   1      31.097  22.946  25.209  1.00  0.00     0.027 A 
ATOM     96  C   UNL A   1      32.077  21.446  23.113  1.00  0.00     0.016 A 
ATOM     97  C   UNL A   1      31.850  21.782  25.455  1.00  0.00     0.016 A 
ATOM     98  C   UNL A   1      32.496  21.132  24.415  1.00  0.00     0.040 A 
BRANCH  98  99
ATOM     99  C   UNL A   1      33.714  20.261  24.553  1.00  0.00     0.253 C 
ATOM    100  O   UNL A   1      34.666  20.740  25.174  1.00  0.00    -0.269 OA
ATOM    101  N   UNL A   1      33.710  18.907  24.207  1.00  0.00    -0.339 N 
ATOM    102  C   UNL A   1      32.922  18.156  23.250  1.00  0.00     0.120 C 
ATOM    103  C   UNL A   1      34.695  18.022  24.814  1.00  0.00     0.120 C 
ATOM    104  C   UNL A   1      33.077  16.698  23.642  1.00  0.00     0.023 C 
ATOM    105  C   UNL A   1      34.505  16.655  24.158  1.00  0.00     0.023 C 
ENDBRANCH  98  99
ENDBRANCH  91  93
ENDBRANCH  83  89
ENDBRANCH  78  81
ENDBRANCH  76  77
ENDBRANCH  75  76
ENDBRANCH   1  75
TORSDOF 17
ENDMDL
MODEL 3
REMARK VINA RESULT:     -12.4      2.698      9.368
REMARK SMILES O=C(NCCCCNC(=O)[C@H]1[C@H]2CC[C@H](CC2)[C@H]1C(=O)Nc1ccc(C(=O)N2CCCC2)cc1)c1ccc(-c2c3nc(c(-c4c(F)cc(S(=O)(=O)[O-])cc4F)c4ccc([nH]4)c(-c4c(F)cc(S(=O)(=O)[O-])cc4F)c4nc(c(-c5c(F)cc(S(=O)(=O)[O-])cc5F)c5ccc2[nH]5)C=C4)C=C3)cc1
REMARK SMILES IDX 5 1 4 2 3 3 1 4 2 5 35 7 36 8 100 9 37 10 99 11 38 12 39 13
REMARK SMILES IDX 40 14 93 15 41 16 98 17 92 18 94 19 42 20 97 21 91 22 90 23
REMARK SMILES IDX 43 25 77 26 56 27 76 28 57 29 60 30 75 31 95 32 58 33 59 34
REMARK SMILES IDX 74 36 96 37 61 38 44 39 45 40 54 41 46 42 47 43 53 44 55 45
REMARK SMILES IDX 48 46 49 47 50 48 51 49 52 50 78 51 79 52 88 53 80 54 81 55
REMARK SMILES IDX 87 56 89 57 82 58 83 59 84 60 85 61 86 62 62 63 63 64 72 65
REMARK SMILES IDX 64 66 65 67 71 68 73 69 66 70 67 71 68 72 69 73 70 74 6 75
REMARK SMILES IDX 7 76 8 77 9 78 10 80 11 81 12 82 18 83 17 84 13 85 15 86
REMARK SMILES IDX 16 87 14 88 19 89 20 90 21 91 22 93 23 94 34 95 24 96 33 97
REMARK SMILES IDX 25 98 26 99 27 100 28 101 29 102 32 103 30 104 31 105
REMARK H PARENT 3 6 94 24 60 35 8 79 21 92
REMARK Flexibility Score: inf
ROOT
ATOM      1  C   UNL A   1      35.047  31.942  27.851  1.00  0.00     0.023 C 
ENDROOT
BRANCH   1   2
ATOM      2  C   UNL A   1      35.938  32.170  29.075  1.00  0.00     0.116 C 
BRANCH   2   3
ATOM      3  N   UNL A   1      35.764  31.140  30.090  1.00  0.00    -0.352 N 
ATOM      4  O   UNL A   1      36.251  29.312  31.321  1.00  0.00    -0.269 OA
ATOM      5  C   UNL A   1      36.627  30.161  30.535  1.00  0.00     0.251 C 
ATOM      6  H   UNL A   1      34.883  31.143  30.531  1.00  0.00     0.163 HD
BRANCH   5   7
ATOM      7  C   UNL A   1      37.992  30.136  29.989  1.00  0.00     0.039 A 
ATOM      8  C   UNL A   1      38.175  29.962  28.620  1.00  0.00     0.014 A 
ATOM      9  C   UNL A   1      39.078  30.177  30.870  1.00  0.00     0.014 A 
ATOM     10  C   UNL A   1      39.435  29.639  28.155  1.00  0.00     0.010 A 
ATOM     11  C   UNL A   1      40.363  29.942  30.381  1.00  0.00     0.010 A 
ATOM     12  C   UNL A   1      40.539  29.619  29.029  1.00  0.00    -0.014 A 
BRANCH  12  13
ATOM     13  C   UNL A   1      41.857  29.267  28.457  1.00  0.00     0.031 A 
ATOM     14  C   UNL A   1      42.997  30.245  28.488  1.00  0.00     0.074 A 
ATOM     15  C   UNL A   1      42.031  27.993  28.056  1.00  0.00     0.049 A 
ATOM     16  N   UNL A   1      44.250  30.049  28.176  1.00  0.00    -0.248 NA
ATOM     17  C   UNL A   1      42.697  31.620  28.921  1.00  0.00     0.031 C 
ATOM     18  C   UNL A   1      40.966  26.986  27.995  1.00  0.00     0.029 A 
ATOM     19  N   UNL A   1      43.157  27.308  27.694  1.00  0.00    -0.354 N 
ATOM     20  C   UNL A   1      44.887  31.271  28.363  1.00  0.00     0.074 A 
ATOM     21  C   UNL A   1      43.877  32.212  28.794  1.00  0.00     0.031 C 
ATOM     22  C   UNL A   1      41.505  25.794  27.708  1.00  0.00     0.029 A 
ATOM     23  C   UNL A   1      42.936  25.966  27.497  1.00  0.00     0.049 A 
ATOM     24  H   UNL A   1      44.038  27.734  27.586  1.00  0.00     0.167 HD
ATOM     25  C   UNL A   1      46.198  31.568  28.192  1.00  0.00     0.037 A 
ATOM     26  C   UNL A   1      43.796  24.981  27.179  1.00  0.00     0.037 A 
ATOM     27  C   UNL A   1      47.181  30.603  27.768  1.00  0.00     0.049 A 
ATOM     28  C   UNL A   1      45.245  25.336  27.023  1.00  0.00     0.074 A 
ATOM     29  C   UNL A   1      48.530  30.792  27.525  1.00  0.00     0.029 A 
ATOM     30  N   UNL A   1      46.917  29.260  27.535  1.00  0.00    -0.354 N 
ATOM     31  N   UNL A   1      45.823  26.505  27.178  1.00  0.00    -0.248 NA
ATOM     32  C   UNL A   1      46.154  24.252  26.644  1.00  0.00     0.031 C 
ATOM     33  C   UNL A   1      49.076  29.567  27.120  1.00  0.00     0.029 A 
ATOM     34  C   UNL A   1      48.075  28.608  27.148  1.00  0.00     0.049 A 
ATOM     35  H   UNL A   1      46.035  28.833  27.632  1.00  0.00     0.167 HD
ATOM     36  C   UNL A   1      47.166  26.301  26.894  1.00  0.00     0.074 A 
ATOM     37  C   UNL A   1      47.318  24.887  26.608  1.00  0.00     0.031 C 
ATOM     38  C   UNL A   1      48.180  27.201  26.852  1.00  0.00     0.037 A 
BRANCH  25  39
ATOM     39  C   UNL A   1      46.636  32.986  28.441  1.00  0.00     0.058 A 
ATOM     40  C   UNL A   1      47.076  33.411  29.704  1.00  0.00     0.135 A 
ATOM     41  C   UNL A   1      46.647  33.925  27.396  1.00  0.00     0.135 A 
ATOM     42  F   UNL A   1      47.065  32.564  30.745  1.00  0.00    -0.206 F 
ATOM     43  C   UNL A   1      47.498  34.720  29.927  1.00  0.00     0.059 A 
ATOM     44  C   UNL A   1      47.084  35.233  27.591  1.00  0.00     0.059 A 
ATOM     45  F   UNL A   1      46.229  33.574  26.170  1.00  0.00    -0.206 F 
ATOM     46  C   UNL A   1      47.497  35.624  28.863  1.00  0.00     0.060 A 
BRANCH  46  47
ATOM     47  S   UNL A   1      48.053  37.316  29.166  1.00  0.00     0.124 S 
ATOM     48  O   UNL A   1      47.169  38.074  28.286  1.00  0.00    -0.237 OA
ATOM     49  O   UNL A   1      47.810  37.474  30.597  1.00  0.00    -0.237 OA
ATOM     50  O   UNL A   1      49.459  37.289  28.772  1.00  0.00    -0.744 OA
ENDBRANCH  46  47
ENDBRANCH  25  39
BRANCH  26  51
ATOM     51  C   UNL A   1      43.291  23.599  26.968  1.00  0.00     0.058 A 
ATOM     52  C   UNL A   1      43.044  23.094  25.684  1.00  0.00     0.135 A 
ATOM     53  C   UNL A   1      43.086  22.740  28.059  1.00  0.00     0.135 A 
ATOM     54  F   UNL A   1      43.228  23.874  24.609  1.00  0.00    -0.206 F 
ATOM     55  C   UNL A   1      42.598  21.790  25.490  1.00  0.00     0.059 A 
ATOM     56  C   UNL A   1      42.670  21.425  27.890  1.00  0.00     0.059 A 
ATOM     57  F   UNL A   1      43.330  23.168  29.309  1.00  0.00    -0.206 F 
ATOM     58  C   UNL A   1      42.415  20.962  26.600  1.00  0.00     0.060 A 
BRANCH  58  59
ATOM     59  S   UNL A   1      41.883  19.255  26.346  1.00  0.00     0.124 S 
ATOM     60  O   UNL A   1      40.513  19.443  25.884  1.00  0.00    -0.237 OA
ATOM     61  O   UNL A   1      42.835  18.778  25.348  1.00  0.00    -0.237 OA
ATOM     62  O   UNL A   1      42.028  18.662  27.672  1.00  0.00    -0.744 OA
ENDBRANCH  58  59
ENDBRANCH  26  51
BRANCH  38  63
ATOM     63  C   UNL A   1      49.526  26.663  26.469  1.00  0.00     0.058 A 
ATOM     64  C   UNL A   1      50.388  26.114  27.430  1.00  0.00     0.135 A 
ATOM     65  C   UNL A   1      49.956  26.698  25.134  1.00  0.00     0.135 A 
ATOM     66  F   UNL A   1      50.021  26.066  28.720  1.00  0.00    -0.206 F 
ATOM     67  C   UNL A   1      51.652  25.651  27.086  1.00  0.00     0.059 A 
ATOM     68  C   UNL A   1      51.207  26.219  24.765  1.00  0.00     0.059 A 
ATOM     69  F   UNL A   1      49.161  27.206  24.180  1.00  0.00    -0.206 F 
ATOM     70  C   UNL A   1      52.055  25.715  25.751  1.00  0.00     0.060 A 
BRANCH  70  71
ATOM     71  S   UNL A   1      53.700  25.118  25.314  1.00  0.00     0.124 S 
ATOM     72  O   UNL A   1      53.472  23.679  25.226  1.00  0.00    -0.237 OA
ATOM     73  O   UNL A   1      53.958  25.798  24.049  1.00  0.00    -0.237 OA
ATOM     74  O   UNL A   1      54.527  25.556  26.435  1.00  0.00    -0.744 OA
ENDBRANCH  70  71
ENDBRANCH  38  63
ENDBRANCH  12  13
ENDBRANCH   5   7
ENDBRANCH   2   3
ENDBRANCH   1   2
BRANCH   1  75
ATOM     75  C   UNL A   1      34.485  30.524  27.630  1.00  0.00     0.023 C 
BRANCH  75  76
ATOM     76  C   UNL A   1      33.280  30.419  26.700  1.00  0.00     0.116 C 
BRANCH  76  77
ATOM     77  N   UNL A   1      32.114  29.774  27.244  1.00  0.00    -0.356 N 
ATOM     78  C   UNL A   1      31.677  28.517  26.943  1.00  0.00     0.224 C 
ATOM     79  H   UNL A   1      31.582  30.289  27.893  1.00  0.00     0.163 HD
ATOM     80  O   UNL A   1      31.293  27.846  27.907  1.00  0.00    -0.275 OA
BRANCH  78  81
ATOM     81  C   UNL A   1      31.413  27.999  25.519  1.00  0.00     0.094 C 
ATOM     82  C   UNL A   1      31.057  28.794  24.227  1.00  0.00     0.002 C 
ATOM     83  C   UNL A   1      32.191  26.711  25.141  1.00  0.00     0.094 C 
ATOM     84  C   UNL A   1      32.216  28.909  23.217  1.00  0.00     0.005 C 
ATOM     85  C   UNL A   1      29.992  27.959  23.463  1.00  0.00     0.005 C 
ATOM     86  C   UNL A   1      32.031  26.446  23.611  1.00  0.00     0.002 C 
ATOM     87  C   UNL A   1      32.730  27.529  22.791  1.00  0.00     0.005 C 
ATOM     88  C   UNL A   1      30.526  26.529  23.234  1.00  0.00     0.005 C 
BRANCH  83  89
ATOM     89  C   UNL A   1      33.587  26.297  25.694  1.00  0.00     0.228 C 
ATOM     90  O   UNL A   1      34.377  27.215  25.983  1.00  0.00    -0.274 OA
ATOM     91  N   UNL A   1      33.973  25.065  26.137  1.00  0.00    -0.326 N 
ATOM     92  H   UNL A   1      34.768  25.093  26.718  1.00  0.00     0.169 HD
BRANCH  91  93
ATOM     93  C   UNL A   1      33.480  23.775  25.942  1.00  0.00     0.041 A 
ATOM     94  C   UNL A   1      32.185  23.606  25.460  1.00  0.00     0.027 A 
ATOM     95  C   UNL A   1      34.212  22.646  26.254  1.00  0.00     0.027 A 
ATOM     96  C   UNL A   1      31.799  22.356  24.953  1.00  0.00     0.016 A 
ATOM     97  C   UNL A   1      33.787  21.378  25.813  1.00  0.00     0.016 A 
ATOM     98  C   UNL A   1      32.670  21.258  25.001  1.00  0.00     0.040 A 
BRANCH  98  99
ATOM     99  C   UNL A   1      32.406  20.130  24.042  1.00  0.00     0.253 C 
ATOM    100  O   UNL A   1      32.097  20.447  22.891  1.00  0.00    -0.269 OA
ATOM    101  N   UNL A   1      32.707  18.800  24.348  1.00  0.00    -0.339 N 
ATOM    102  C   UNL A   1      32.793  18.094  25.610  1.00  0.00     0.120 C 
ATOM    103  C   UNL A   1      32.915  17.856  23.258  1.00  0.00     0.120 C 
ATOM    104  C   UNL A   1      33.564  16.819  25.319  1.00  0.00     0.023 C 
ATOM    105  C   UNL A   1      33.111  16.488  23.908  1.00  0.00     0.023 C 
ENDBRANCH  98  99
ENDBRANCH  91  93
ENDBRANCH  83  89
ENDBRANCH  78  81
ENDBRANCH  76  77
ENDBRANCH  75  76
ENDBRANCH   1  75
TORSDOF 17
ENDMDL
