MODEL 1
REMARK VINA RESULT:     -12.6      0.000      0.000
REMARK SMILES C=C(C)[C@@H]1CC=C(CN2C[C@]34C=C[C@H](O3)[C@H](C(=O)NCCCCNC(=O)c3ccc(-c5c6nc(c(-c7c(F)cc(S(=O)(=O)[O-])cc7F)c7ccc([nH]7)c(-c7c(F)cc(S(=O)(=O)[O-])cc7F)c7nc(c(-c8c(F)cc(S(=O)(=O)[O-])cc8F)c8ccc5[nH]8)C=C7)C=C6)cc3)[C@@H]4C2=O)CC1
REMARK SMILES IDX 21 1 20 2 19 3 17 4 18 5 16 7 9 8 10 9 94 10 11 11 93 12
REMARK SMILES IDX 95 13 12 14 15 15 13 16 14 17 8 18 7 19 4 20 5 21 97 22 6 23
REMARK SMILES IDX 96 24 2 25 1 26 3 27 22 28 23 29 24 30 25 31 26 33 27 34
REMARK SMILES IDX 28 35 92 36 29 37 91 38 30 39 31 40 32 41 85 42 33 43 90 44
REMARK SMILES IDX 84 45 86 46 34 47 89 48 83 49 82 50 35 52 69 53 48 54 68 55
REMARK SMILES IDX 49 56 52 57 67 58 87 59 50 60 51 61 66 63 88 64 53 65 36 66
REMARK SMILES IDX 37 67 46 68 38 69 39 70 45 71 47 72 40 73 41 74 42 75 43 76
REMARK SMILES IDX 44 77 70 78 71 79 80 80 72 81 73 82 79 83 81 84 74 85 75 86
REMARK SMILES IDX 76 87 77 88 78 89 54 90 55 91 64 92 56 93 57 94 63 95 65 96
REMARK SMILES IDX 58 97 59 98 60 99 61 100 62 101
REMARK H PARENT 19 6 24 32 86 51 52 62
REMARK Flexibility Score: inf
ROOT
ATOM      1  C   UNL A   1      34.964  29.562  27.648  1.00  0.00     0.023 C 
ENDROOT
BRANCH   1   2
ATOM      2  C   UNL A   1      33.727  28.843  27.112  1.00  0.00     0.116 C 
BRANCH   2   3
ATOM      3  N   UNL A   1      34.110  28.002  26.005  1.00  0.00    -0.356 N 
ATOM      4  C   UNL A   1      33.375  27.592  24.944  1.00  0.00     0.227 C 
ATOM      5  O   UNL A   1      33.808  26.608  24.344  1.00  0.00    -0.275 OA
ATOM      6  H   UNL A   1      35.039  27.679  26.023  1.00  0.00     0.163 HD
BRANCH   4   7
ATOM      7  C   UNL A   1      32.165  28.412  24.485  1.00  0.00     0.127 C 
ATOM      8  N   UNL A   1      30.507  25.492  25.317  1.00  0.00    -0.335 N 
ATOM      9  C   UNL A   1      30.041  25.596  23.934  1.00  0.00     0.160 C 
ATOM     10  C   UNL A   1      30.813  26.710  25.891  1.00  0.00     0.230 C 
ATOM     11  C   UNL A   1      30.515  26.979  23.522  1.00  0.00     0.117 C 
ATOM     12  C   UNL A   1      30.821  27.753  24.829  1.00  0.00     0.132 C 
ATOM     13  O   UNL A   1      31.024  26.940  27.074  1.00  0.00    -0.274 OA
ATOM     14  C   UNL A   1      29.879  27.972  22.599  1.00  0.00     0.009 C 
ATOM     15  O   UNL A   1      31.800  26.904  22.841  1.00  0.00    -0.360 OA
ATOM     16  C   UNL A   1      30.865  28.847  22.313  1.00  0.00     0.004 C 
ATOM     17  C   UNL A   1      32.131  28.310  22.948  1.00  0.00     0.155 C 
BRANCH   8  18
ATOM     18  C   UNL A   1      30.690  24.293  26.099  1.00  0.00     0.150 C 
BRANCH  18  19
ATOM     19  C   UNL A   1      31.979  23.575  25.845  1.00  0.00    -0.055 C 
ATOM     20  C   UNL A   1      34.478  22.802  24.634  1.00  0.00     0.018 C 
ATOM     21  C   UNL A   1      34.466  23.451  26.040  1.00  0.00     0.035 C 
ATOM     22  C   UNL A   1      33.308  21.796  24.573  1.00  0.00     0.013 C 
ATOM     23  C   UNL A   1      33.119  23.978  26.430  1.00  0.00    -0.025 C 
ATOM     24  C   UNL A   1      31.955  22.493  24.790  1.00  0.00     0.033 C 
BRANCH  20  25
ATOM     25  C   UNL A   1      35.843  22.231  24.233  1.00  0.00    -0.077 C 
ATOM     26  C   UNL A   1      36.329  21.080  24.733  1.00  0.00     0.008 C 
ATOM     27  C   UNL A   1      36.625  22.949  23.162  1.00  0.00     0.039 C 
ENDBRANCH  20  25
ENDBRANCH  18  19
ENDBRANCH   8  18
ENDBRANCH   4   7
ENDBRANCH   2   3
ENDBRANCH   1   2
BRANCH   1  28
ATOM     28  C   UNL A   1      34.766  31.066  27.872  1.00  0.00     0.023 C 
BRANCH  28  29
ATOM     29  C   UNL A   1      35.788  31.707  28.805  1.00  0.00     0.116 C 
BRANCH  29  30
ATOM     30  N   UNL A   1      35.671  31.212  30.169  1.00  0.00    -0.352 N 
ATOM     31  C   UNL A   1      36.549  30.464  30.912  1.00  0.00     0.251 C 
ATOM     32  H   UNL A   1      34.834  31.451  30.628  1.00  0.00     0.163 HD
ATOM     33  O   UNL A   1      36.177  29.981  31.978  1.00  0.00    -0.269 OA
BRANCH  31  34
ATOM     34  C   UNL A   1      37.924  30.222  30.426  1.00  0.00     0.039 A 
ATOM     35  C   UNL A   1      38.939  30.005  31.360  1.00  0.00     0.014 A 
ATOM     36  C   UNL A   1      38.218  30.222  29.060  1.00  0.00     0.014 A 
ATOM     37  C   UNL A   1      40.234  29.719  30.923  1.00  0.00     0.010 A 
ATOM     38  C   UNL A   1      39.493  29.867  28.624  1.00  0.00     0.010 A 
ATOM     39  C   UNL A   1      40.514  29.608  29.551  1.00  0.00    -0.014 A 
BRANCH  39  40
ATOM     40  C   UNL A   1      41.858  29.193  29.072  1.00  0.00     0.031 A 
ATOM     41  C   UNL A   1      42.972  30.198  28.962  1.00  0.00     0.074 A 
ATOM     42  C   UNL A   1      42.054  27.921  28.671  1.00  0.00     0.049 A 
ATOM     43  N   UNL A   1      44.187  30.035  28.503  1.00  0.00    -0.248 NA
ATOM     44  C   UNL A   1      42.677  31.570  29.403  1.00  0.00     0.031 C 
ATOM     45  C   UNL A   1      41.038  26.865  28.683  1.00  0.00     0.029 A 
ATOM     46  N   UNL A   1      43.168  27.301  28.164  1.00  0.00    -0.354 N 
ATOM     47  C   UNL A   1      44.797  31.281  28.590  1.00  0.00     0.074 A 
ATOM     48  C   UNL A   1      43.802  32.201  29.099  1.00  0.00     0.031 C 
ATOM     49  C   UNL A   1      41.582  25.726  28.227  1.00  0.00     0.029 A 
ATOM     50  C   UNL A   1      42.969  25.976  27.850  1.00  0.00     0.049 A 
ATOM     51  H   UNL A   1      44.030  27.761  28.037  1.00  0.00     0.167 HD
ATOM     52  C   UNL A   1      46.074  31.621  28.293  1.00  0.00     0.037 A 
ATOM     53  C   UNL A   1      43.804  25.069  27.308  1.00  0.00     0.037 A 
ATOM     54  C   UNL A   1      47.065  30.696  27.805  1.00  0.00     0.049 A 
ATOM     55  C   UNL A   1      45.215  25.474  26.977  1.00  0.00     0.074 A 
ATOM     56  C   UNL A   1      48.401  30.933  27.532  1.00  0.00     0.029 A 
ATOM     57  N   UNL A   1      46.828  29.361  27.511  1.00  0.00    -0.354 N 
ATOM     58  N   UNL A   1      45.793  26.642  27.128  1.00  0.00    -0.248 NA
ATOM     59  C   UNL A   1      46.087  24.440  26.404  1.00  0.00     0.031 C 
ATOM     60  C   UNL A   1      48.960  29.753  27.027  1.00  0.00     0.029 A 
ATOM     61  C   UNL A   1      47.987  28.768  27.036  1.00  0.00     0.049 A 
ATOM     62  H   UNL A   1      45.964  28.902  27.624  1.00  0.00     0.167 HD
ATOM     63  C   UNL A   1      47.104  26.475  26.692  1.00  0.00     0.074 A 
ATOM     64  C   UNL A   1      47.236  25.092  26.286  1.00  0.00     0.031 C 
ATOM     65  C   UNL A   1      48.106  27.387  26.636  1.00  0.00     0.037 A 
BRANCH  52  66
ATOM     66  C   UNL A   1      46.479  33.058  28.491  1.00  0.00     0.058 A 
ATOM     67  C   UNL A   1      46.350  34.007  27.465  1.00  0.00     0.135 A 
ATOM     68  C   UNL A   1      46.962  33.501  29.733  1.00  0.00     0.135 A 
ATOM     69  F   UNL A   1      45.906  33.637  26.252  1.00  0.00    -0.206 F 
ATOM     70  C   UNL A   1      46.714  35.337  27.653  1.00  0.00     0.059 A 
ATOM     71  C   UNL A   1      47.305  34.832  29.952  1.00  0.00     0.059 A 
ATOM     72  F   UNL A   1      47.104  32.635  30.750  1.00  0.00    -0.206 F 
ATOM     73  C   UNL A   1      47.191  35.740  28.900  1.00  0.00     0.060 A 
BRANCH  73  74
ATOM     74  S   UNL A   1      47.655  37.470  29.128  1.00  0.00     0.124 S 
ATOM     75  O   UNL A   1      47.414  37.649  30.557  1.00  0.00    -0.237 OA
ATOM     76  O   UNL A   1      49.055  37.475  28.716  1.00  0.00    -0.237 OA
ATOM     77  O   UNL A   1      46.742  38.186  28.244  1.00  0.00    -0.744 OA
ENDBRANCH  73  74
ENDBRANCH  52  66
BRANCH  53  78
ATOM     78  C   UNL A   1      43.331  23.681  27.061  1.00  0.00     0.058 A 
ATOM     79  C   UNL A   1      43.029  23.242  25.764  1.00  0.00     0.135 A 
ATOM     80  C   UNL A   1      43.185  22.762  28.113  1.00  0.00     0.135 A 
ATOM     81  F   UNL A   1      43.148  24.084  24.727  1.00  0.00    -0.206 F 
ATOM     82  C   UNL A   1      42.585  21.947  25.517  1.00  0.00     0.059 A 
ATOM     83  C   UNL A   1      42.767  21.454  27.888  1.00  0.00     0.059 A 
ATOM     84  F   UNL A   1      43.477  23.127  29.370  1.00  0.00    -0.206 F 
ATOM     85  C   UNL A   1      42.459  21.060  26.587  1.00  0.00     0.060 A 
BRANCH  85  86
ATOM     86  S   UNL A   1      41.928  19.367  26.249  1.00  0.00     0.124 S 
ATOM     87  O   UNL A   1      40.483  19.531  26.136  1.00  0.00    -0.237 OA
ATOM     88  O   UNL A   1      42.636  19.065  25.009  1.00  0.00    -0.237 OA
ATOM     89  O   UNL A   1      42.390  18.630  27.421  1.00  0.00    -0.744 OA
ENDBRANCH  85  86
ENDBRANCH  53  78
BRANCH  65  90
ATOM     90  C   UNL A   1      49.445  26.913  26.141  1.00  0.00     0.058 A 
ATOM     91  C   UNL A   1      49.838  27.075  24.803  1.00  0.00     0.135 A 
ATOM     92  C   UNL A   1      50.367  26.333  27.028  1.00  0.00     0.135 A 
ATOM     93  F   UNL A   1      48.992  27.617  23.911  1.00  0.00    -0.206 F 
ATOM     94  C   UNL A   1      51.087  26.658  24.357  1.00  0.00     0.059 A 
ATOM     95  C   UNL A   1      51.633  25.935  26.610  1.00  0.00     0.059 A 
ATOM     96  F   UNL A   1      50.046  26.163  28.320  1.00  0.00    -0.206 F 
ATOM     97  C   UNL A   1      51.980  26.091  25.268  1.00  0.00     0.060 A 
BRANCH  97  98
ATOM     98  S   UNL A   1      53.612  25.587  24.684  1.00  0.00     0.124 S 
ATOM     99  O   UNL A   1      54.488  26.302  25.606  1.00  0.00    -0.237 OA
ATOM    100  O   UNL A   1      53.567  24.137  24.845  1.00  0.00    -0.237 OA
ATOM    101  O   UNL A   1      53.638  26.056  23.301  1.00  0.00    -0.744 OA
ENDBRANCH  97  98
ENDBRANCH  65  90
ENDBRANCH  39  40
ENDBRANCH  31  34
ENDBRANCH  29  30
ENDBRANCH  28  29
ENDBRANCH   1  28
TORSDOF 17
ENDMDL
MODEL 2
REMARK VINA RESULT:     -12.6      6.214     11.731
REMARK SMILES C=C(C)[C@@H]1CC=C(CN2C[C@]34C=C[C@H](O3)[C@H](C(=O)NCCCCNC(=O)c3ccc(-c5c6nc(c(-c7c(F)cc(S(=O)(=O)[O-])cc7F)c7ccc([nH]7)c(-c7c(F)cc(S(=O)(=O)[O-])cc7F)c7nc(c(-c8c(F)cc(S(=O)(=O)[O-])cc8F)c8ccc5[nH]8)C=C7)C=C6)cc3)[C@@H]4C2=O)CC1
REMARK SMILES IDX 21 1 20 2 19 3 17 4 18 5 16 7 9 8 10 9 94 10 11 11 93 12
REMARK SMILES IDX 95 13 12 14 15 15 13 16 14 17 8 18 7 19 4 20 5 21 97 22 6 23
REMARK SMILES IDX 96 24 2 25 1 26 3 27 22 28 23 29 24 30 25 31 26 33 27 34
REMARK SMILES IDX 28 35 92 36 29 37 91 38 30 39 31 40 32 41 85 42 33 43 90 44
REMARK SMILES IDX 84 45 86 46 34 47 89 48 83 49 82 50 35 52 69 53 48 54 68 55
REMARK SMILES IDX 49 56 52 57 67 58 87 59 50 60 51 61 66 63 88 64 53 65 36 66
REMARK SMILES IDX 37 67 46 68 38 69 39 70 45 71 47 72 40 73 41 74 42 75 43 76
REMARK SMILES IDX 44 77 70 78 71 79 80 80 72 81 73 82 79 83 81 84 74 85 75 86
REMARK SMILES IDX 76 87 77 88 78 89 54 90 55 91 64 92 56 93 57 94 63 95 65 96
REMARK SMILES IDX 58 97 59 98 60 99 61 100 62 101
REMARK H PARENT 19 6 24 32 86 51 52 62
REMARK Flexibility Score: inf
ROOT
ATOM      1  C   UNL A   1      38.308  23.932  26.170  1.00  0.00     0.023 C 
ENDROOT
BRANCH   1   2
ATOM      2  C   UNL A   1      37.143  23.574  25.249  1.00  0.00     0.116 C 
BRANCH   2   3
ATOM      3  N   UNL A   1      35.901  23.818  25.938  1.00  0.00    -0.356 N 
ATOM      4  C   UNL A   1      34.704  23.202  25.794  1.00  0.00     0.227 C 
ATOM      5  O   UNL A   1      33.731  23.821  26.225  1.00  0.00    -0.275 OA
ATOM      6  H   UNL A   1      35.926  24.537  26.609  1.00  0.00     0.163 HD
BRANCH   4   7
ATOM      7  C   UNL A   1      34.636  21.774  25.244  1.00  0.00     0.127 C 
ATOM      8  N   UNL A   1      32.853  23.360  22.740  1.00  0.00    -0.335 N 
ATOM      9  C   UNL A   1      31.842  22.368  23.105  1.00  0.00     0.160 C 
ATOM     10  C   UNL A   1      34.147  22.948  22.990  1.00  0.00     0.230 C 
ATOM     11  C   UNL A   1      32.597  21.446  24.046  1.00  0.00     0.117 C 
ATOM     12  C   UNL A   1      34.106  21.702  23.805  1.00  0.00     0.132 C 
ATOM     13  O   UNL A   1      35.182  23.475  22.603  1.00  0.00    -0.274 OA
ATOM     14  C   UNL A   1      32.462  19.968  24.249  1.00  0.00     0.009 C 
ATOM     15  O   UNL A   1      32.385  21.836  25.433  1.00  0.00    -0.360 OA
ATOM     16  C   UNL A   1      33.090  19.730  25.419  1.00  0.00     0.004 C 
ATOM     17  C   UNL A   1      33.484  21.076  25.992  1.00  0.00     0.155 C 
BRANCH   8  18
ATOM     18  C   UNL A   1      32.641  24.677  22.189  1.00  0.00     0.150 C 
BRANCH  18  19
ATOM     19  C   UNL A   1      32.549  25.770  23.208  1.00  0.00    -0.055 C 
ATOM     20  C   UNL A   1      32.508  27.139  25.744  1.00  0.00     0.018 C 
ATOM     21  C   UNL A   1      33.654  27.408  24.737  1.00  0.00     0.035 C 
ATOM     22  C   UNL A   1      31.189  27.067  24.944  1.00  0.00     0.013 C 
ATOM     23  C   UNL A   1      33.637  26.470  23.569  1.00  0.00    -0.025 C 
ATOM     24  C   UNL A   1      31.219  25.931  23.909  1.00  0.00     0.033 C 
BRANCH  20  25
ATOM     25  C   UNL A   1      32.493  28.110  26.930  1.00  0.00    -0.077 C 
ATOM     26  C   UNL A   1      31.425  28.266  27.733  1.00  0.00     0.008 C 
ATOM     27  C   UNL A   1      33.766  28.848  27.258  1.00  0.00     0.039 C 
ENDBRANCH  20  25
ENDBRANCH  18  19
ENDBRANCH   8  18
ENDBRANCH   4   7
ENDBRANCH   2   3
ENDBRANCH   1   2
BRANCH   1  28
ATOM     28  C   UNL A   1      39.228  22.752  26.504  1.00  0.00     0.023 C 
BRANCH  28  29
ATOM     29  C   UNL A   1      40.537  23.142  27.183  1.00  0.00     0.116 C 
BRANCH  29  30
ATOM     30  N   UNL A   1      41.498  23.700  26.243  1.00  0.00    -0.352 N 
ATOM     31  C   UNL A   1      41.972  24.982  26.126  1.00  0.00     0.251 C 
ATOM     32  H   UNL A   1      41.863  23.059  25.592  1.00  0.00     0.163 HD
ATOM     33  O   UNL A   1      42.633  25.292  25.139  1.00  0.00    -0.269 OA
BRANCH  31  34
ATOM     34  C   UNL A   1      41.674  25.987  27.168  1.00  0.00     0.039 A 
ATOM     35  C   UNL A   1      40.676  25.709  28.105  1.00  0.00     0.014 A 
ATOM     36  C   UNL A   1      42.362  27.203  27.217  1.00  0.00     0.014 A 
ATOM     37  C   UNL A   1      40.417  26.619  29.132  1.00  0.00     0.010 A 
ATOM     38  C   UNL A   1      42.152  28.077  28.282  1.00  0.00     0.010 A 
ATOM     39  C   UNL A   1      41.180  27.793  29.253  1.00  0.00    -0.014 A 
BRANCH  39  40
ATOM     40  C   UNL A   1      40.993  28.715  30.403  1.00  0.00     0.031 A 
ATOM     41  C   UNL A   1      41.839  28.575  31.638  1.00  0.00     0.074 A 
ATOM     42  C   UNL A   1      40.011  29.638  30.358  1.00  0.00     0.049 A 
ATOM     43  N   UNL A   1      41.774  29.242  32.762  1.00  0.00    -0.248 NA
ATOM     44  C   UNL A   1      42.879  27.534  31.619  1.00  0.00     0.031 C 
ATOM     45  C   UNL A   1      39.093  29.840  29.235  1.00  0.00     0.029 A 
ATOM     46  N   UNL A   1      39.614  30.571  31.282  1.00  0.00    -0.354 N 
ATOM     47  C   UNL A   1      42.754  28.698  33.585  1.00  0.00     0.074 A 
ATOM     48  C   UNL A   1      43.366  27.612  32.849  1.00  0.00     0.031 C 
ATOM     49  C   UNL A   1      38.254  30.846  29.528  1.00  0.00     0.029 A 
ATOM     50  C   UNL A   1      38.544  31.334  30.873  1.00  0.00     0.049 A 
ATOM     51  H   UNL A   1      40.051  30.683  32.157  1.00  0.00     0.167 HD
ATOM     52  C   UNL A   1      43.123  29.082  34.831  1.00  0.00     0.037 A 
ATOM     53  C   UNL A   1      37.866  32.307  31.511  1.00  0.00     0.037 A 
ATOM     54  C   UNL A   1      42.523  30.177  35.550  1.00  0.00     0.049 A 
ATOM     55  C   UNL A   1      38.288  32.708  32.898  1.00  0.00     0.074 A 
ATOM     56  C   UNL A   1      42.868  30.680  36.793  1.00  0.00     0.029 A 
ATOM     57  N   UNL A   1      41.451  30.933  35.097  1.00  0.00    -0.354 N 
ATOM     58  N   UNL A   1      39.260  32.225  33.635  1.00  0.00    -0.248 NA
ATOM     59  C   UNL A   1      37.524  33.786  33.540  1.00  0.00     0.031 C 
ATOM     60  C   UNL A   1      41.974  31.709  37.112  1.00  0.00     0.029 A 
ATOM     61  C   UNL A   1      41.106  31.882  36.046  1.00  0.00     0.049 A 
ATOM     62  H   UNL A   1      41.003  30.813  34.229  1.00  0.00     0.167 HD
ATOM     63  C   UNL A   1      39.240  32.959  34.817  1.00  0.00     0.074 A 
ATOM     64  C   UNL A   1      38.170  33.926  34.690  1.00  0.00     0.031 C 
ATOM     65  C   UNL A   1      40.038  32.841  35.907  1.00  0.00     0.037 A 
BRANCH  52  66
ATOM     66  C   UNL A   1      44.233  28.315  35.499  1.00  0.00     0.058 A 
ATOM     67  C   UNL A   1      45.580  28.674  35.335  1.00  0.00     0.135 A 
ATOM     68  C   UNL A   1      43.944  27.232  36.346  1.00  0.00     0.135 A 
ATOM     69  F   UNL A   1      45.915  29.693  34.526  1.00  0.00    -0.206 F 
ATOM     70  C   UNL A   1      46.603  27.971  35.962  1.00  0.00     0.059 A 
ATOM     71  C   UNL A   1      44.950  26.532  37.006  1.00  0.00     0.059 A 
ATOM     72  F   UNL A   1      42.673  26.846  36.540  1.00  0.00    -0.206 F 
ATOM     73  C   UNL A   1      46.278  26.900  36.796  1.00  0.00     0.060 A 
BRANCH  73  74
ATOM     74  S   UNL A   1      47.618  26.000  37.604  1.00  0.00     0.124 S 
ATOM     75  O   UNL A   1      47.515  26.496  38.974  1.00  0.00    -0.237 OA
ATOM     76  O   UNL A   1      47.226  24.609  37.404  1.00  0.00    -0.237 OA
ATOM     77  O   UNL A   1      48.805  26.426  36.871  1.00  0.00    -0.744 OA
ENDBRANCH  73  74
ENDBRANCH  52  66
BRANCH  53  78
ATOM     78  C   UNL A   1      36.726  32.982  30.835  1.00  0.00     0.058 A 
ATOM     79  C   UNL A   1      35.401  32.670  31.172  1.00  0.00     0.135 A 
ATOM     80  C   UNL A   1      36.937  33.960  29.850  1.00  0.00     0.135 A 
ATOM     81  F   UNL A   1      35.148  31.737  32.103  1.00  0.00    -0.206 F 
ATOM     82  C   UNL A   1      34.324  33.291  30.548  1.00  0.00     0.059 A 
ATOM     83  C   UNL A   1      35.877  34.614  29.231  1.00  0.00     0.059 A 
ATOM     84  F   UNL A   1      38.186  34.307  29.503  1.00  0.00    -0.206 F 
ATOM     85  C   UNL A   1      34.573  34.265  29.580  1.00  0.00     0.060 A 
BRANCH  85  86
ATOM     86  S   UNL A   1      33.169  35.100  28.811  1.00  0.00     0.124 S 
ATOM     87  O   UNL A   1      32.634  34.046  27.955  1.00  0.00    -0.237 OA
ATOM     88  O   UNL A   1      32.355  35.459  29.968  1.00  0.00    -0.237 OA
ATOM     89  O   UNL A   1      33.787  36.225  28.115  1.00  0.00    -0.744 OA
ENDBRANCH  85  86
ENDBRANCH  53  78
BRANCH  65  90
ATOM     90  C   UNL A   1      39.803  33.799  37.043  1.00  0.00     0.058 A 
ATOM     91  C   UNL A   1      39.014  33.452  38.151  1.00  0.00     0.135 A 
ATOM     92  C   UNL A   1      40.415  35.063  37.046  1.00  0.00     0.135 A 
ATOM     93  F   UNL A   1      38.399  32.259  38.195  1.00  0.00    -0.206 F 
ATOM     94  C   UNL A   1      38.821  34.332  39.210  1.00  0.00     0.059 A 
ATOM     95  C   UNL A   1      40.260  35.949  38.108  1.00  0.00     0.059 A 
ATOM     96  F   UNL A   1      41.188  35.442  36.016  1.00  0.00    -0.206 F 
ATOM     97  C   UNL A   1      39.450  35.578  39.181  1.00  0.00     0.060 A 
BRANCH  97  98
ATOM     98  S   UNL A   1      39.221  36.697  40.579  1.00  0.00     0.124 S 
ATOM     99  O   UNL A   1      40.572  36.768  41.124  1.00  0.00    -0.237 OA
ATOM    100  O   UNL A   1      38.734  37.911  39.931  1.00  0.00    -0.237 OA
ATOM    101  O   UNL A   1      38.243  36.004  41.413  1.00  0.00    -0.744 OA
ENDBRANCH  97  98
ENDBRANCH  65  90
ENDBRANCH  39  40
ENDBRANCH  31  34
ENDBRANCH  29  30
ENDBRANCH  28  29
ENDBRANCH   1  28
TORSDOF 17
ENDMDL
MODEL 3
REMARK VINA RESULT:     -12.2      6.347     11.589
REMARK SMILES C=C(C)[C@@H]1CC=C(CN2C[C@]34C=C[C@H](O3)[C@H](C(=O)NCCCCNC(=O)c3ccc(-c5c6nc(c(-c7c(F)cc(S(=O)(=O)[O-])cc7F)c7ccc([nH]7)c(-c7c(F)cc(S(=O)(=O)[O-])cc7F)c7nc(c(-c8c(F)cc(S(=O)(=O)[O-])cc8F)c8ccc5[nH]8)C=C7)C=C6)cc3)[C@@H]4C2=O)CC1
REMARK SMILES IDX 21 1 20 2 19 3 17 4 18 5 16 7 9 8 10 9 94 10 11 11 93 12
REMARK SMILES IDX 95 13 12 14 15 15 13 16 14 17 8 18 7 19 4 20 5 21 97 22 6 23
REMARK SMILES IDX 96 24 2 25 1 26 3 27 22 28 23 29 24 30 25 31 26 33 27 34
REMARK SMILES IDX 28 35 92 36 29 37 91 38 30 39 31 40 32 41 85 42 33 43 90 44
REMARK SMILES IDX 84 45 86 46 34 47 89 48 83 49 82 50 35 52 69 53 48 54 68 55
REMARK SMILES IDX 49 56 52 57 67 58 87 59 50 60 51 61 66 63 88 64 53 65 36 66
REMARK SMILES IDX 37 67 46 68 38 69 39 70 45 71 47 72 40 73 41 74 42 75 43 76
REMARK SMILES IDX 44 77 70 78 71 79 80 80 72 81 73 82 79 83 81 84 74 85 75 86
REMARK SMILES IDX 76 87 77 88 78 89 54 90 55 91 64 92 56 93 57 94 63 95 65 96
REMARK SMILES IDX 58 97 59 98 60 99 61 100 62 101
REMARK H PARENT 19 6 24 32 86 51 52 62
REMARK Flexibility Score: inf
ROOT
ATOM      1  C   UNL A   1      38.458  23.297  26.188  1.00  0.00     0.023 C 
ENDROOT
BRANCH   1   2
ATOM      2  C   UNL A   1      37.416  22.410  25.509  1.00  0.00     0.116 C 
BRANCH   2   3
ATOM      3  N   UNL A   1      36.364  22.109  26.448  1.00  0.00    -0.356 N 
ATOM      4  C   UNL A   1      35.102  21.679  26.214  1.00  0.00     0.227 C 
ATOM      5  O   UNL A   1      34.304  21.843  27.137  1.00  0.00    -0.275 OA
ATOM      6  H   UNL A   1      36.597  22.236  27.395  1.00  0.00     0.163 HD
BRANCH   4   7
ATOM      7  C   UNL A   1      34.774  20.927  24.921  1.00  0.00     0.127 C 
ATOM      8  N   UNL A   1      32.796  23.716  24.394  1.00  0.00    -0.335 N 
ATOM      9  C   UNL A   1      31.750  22.703  24.256  1.00  0.00     0.160 C 
ATOM     10  C   UNL A   1      34.056  23.259  24.058  1.00  0.00     0.230 C 
ATOM     11  C   UNL A   1      32.538  21.405  24.232  1.00  0.00     0.117 C 
ATOM     12  C   UNL A   1      34.004  21.779  23.902  1.00  0.00     0.132 C 
ATOM     13  O   UNL A   1      35.066  23.929  23.885  1.00  0.00    -0.274 OA
ATOM     14  C   UNL A   1      32.264  20.133  23.489  1.00  0.00     0.009 C 
ATOM     15  O   UNL A   1      32.610  20.819  25.564  1.00  0.00    -0.360 OA
ATOM     16  C   UNL A   1      33.047  19.215  24.092  1.00  0.00     0.004 C 
ATOM     17  C   UNL A   1      33.689  19.894  25.284  1.00  0.00     0.155 C 
BRANCH   8  18
ATOM     18  C   UNL A   1      32.652  25.078  24.847  1.00  0.00     0.150 C 
BRANCH  18  19
ATOM     19  C   UNL A   1      31.567  25.849  24.163  1.00  0.00    -0.055 C 
ATOM     20  C   UNL A   1      29.805  28.006  23.420  1.00  0.00     0.018 C 
ATOM     21  C   UNL A   1      30.832  27.457  22.398  1.00  0.00     0.035 C 
ATOM     22  C   UNL A   1      29.191  26.799  24.162  1.00  0.00     0.013 C 
ATOM     23  C   UNL A   1      31.801  26.489  23.005  1.00  0.00    -0.025 C 
ATOM     24  C   UNL A   1      30.264  25.996  24.914  1.00  0.00     0.033 C 
BRANCH  20  25
ATOM     25  C   UNL A   1      28.787  28.976  22.808  1.00  0.00    -0.077 C 
ATOM     26  C   UNL A   1      29.147  30.039  22.066  1.00  0.00     0.008 C 
ATOM     27  C   UNL A   1      27.322  28.663  22.973  1.00  0.00     0.039 C 
ENDBRANCH  20  25
ENDBRANCH  18  19
ENDBRANCH   8  18
ENDBRANCH   4   7
ENDBRANCH   2   3
ENDBRANCH   1   2
BRANCH   1  28
ATOM     28  C   UNL A   1      39.681  22.537  26.713  1.00  0.00     0.023 C 
BRANCH  28  29
ATOM     29  C   UNL A   1      40.802  23.427  27.242  1.00  0.00     0.116 C 
BRANCH  29  30
ATOM     30  N   UNL A   1      41.457  24.173  26.178  1.00  0.00    -0.352 N 
ATOM     31  C   UNL A   1      41.650  25.525  26.040  1.00  0.00     0.251 C 
ATOM     32  H   UNL A   1      41.817  23.624  25.445  1.00  0.00     0.163 HD
ATOM     33  O   UNL A   1      42.055  25.970  24.970  1.00  0.00    -0.269 OA
BRANCH  31  34
ATOM     34  C   UNL A   1      41.355  26.440  27.162  1.00  0.00     0.039 A 
ATOM     35  C   UNL A   1      40.334  26.104  28.054  1.00  0.00     0.014 A 
ATOM     36  C   UNL A   1      42.069  27.630  27.332  1.00  0.00     0.014 A 
ATOM     37  C   UNL A   1      40.075  26.925  29.154  1.00  0.00     0.010 A 
ATOM     38  C   UNL A   1      41.858  28.410  28.467  1.00  0.00     0.010 A 
ATOM     39  C   UNL A   1      40.862  28.065  29.392  1.00  0.00    -0.014 A 
BRANCH  39  40
ATOM     40  C   UNL A   1      40.674  28.885  30.616  1.00  0.00     0.031 A 
ATOM     41  C   UNL A   1      39.621  29.958  30.662  1.00  0.00     0.074 A 
ATOM     42  C   UNL A   1      41.502  28.707  31.665  1.00  0.00     0.049 A 
ATOM     43  N   UNL A   1      39.358  30.815  31.615  1.00  0.00    -0.248 NA
ATOM     44  C   UNL A   1      38.767  30.104  29.472  1.00  0.00     0.031 C 
ATOM     45  C   UNL A   1      42.593  27.731  31.724  1.00  0.00     0.029 A 
ATOM     46  N   UNL A   1      41.564  29.345  32.878  1.00  0.00    -0.354 N 
ATOM     47  C   UNL A   1      38.317  31.606  31.140  1.00  0.00     0.074 A 
ATOM     48  C   UNL A   1      38.032  31.160  29.793  1.00  0.00     0.031 C 
ATOM     49  C   UNL A   1      43.201  27.822  32.917  1.00  0.00     0.029 A 
ATOM     50  C   UNL A   1      42.574  28.887  33.693  1.00  0.00     0.049 A 
ATOM     51  H   UNL A   1      40.944  30.063  33.142  1.00  0.00     0.167 HD
ATOM     52  C   UNL A   1      37.650  32.598  31.775  1.00  0.00     0.037 A 
ATOM     53  C   UNL A   1      42.960  29.287  34.920  1.00  0.00     0.037 A 
ATOM     54  C   UNL A   1      37.926  33.025  33.123  1.00  0.00     0.049 A 
ATOM     55  C   UNL A   1      42.209  30.398  35.600  1.00  0.00     0.074 A 
ATOM     56  C   UNL A   1      37.265  33.981  33.875  1.00  0.00     0.029 A 
ATOM     57  N   UNL A   1      38.949  32.529  33.919  1.00  0.00    -0.354 N 
ATOM     58  N   UNL A   1      41.185  31.091  35.160  1.00  0.00    -0.248 NA
ATOM     59  C   UNL A   1      42.663  30.782  36.944  1.00  0.00     0.031 C 
ATOM     60  C   UNL A   1      37.918  34.097  35.107  1.00  0.00     0.029 A 
ATOM     61  C   UNL A   1      38.952  33.177  35.145  1.00  0.00     0.049 A 
ATOM     62  H   UNL A   1      39.579  31.821  33.653  1.00  0.00     0.167 HD
ATOM     63  C   UNL A   1      40.857  31.975  36.183  1.00  0.00     0.074 A 
ATOM     64  C   UNL A   1      41.781  31.719  37.268  1.00  0.00     0.031 C 
ATOM     65  C   UNL A   1      39.877  32.912  36.218  1.00  0.00     0.037 A 
BRANCH  52  66
ATOM     66  C   UNL A   1      36.548  33.294  31.021  1.00  0.00     0.058 A 
ATOM     67  C   UNL A   1      36.821  34.179  29.966  1.00  0.00     0.135 A 
ATOM     68  C   UNL A   1      35.201  33.041  31.328  1.00  0.00     0.135 A 
ATOM     69  F   UNL A   1      38.091  34.468  29.638  1.00  0.00    -0.206 F 
ATOM     70  C   UNL A   1      35.801  34.811  29.263  1.00  0.00     0.059 A 
ATOM     71  C   UNL A   1      34.163  33.640  30.619  1.00  0.00     0.059 A 
ATOM     72  F   UNL A   1      34.881  32.202  32.327  1.00  0.00    -0.206 F 
ATOM     73  C   UNL A   1      34.474  34.536  29.598  1.00  0.00     0.060 A 
BRANCH  73  74
ATOM     74  S   UNL A   1      33.163  35.363  28.673  1.00  0.00     0.124 S 
ATOM     75  O   UNL A   1      32.519  34.233  28.009  1.00  0.00    -0.237 OA
ATOM     76  O   UNL A   1      32.388  36.001  29.732  1.00  0.00    -0.237 OA
ATOM     77  O   UNL A   1      33.889  36.274  27.794  1.00  0.00    -0.744 OA
ENDBRANCH  73  74
ENDBRANCH  52  66
BRANCH  53  78
ATOM     78  C   UNL A   1      44.106  28.618  35.591  1.00  0.00     0.058 A 
ATOM     79  C   UNL A   1      45.422  29.057  35.382  1.00  0.00     0.135 A 
ATOM     80  C   UNL A   1      43.910  27.536  36.465  1.00  0.00     0.135 A 
ATOM     81  F   UNL A   1      45.661  30.084  34.551  1.00  0.00    -0.206 F 
ATOM     82  C   UNL A   1      46.504  28.442  36.001  1.00  0.00     0.059 A 
ATOM     83  C   UNL A   1      44.974  26.921  37.116  1.00  0.00     0.059 A 
ATOM     84  F   UNL A   1      42.670  27.088  36.712  1.00  0.00    -0.206 F 
ATOM     85  C   UNL A   1      46.269  27.374  36.869  1.00  0.00     0.060 A 
BRANCH  85  86
ATOM     86  S   UNL A   1      47.676  26.613  37.705  1.00  0.00     0.124 S 
ATOM     87  O   UNL A   1      47.574  27.195  39.039  1.00  0.00    -0.237 OA
ATOM     88  O   UNL A   1      47.362  25.192  37.602  1.00  0.00    -0.237 OA
ATOM     89  O   UNL A   1      48.819  27.054  36.910  1.00  0.00    -0.744 OA
ENDBRANCH  85  86
ENDBRANCH  53  78
BRANCH  65  90
ATOM     90  C   UNL A   1      39.734  33.715  37.482  1.00  0.00     0.058 A 
ATOM     91  C   UNL A   1      40.488  34.878  37.707  1.00  0.00     0.135 A 
ATOM     92  C   UNL A   1      38.797  33.344  38.459  1.00  0.00     0.135 A 
ATOM     93  F   UNL A   1      41.404  35.274  36.809  1.00  0.00    -0.206 F 
ATOM     94  C   UNL A   1      40.333  35.631  38.866  1.00  0.00     0.059 A 
ATOM     95  C   UNL A   1      38.604  34.098  39.613  1.00  0.00     0.059 A 
ATOM     96  F   UNL A   1      38.043  32.246  38.290  1.00  0.00    -0.206 F 
ATOM     97  C   UNL A   1      39.386  35.235  39.813  1.00  0.00     0.060 A 
BRANCH  97  98
ATOM     98  S   UNL A   1      39.170  36.241  41.296  1.00  0.00     0.124 S 
ATOM     99  O   UNL A   1      38.062  35.558  41.955  1.00  0.00    -0.237 OA
ATOM    100  O   UNL A   1      40.469  36.118  41.949  1.00  0.00    -0.237 OA
ATOM    101  O   UNL A   1      38.864  37.567  40.766  1.00  0.00    -0.744 OA
ENDBRANCH  97  98
ENDBRANCH  65  90
ENDBRANCH  39  40
ENDBRANCH  31  34
ENDBRANCH  29  30
ENDBRANCH  28  29
ENDBRANCH   1  28
TORSDOF 17
ENDMDL
