MODEL 1
REMARK VINA RESULT:     -11.0      0.000      0.000
REMARK SMILES O=C(NCCCCNC(=O)[C@@H](NC(=O)c1ccncc1Cl)C1CC1)c1ccc(-c2c3nc(c(-c4c(F)cc(S(=O)(=O)[O-])cc4F)c4ccc([nH]4)c(-c4c(F)cc(S(=O)(=O)[O-])cc4F)c4nc(c(-c5c(F)cc(S(=O)(=O)[O-])cc5F)c5ccc2[nH]5)C=C4)C=C3)cc1
REMARK SMILES IDX 5 1 4 2 3 3 1 4 2 5 25 7 26 8 90 9 27 10 89 11 28 12 29 13
REMARK SMILES IDX 30 14 83 15 31 16 88 17 82 18 84 19 32 20 87 21 81 22 80 23
REMARK SMILES IDX 33 25 67 26 46 27 66 28 47 29 50 30 65 31 85 32 48 33 49 34
REMARK SMILES IDX 64 36 86 37 51 38 34 39 35 40 44 41 36 42 37 43 43 44 45 45
REMARK SMILES IDX 38 46 39 47 40 48 41 49 42 50 68 51 69 52 78 53 70 54 71 55
REMARK SMILES IDX 77 56 79 57 72 58 73 59 74 60 75 61 76 62 52 63 53 64 62 65
REMARK SMILES IDX 54 66 55 67 61 68 63 69 56 70 57 71 58 72 59 73 60 74 6 75
REMARK SMILES IDX 7 76 8 77 9 78 10 80 11 81 12 82 13 83 14 85 15 86 16 87
REMARK SMILES IDX 20 88 17 89 19 90 21 91 18 92 22 93 23 94 24 95
REMARK H PARENT 3 6 84 24 50 35 8 79 12 84
REMARK Flexibility Score: inf
ROOT
ATOM      1  C   UNL A   1      38.010  19.957  24.894  1.00  0.00     0.023 C 
ENDROOT
BRANCH   1   2
ATOM      2  C   UNL A   1      39.099  20.259  25.916  1.00  0.00     0.116 C 
BRANCH   2   3
ATOM      3  N   UNL A   1      40.161  19.264  25.936  1.00  0.00    -0.352 N 
ATOM      4  O   UNL A   1      42.310  18.557  26.009  1.00  0.00    -0.269 OA
ATOM      5  C   UNL A   1      41.507  19.475  26.132  1.00  0.00     0.251 C 
ATOM      6  H   UNL A   1      39.885  18.329  25.795  1.00  0.00     0.163 HD
BRANCH   5   7
ATOM      7  C   UNL A   1      41.960  20.843  26.460  1.00  0.00     0.039 A 
ATOM      8  C   UNL A   1      42.197  21.757  25.433  1.00  0.00     0.014 A 
ATOM      9  C   UNL A   1      42.222  21.182  27.790  1.00  0.00     0.014 A 
ATOM     10  C   UNL A   1      42.828  22.958  25.720  1.00  0.00     0.010 A 
ATOM     11  C   UNL A   1      42.777  22.430  28.085  1.00  0.00     0.010 A 
ATOM     12  C   UNL A   1      43.111  23.315  27.049  1.00  0.00    -0.014 A 
BRANCH  12  13
ATOM     13  C   UNL A   1      43.682  24.660  27.317  1.00  0.00     0.031 A 
ATOM     14  C   UNL A   1      45.129  24.969  27.050  1.00  0.00     0.074 A 
ATOM     15  C   UNL A   1      42.845  25.622  27.751  1.00  0.00     0.049 A 
ATOM     16  N   UNL A   1      45.761  26.107  27.189  1.00  0.00    -0.248 NA
ATOM     17  C   UNL A   1      45.980  23.867  26.576  1.00  0.00     0.031 C 
ATOM     18  C   UNL A   1      41.425  25.424  28.060  1.00  0.00     0.029 A 
ATOM     19  N   UNL A   1      43.049  26.957  27.980  1.00  0.00    -0.354 N 
ATOM     20  C   UNL A   1      47.082  25.859  26.836  1.00  0.00     0.074 A 
ATOM     21  C   UNL A   1      47.168  24.455  26.494  1.00  0.00     0.031 C 
ATOM     22  C   UNL A   1      40.873  26.602  28.379  1.00  0.00     0.029 A 
ATOM     23  C   UNL A   1      41.910  27.627  28.361  1.00  0.00     0.049 A 
ATOM     24  H   UNL A   1      43.925  27.395  27.880  1.00  0.00     0.167 HD
ATOM     25  C   UNL A   1      48.122  26.727  26.797  1.00  0.00     0.037 A 
ATOM     26  C   UNL A   1      41.721  28.921  28.676  1.00  0.00     0.037 A 
ATOM     27  C   UNL A   1      48.019  28.128  27.124  1.00  0.00     0.049 A 
ATOM     28  C   UNL A   1      42.890  29.857  28.615  1.00  0.00     0.074 A 
ATOM     29  C   UNL A   1      49.012  29.094  27.102  1.00  0.00     0.029 A 
ATOM     30  N   UNL A   1      46.855  28.766  27.529  1.00  0.00    -0.354 N 
ATOM     31  N   UNL A   1      44.129  29.603  28.272  1.00  0.00    -0.248 NA
ATOM     32  C   UNL A   1      42.638  31.254  28.991  1.00  0.00     0.031 C 
ATOM     33  C   UNL A   1      48.455  30.308  27.521  1.00  0.00     0.029 A 
ATOM     34  C   UNL A   1      47.107  30.108  27.769  1.00  0.00     0.049 A 
ATOM     35  H   UNL A   1      45.978  28.329  27.630  1.00  0.00     0.167 HD
ATOM     36  C   UNL A   1      44.809  30.808  28.393  1.00  0.00     0.074 A 
ATOM     37  C   UNL A   1      43.833  31.797  28.806  1.00  0.00     0.031 C 
ATOM     38  C   UNL A   1      46.123  31.071  28.192  1.00  0.00     0.037 A 
BRANCH  25  39
ATOM     39  C   UNL A   1      49.470  26.198  26.389  1.00  0.00     0.058 A 
ATOM     40  C   UNL A   1      49.964  26.370  25.087  1.00  0.00     0.135 A 
ATOM     41  C   UNL A   1      50.309  25.583  27.332  1.00  0.00     0.135 A 
ATOM     42  F   UNL A   1      49.198  26.939  24.143  1.00  0.00    -0.206 F 
ATOM     43  C   UNL A   1      51.241  25.945  24.732  1.00  0.00     0.059 A 
ATOM     44  C   UNL A   1      51.598  25.167  27.003  1.00  0.00     0.059 A 
ATOM     45  F   UNL A   1      49.886  25.392  28.591  1.00  0.00    -0.206 F 
ATOM     46  C   UNL A   1      52.051  25.346  25.698  1.00  0.00     0.060 A 
BRANCH  46  47
ATOM     47  S   UNL A   1      53.718  24.828  25.229  1.00  0.00     0.124 S 
ATOM     48  O   UNL A   1      53.912  25.573  23.988  1.00  0.00    -0.237 OA
ATOM     49  O   UNL A   1      54.516  25.273  26.366  1.00  0.00    -0.237 OA
ATOM     50  O   UNL A   1      53.595  23.382  25.080  1.00  0.00    -0.744 OA
ENDBRANCH  46  47
ENDBRANCH  25  39
BRANCH  26  51
ATOM     51  C   UNL A   1      40.376  29.389  29.096  1.00  0.00     0.058 A 
ATOM     52  C   UNL A   1      39.367  29.637  28.156  1.00  0.00     0.135 A 
ATOM     53  C   UNL A   1      40.071  29.578  30.453  1.00  0.00     0.135 A 
ATOM     54  F   UNL A   1      39.613  29.470  26.847  1.00  0.00    -0.206 F 
ATOM     55  C   UNL A   1      38.104  30.074  28.543  1.00  0.00     0.059 A 
ATOM     56  C   UNL A   1      38.809  29.986  30.867  1.00  0.00     0.059 A 
ATOM     57  F   UNL A   1      40.997  29.332  31.393  1.00  0.00    -0.206 F 
ATOM     58  C   UNL A   1      37.836  30.247  29.902  1.00  0.00     0.060 A 
BRANCH  58  59
ATOM     59  S   UNL A   1      36.185  30.773  30.408  1.00  0.00     0.124 S 
ATOM     60  O   UNL A   1      35.388  30.384  29.251  1.00  0.00    -0.237 OA
ATOM     61  O   UNL A   1      35.970  29.995  31.624  1.00  0.00    -0.237 OA
ATOM     62  O   UNL A   1      36.343  32.209  30.615  1.00  0.00    -0.744 OA
ENDBRANCH  58  59
ENDBRANCH  26  51
BRANCH  38  63
ATOM     63  C   UNL A   1      46.567  32.487  28.419  1.00  0.00     0.058 A 
ATOM     64  C   UNL A   1      47.055  32.908  29.666  1.00  0.00     0.135 A 
ATOM     65  C   UNL A   1      46.503  33.430  27.382  1.00  0.00     0.135 A 
ATOM     66  F   UNL A   1      47.126  32.044  30.690  1.00  0.00    -0.206 F 
ATOM     67  C   UNL A   1      47.432  34.228  29.888  1.00  0.00     0.059 A 
ATOM     68  C   UNL A   1      46.897  34.751  27.575  1.00  0.00     0.059 A 
ATOM     69  F   UNL A   1      46.051  33.073  26.169  1.00  0.00    -0.206 F 
ATOM     70  C   UNL A   1      47.342  35.143  28.838  1.00  0.00     0.060 A 
BRANCH  70  71
ATOM     71  S   UNL A   1      47.830  36.855  29.136  1.00  0.00     0.124 S 
ATOM     72  O   UNL A   1      46.628  37.398  29.757  1.00  0.00    -0.237 OA
ATOM     73  O   UNL A   1      48.986  36.706  30.014  1.00  0.00    -0.237 OA
ATOM     74  O   UNL A   1      48.129  37.358  27.797  1.00  0.00    -0.744 OA
ENDBRANCH  70  71
ENDBRANCH  38  63
ENDBRANCH  12  13
ENDBRANCH   5   7
ENDBRANCH   2   3
ENDBRANCH   1   2
BRANCH   1  75
ATOM     75  C   UNL A   1      37.015  21.095  24.670  1.00  0.00     0.023 C 
BRANCH  75  76
ATOM     76  C   UNL A   1      35.600  20.774  25.137  1.00  0.00     0.116 C 
BRANCH  76  77
ATOM     77  N   UNL A   1      35.343  21.284  26.471  1.00  0.00    -0.354 N 
ATOM     78  C   UNL A   1      34.496  22.293  26.852  1.00  0.00     0.242 C 
ATOM     79  H   UNL A   1      35.844  20.849  27.199  1.00  0.00     0.163 HD
ATOM     80  O   UNL A   1      34.337  22.510  28.055  1.00  0.00    -0.273 OA
BRANCH  78  81
ATOM     81  C   UNL A   1      33.673  23.065  25.767  1.00  0.00     0.174 C 
BRANCH  81  82
ATOM     82  N   UNL A   1      32.382  23.356  26.428  1.00  0.00    -0.340 N 
ATOM     83  C   UNL A   1      31.248  24.092  26.355  1.00  0.00     0.253 C 
ATOM     84  H   UNL A   1      32.326  22.797  27.237  1.00  0.00     0.164 HD
ATOM     85  O   UNL A   1      30.353  23.879  27.174  1.00  0.00    -0.269 OA
BRANCH  83  86
ATOM     86  C   UNL A   1      31.050  25.216  25.454  1.00  0.00     0.061 A 
ATOM     87  C   UNL A   1      30.925  26.483  26.039  1.00  0.00     0.035 A 
ATOM     88  C   UNL A   1      30.810  25.042  24.100  1.00  0.00     0.072 A 
ATOM     89  C   UNL A   1      30.688  27.560  25.208  1.00  0.00     0.112 A 
ATOM     90  C   UNL A   1      30.591  26.188  23.352  1.00  0.00     0.132 A 
ATOM     91  Cl  UNL A   1      30.751  23.499  23.339  1.00  0.00    -0.082 Cl
ATOM     92  N   UNL A   1      30.544  27.442  23.872  1.00  0.00    -0.263 NA
ENDBRANCH  83  86
ENDBRANCH  81  82
BRANCH  81  93
ATOM     93  C   UNL A   1      34.607  24.044  25.109  1.00  0.00     0.021 C 
ATOM     94  C   UNL A   1      34.500  24.449  23.664  1.00  0.00     0.006 C 
ATOM     95  C   UNL A   1      34.399  25.489  24.747  1.00  0.00     0.006 C 
ENDBRANCH  81  93
ENDBRANCH  78  81
ENDBRANCH  76  77
ENDBRANCH  75  76
ENDBRANCH   1  75
TORSDOF 17
ENDMDL
MODEL 2
REMARK VINA RESULT:     -10.9      1.193      2.101
REMARK SMILES O=C(NCCCCNC(=O)[C@@H](NC(=O)c1ccncc1Cl)C1CC1)c1ccc(-c2c3nc(c(-c4c(F)cc(S(=O)(=O)[O-])cc4F)c4ccc([nH]4)c(-c4c(F)cc(S(=O)(=O)[O-])cc4F)c4nc(c(-c5c(F)cc(S(=O)(=O)[O-])cc5F)c5ccc2[nH]5)C=C4)C=C3)cc1
REMARK SMILES IDX 5 1 4 2 3 3 1 4 2 5 25 7 26 8 90 9 27 10 89 11 28 12 29 13
REMARK SMILES IDX 30 14 83 15 31 16 88 17 82 18 84 19 32 20 87 21 81 22 80 23
REMARK SMILES IDX 33 25 67 26 46 27 66 28 47 29 50 30 65 31 85 32 48 33 49 34
REMARK SMILES IDX 64 36 86 37 51 38 34 39 35 40 44 41 36 42 37 43 43 44 45 45
REMARK SMILES IDX 38 46 39 47 40 48 41 49 42 50 68 51 69 52 78 53 70 54 71 55
REMARK SMILES IDX 77 56 79 57 72 58 73 59 74 60 75 61 76 62 52 63 53 64 62 65
REMARK SMILES IDX 54 66 55 67 61 68 63 69 56 70 57 71 58 72 59 73 60 74 6 75
REMARK SMILES IDX 7 76 8 77 9 78 10 80 11 81 12 82 13 83 14 85 15 86 16 87
REMARK SMILES IDX 20 88 17 89 19 90 21 91 18 92 22 93 23 94 24 95
REMARK H PARENT 3 6 84 24 50 35 8 79 12 84
REMARK Flexibility Score: inf
ROOT
ATOM      1  C   UNL A   1      38.294  20.012  24.981  1.00  0.00     0.023 C 
ENDROOT
BRANCH   1   2
ATOM      2  C   UNL A   1      39.403  20.412  25.946  1.00  0.00     0.116 C 
BRANCH   2   3
ATOM      3  N   UNL A   1      40.456  19.412  26.061  1.00  0.00    -0.352 N 
ATOM      4  O   UNL A   1      42.592  18.697  26.279  1.00  0.00    -0.269 OA
ATOM      5  C   UNL A   1      41.790  19.624  26.323  1.00  0.00     0.251 C 
ATOM      6  H   UNL A   1      40.181  18.475  25.937  1.00  0.00     0.163 HD
BRANCH   5   7
ATOM      7  C   UNL A   1      42.234  20.999  26.628  1.00  0.00     0.039 A 
ATOM      8  C   UNL A   1      42.435  21.907  25.587  1.00  0.00     0.014 A 
ATOM      9  C   UNL A   1      42.524  21.354  27.948  1.00  0.00     0.014 A 
ATOM     10  C   UNL A   1      43.058  23.118  25.847  1.00  0.00     0.010 A 
ATOM     11  C   UNL A   1      43.071  22.612  28.218  1.00  0.00     0.010 A 
ATOM     12  C   UNL A   1      43.369  23.491  27.166  1.00  0.00    -0.014 A 
BRANCH  12  13
ATOM     13  C   UNL A   1      43.929  24.845  27.407  1.00  0.00     0.031 A 
ATOM     14  C   UNL A   1      45.360  25.175  27.084  1.00  0.00     0.074 A 
ATOM     15  C   UNL A   1      43.096  25.796  27.872  1.00  0.00     0.049 A 
ATOM     16  N   UNL A   1      45.980  26.322  27.194  1.00  0.00    -0.248 NA
ATOM     17  C   UNL A   1      46.209  24.084  26.579  1.00  0.00     0.031 C 
ATOM     18  C   UNL A   1      41.692  25.578  28.237  1.00  0.00     0.029 A 
ATOM     19  N   UNL A   1      43.288  27.135  28.089  1.00  0.00    -0.354 N 
ATOM     20  C   UNL A   1      47.290  26.093  26.790  1.00  0.00     0.074 A 
ATOM     21  C   UNL A   1      47.383  24.689  26.449  1.00  0.00     0.031 C 
ATOM     22  C   UNL A   1      41.136  26.749  28.574  1.00  0.00     0.029 A 
ATOM     23  C   UNL A   1      42.156  27.789  28.512  1.00  0.00     0.049 A 
ATOM     24  H   UNL A   1      44.153  27.586  27.953  1.00  0.00     0.167 HD
ATOM     25  C   UNL A   1      48.314  26.977  26.708  1.00  0.00     0.037 A 
ATOM     26  C   UNL A   1      41.960  29.081  28.831  1.00  0.00     0.037 A 
ATOM     27  C   UNL A   1      48.203  28.377  27.035  1.00  0.00     0.049 A 
ATOM     28  C   UNL A   1      43.111  30.034  28.722  1.00  0.00     0.074 A 
ATOM     29  C   UNL A   1      49.180  29.357  26.971  1.00  0.00     0.029 A 
ATOM     30  N   UNL A   1      47.046  28.999  27.484  1.00  0.00    -0.354 N 
ATOM     31  N   UNL A   1      44.339  29.797  28.331  1.00  0.00    -0.248 NA
ATOM     32  C   UNL A   1      42.853  31.429  29.103  1.00  0.00     0.031 C 
ATOM     33  C   UNL A   1      48.622  30.564  27.409  1.00  0.00     0.029 A 
ATOM     34  C   UNL A   1      47.287  30.345  27.710  1.00  0.00     0.049 A 
ATOM     35  H   UNL A   1      46.181  28.549  27.620  1.00  0.00     0.167 HD
ATOM     36  C   UNL A   1      45.005  31.013  28.421  1.00  0.00     0.074 A 
ATOM     37  C   UNL A   1      44.032  31.989  28.870  1.00  0.00     0.031 C 
ATOM     38  C   UNL A   1      46.307  31.295  28.168  1.00  0.00     0.037 A 
BRANCH  25  39
ATOM     39  C   UNL A   1      49.653  26.466  26.249  1.00  0.00     0.058 A 
ATOM     40  C   UNL A   1      50.116  26.689  24.943  1.00  0.00     0.135 A 
ATOM     41  C   UNL A   1      50.515  25.818  27.148  1.00  0.00     0.135 A 
ATOM     42  F   UNL A   1      49.327  27.290  24.039  1.00  0.00    -0.206 F 
ATOM     43  C   UNL A   1      51.384  26.279  24.542  1.00  0.00     0.059 A 
ATOM     44  C   UNL A   1      51.796  25.417  26.774  1.00  0.00     0.059 A 
ATOM     45  F   UNL A   1      50.121  25.579  28.409  1.00  0.00    -0.206 F 
ATOM     46  C   UNL A   1      52.219  25.647  25.466  1.00  0.00     0.060 A 
BRANCH  46  47
ATOM     47  S   UNL A   1      53.874  25.151  24.938  1.00  0.00     0.124 S 
ATOM     48  O   UNL A   1      53.978  25.821  23.645  1.00  0.00    -0.237 OA
ATOM     49  O   UNL A   1      54.716  25.691  26.000  1.00  0.00    -0.237 OA
ATOM     50  O   UNL A   1      53.793  23.695  24.886  1.00  0.00    -0.744 OA
ENDBRANCH  46  47
ENDBRANCH  25  39
BRANCH  26  51
ATOM     51  C   UNL A   1      40.625  29.530  29.303  1.00  0.00     0.058 A 
ATOM     52  C   UNL A   1      39.564  29.718  28.407  1.00  0.00     0.135 A 
ATOM     53  C   UNL A   1      40.384  29.761  30.665  1.00  0.00     0.135 A 
ATOM     54  F   UNL A   1      39.748  29.508  27.094  1.00  0.00    -0.206 F 
ATOM     55  C   UNL A   1      38.311  30.137  28.842  1.00  0.00     0.059 A 
ATOM     56  C   UNL A   1      39.134  30.154  31.129  1.00  0.00     0.059 A 
ATOM     57  F   UNL A   1      41.362  29.574  31.565  1.00  0.00    -0.206 F 
ATOM     58  C   UNL A   1      38.107  30.353  30.206  1.00  0.00     0.060 A 
BRANCH  58  59
ATOM     59  S   UNL A   1      36.470  30.857  30.777  1.00  0.00     0.124 S 
ATOM     60  O   UNL A   1      35.721  30.881  29.526  1.00  0.00    -0.237 OA
ATOM     61  O   UNL A   1      36.123  29.788  31.709  1.00  0.00    -0.237 OA
ATOM     62  O   UNL A   1      36.718  32.156  31.392  1.00  0.00    -0.744 OA
ENDBRANCH  58  59
ENDBRANCH  26  51
BRANCH  38  63
ATOM     63  C   UNL A   1      46.738  32.718  28.373  1.00  0.00     0.058 A 
ATOM     64  C   UNL A   1      47.247  33.156  29.606  1.00  0.00     0.135 A 
ATOM     65  C   UNL A   1      46.640  33.651  27.331  1.00  0.00     0.135 A 
ATOM     66  F   UNL A   1      47.351  32.301  30.636  1.00  0.00    -0.206 F 
ATOM     67  C   UNL A   1      47.612  34.482  29.809  1.00  0.00     0.059 A 
ATOM     68  C   UNL A   1      47.021  34.978  27.504  1.00  0.00     0.059 A 
ATOM     69  F   UNL A   1      46.166  33.278  26.131  1.00  0.00    -0.206 F 
ATOM     70  C   UNL A   1      47.489  35.387  28.753  1.00  0.00     0.060 A 
BRANCH  70  71
ATOM     71  S   UNL A   1      47.962  37.107  29.026  1.00  0.00     0.124 S 
ATOM     72  O   UNL A   1      47.700  37.260  30.453  1.00  0.00    -0.237 OA
ATOM     73  O   UNL A   1      49.368  37.115  28.634  1.00  0.00    -0.237 OA
ATOM     74  O   UNL A   1      47.067  37.847  28.140  1.00  0.00    -0.744 OA
ENDBRANCH  70  71
ENDBRANCH  38  63
ENDBRANCH  12  13
ENDBRANCH   5   7
ENDBRANCH   2   3
ENDBRANCH   1   2
BRANCH   1  75
ATOM     75  C   UNL A   1      37.250  21.097  24.728  1.00  0.00     0.023 C 
BRANCH  75  76
ATOM     76  C   UNL A   1      35.855  20.735  25.226  1.00  0.00     0.116 C 
BRANCH  76  77
ATOM     77  N   UNL A   1      35.531  21.417  26.465  1.00  0.00    -0.354 N 
ATOM     78  C   UNL A   1      34.698  22.489  26.658  1.00  0.00     0.242 C 
ATOM     79  H   UNL A   1      35.967  21.064  27.275  1.00  0.00     0.163 HD
ATOM     80  O   UNL A   1      34.469  22.860  27.811  1.00  0.00    -0.273 OA
BRANCH  78  81
ATOM     81  C   UNL A   1      33.975  23.139  25.432  1.00  0.00     0.174 C 
BRANCH  81  82
ATOM     82  N   UNL A   1      32.577  22.670  25.542  1.00  0.00    -0.340 N 
ATOM     83  C   UNL A   1      31.765  21.591  25.441  1.00  0.00     0.253 C 
ATOM     84  H   UNL A   1      32.019  23.445  25.782  1.00  0.00     0.164 HD
ATOM     85  O   UNL A   1      30.580  21.713  25.753  1.00  0.00    -0.269 OA
BRANCH  83  86
ATOM     86  C   UNL A   1      32.156  20.315  24.865  1.00  0.00     0.061 A 
ATOM     87  C   UNL A   1      32.604  19.329  25.754  1.00  0.00     0.035 A 
ATOM     88  C   UNL A   1      32.265  20.126  23.496  1.00  0.00     0.072 A 
ATOM     89  C   UNL A   1      33.028  18.125  25.227  1.00  0.00     0.112 A 
ATOM     90  C   UNL A   1      32.693  18.879  23.070  1.00  0.00     0.132 A 
ATOM     91  Cl  UNL A   1      31.923  21.355  22.341  1.00  0.00    -0.082 Cl
ATOM     92  N   UNL A   1      33.057  17.870  23.902  1.00  0.00    -0.263 NA
ENDBRANCH  83  86
ENDBRANCH  81  82
BRANCH  81  93
ATOM     93  C   UNL A   1      34.460  24.561  25.329  1.00  0.00     0.021 C 
ATOM     94  C   UNL A   1      34.239  25.426  24.118  1.00  0.00     0.006 C 
ATOM     95  C   UNL A   1      33.703  25.854  25.458  1.00  0.00     0.006 C 
ENDBRANCH  81  93
ENDBRANCH  78  81
ENDBRANCH  76  77
ENDBRANCH  75  76
ENDBRANCH   1  75
TORSDOF 17
ENDMDL
MODEL 3
REMARK VINA RESULT:     -10.9      6.340      8.648
REMARK SMILES O=C(NCCCCNC(=O)[C@@H](NC(=O)c1ccncc1Cl)C1CC1)c1ccc(-c2c3nc(c(-c4c(F)cc(S(=O)(=O)[O-])cc4F)c4ccc([nH]4)c(-c4c(F)cc(S(=O)(=O)[O-])cc4F)c4nc(c(-c5c(F)cc(S(=O)(=O)[O-])cc5F)c5ccc2[nH]5)C=C4)C=C3)cc1
REMARK SMILES IDX 5 1 4 2 3 3 1 4 2 5 25 7 26 8 90 9 27 10 89 11 28 12 29 13
REMARK SMILES IDX 30 14 83 15 31 16 88 17 82 18 84 19 32 20 87 21 81 22 80 23
REMARK SMILES IDX 33 25 67 26 46 27 66 28 47 29 50 30 65 31 85 32 48 33 49 34
REMARK SMILES IDX 64 36 86 37 51 38 34 39 35 40 44 41 36 42 37 43 43 44 45 45
REMARK SMILES IDX 38 46 39 47 40 48 41 49 42 50 68 51 69 52 78 53 70 54 71 55
REMARK SMILES IDX 77 56 79 57 72 58 73 59 74 60 75 61 76 62 52 63 53 64 62 65
REMARK SMILES IDX 54 66 55 67 61 68 63 69 56 70 57 71 58 72 59 73 60 74 6 75
REMARK SMILES IDX 7 76 8 77 9 78 10 80 11 81 12 82 13 83 14 85 15 86 16 87
REMARK SMILES IDX 20 88 17 89 19 90 21 91 18 92 22 93 23 94 24 95
REMARK H PARENT 3 6 84 24 50 35 8 79 12 84
REMARK Flexibility Score: inf
ROOT
ATOM      1  C   UNL A   1      37.602  23.789  26.153  1.00  0.00     0.023 C 
ENDROOT
BRANCH   1   2
ATOM      2  C   UNL A   1      38.919  24.072  26.864  1.00  0.00     0.116 C 
BRANCH   2   3
ATOM      3  N   UNL A   1      40.004  24.413  25.954  1.00  0.00    -0.352 N 
ATOM      4  O   UNL A   1      41.704  25.686  25.174  1.00  0.00    -0.269 OA
ATOM      5  C   UNL A   1      40.911  25.441  26.075  1.00  0.00     0.251 C 
ATOM      6  H   UNL A   1      40.100  23.842  25.157  1.00  0.00     0.163 HD
BRANCH   5   7
ATOM      7  C   UNL A   1      40.882  26.257  27.306  1.00  0.00     0.039 A 
ATOM      8  C   UNL A   1      39.952  25.967  28.305  1.00  0.00     0.014 A 
ATOM      9  C   UNL A   1      41.734  27.358  27.424  1.00  0.00     0.014 A 
ATOM     10  C   UNL A   1      39.775  26.859  29.352  1.00  0.00     0.010 A 
ATOM     11  C   UNL A   1      41.613  28.208  28.527  1.00  0.00     0.010 A 
ATOM     12  C   UNL A   1      40.612  27.980  29.485  1.00  0.00    -0.014 A 
BRANCH  12  13
ATOM     13  C   UNL A   1      40.461  28.842  30.684  1.00  0.00     0.031 A 
ATOM     14  C   UNL A   1      41.379  28.714  31.868  1.00  0.00     0.074 A 
ATOM     15  C   UNL A   1      39.506  29.793  30.658  1.00  0.00     0.049 A 
ATOM     16  N   UNL A   1      41.402  29.426  32.966  1.00  0.00    -0.248 NA
ATOM     17  C   UNL A   1      42.398  27.653  31.822  1.00  0.00     0.031 C 
ATOM     18  C   UNL A   1      38.547  29.990  29.566  1.00  0.00     0.029 A 
ATOM     19  N   UNL A   1      39.200  30.786  31.550  1.00  0.00    -0.354 N 
ATOM     20  C   UNL A   1      42.420  28.894  33.748  1.00  0.00     0.074 A 
ATOM     21  C   UNL A   1      42.982  27.785  33.007  1.00  0.00     0.031 C 
ATOM     22  C   UNL A   1      37.801  31.072  29.824  1.00  0.00     0.029 A 
ATOM     23  C   UNL A   1      38.183  31.608  31.125  1.00  0.00     0.049 A 
ATOM     24  H   UNL A   1      39.663  30.901  32.411  1.00  0.00     0.167 HD
ATOM     25  C   UNL A   1      42.846  29.302  34.969  1.00  0.00     0.037 A 
ATOM     26  C   UNL A   1      37.608  32.667  31.721  1.00  0.00     0.037 A 
ATOM     27  C   UNL A   1      42.289  30.420  35.689  1.00  0.00     0.049 A 
ATOM     28  C   UNL A   1      38.108  33.098  33.068  1.00  0.00     0.074 A 
ATOM     29  C   UNL A   1      42.660  30.920  36.926  1.00  0.00     0.029 A 
ATOM     30  N   UNL A   1      41.243  31.214  35.238  1.00  0.00    -0.354 N 
ATOM     31  N   UNL A   1      39.077  32.585  33.786  1.00  0.00    -0.248 NA
ATOM     32  C   UNL A   1      37.433  34.245  33.687  1.00  0.00     0.031 C 
ATOM     33  C   UNL A   1      41.821  31.997  37.235  1.00  0.00     0.029 A 
ATOM     34  C   UNL A   1      40.951  32.193  36.175  1.00  0.00     0.049 A 
ATOM     35  H   UNL A   1      40.779  31.099  34.378  1.00  0.00     0.167 HD
ATOM     36  C   UNL A   1      39.127  33.345  34.947  1.00  0.00     0.074 A 
ATOM     37  C   UNL A   1      38.115  34.374  34.817  1.00  0.00     0.031 C 
ATOM     38  C   UNL A   1      39.931  33.198  36.030  1.00  0.00     0.037 A 
BRANCH  25  39
ATOM     39  C   UNL A   1      43.970  28.540  35.615  1.00  0.00     0.058 A 
ATOM     40  C   UNL A   1      45.313  28.888  35.403  1.00  0.00     0.135 A 
ATOM     41  C   UNL A   1      43.700  27.501  36.520  1.00  0.00     0.135 A 
ATOM     42  F   UNL A   1      45.629  29.864  34.537  1.00  0.00    -0.206 F 
ATOM     43  C   UNL A   1      46.348  28.229  36.059  1.00  0.00     0.059 A 
ATOM     44  C   UNL A   1      44.719  26.840  37.203  1.00  0.00     0.059 A 
ATOM     45  F   UNL A   1      42.433  27.125  36.760  1.00  0.00    -0.206 F 
ATOM     46  C   UNL A   1      46.041  27.207  36.960  1.00  0.00     0.060 A 
BRANCH  46  47
ATOM     47  S   UNL A   1      47.395  26.383  37.827  1.00  0.00     0.124 S 
ATOM     48  O   UNL A   1      47.825  25.407  36.830  1.00  0.00    -0.237 OA
ATOM     49  O   UNL A   1      48.320  27.482  38.079  1.00  0.00    -0.237 OA
ATOM     50  O   UNL A   1      46.750  25.826  39.012  1.00  0.00    -0.744 OA
ENDBRANCH  46  47
ENDBRANCH  25  39
BRANCH  26  51
ATOM     51  C   UNL A   1      36.485  33.371  31.052  1.00  0.00     0.058 A 
ATOM     52  C   UNL A   1      35.166  33.227  31.503  1.00  0.00     0.135 A 
ATOM     53  C   UNL A   1      36.716  34.219  29.957  1.00  0.00     0.135 A 
ATOM     54  F   UNL A   1      34.896  32.427  32.546  1.00  0.00    -0.206 F 
ATOM     55  C   UNL A   1      34.109  33.885  30.881  1.00  0.00     0.059 A 
ATOM     56  C   UNL A   1      35.682  34.909  29.337  1.00  0.00     0.059 A 
ATOM     57  F   UNL A   1      37.965  34.407  29.503  1.00  0.00    -0.206 F 
ATOM     58  C   UNL A   1      34.379  34.723  29.798  1.00  0.00     0.060 A 
BRANCH  58  59
ATOM     59  S   UNL A   1      33.014  35.609  29.017  1.00  0.00     0.124 S 
ATOM     60  O   UNL A   1      32.389  34.550  28.233  1.00  0.00    -0.237 OA
ATOM     61  O   UNL A   1      32.254  36.086  30.168  1.00  0.00    -0.237 OA
ATOM     62  O   UNL A   1      33.689  36.650  28.249  1.00  0.00    -0.744 OA
ENDBRANCH  58  59
ENDBRANCH  26  51
BRANCH  38  63
ATOM     63  C   UNL A   1      39.737  34.180  37.148  1.00  0.00     0.058 A 
ATOM     64  C   UNL A   1      40.334  35.450  37.116  1.00  0.00     0.135 A 
ATOM     65  C   UNL A   1      38.948  33.849  38.260  1.00  0.00     0.135 A 
ATOM     66  F   UNL A   1      41.104  35.808  36.077  1.00  0.00    -0.206 F 
ATOM     67  C   UNL A   1      40.186  36.347  38.168  1.00  0.00     0.059 A 
ATOM     68  C   UNL A   1      38.767  34.740  39.314  1.00  0.00     0.059 A 
ATOM     69  F   UNL A   1      38.350  32.650  38.333  1.00  0.00    -0.206 F 
ATOM     70  C   UNL A   1      39.406  35.980  39.266  1.00  0.00     0.060 A 
BRANCH  70  71
ATOM     71  S   UNL A   1      39.221  37.149  40.628  1.00  0.00     0.124 S 
ATOM     72  O   UNL A   1      40.596  37.594  40.820  1.00  0.00    -0.237 OA
ATOM     73  O   UNL A   1      38.304  38.140  40.073  1.00  0.00    -0.237 OA
ATOM     74  O   UNL A   1      38.670  36.328  41.703  1.00  0.00    -0.744 OA
ENDBRANCH  70  71
ENDBRANCH  38  63
ENDBRANCH  12  13
ENDBRANCH   5   7
ENDBRANCH   2   3
ENDBRANCH   1   2
BRANCH   1  75
ATOM     75  C   UNL A   1      37.509  22.404  25.516  1.00  0.00     0.023 C 
BRANCH  75  76
ATOM     76  C   UNL A   1      36.781  22.393  24.176  1.00  0.00     0.116 C 
BRANCH  76  77
ATOM     77  N   UNL A   1      35.377  22.058  24.327  1.00  0.00    -0.354 N 
ATOM     78  C   UNL A   1      34.295  22.901  24.345  1.00  0.00     0.242 C 
ATOM     79  H   UNL A   1      35.175  21.100  24.432  1.00  0.00     0.163 HD
ATOM     80  O   UNL A   1      33.164  22.410  24.377  1.00  0.00    -0.273 OA
BRANCH  78  81
ATOM     81  C   UNL A   1      34.513  24.444  24.210  1.00  0.00     0.174 C 
BRANCH  81  82
ATOM     82  N   UNL A   1      34.018  24.765  22.853  1.00  0.00    -0.340 N 
ATOM     83  C   UNL A   1      33.206  25.582  22.140  1.00  0.00     0.253 C 
ATOM     84  H   UNL A   1      34.445  24.142  22.223  1.00  0.00     0.164 HD
ATOM     85  O   UNL A   1      33.219  25.500  20.912  1.00  0.00    -0.269 OA
BRANCH  83  86
ATOM     86  C   UNL A   1      32.213  26.470  22.722  1.00  0.00     0.061 A 
ATOM     87  C   UNL A   1      32.588  27.808  22.904  1.00  0.00     0.035 A 
ATOM     88  C   UNL A   1      31.019  25.999  23.247  1.00  0.00     0.072 A 
ATOM     89  C   UNL A   1      31.680  28.661  23.499  1.00  0.00     0.112 A 
ATOM     90  C   UNL A   1      30.174  26.939  23.816  1.00  0.00     0.132 A 
ATOM     91  Cl  UNL A   1      30.572  24.337  23.240  1.00  0.00    -0.082 Cl
ATOM     92  N   UNL A   1      30.468  28.259  23.936  1.00  0.00    -0.263 NA
ENDBRANCH  83  86
ENDBRANCH  81  82
BRANCH  81  93
ATOM     93  C   UNL A   1      34.089  25.071  25.511  1.00  0.00     0.021 C 
ATOM     94  C   UNL A   1      33.900  26.553  25.695  1.00  0.00     0.006 C 
ATOM     95  C   UNL A   1      32.752  25.610  25.937  1.00  0.00     0.006 C 
ENDBRANCH  81  93
ENDBRANCH  78  81
ENDBRANCH  76  77
ENDBRANCH  75  76
ENDBRANCH   1  75
TORSDOF 17
ENDMDL
