MODEL 1
REMARK VINA RESULT:     -11.4      0.000      0.000
REMARK SMILES CC(C)[NH2+][C@@]1(C(=O)NCCCCNC(=O)c2ccc(-c3c4nc(c(-c5c(F)cc(S(=O)(=O)[O-])cc5F)c5ccc([nH]5)c(-c5c(F)cc(S(=O)(=O)[O-])cc5F)c5nc(c(-c6c(F)cc(S(=O)(=O)[O-])cc6F)c6ccc3[nH]6)C=C5)C=C4)cc2)CCC[C@H](Sc2ccncn2)C1
REMARK SMILES IDX 11 1 10 2 9 3 8 4 6 5 7 6 5 8 82 9 93 10 83 11 85 12 84 13
REMARK SMILES IDX 4 14 2 17 1 18 3 19 86 20 87 21 88 22 92 23 89 24 91 25
REMARK SMILES IDX 90 26 12 27 13 28 14 29 15 31 16 32 17 33 81 34 18 35 80 36
REMARK SMILES IDX 19 37 20 38 21 39 74 40 22 41 79 42 73 43 75 44 23 45 78 46
REMARK SMILES IDX 72 47 71 48 24 50 58 51 37 52 57 53 38 54 41 55 56 56 76 57
REMARK SMILES IDX 39 58 40 59 55 61 77 62 42 63 25 64 26 65 35 66 27 67 28 68
REMARK SMILES IDX 34 69 36 70 29 71 30 72 31 73 32 74 33 75 59 76 60 77 69 78
REMARK SMILES IDX 61 79 62 80 68 81 70 82 63 83 64 84 65 85 66 86 67 87 43 88
REMARK SMILES IDX 44 89 53 90 45 91 46 92 52 93 54 94 47 95 48 96 49 97 50 98
REMARK SMILES IDX 51 99
REMARK H PARENT 8 7 4 15 4 16 13 30 75 49 41 60
REMARK Flexibility Score: inf
ROOT
ATOM      1  C   UNL A   1      31.958  27.978  27.085  1.00  0.00     0.023 C 
ENDROOT
BRANCH   1   2
ATOM      2  C   UNL A   1      32.033  26.492  26.800  1.00  0.00     0.023 C 
BRANCH   2   3
ATOM      3  C   UNL A   1      30.938  25.972  25.885  1.00  0.00     0.116 C 
BRANCH   3   4
ATOM      4  N   UNL A   1      30.455  24.692  26.334  1.00  0.00    -0.351 N 
ATOM      5  C   UNL A   1      30.826  23.422  26.049  1.00  0.00     0.281 C 
ATOM      6  O   UNL A   1      30.040  22.558  26.478  1.00  0.00    -0.268 OA
ATOM      7  H   UNL A   1      29.710  24.752  26.973  1.00  0.00     0.163 HD
BRANCH   5   8
ATOM      8  C   UNL A   1      32.095  22.983  25.158  1.00  0.00     0.176 C 
ATOM      9  C   UNL A   1      33.448  23.244  25.853  1.00  0.00     0.079 C 
ATOM     10  C   UNL A   1      31.883  23.644  23.765  1.00  0.00     0.094 C 
ATOM     11  C   UNL A   1      34.383  24.337  25.342  1.00  0.00     0.008 C 
ATOM     12  C   UNL A   1      33.053  24.419  23.138  1.00  0.00     0.060 C 
ATOM     13  C   UNL A   1      34.012  25.102  24.089  1.00  0.00     0.015 C 
BRANCH   8  14
ATOM     14  N   UNL A   1      31.856  21.512  25.075  1.00  0.00    -0.332 N 
ATOM     15  H   UNL A   1      31.793  21.200  26.044  1.00  0.00     0.347 HD
ATOM     16  H   UNL A   1      31.067  21.511  24.428  1.00  0.00     0.347 HD
BRANCH  14  17
ATOM     17  C   UNL A   1      32.694  20.530  24.422  1.00  0.00     0.176 C 
ATOM     18  C   UNL A   1      32.799  19.310  25.346  1.00  0.00     0.075 C 
ATOM     19  C   UNL A   1      32.188  20.106  23.051  1.00  0.00     0.075 C 
ENDBRANCH  14  17
ENDBRANCH   8  14
BRANCH  12  20
ATOM     20  S   UNL A   1      32.436  25.509  21.736  1.00  0.00    -0.103 SA
BRANCH  20  21
ATOM     21  C   UNL A   1      31.881  27.057  22.456  1.00  0.00     0.100 A 
ATOM     22  C   UNL A   1      30.536  27.326  22.618  1.00  0.00     0.055 A 
ATOM     23  N   UNL A   1      32.835  27.864  22.960  1.00  0.00    -0.230 NA
ATOM     24  C   UNL A   1      30.214  28.486  23.288  1.00  0.00     0.115 A 
ATOM     25  C   UNL A   1      32.409  28.950  23.631  1.00  0.00     0.222 A 
ATOM     26  N   UNL A   1      31.133  29.310  23.813  1.00  0.00    -0.245 NA
ENDBRANCH  20  21
ENDBRANCH  12  20
ENDBRANCH   5   8
ENDBRANCH   3   4
ENDBRANCH   2   3
ENDBRANCH   1   2
BRANCH   1  27
ATOM     27  C   UNL A   1      33.324  28.625  27.243  1.00  0.00     0.116 C 
BRANCH  27  28
ATOM     28  N   UNL A   1      33.301  30.010  27.716  1.00  0.00    -0.352 N 
ATOM     29  C   UNL A   1      34.336  30.761  28.228  1.00  0.00     0.251 C 
ATOM     30  H   UNL A   1      32.431  30.465  27.661  1.00  0.00     0.163 HD
ATOM     31  O   UNL A   1      34.158  31.921  28.584  1.00  0.00    -0.269 OA
BRANCH  29  32
ATOM     32  C   UNL A   1      35.655  30.117  28.363  1.00  0.00     0.039 A 
ATOM     33  C   UNL A   1      36.539  30.124  27.283  1.00  0.00     0.014 A 
ATOM     34  C   UNL A   1      36.053  29.637  29.610  1.00  0.00     0.014 A 
ATOM     35  C   UNL A   1      37.861  29.721  27.482  1.00  0.00     0.010 A 
ATOM     36  C   UNL A   1      37.390  29.363  29.833  1.00  0.00     0.010 A 
ATOM     37  C   UNL A   1      38.307  29.384  28.769  1.00  0.00    -0.014 A 
BRANCH  37  38
ATOM     38  C   UNL A   1      39.709  28.991  29.057  1.00  0.00     0.031 A 
ATOM     39  C   UNL A   1      40.648  30.025  29.622  1.00  0.00     0.074 A 
ATOM     40  C   UNL A   1      40.167  27.773  28.705  1.00  0.00     0.049 A 
ATOM     41  N   UNL A   1      41.947  29.985  29.750  1.00  0.00    -0.248 NA
ATOM     42  C   UNL A   1      40.042  31.302  30.037  1.00  0.00     0.031 C 
ATOM     43  C   UNL A   1      39.371  26.703  28.099  1.00  0.00     0.029 A 
ATOM     44  N   UNL A   1      41.427  27.238  28.790  1.00  0.00    -0.354 N 
ATOM     45  C   UNL A   1      42.316  31.246  30.206  1.00  0.00     0.074 A 
ATOM     46  C   UNL A   1      41.113  32.044  30.268  1.00  0.00     0.031 C 
ATOM     47  C   UNL A   1      40.156  25.633  27.892  1.00  0.00     0.029 A 
ATOM     48  C   UNL A   1      41.518  25.953  28.309  1.00  0.00     0.049 A 
ATOM     49  H   UNL A   1      42.197  27.729  29.161  1.00  0.00     0.167 HD
ATOM     50  C   UNL A   1      43.541  31.689  30.571  1.00  0.00     0.037 A 
ATOM     51  C   UNL A   1      42.583  25.133  28.211  1.00  0.00     0.037 A 
ATOM     52  C   UNL A   1      44.716  30.862  30.577  1.00  0.00     0.049 A 
ATOM     53  C   UNL A   1      43.926  25.624  28.677  1.00  0.00     0.074 A 
ATOM     54  C   UNL A   1      45.991  31.177  31.008  1.00  0.00     0.029 A 
ATOM     55  N   UNL A   1      44.751  29.543  30.145  1.00  0.00    -0.354 N 
ATOM     56  N   UNL A   1      44.254  26.804  29.149  1.00  0.00    -0.248 NA
ATOM     57  C   UNL A   1      45.045  24.675  28.601  1.00  0.00     0.031 C 
ATOM     58  C   UNL A   1      46.805  30.056  30.814  1.00  0.00     0.029 A 
ATOM     59  C   UNL A   1      46.028  29.031  30.295  1.00  0.00     0.049 A 
ATOM     60  H   UNL A   1      43.982  29.046  29.784  1.00  0.00     0.167 HD
ATOM     61  C   UNL A   1      45.609  26.730  29.453  1.00  0.00     0.074 A 
ATOM     62  C   UNL A   1      46.037  25.387  29.117  1.00  0.00     0.031 C 
ATOM     63  C   UNL A   1      46.425  27.685  29.964  1.00  0.00     0.037 A 
BRANCH  50  64
ATOM     64  C   UNL A   1      43.655  33.126  31.003  1.00  0.00     0.058 A 
ATOM     65  C   UNL A   1      43.924  34.155  30.085  1.00  0.00     0.135 A 
ATOM     66  C   UNL A   1      43.516  33.477  32.355  1.00  0.00     0.135 A 
ATOM     67  F   UNL A   1      44.085  33.874  28.782  1.00  0.00    -0.206 F 
ATOM     68  C   UNL A   1      44.104  35.470  30.497  1.00  0.00     0.059 A 
ATOM     69  C   UNL A   1      43.659  34.793  32.787  1.00  0.00     0.059 A 
ATOM     70  F   UNL A   1      43.258  32.536  33.276  1.00  0.00    -0.206 F 
ATOM     71  C   UNL A   1      43.978  35.778  31.852  1.00  0.00     0.060 A 
BRANCH  71  72
ATOM     72  S   UNL A   1      44.242  37.484  32.378  1.00  0.00     0.124 S 
ATOM     73  O   UNL A   1      45.632  37.438  32.823  1.00  0.00    -0.237 OA
ATOM     74  O   UNL A   1      43.996  38.234  31.151  1.00  0.00    -0.237 OA
ATOM     75  O   UNL A   1      43.250  37.672  33.433  1.00  0.00    -0.744 OA
ENDBRANCH  71  72
ENDBRANCH  50  64
BRANCH  51  76
ATOM     76  C   UNL A   1      42.408  23.748  27.696  1.00  0.00     0.058 A 
ATOM     77  C   UNL A   1      42.352  23.504  26.316  1.00  0.00     0.135 A 
ATOM     78  C   UNL A   1      42.329  22.644  28.559  1.00  0.00     0.135 A 
ATOM     79  F   UNL A   1      42.416  24.528  25.451  1.00  0.00    -0.206 F 
ATOM     80  C   UNL A   1      42.216  22.217  25.806  1.00  0.00     0.059 A 
ATOM     81  C   UNL A   1      42.214  21.344  28.072  1.00  0.00     0.059 A 
ATOM     82  F   UNL A   1      42.394  22.823  29.887  1.00  0.00    -0.206 F 
ATOM     83  C   UNL A   1      42.153  21.142  26.694  1.00  0.00     0.060 A 
BRANCH  83  84
ATOM     84  S   UNL A   1      42.045  19.469  26.017  1.00  0.00     0.124 S 
ATOM     85  O   UNL A   1      40.627  19.374  25.693  1.00  0.00    -0.237 OA
ATOM     86  O   UNL A   1      42.958  19.540  24.881  1.00  0.00    -0.237 OA
ATOM     87  O   UNL A   1      42.500  18.632  27.123  1.00  0.00    -0.744 OA
ENDBRANCH  83  84
ENDBRANCH  51  76
BRANCH  63  88
ATOM     88  C   UNL A   1      47.853  27.304  30.227  1.00  0.00     0.058 A 
ATOM     89  C   UNL A   1      48.866  27.550  29.289  1.00  0.00     0.135 A 
ATOM     90  C   UNL A   1      48.221  26.746  31.462  1.00  0.00     0.135 A 
ATOM     91  F   UNL A   1      48.564  28.076  28.091  1.00  0.00    -0.206 F 
ATOM     92  C   UNL A   1      50.195  27.239  29.558  1.00  0.00     0.059 A 
ATOM     93  C   UNL A   1      49.545  26.451  31.764  1.00  0.00     0.059 A 
ATOM     94  F   UNL A   1      47.289  26.503  32.399  1.00  0.00    -0.206 F 
ATOM     95  C   UNL A   1      50.525  26.693  30.801  1.00  0.00     0.060 A 
BRANCH  95  96
ATOM     96  S   UNL A   1      52.258  26.335  31.157  1.00  0.00     0.124 S 
ATOM     97  O   UNL A   1      52.636  27.487  31.966  1.00  0.00    -0.237 OA
ATOM     98  O   UNL A   1      52.176  25.061  31.865  1.00  0.00    -0.237 OA
ATOM     99  O   UNL A   1      52.869  26.269  29.832  1.00  0.00    -0.744 OA
ENDBRANCH  95  96
ENDBRANCH  63  88
ENDBRANCH  37  38
ENDBRANCH  29  32
ENDBRANCH  27  28
ENDBRANCH   1  27
TORSDOF 18
ENDMDL
MODEL 2
REMARK VINA RESULT:     -11.0      4.588     10.385
REMARK SMILES CC(C)[NH2+][C@@]1(C(=O)NCCCCNC(=O)c2ccc(-c3c4nc(c(-c5c(F)cc(S(=O)(=O)[O-])cc5F)c5ccc([nH]5)c(-c5c(F)cc(S(=O)(=O)[O-])cc5F)c5nc(c(-c6c(F)cc(S(=O)(=O)[O-])cc6F)c6ccc3[nH]6)C=C5)C=C4)cc2)CCC[C@H](Sc2ccncn2)C1
REMARK SMILES IDX 11 1 10 2 9 3 8 4 6 5 7 6 5 8 82 9 93 10 83 11 85 12 84 13
REMARK SMILES IDX 4 14 2 17 1 18 3 19 86 20 87 21 88 22 92 23 89 24 91 25
REMARK SMILES IDX 90 26 12 27 13 28 14 29 15 31 16 32 17 33 81 34 18 35 80 36
REMARK SMILES IDX 19 37 20 38 21 39 74 40 22 41 79 42 73 43 75 44 23 45 78 46
REMARK SMILES IDX 72 47 71 48 24 50 58 51 37 52 57 53 38 54 41 55 56 56 76 57
REMARK SMILES IDX 39 58 40 59 55 61 77 62 42 63 25 64 26 65 35 66 27 67 28 68
REMARK SMILES IDX 34 69 36 70 29 71 30 72 31 73 32 74 33 75 59 76 60 77 69 78
REMARK SMILES IDX 61 79 62 80 68 81 70 82 63 83 64 84 65 85 66 86 67 87 43 88
REMARK SMILES IDX 44 89 53 90 45 91 46 92 52 93 54 94 47 95 48 96 49 97 50 98
REMARK SMILES IDX 51 99
REMARK H PARENT 8 7 4 15 4 16 13 30 75 49 41 60
REMARK Flexibility Score: inf
ROOT
ATOM      1  C   UNL A   1      38.695  22.397  26.097  1.00  0.00     0.023 C 
ENDROOT
BRANCH   1   2
ATOM      2  C   UNL A   1      37.637  23.462  25.883  1.00  0.00     0.023 C 
BRANCH   2   3
ATOM      3  C   UNL A   1      36.434  22.999  25.078  1.00  0.00     0.116 C 
BRANCH   3   4
ATOM      4  N   UNL A   1      35.601  24.115  24.711  1.00  0.00    -0.351 N 
ATOM      5  C   UNL A   1      34.282  24.367  24.882  1.00  0.00     0.281 C 
ATOM      6  O   UNL A   1      33.871  25.357  24.249  1.00  0.00    -0.268 OA
ATOM      7  H   UNL A   1      36.084  24.834  24.246  1.00  0.00     0.163 HD
BRANCH   5   8
ATOM      8  C   UNL A   1      33.246  23.465  25.723  1.00  0.00     0.176 C 
ATOM      9  C   UNL A   1      33.826  22.955  27.059  1.00  0.00     0.079 C 
ATOM     10  C   UNL A   1      32.719  22.387  24.731  1.00  0.00     0.094 C 
ATOM     11  C   UNL A   1      34.148  21.475  27.250  1.00  0.00     0.008 C 
ATOM     12  C   UNL A   1      32.721  20.917  25.180  1.00  0.00     0.060 C 
ATOM     13  C   UNL A   1      33.806  20.496  26.147  1.00  0.00     0.015 C 
BRANCH   8  14
ATOM     14  N   UNL A   1      32.185  24.477  25.998  1.00  0.00    -0.332 N 
ATOM     15  H   UNL A   1      32.271  24.685  26.993  1.00  0.00     0.347 HD
ATOM     16  H   UNL A   1      32.403  25.148  25.260  1.00  0.00     0.347 HD
BRANCH  14  17
ATOM     17  C   UNL A   1      30.764  24.334  25.769  1.00  0.00     0.176 C 
ATOM     18  C   UNL A   1      30.201  23.414  26.861  1.00  0.00     0.075 C 
ATOM     19  C   UNL A   1      30.007  25.654  25.755  1.00  0.00     0.075 C 
ENDBRANCH  14  17
ENDBRANCH   8  14
BRANCH  12  20
ATOM     20  S   UNL A   1      32.514  19.782  23.696  1.00  0.00    -0.103 SA
BRANCH  20  21
ATOM     21  C   UNL A   1      32.969  18.124  24.214  1.00  0.00     0.100 A 
ATOM     22  C   UNL A   1      34.184  17.573  23.855  1.00  0.00     0.055 A 
ATOM     23  N   UNL A   1      32.138  17.515  25.082  1.00  0.00    -0.230 NA
ATOM     24  C   UNL A   1      34.490  16.345  24.400  1.00  0.00     0.115 A 
ATOM     25  C   UNL A   1      32.554  16.338  25.584  1.00  0.00     0.222 A 
ATOM     26  N   UNL A   1      33.695  15.711  25.275  1.00  0.00    -0.245 NA
ENDBRANCH  20  21
ENDBRANCH  12  20
ENDBRANCH   5   8
ENDBRANCH   3   4
ENDBRANCH   2   3
ENDBRANCH   1   2
BRANCH   1  27
ATOM     27  C   UNL A   1      39.889  22.894  26.894  1.00  0.00     0.116 C 
BRANCH  27  28
ATOM     28  N   UNL A   1      41.076  23.208  26.099  1.00  0.00    -0.352 N 
ATOM     29  C   UNL A   1      41.861  24.338  26.134  1.00  0.00     0.251 C 
ATOM     30  H   UNL A   1      41.351  22.518  25.453  1.00  0.00     0.163 HD
ATOM     31  O   UNL A   1      42.836  24.454  25.398  1.00  0.00    -0.269 OA
BRANCH  29  32
ATOM     32  C   UNL A   1      41.475  25.418  27.061  1.00  0.00     0.039 A 
ATOM     33  C   UNL A   1      40.535  25.164  28.061  1.00  0.00     0.014 A 
ATOM     34  C   UNL A   1      42.161  26.632  27.013  1.00  0.00     0.014 A 
ATOM     35  C   UNL A   1      40.343  26.110  29.070  1.00  0.00     0.010 A 
ATOM     36  C   UNL A   1      42.062  27.504  28.082  1.00  0.00     0.010 A 
ATOM     37  C   UNL A   1      41.140  27.265  29.113  1.00  0.00    -0.014 A 
BRANCH  37  38
ATOM     38  C   UNL A   1      41.017  28.286  30.184  1.00  0.00     0.031 A 
ATOM     39  C   UNL A   1      41.925  28.188  31.382  1.00  0.00     0.074 A 
ATOM     40  C   UNL A   1      40.034  29.206  30.145  1.00  0.00     0.049 A 
ATOM     41  N   UNL A   1      41.863  28.820  32.524  1.00  0.00    -0.248 NA
ATOM     42  C   UNL A   1      43.010  27.195  31.303  1.00  0.00     0.031 C 
ATOM     43  C   UNL A   1      39.057  29.368  29.066  1.00  0.00     0.029 A 
ATOM     44  N   UNL A   1      39.682  30.171  31.055  1.00  0.00    -0.354 N 
ATOM     45  C   UNL A   1      42.862  28.261  33.314  1.00  0.00     0.074 A 
ATOM     46  C   UNL A   1      43.468  27.198  32.544  1.00  0.00     0.031 C 
ATOM     47  C   UNL A   1      38.235  30.388  29.365  1.00  0.00     0.029 A 
ATOM     48  C   UNL A   1      38.597  30.924  30.673  1.00  0.00     0.049 A 
ATOM     49  H   UNL A   1      40.163  30.311  31.904  1.00  0.00     0.167 HD
ATOM     50  C   UNL A   1      43.260  28.622  34.555  1.00  0.00     0.037 A 
ATOM     51  C   UNL A   1      37.966  31.928  31.313  1.00  0.00     0.037 A 
ATOM     52  C   UNL A   1      42.700  29.730  35.279  1.00  0.00     0.049 A 
ATOM     53  C   UNL A   1      38.461  32.354  32.669  1.00  0.00     0.074 A 
ATOM     54  C   UNL A   1      43.082  30.242  36.505  1.00  0.00     0.029 A 
ATOM     55  N   UNL A   1      41.645  30.511  34.828  1.00  0.00    -0.354 N 
ATOM     56  N   UNL A   1      39.436  31.847  33.386  1.00  0.00    -0.248 NA
ATOM     57  C   UNL A   1      37.774  33.487  33.302  1.00  0.00     0.031 C 
ATOM     58  C   UNL A   1      42.241  31.318  36.808  1.00  0.00     0.029 A 
ATOM     59  C   UNL A   1      41.359  31.499  35.753  1.00  0.00     0.049 A 
ATOM     60  H   UNL A   1      41.170  30.381  33.975  1.00  0.00     0.167 HD
ATOM     61  C   UNL A   1      39.498  32.618  34.542  1.00  0.00     0.074 A 
ATOM     62  C   UNL A   1      38.466  33.629  34.424  1.00  0.00     0.031 C 
ATOM     63  C   UNL A   1      40.334  32.501  35.604  1.00  0.00     0.037 A 
BRANCH  50  64
ATOM     64  C   UNL A   1      44.359  27.814  35.189  1.00  0.00     0.058 A 
ATOM     65  C   UNL A   1      45.710  28.188  35.080  1.00  0.00     0.135 A 
ATOM     66  C   UNL A   1      44.064  26.638  35.897  1.00  0.00     0.135 A 
ATOM     67  F   UNL A   1      46.051  29.294  34.399  1.00  0.00    -0.206 F 
ATOM     68  C   UNL A   1      46.728  27.400  35.601  1.00  0.00     0.059 A 
ATOM     69  C   UNL A   1      45.067  25.850  36.456  1.00  0.00     0.059 A 
ATOM     70  F   UNL A   1      42.792  26.232  36.034  1.00  0.00    -0.206 F 
ATOM     71  C   UNL A   1      46.397  26.228  36.281  1.00  0.00     0.060 A 
BRANCH  71  72
ATOM     72  S   UNL A   1      47.731  25.199  36.928  1.00  0.00     0.124 S 
ATOM     73  O   UNL A   1      47.038  23.934  37.153  1.00  0.00    -0.237 OA
ATOM     74  O   UNL A   1      48.694  25.206  35.832  1.00  0.00    -0.237 OA
ATOM     75  O   UNL A   1      48.153  25.907  38.133  1.00  0.00    -0.744 OA
ENDBRANCH  71  72
ENDBRANCH  50  64
BRANCH  51  76
ATOM     76  C   UNL A   1      36.830  32.628  30.656  1.00  0.00     0.058 A 
ATOM     77  C   UNL A   1      35.515  32.423  31.098  1.00  0.00     0.135 A 
ATOM     78  C   UNL A   1      37.032  33.537  29.605  1.00  0.00     0.135 A 
ATOM     79  F   UNL A   1      35.271  31.559  32.095  1.00  0.00    -0.206 F 
ATOM     80  C   UNL A   1      34.437  33.085  30.519  1.00  0.00     0.059 A 
ATOM     81  C   UNL A   1      35.972  34.228  29.023  1.00  0.00     0.059 A 
ATOM     82  F   UNL A   1      38.272  33.781  29.156  1.00  0.00    -0.206 F 
ATOM     83  C   UNL A   1      34.677  33.991  29.485  1.00  0.00     0.060 A 
BRANCH  83  84
ATOM     84  S   UNL A   1      33.277  34.896  28.787  1.00  0.00     0.124 S 
ATOM     85  O   UNL A   1      33.938  36.053  28.197  1.00  0.00    -0.237 OA
ATOM     86  O   UNL A   1      32.725  33.926  27.847  1.00  0.00    -0.237 OA
ATOM     87  O   UNL A   1      32.442  35.171  29.953  1.00  0.00    -0.744 OA
ENDBRANCH  83  84
ENDBRANCH  51  76
BRANCH  63  88
ATOM     88  C   UNL A   1      40.194  33.512  36.706  1.00  0.00     0.058 A 
ATOM     89  C   UNL A   1      41.033  34.633  36.787  1.00  0.00     0.135 A 
ATOM     90  C   UNL A   1      39.163  33.391  37.652  1.00  0.00     0.135 A 
ATOM     91  F   UNL A   1      42.036  34.791  35.909  1.00  0.00    -0.206 F 
ATOM     92  C   UNL A   1      40.867  35.593  37.781  1.00  0.00     0.059 A 
ATOM     93  C   UNL A   1      38.962  34.350  38.638  1.00  0.00     0.059 A 
ATOM     94  F   UNL A   1      38.326  32.342  37.609  1.00  0.00    -0.206 F 
ATOM     95  C   UNL A   1      39.826  35.443  38.701  1.00  0.00     0.060 A 
BRANCH  95  96
ATOM     96  S   UNL A   1      39.593  36.716  39.958  1.00  0.00     0.124 S 
ATOM     97  O   UNL A   1      38.954  37.776  39.188  1.00  0.00    -0.237 OA
ATOM     98  O   UNL A   1      38.743  36.040  40.935  1.00  0.00    -0.237 OA
ATOM     99  O   UNL A   1      40.952  36.999  40.411  1.00  0.00    -0.744 OA
ENDBRANCH  95  96
ENDBRANCH  63  88
ENDBRANCH  37  38
ENDBRANCH  29  32
ENDBRANCH  27  28
ENDBRANCH   1  27
TORSDOF 18
ENDMDL
MODEL 3
REMARK VINA RESULT:     -11.0      4.711     10.156
REMARK SMILES CC(C)[NH2+][C@@]1(C(=O)NCCCCNC(=O)c2ccc(-c3c4nc(c(-c5c(F)cc(S(=O)(=O)[O-])cc5F)c5ccc([nH]5)c(-c5c(F)cc(S(=O)(=O)[O-])cc5F)c5nc(c(-c6c(F)cc(S(=O)(=O)[O-])cc6F)c6ccc3[nH]6)C=C5)C=C4)cc2)CCC[C@H](Sc2ccncn2)C1
REMARK SMILES IDX 11 1 10 2 9 3 8 4 6 5 7 6 5 8 82 9 93 10 83 11 85 12 84 13
REMARK SMILES IDX 4 14 2 17 1 18 3 19 86 20 87 21 88 22 92 23 89 24 91 25
REMARK SMILES IDX 90 26 12 27 13 28 14 29 15 31 16 32 17 33 81 34 18 35 80 36
REMARK SMILES IDX 19 37 20 38 21 39 74 40 22 41 79 42 73 43 75 44 23 45 78 46
REMARK SMILES IDX 72 47 71 48 24 50 58 51 37 52 57 53 38 54 41 55 56 56 76 57
REMARK SMILES IDX 39 58 40 59 55 61 77 62 42 63 25 64 26 65 35 66 27 67 28 68
REMARK SMILES IDX 34 69 36 70 29 71 30 72 31 73 32 74 33 75 59 76 60 77 69 78
REMARK SMILES IDX 61 79 62 80 68 81 70 82 63 83 64 84 65 85 66 86 67 87 43 88
REMARK SMILES IDX 44 89 53 90 45 91 46 92 52 93 54 94 47 95 48 96 49 97 50 98
REMARK SMILES IDX 51 99
REMARK H PARENT 8 7 4 15 4 16 13 30 75 49 41 60
REMARK Flexibility Score: inf
ROOT
ATOM      1  C   UNL A   1      37.202  23.485  25.329  1.00  0.00     0.023 C 
ENDROOT
BRANCH   1   2
ATOM      2  C   UNL A   1      37.194  21.975  25.195  1.00  0.00     0.023 C 
BRANCH   2   3
ATOM      3  C   UNL A   1      35.808  21.356  25.151  1.00  0.00     0.116 C 
BRANCH   3   4
ATOM      4  N   UNL A   1      35.148  21.479  26.426  1.00  0.00    -0.351 N 
ATOM      5  C   UNL A   1      33.924  21.934  26.783  1.00  0.00     0.281 C 
ATOM      6  O   UNL A   1      33.777  22.077  28.010  1.00  0.00    -0.268 OA
ATOM      7  H   UNL A   1      35.694  21.173  27.185  1.00  0.00     0.163 HD
BRANCH   5   8
ATOM      8  C   UNL A   1      32.745  22.370  25.776  1.00  0.00     0.176 C 
ATOM      9  C   UNL A   1      32.340  21.254  24.791  1.00  0.00     0.079 C 
ATOM     10  C   UNL A   1      33.198  23.723  25.153  1.00  0.00     0.094 C 
ATOM     11  C   UNL A   1      32.667  21.374  23.305  1.00  0.00     0.008 C 
ATOM     12  C   UNL A   1      33.119  23.889  23.628  1.00  0.00     0.060 C 
ATOM     13  C   UNL A   1      33.313  22.644  22.791  1.00  0.00     0.015 C 
BRANCH   8  14
ATOM     14  N   UNL A   1      31.640  22.594  26.753  1.00  0.00    -0.332 N 
ATOM     15  H   UNL A   1      31.496  21.689  27.200  1.00  0.00     0.347 HD
ATOM     16  H   UNL A   1      32.013  23.410  27.238  1.00  0.00     0.347 HD
BRANCH  14  17
ATOM     17  C   UNL A   1      30.309  23.083  26.466  1.00  0.00     0.176 C 
ATOM     18  C   UNL A   1      29.382  22.623  27.599  1.00  0.00     0.075 C 
ATOM     19  C   UNL A   1      30.231  24.595  26.306  1.00  0.00     0.075 C 
ENDBRANCH  14  17
ENDBRANCH   8  14
BRANCH  12  20
ATOM     20  S   UNL A   1      34.143  25.366  23.079  1.00  0.00    -0.103 SA
BRANCH  20  21
ATOM     21  C   UNL A   1      33.360  26.843  23.733  1.00  0.00     0.100 A 
ATOM     22  C   UNL A   1      33.677  27.321  24.989  1.00  0.00     0.055 A 
ATOM     23  N   UNL A   1      32.570  27.532  22.886  1.00  0.00    -0.230 NA
ATOM     24  C   UNL A   1      33.113  28.524  25.353  1.00  0.00     0.115 A 
ATOM     25  C   UNL A   1      32.105  28.714  23.329  1.00  0.00     0.222 A 
ATOM     26  N   UNL A   1      32.331  29.246  24.536  1.00  0.00    -0.245 NA
ENDBRANCH  20  21
ENDBRANCH  12  20
ENDBRANCH   5   8
ENDBRANCH   3   4
ENDBRANCH   2   3
ENDBRANCH   1   2
BRANCH   1  27
ATOM     27  C   UNL A   1      38.143  23.984  26.411  1.00  0.00     0.116 C 
BRANCH  27  28
ATOM     28  N   UNL A   1      39.567  23.796  26.128  1.00  0.00    -0.352 N 
ATOM     29  C   UNL A   1      40.641  24.515  26.601  1.00  0.00     0.251 C 
ATOM     30  H   UNL A   1      39.785  23.055  25.518  1.00  0.00     0.163 HD
ATOM     31  O   UNL A   1      41.787  24.231  26.270  1.00  0.00    -0.269 OA
BRANCH  29  32
ATOM     32  C   UNL A   1      40.367  25.657  27.493  1.00  0.00     0.039 A 
ATOM     33  C   UNL A   1      39.471  25.505  28.552  1.00  0.00     0.014 A 
ATOM     34  C   UNL A   1      41.116  26.825  27.350  1.00  0.00     0.014 A 
ATOM     35  C   UNL A   1      39.388  26.505  29.523  1.00  0.00     0.010 A 
ATOM     36  C   UNL A   1      41.125  27.750  28.379  1.00  0.00     0.010 A 
ATOM     37  C   UNL A   1      40.249  27.612  29.468  1.00  0.00    -0.014 A 
BRANCH  37  38
ATOM     38  C   UNL A   1      40.243  28.687  30.492  1.00  0.00     0.031 A 
ATOM     39  C   UNL A   1      41.170  28.564  31.672  1.00  0.00     0.074 A 
ATOM     40  C   UNL A   1      39.341  29.687  30.432  1.00  0.00     0.049 A 
ATOM     41  N   UNL A   1      41.192  29.249  32.784  1.00  0.00    -0.248 NA
ATOM     42  C   UNL A   1      42.163  27.478  31.616  1.00  0.00     0.031 C 
ATOM     43  C   UNL A   1      38.353  29.885  29.369  1.00  0.00     0.029 A 
ATOM     44  N   UNL A   1      39.098  30.717  31.304  1.00  0.00    -0.354 N 
ATOM     45  C   UNL A   1      42.160  28.642  33.577  1.00  0.00     0.074 A 
ATOM     46  C   UNL A   1      42.653  27.497  32.845  1.00  0.00     0.031 C 
ATOM     47  C   UNL A   1      37.630  30.984  29.639  1.00  0.00     0.029 A 
ATOM     48  C   UNL A   1      38.071  31.544  30.912  1.00  0.00     0.049 A 
ATOM     49  H   UNL A   1      39.611  30.853  32.134  1.00  0.00     0.167 HD
ATOM     50  C   UNL A   1      42.620  29.021  34.791  1.00  0.00     0.037 A 
ATOM     51  C   UNL A   1      37.545  32.626  31.518  1.00  0.00     0.037 A 
ATOM     52  C   UNL A   1      42.177  30.205  35.474  1.00  0.00     0.049 A 
ATOM     53  C   UNL A   1      38.110  33.068  32.841  1.00  0.00     0.074 A 
ATOM     54  C   UNL A   1      42.633  30.736  36.666  1.00  0.00     0.029 A 
ATOM     55  N   UNL A   1      41.181  31.053  35.011  1.00  0.00    -0.354 N 
ATOM     56  N   UNL A   1      39.057  32.511  33.559  1.00  0.00    -0.248 NA
ATOM     57  C   UNL A   1      37.540  34.284  33.436  1.00  0.00     0.031 C 
ATOM     58  C   UNL A   1      41.896  31.894  36.938  1.00  0.00     0.029 A 
ATOM     59  C   UNL A   1      41.005  32.103  35.896  1.00  0.00     0.049 A 
ATOM     60  H   UNL A   1      40.674  30.927  34.177  1.00  0.00     0.167 HD
ATOM     61  C   UNL A   1      39.215  33.324  34.676  1.00  0.00     0.074 A 
ATOM     62  C   UNL A   1      38.271  34.414  34.534  1.00  0.00     0.031 C 
ATOM     63  C   UNL A   1      40.066  33.183  35.724  1.00  0.00     0.037 A 
BRANCH  50  64
ATOM     64  C   UNL A   1      43.663  28.150  35.438  1.00  0.00     0.058 A 
ATOM     65  C   UNL A   1      45.031  28.294  35.147  1.00  0.00     0.135 A 
ATOM     66  C   UNL A   1      43.290  27.142  36.341  1.00  0.00     0.135 A 
ATOM     67  F   UNL A   1      45.441  29.229  34.275  1.00  0.00    -0.206 F 
ATOM     68  C   UNL A   1      45.984  27.439  35.687  1.00  0.00     0.059 A 
ATOM     69  C   UNL A   1      44.232  26.296  36.920  1.00  0.00     0.059 A 
ATOM     70  F   UNL A   1      41.999  26.959  36.657  1.00  0.00    -0.206 F 
ATOM     71  C   UNL A   1      45.574  26.437  36.567  1.00  0.00     0.060 A 
BRANCH  71  72
ATOM     72  S   UNL A   1      46.818  25.315  37.238  1.00  0.00     0.124 S 
ATOM     73  O   UNL A   1      46.438  25.272  38.647  1.00  0.00    -0.237 OA
ATOM     74  O   UNL A   1      46.580  24.091  36.481  1.00  0.00    -0.237 OA
ATOM     75  O   UNL A   1      48.078  25.993  36.947  1.00  0.00    -0.744 OA
ENDBRANCH  71  72
ENDBRANCH  50  64
BRANCH  51  76
ATOM     76  C   UNL A   1      36.457  33.393  30.854  1.00  0.00     0.058 A 
ATOM     77  C   UNL A   1      35.143  33.334  31.345  1.00  0.00     0.135 A 
ATOM     78  C   UNL A   1      36.705  34.221  29.749  1.00  0.00     0.135 A 
ATOM     79  F   UNL A   1      34.855  32.551  32.395  1.00  0.00    -0.206 F 
ATOM     80  C   UNL A   1      34.112  34.061  30.760  1.00  0.00     0.059 A 
ATOM     81  C   UNL A   1      35.693  34.975  29.160  1.00  0.00     0.059 A 
ATOM     82  F   UNL A   1      37.947  34.325  29.253  1.00  0.00    -0.206 F 
ATOM     83  C   UNL A   1      34.399  34.884  29.670  1.00  0.00     0.060 A 
BRANCH  83  84
ATOM     84  S   UNL A   1      33.064  35.877  28.962  1.00  0.00     0.124 S 
ATOM     85  O   UNL A   1      32.305  34.869  28.230  1.00  0.00    -0.237 OA
ATOM     86  O   UNL A   1      32.422  36.420  30.155  1.00  0.00    -0.237 OA
ATOM     87  O   UNL A   1      33.773  36.854  28.142  1.00  0.00    -0.744 OA
ENDBRANCH  83  84
ENDBRANCH  51  76
BRANCH  63  88
ATOM     88  C   UNL A   1      40.042  34.250  36.780  1.00  0.00     0.058 A 
ATOM     89  C   UNL A   1      40.817  35.414  36.667  1.00  0.00     0.135 A 
ATOM     90  C   UNL A   1      39.182  34.135  37.884  1.00  0.00     0.135 A 
ATOM     91  F   UNL A   1      41.659  35.568  35.633  1.00  0.00    -0.206 F 
ATOM     92  C   UNL A   1      40.754  36.422  37.624  1.00  0.00     0.059 A 
ATOM     93  C   UNL A   1      39.083  35.141  38.839  1.00  0.00     0.059 A 
ATOM     94  F   UNL A   1      38.411  33.045  38.030  1.00  0.00    -0.206 F 
ATOM     95  C   UNL A   1      39.880  36.277  38.705  1.00  0.00     0.060 A 
BRANCH  95  96
ATOM     96  S   UNL A   1      39.774  37.610  39.917  1.00  0.00     0.124 S 
ATOM     97  O   UNL A   1      38.535  38.269  39.521  1.00  0.00    -0.237 OA
ATOM     98  O   UNL A   1      39.730  36.882  41.181  1.00  0.00    -0.237 OA
ATOM     99  O   UNL A   1      40.996  38.376  39.686  1.00  0.00    -0.744 OA
ENDBRANCH  95  96
ENDBRANCH  63  88
ENDBRANCH  37  38
ENDBRANCH  29  32
ENDBRANCH  27  28
ENDBRANCH   1  27
TORSDOF 18
ENDMDL
