MODEL 1
REMARK VINA RESULT:     -12.9      0.000      0.000
REMARK SMILES CCOc1c(Br)cc(CNc2cccc(C(=O)NCCCCNC(=O)c3ccc(-c4c5nc(c(-c6c(F)cc(S(=O)(=O)[O-])cc6F)c6ccc([nH]6)c(-c6c(F)cc(S(=O)(=O)[O-])cc6F)c6nc(c(-c7c(F)cc(S(=O)(=O)[O-])cc7F)c7ccc4[nH]7)C=C6)C=C5)cc3)c2C)cc1OC
REMARK SMILES IDX 19 1 18 2 16 3 17 4 15 6 11 7 12 8 92 9 13 10 93 11 14 12
REMARK SMILES IDX 10 13 9 15 8 16 4 17 5 18 95 19 6 20 7 21 94 22 3 23 2 24
REMARK SMILES IDX 1 25 96 26 97 27 20 28 21 29 22 30 23 31 24 32 25 34 26 35
REMARK SMILES IDX 27 36 91 37 28 38 90 39 29 40 30 41 31 42 84 43 32 44 89 45
REMARK SMILES IDX 83 46 85 47 33 48 88 49 82 50 81 51 34 53 68 54 47 55 67 56
REMARK SMILES IDX 48 57 51 58 66 59 86 60 49 61 50 62 65 64 87 65 52 66 35 67
REMARK SMILES IDX 36 68 45 69 37 70 38 71 44 72 46 73 39 74 40 75 41 76 42 77
REMARK SMILES IDX 43 78 69 79 70 80 79 81 71 82 72 83 78 84 80 85 73 86 74 87
REMARK SMILES IDX 75 88 76 89 77 90 53 91 54 92 63 93 55 94 56 95 62 96 64 97
REMARK SMILES IDX 57 98 58 99 59 100 60 101 61 102
REMARK H PARENT 18 5 10 14 23 33 85 52 51 63
REMARK Flexibility Score: inf
ROOT
ATOM      1  C   UNL A   1      31.377  29.328  25.216  1.00  0.00     0.116 C 
ENDROOT
BRANCH   1   2
ATOM      2  N   UNL A   1      32.399  29.587  24.204  1.00  0.00    -0.352 N 
ATOM      3  C   UNL A   1      33.263  28.777  23.495  1.00  0.00     0.251 C 
ATOM      4  O   UNL A   1      33.926  29.304  22.602  1.00  0.00    -0.269 OA
ATOM      5  H   UNL A   1      32.490  30.541  23.980  1.00  0.00     0.163 HD
BRANCH   3   6
ATOM      6  C   UNL A   1      33.430  27.316  23.775  1.00  0.00     0.044 A 
ATOM      7  C   UNL A   1      32.986  24.939  23.303  1.00  0.00     0.038 A 
ATOM      8  C   UNL A   1      33.836  24.615  24.371  1.00  0.00     0.026 A 
ATOM      9  C   UNL A   1      32.833  26.311  22.955  1.00  0.00    -0.015 A 
ATOM     10  C   UNL A   1      34.378  25.593  25.193  1.00  0.00     0.003 A 
ATOM     11  C   UNL A   1      31.954  26.684  21.781  1.00  0.00     0.047 C 
ATOM     12  C   UNL A   1      34.111  26.930  24.935  1.00  0.00     0.014 A 
BRANCH   7  13
ATOM     13  N   UNL A   1      32.277  23.934  22.647  1.00  0.00    -0.381 N 
ATOM     14  H   UNL A   1      32.459  23.771  21.693  1.00  0.00     0.160 HD
BRANCH  13  15
ATOM     15  C   UNL A   1      31.277  23.117  23.320  1.00  0.00     0.149 C 
BRANCH  15  16
ATOM     16  C   UNL A   1      31.885  21.803  23.756  1.00  0.00    -0.024 A 
ATOM     17  C   UNL A   1      33.016  19.343  24.572  1.00  0.00     0.175 A 
ATOM     18  C   UNL A   1      32.475  19.495  23.284  1.00  0.00     0.064 A 
ATOM     19  C   UNL A   1      32.914  20.406  25.484  1.00  0.00     0.162 A 
ATOM     20  Br  UNL A   1      32.403  18.056  22.044  1.00  0.00    -0.047 Br
ATOM     21  C   UNL A   1      31.936  20.717  22.874  1.00  0.00     0.025 A 
ATOM     22  C   UNL A   1      32.371  21.629  25.059  1.00  0.00     0.056 A 
BRANCH  17  23
ATOM     23  O   UNL A   1      33.577  18.138  24.915  1.00  0.00    -0.489 OA
BRANCH  23  24
ATOM     24  C   UNL A   1      32.736  17.378  25.794  1.00  0.00     0.226 C 
ATOM     25  C   UNL A   1      33.043  15.894  25.694  1.00  0.00     0.049 C 
ENDBRANCH  23  24
ENDBRANCH  17  23
BRANCH  19  26
ATOM     26  O   UNL A   1      33.317  20.431  26.794  1.00  0.00    -0.493 OA
ATOM     27  C   UNL A   1      34.121  21.525  27.218  1.00  0.00     0.278 C 
ENDBRANCH  19  26
ENDBRANCH  15  16
ENDBRANCH  13  15
ENDBRANCH   7  13
ENDBRANCH   3   6
ENDBRANCH   1   2
BRANCH   1  28
ATOM     28  C   UNL A   1      31.909  29.116  26.635  1.00  0.00     0.023 C 
BRANCH  28  29
ATOM     29  C   UNL A   1      32.729  30.252  27.236  1.00  0.00     0.023 C 
BRANCH  29  30
ATOM     30  C   UNL A   1      34.233  30.019  27.282  1.00  0.00     0.116 C 
BRANCH  30  31
ATOM     31  N   UNL A   1      35.032  31.212  27.503  1.00  0.00    -0.352 N 
ATOM     32  C   UNL A   1      36.253  31.312  28.158  1.00  0.00     0.251 C 
ATOM     33  H   UNL A   1      34.663  32.051  27.146  1.00  0.00     0.163 HD
ATOM     34  O   UNL A   1      36.661  32.380  28.577  1.00  0.00    -0.269 OA
BRANCH  32  35
ATOM     35  C   UNL A   1      37.105  30.098  28.225  1.00  0.00     0.039 A 
ATOM     36  C   UNL A   1      37.156  29.409  29.443  1.00  0.00     0.014 A 
ATOM     37  C   UNL A   1      37.999  29.791  27.205  1.00  0.00     0.014 A 
ATOM     38  C   UNL A   1      38.225  28.548  29.707  1.00  0.00     0.010 A 
ATOM     39  C   UNL A   1      39.107  29.024  27.504  1.00  0.00     0.010 A 
ATOM     40  C   UNL A   1      39.245  28.428  28.765  1.00  0.00    -0.014 A 
BRANCH  40  41
ATOM     41  C   UNL A   1      40.537  27.792  29.016  1.00  0.00     0.031 A 
ATOM     42  C   UNL A   1      40.790  26.388  28.595  1.00  0.00     0.074 A 
ATOM     43  C   UNL A   1      41.568  28.523  29.495  1.00  0.00     0.049 A 
ATOM     44  N   UNL A   1      41.763  25.659  29.030  1.00  0.00    -0.248 NA
ATOM     45  C   UNL A   1      39.931  25.677  27.652  1.00  0.00     0.031 C 
ATOM     46  C   UNL A   1      42.988  28.193  29.395  1.00  0.00     0.029 A 
ATOM     47  N   UNL A   1      41.564  29.660  30.285  1.00  0.00    -0.354 N 
ATOM     48  C   UNL A   1      41.841  24.533  28.237  1.00  0.00     0.074 A 
ATOM     49  C   UNL A   1      40.644  24.569  27.428  1.00  0.00     0.031 C 
ATOM     50  C   UNL A   1      43.678  28.943  30.267  1.00  0.00     0.029 A 
ATOM     51  C   UNL A   1      42.715  29.665  31.077  1.00  0.00     0.049 A 
ATOM     52  H   UNL A   1      40.865  30.352  30.287  1.00  0.00     0.167 HD
ATOM     53  C   UNL A   1      42.970  23.764  28.257  1.00  0.00     0.037 A 
ATOM     54  C   UNL A   1      42.673  29.609  32.444  1.00  0.00     0.037 A 
ATOM     55  C   UNL A   1      43.947  24.281  29.213  1.00  0.00     0.049 A 
ATOM     56  C   UNL A   1      43.333  28.383  33.037  1.00  0.00     0.074 A 
ATOM     57  C   UNL A   1      45.062  25.090  29.059  1.00  0.00     0.029 A 
ATOM     58  N   UNL A   1      43.691  24.218  30.577  1.00  0.00    -0.354 N 
ATOM     59  N   UNL A   1      43.651  27.322  32.350  1.00  0.00    -0.248 NA
ATOM     60  C   UNL A   1      43.670  28.240  34.453  1.00  0.00     0.031 C 
ATOM     61  C   UNL A   1      45.454  25.548  30.338  1.00  0.00     0.029 A 
ATOM     62  C   UNL A   1      44.583  25.012  31.271  1.00  0.00     0.049 A 
ATOM     63  H   UNL A   1      42.975  23.683  30.990  1.00  0.00     0.167 HD
ATOM     64  C   UNL A   1      44.168  26.363  33.182  1.00  0.00     0.074 A 
ATOM     65  C   UNL A   1      44.192  27.000  34.484  1.00  0.00     0.031 C 
ATOM     66  C   UNL A   1      44.518  25.124  32.722  1.00  0.00     0.037 A 
BRANCH  53  67
ATOM     67  C   UNL A   1      43.308  22.722  27.205  1.00  0.00     0.058 A 
ATOM     68  C   UNL A   1      42.592  21.505  27.132  1.00  0.00     0.135 A 
ATOM     69  C   UNL A   1      44.352  22.840  26.268  1.00  0.00     0.135 A 
ATOM     70  F   UNL A   1      41.500  21.284  27.874  1.00  0.00    -0.206 F 
ATOM     71  C   UNL A   1      42.965  20.448  26.299  1.00  0.00     0.059 A 
ATOM     72  C   UNL A   1      44.781  21.778  25.462  1.00  0.00     0.059 A 
ATOM     73  F   UNL A   1      44.970  24.011  26.061  1.00  0.00    -0.206 F 
ATOM     74  C   UNL A   1      44.087  20.576  25.496  1.00  0.00     0.060 A 
BRANCH  74  75
ATOM     75  S   UNL A   1      44.614  19.164  24.508  1.00  0.00     0.124 S 
ATOM     76  O   UNL A   1      45.975  18.941  24.985  1.00  0.00    -0.237 OA
ATOM     77  O   UNL A   1      43.636  18.148  24.883  1.00  0.00    -0.237 OA
ATOM     78  O   UNL A   1      44.514  19.653  23.135  1.00  0.00    -0.744 OA
ENDBRANCH  74  75
ENDBRANCH  53  67
BRANCH  54  79
ATOM     79  C   UNL A   1      41.509  30.325  33.028  1.00  0.00     0.058 A 
ATOM     80  C   UNL A   1      41.597  31.728  33.104  1.00  0.00     0.135 A 
ATOM     81  C   UNL A   1      40.233  29.746  33.027  1.00  0.00     0.135 A 
ATOM     82  F   UNL A   1      42.799  32.325  33.138  1.00  0.00    -0.206 F 
ATOM     83  C   UNL A   1      40.472  32.531  32.973  1.00  0.00     0.059 A 
ATOM     84  C   UNL A   1      39.088  30.534  32.902  1.00  0.00     0.059 A 
ATOM     85  F   UNL A   1      40.093  28.414  32.973  1.00  0.00    -0.206 F 
ATOM     86  C   UNL A   1      39.233  31.918  32.789  1.00  0.00     0.060 A 
BRANCH  86  87
ATOM     87  S   UNL A   1      37.875  32.946  32.179  1.00  0.00     0.124 S 
ATOM     88  O   UNL A   1      36.866  31.950  31.838  1.00  0.00    -0.237 OA
ATOM     89  O   UNL A   1      37.587  33.760  33.359  1.00  0.00    -0.237 OA
ATOM     90  O   UNL A   1      38.473  33.653  31.054  1.00  0.00    -0.744 OA
ENDBRANCH  86  87
ENDBRANCH  54  79
BRANCH  66  91
ATOM     91  C   UNL A   1      44.918  23.934  33.564  1.00  0.00     0.058 A 
ATOM     92  C   UNL A   1      44.041  22.904  33.941  1.00  0.00     0.135 A 
ATOM     93  C   UNL A   1      46.278  23.730  33.910  1.00  0.00     0.135 A 
ATOM     94  F   UNL A   1      42.750  22.919  33.577  1.00  0.00    -0.206 F 
ATOM     95  C   UNL A   1      44.462  21.788  34.668  1.00  0.00     0.059 A 
ATOM     96  C   UNL A   1      46.729  22.599  34.586  1.00  0.00     0.059 A 
ATOM     97  F   UNL A   1      47.224  24.625  33.588  1.00  0.00    -0.206 F 
ATOM     98  C   UNL A   1      45.809  21.643  34.987  1.00  0.00     0.060 A 
BRANCH  98  99
ATOM     99  S   UNL A   1      46.378  20.178  35.869  1.00  0.00     0.124 S 
ATOM    100  O   UNL A   1      45.813  19.108  35.052  1.00  0.00    -0.237 OA
ATOM    101  O   UNL A   1      47.831  20.307  35.818  1.00  0.00    -0.237 OA
ATOM    102  O   UNL A   1      45.790  20.341  37.195  1.00  0.00    -0.744 OA
ENDBRANCH  98  99
ENDBRANCH  66  91
ENDBRANCH  40  41
ENDBRANCH  32  35
ENDBRANCH  30  31
ENDBRANCH  29  30
ENDBRANCH  28  29
ENDBRANCH   1  28
TORSDOF 20
ENDMDL
MODEL 2
REMARK VINA RESULT:     -12.1      1.618      2.260
REMARK SMILES CCOc1c(Br)cc(CNc2cccc(C(=O)NCCCCNC(=O)c3ccc(-c4c5nc(c(-c6c(F)cc(S(=O)(=O)[O-])cc6F)c6ccc([nH]6)c(-c6c(F)cc(S(=O)(=O)[O-])cc6F)c6nc(c(-c7c(F)cc(S(=O)(=O)[O-])cc7F)c7ccc4[nH]7)C=C6)C=C5)cc3)c2C)cc1OC
REMARK SMILES IDX 19 1 18 2 16 3 17 4 15 6 11 7 12 8 92 9 13 10 93 11 14 12
REMARK SMILES IDX 10 13 9 15 8 16 4 17 5 18 95 19 6 20 7 21 94 22 3 23 2 24
REMARK SMILES IDX 1 25 96 26 97 27 20 28 21 29 22 30 23 31 24 32 25 34 26 35
REMARK SMILES IDX 27 36 91 37 28 38 90 39 29 40 30 41 31 42 84 43 32 44 89 45
REMARK SMILES IDX 83 46 85 47 33 48 88 49 82 50 81 51 34 53 68 54 47 55 67 56
REMARK SMILES IDX 48 57 51 58 66 59 86 60 49 61 50 62 65 64 87 65 52 66 35 67
REMARK SMILES IDX 36 68 45 69 37 70 38 71 44 72 46 73 39 74 40 75 41 76 42 77
REMARK SMILES IDX 43 78 69 79 70 80 79 81 71 82 72 83 78 84 80 85 73 86 74 87
REMARK SMILES IDX 75 88 76 89 77 90 53 91 54 92 63 93 55 94 56 95 62 96 64 97
REMARK SMILES IDX 57 98 58 99 59 100 60 101 61 102
REMARK H PARENT 18 5 10 14 23 33 85 52 51 63
REMARK Flexibility Score: inf
ROOT
ATOM      1  C   UNL A   1      31.165  29.129  24.854  1.00  0.00     0.116 C 
ENDROOT
BRANCH   1   2
ATOM      2  N   UNL A   1      32.329  29.442  24.027  1.00  0.00    -0.352 N 
ATOM      3  C   UNL A   1      33.369  28.688  23.523  1.00  0.00     0.251 C 
ATOM      4  O   UNL A   1      34.138  29.241  22.736  1.00  0.00    -0.269 OA
ATOM      5  H   UNL A   1      32.382  30.392  23.776  1.00  0.00     0.163 HD
BRANCH   3   6
ATOM      6  C   UNL A   1      33.600  27.257  23.900  1.00  0.00     0.044 A 
ATOM      7  C   UNL A   1      33.481  24.837  23.455  1.00  0.00     0.038 A 
ATOM      8  C   UNL A   1      34.104  24.624  24.693  1.00  0.00     0.026 A 
ATOM      9  C   UNL A   1      33.286  26.179  23.018  1.00  0.00    -0.015 A 
ATOM     10  C   UNL A   1      34.366  25.671  25.566  1.00  0.00     0.003 A 
ATOM     11  C   UNL A   1      32.653  26.434  21.668  1.00  0.00     0.047 C 
ATOM     12  C   UNL A   1      34.045  26.969  25.195  1.00  0.00     0.014 A 
BRANCH   7  13
ATOM     13  N   UNL A   1      33.022  23.752  22.710  1.00  0.00    -0.381 N 
ATOM     14  H   UNL A   1      33.504  23.505  21.887  1.00  0.00     0.160 HD
BRANCH  13  15
ATOM     15  C   UNL A   1      31.858  22.970  23.103  1.00  0.00     0.149 C 
BRANCH  15  16
ATOM     16  C   UNL A   1      32.293  21.635  23.666  1.00  0.00    -0.024 A 
ATOM     17  C   UNL A   1      33.098  19.138  24.718  1.00  0.00     0.175 A 
ATOM     18  C   UNL A   1      32.622  19.244  23.400  1.00  0.00     0.064 A 
ATOM     19  C   UNL A   1      33.092  20.276  25.540  1.00  0.00     0.162 A 
ATOM     20  Br  UNL A   1      32.423  17.726  22.273  1.00  0.00    -0.047 Br
ATOM     21  C   UNL A   1      32.245  20.482  22.874  1.00  0.00     0.025 A 
ATOM     22  C   UNL A   1      32.710  21.515  24.997  1.00  0.00     0.056 A 
BRANCH  17  23
ATOM     23  O   UNL A   1      33.502  17.909  25.177  1.00  0.00    -0.489 OA
BRANCH  23  24
ATOM     24  C   UNL A   1      32.424  17.171  25.772  1.00  0.00     0.226 C 
ATOM     25  C   UNL A   1      32.677  15.676  25.689  1.00  0.00     0.049 C 
ENDBRANCH  23  24
ENDBRANCH  17  23
BRANCH  19  26
ATOM     26  O   UNL A   1      33.450  20.363  26.860  1.00  0.00    -0.493 OA
ATOM     27  C   UNL A   1      34.217  21.491  27.264  1.00  0.00     0.278 C 
ENDBRANCH  19  26
ENDBRANCH  15  16
ENDBRANCH  13  15
ENDBRANCH   7  13
ENDBRANCH   3   6
ENDBRANCH   1   2
BRANCH   1  28
ATOM     28  C   UNL A   1      31.411  29.179  26.363  1.00  0.00     0.023 C 
BRANCH  28  29
ATOM     29  C   UNL A   1      31.991  30.473  26.921  1.00  0.00     0.023 C 
BRANCH  29  30
ATOM     30  C   UNL A   1      33.455  30.408  27.333  1.00  0.00     0.116 C 
BRANCH  30  31
ATOM     31  N   UNL A   1      33.923  31.541  28.113  1.00  0.00    -0.352 N 
ATOM     32  C   UNL A   1      34.971  31.575  29.025  1.00  0.00     0.251 C 
ATOM     33  H   UNL A   1      33.438  32.387  27.980  1.00  0.00     0.163 HD
ATOM     34  O   UNL A   1      35.059  32.461  29.855  1.00  0.00    -0.269 OA
BRANCH  32  35
ATOM     35  C   UNL A   1      36.050  30.565  28.878  1.00  0.00     0.039 A 
ATOM     36  C   UNL A   1      36.206  29.630  29.909  1.00  0.00     0.014 A 
ATOM     37  C   UNL A   1      37.015  30.686  27.886  1.00  0.00     0.014 A 
ATOM     38  C   UNL A   1      37.419  28.951  30.050  1.00  0.00     0.010 A 
ATOM     39  C   UNL A   1      38.248  30.097  28.085  1.00  0.00     0.010 A 
ATOM     40  C   UNL A   1      38.468  29.256  29.185  1.00  0.00    -0.014 A 
BRANCH  40  41
ATOM     41  C   UNL A   1      39.855  28.837  29.381  1.00  0.00     0.031 A 
ATOM     42  C   UNL A   1      40.312  27.488  28.954  1.00  0.00     0.074 A 
ATOM     43  C   UNL A   1      40.775  29.729  29.813  1.00  0.00     0.049 A 
ATOM     44  N   UNL A   1      41.407  26.928  29.348  1.00  0.00    -0.248 NA
ATOM     45  C   UNL A   1      39.539  26.639  28.052  1.00  0.00     0.031 C 
ATOM     46  C   UNL A   1      42.224  29.629  29.652  1.00  0.00     0.029 A 
ATOM     47  N   UNL A   1      40.622  30.858  30.599  1.00  0.00    -0.354 N 
ATOM     48  C   UNL A   1      41.631  25.822  28.557  1.00  0.00     0.074 A 
ATOM     49  C   UNL A   1      40.411  25.657  27.800  1.00  0.00     0.031 C 
ATOM     50  C   UNL A   1      42.821  30.489  30.491  1.00  0.00     0.029 A 
ATOM     51  C   UNL A   1      41.790  31.056  31.340  1.00  0.00     0.049 A 
ATOM     52  H   UNL A   1      39.822  31.429  30.629  1.00  0.00     0.167 HD
ATOM     53  C   UNL A   1      42.868  25.243  28.530  1.00  0.00     0.037 A 
ATOM     54  C   UNL A   1      41.816  31.007  32.707  1.00  0.00     0.037 A 
ATOM     55  C   UNL A   1      43.789  25.920  29.440  1.00  0.00     0.049 A 
ATOM     56  C   UNL A   1      42.689  29.908  33.275  1.00  0.00     0.074 A 
ATOM     57  C   UNL A   1      44.752  26.896  29.236  1.00  0.00     0.029 A 
ATOM     58  N   UNL A   1      43.605  25.830  30.814  1.00  0.00    -0.354 N 
ATOM     59  N   UNL A   1      43.143  28.906  32.578  1.00  0.00    -0.248 NA
ATOM     60  C   UNL A   1      43.104  29.836  34.675  1.00  0.00     0.031 C 
ATOM     61  C   UNL A   1      45.120  27.423  30.495  1.00  0.00     0.029 A 
ATOM     62  C   UNL A   1      44.387  26.764  31.467  1.00  0.00     0.049 A 
ATOM     63  H   UNL A   1      43.002  25.192  31.260  1.00  0.00     0.167 HD
ATOM     64  C   UNL A   1      43.842  28.050  33.390  1.00  0.00     0.074 A 
ATOM     65  C   UNL A   1      43.818  28.696  34.687  1.00  0.00     0.031 C 
ATOM     66  C   UNL A   1      44.366  26.879  32.918  1.00  0.00     0.037 A 
BRANCH  53  67
ATOM     67  C   UNL A   1      43.324  24.258  27.467  1.00  0.00     0.058 A 
ATOM     68  C   UNL A   1      42.828  22.935  27.443  1.00  0.00     0.135 A 
ATOM     69  C   UNL A   1      44.279  24.540  26.472  1.00  0.00     0.135 A 
ATOM     70  F   UNL A   1      41.833  22.540  28.248  1.00  0.00    -0.206 F 
ATOM     71  C   UNL A   1      43.332  21.945  26.597  1.00  0.00     0.059 A 
ATOM     72  C   UNL A   1      44.841  23.555  25.650  1.00  0.00     0.059 A 
ATOM     73  F   UNL A   1      44.672  25.797  26.221  1.00  0.00    -0.206 F 
ATOM     74  C   UNL A   1      44.370  22.252  25.731  1.00  0.00     0.060 A 
BRANCH  74  75
ATOM     75  S   UNL A   1      45.079  20.936  24.724  1.00  0.00     0.124 S 
ATOM     76  O   UNL A   1      44.600  21.275  23.388  1.00  0.00    -0.237 OA
ATOM     77  O   UNL A   1      46.510  21.116  24.950  1.00  0.00    -0.237 OA
ATOM     78  O   UNL A   1      44.503  19.722  25.297  1.00  0.00    -0.744 OA
ENDBRANCH  74  75
ENDBRANCH  53  67
BRANCH  54  79
ATOM     79  C   UNL A   1      40.578  31.534  33.339  1.00  0.00     0.058 A 
ATOM     80  C   UNL A   1      39.554  30.606  33.605  1.00  0.00     0.135 A 
ATOM     81  C   UNL A   1      40.599  32.720  34.086  1.00  0.00     0.135 A 
ATOM     82  F   UNL A   1      39.477  29.469  32.895  1.00  0.00    -0.206 F 
ATOM     83  C   UNL A   1      38.714  30.750  34.701  1.00  0.00     0.059 A 
ATOM     84  C   UNL A   1      39.760  32.888  35.188  1.00  0.00     0.059 A 
ATOM     85  F   UNL A   1      41.542  33.645  33.861  1.00  0.00    -0.206 F 
ATOM     86  C   UNL A   1      38.885  31.856  35.532  1.00  0.00     0.060 A 
BRANCH  86  87
ATOM     87  S   UNL A   1      38.113  31.801  37.166  1.00  0.00     0.124 S 
ATOM     88  O   UNL A   1      37.802  30.383  37.311  1.00  0.00    -0.237 OA
ATOM     89  O   UNL A   1      39.200  32.299  38.008  1.00  0.00    -0.237 OA
ATOM     90  O   UNL A   1      36.967  32.689  37.023  1.00  0.00    -0.744 OA
ENDBRANCH  86  87
ENDBRANCH  54  79
BRANCH  66  91
ATOM     91  C   UNL A   1      44.987  25.777  33.746  1.00  0.00     0.058 A 
ATOM     92  C   UNL A   1      46.363  25.496  33.781  1.00  0.00     0.135 A 
ATOM     93  C   UNL A   1      44.194  25.038  34.661  1.00  0.00     0.135 A 
ATOM     94  F   UNL A   1      47.237  26.202  33.050  1.00  0.00    -0.206 F 
ATOM     95  C   UNL A   1      46.907  24.509  34.608  1.00  0.00     0.059 A 
ATOM     96  C   UNL A   1      44.722  24.088  35.532  1.00  0.00     0.059 A 
ATOM     97  F   UNL A   1      42.868  25.225  34.747  1.00  0.00    -0.206 F 
ATOM     98  C   UNL A   1      46.079  23.809  35.480  1.00  0.00     0.060 A 
BRANCH  98  99
ATOM     99  S   UNL A   1      46.776  22.578  36.597  1.00  0.00     0.124 S 
ATOM    100  O   UNL A   1      47.707  21.879  35.716  1.00  0.00    -0.237 OA
ATOM    101  O   UNL A   1      47.390  23.392  37.642  1.00  0.00    -0.237 OA
ATOM    102  O   UNL A   1      45.606  21.813  37.017  1.00  0.00    -0.744 OA
ENDBRANCH  98  99
ENDBRANCH  66  91
ENDBRANCH  40  41
ENDBRANCH  32  35
ENDBRANCH  30  31
ENDBRANCH  29  30
ENDBRANCH  28  29
ENDBRANCH   1  28
TORSDOF 20
ENDMDL
MODEL 3
REMARK VINA RESULT:     -11.1      1.995      2.691
REMARK SMILES CCOc1c(Br)cc(CNc2cccc(C(=O)NCCCCNC(=O)c3ccc(-c4c5nc(c(-c6c(F)cc(S(=O)(=O)[O-])cc6F)c6ccc([nH]6)c(-c6c(F)cc(S(=O)(=O)[O-])cc6F)c6nc(c(-c7c(F)cc(S(=O)(=O)[O-])cc7F)c7ccc4[nH]7)C=C6)C=C5)cc3)c2C)cc1OC
REMARK SMILES IDX 19 1 18 2 16 3 17 4 15 6 11 7 12 8 92 9 13 10 93 11 14 12
REMARK SMILES IDX 10 13 9 15 8 16 4 17 5 18 95 19 6 20 7 21 94 22 3 23 2 24
REMARK SMILES IDX 1 25 96 26 97 27 20 28 21 29 22 30 23 31 24 32 25 34 26 35
REMARK SMILES IDX 27 36 91 37 28 38 90 39 29 40 30 41 31 42 84 43 32 44 89 45
REMARK SMILES IDX 83 46 85 47 33 48 88 49 82 50 81 51 34 53 68 54 47 55 67 56
REMARK SMILES IDX 48 57 51 58 66 59 86 60 49 61 50 62 65 64 87 65 52 66 35 67
REMARK SMILES IDX 36 68 45 69 37 70 38 71 44 72 46 73 39 74 40 75 41 76 42 77
REMARK SMILES IDX 43 78 69 79 70 80 79 81 71 82 72 83 78 84 80 85 73 86 74 87
REMARK SMILES IDX 75 88 76 89 77 90 53 91 54 92 63 93 55 94 56 95 62 96 64 97
REMARK SMILES IDX 57 98 58 99 59 100 60 101 61 102
REMARK H PARENT 18 5 10 14 23 33 85 52 51 63
REMARK Flexibility Score: inf
ROOT
ATOM      1  C   UNL A   1      31.964  29.172  25.974  1.00  0.00     0.116 C 
ENDROOT
BRANCH   1   2
ATOM      2  N   UNL A   1      31.165  29.644  24.844  1.00  0.00    -0.352 N 
ATOM      3  C   UNL A   1      30.905  29.139  23.586  1.00  0.00     0.251 C 
ATOM      4  O   UNL A   1      30.068  29.730  22.903  1.00  0.00    -0.269 OA
ATOM      5  H   UNL A   1      30.718  30.504  25.017  1.00  0.00     0.163 HD
BRANCH   3   6
ATOM      6  C   UNL A   1      31.597  27.934  23.028  1.00  0.00     0.044 A 
ATOM      7  C   UNL A   1      31.714  25.527  22.518  1.00  0.00     0.038 A 
ATOM      8  C   UNL A   1      32.967  25.758  21.931  1.00  0.00     0.026 A 
ATOM      9  C   UNL A   1      30.985  26.645  23.015  1.00  0.00    -0.015 A 
ATOM     10  C   UNL A   1      33.578  27.004  21.986  1.00  0.00     0.003 A 
ATOM     11  C   UNL A   1      29.614  26.425  23.617  1.00  0.00     0.047 C 
ATOM     12  C   UNL A   1      32.922  28.062  22.598  1.00  0.00     0.014 A 
BRANCH   7  13
ATOM     13  N   UNL A   1      31.237  24.224  22.652  1.00  0.00    -0.381 N 
ATOM     14  H   UNL A   1      31.049  23.703  21.837  1.00  0.00     0.160 HD
BRANCH  13  15
ATOM     15  C   UNL A   1      31.008  23.605  23.949  1.00  0.00     0.149 C 
BRANCH  15  16
ATOM     16  C   UNL A   1      32.196  22.754  24.339  1.00  0.00    -0.024 A 
ATOM     17  C   UNL A   1      34.413  21.161  25.073  1.00  0.00     0.175 A 
ATOM     18  C   UNL A   1      33.136  20.594  24.929  1.00  0.00     0.064 A 
ATOM     19  C   UNL A   1      34.563  22.550  24.930  1.00  0.00     0.162 A 
ATOM     20  Br  UNL A   1      32.803  18.756  25.281  1.00  0.00    -0.047 Br
ATOM     21  C   UNL A   1      32.044  21.377  24.545  1.00  0.00     0.025 A 
ATOM     22  C   UNL A   1      33.458  23.325  24.543  1.00  0.00     0.056 A 
BRANCH  17  23
ATOM     23  O   UNL A   1      35.465  20.345  25.406  1.00  0.00    -0.489 OA
BRANCH  23  24
ATOM     24  C   UNL A   1      36.735  20.951  25.122  1.00  0.00     0.226 C 
ATOM     25  C   UNL A   1      37.697  19.943  24.517  1.00  0.00     0.049 C 
ENDBRANCH  23  24
ENDBRANCH  17  23
BRANCH  19  26
ATOM     26  O   UNL A   1      35.702  23.295  25.094  1.00  0.00    -0.493 OA
ATOM     27  C   UNL A   1      35.912  23.911  26.359  1.00  0.00     0.278 C 
ENDBRANCH  19  26
ENDBRANCH  15  16
ENDBRANCH  13  15
ENDBRANCH   7  13
ENDBRANCH   3   6
ENDBRANCH   1   2
BRANCH   1  28
ATOM     28  C   UNL A   1      33.218  29.997  26.270  1.00  0.00     0.023 C 
BRANCH  28  29
ATOM     29  C   UNL A   1      33.160  30.922  27.480  1.00  0.00     0.023 C 
BRANCH  29  30
ATOM     30  C   UNL A   1      34.284  31.944  27.576  1.00  0.00     0.116 C 
BRANCH  30  31
ATOM     31  N   UNL A   1      34.436  32.568  28.879  1.00  0.00    -0.352 N 
ATOM     32  C   UNL A   1      35.091  32.065  29.995  1.00  0.00     0.251 C 
ATOM     33  H   UNL A   1      34.024  33.456  28.983  1.00  0.00     0.163 HD
ATOM     34  O   UNL A   1      34.872  32.505  31.110  1.00  0.00    -0.269 OA
BRANCH  32  35
ATOM     35  C   UNL A   1      36.159  31.058  29.777  1.00  0.00     0.039 A 
ATOM     36  C   UNL A   1      36.246  29.997  30.687  1.00  0.00     0.014 A 
ATOM     37  C   UNL A   1      37.177  31.279  28.856  1.00  0.00     0.014 A 
ATOM     38  C   UNL A   1      37.439  29.279  30.802  1.00  0.00     0.010 A 
ATOM     39  C   UNL A   1      38.388  30.641  29.041  1.00  0.00     0.010 A 
ATOM     40  C   UNL A   1      38.537  29.665  30.036  1.00  0.00    -0.014 A 
BRANCH  40  41
ATOM     41  C   UNL A   1      39.904  29.194  30.246  1.00  0.00     0.031 A 
ATOM     42  C   UNL A   1      40.410  27.983  29.544  1.00  0.00     0.074 A 
ATOM     43  C   UNL A   1      40.774  29.940  30.962  1.00  0.00     0.049 A 
ATOM     44  N   UNL A   1      41.471  27.330  29.886  1.00  0.00    -0.248 NA
ATOM     45  C   UNL A   1      39.728  27.390  28.397  1.00  0.00     0.031 C 
ATOM     46  C   UNL A   1      42.232  29.865  30.911  1.00  0.00     0.029 A 
ATOM     47  N   UNL A   1      40.541  30.846  31.983  1.00  0.00    -0.354 N 
ATOM     48  C   UNL A   1      41.774  26.447  28.871  1.00  0.00     0.074 A 
ATOM     49  C   UNL A   1      40.628  26.488  27.993  1.00  0.00     0.031 C 
ATOM     50  C   UNL A   1      42.744  30.486  31.985  1.00  0.00     0.029 A 
ATOM     51  C   UNL A   1      41.636  30.842  32.851  1.00  0.00     0.049 A 
ATOM     52  H   UNL A   1      39.736  31.403  32.081  1.00  0.00     0.167 HD
ATOM     53  C   UNL A   1      43.015  25.877  28.814  1.00  0.00     0.037 A 
ATOM     54  C   UNL A   1      41.540  30.461  34.162  1.00  0.00     0.037 A 
ATOM     55  C   UNL A   1      43.845  26.299  29.940  1.00  0.00     0.049 A 
ATOM     56  C   UNL A   1      42.369  29.245  34.519  1.00  0.00     0.074 A 
ATOM     57  C   UNL A   1      44.813  27.283  30.066  1.00  0.00     0.029 A 
ATOM     58  N   UNL A   1      43.539  25.879  31.229  1.00  0.00    -0.354 N 
ATOM     59  N   UNL A   1      42.893  28.437  33.641  1.00  0.00    -0.248 NA
ATOM     60  C   UNL A   1      42.658  28.828  35.890  1.00  0.00     0.031 C 
ATOM     61  C   UNL A   1      45.061  27.483  31.444  1.00  0.00     0.029 A 
ATOM     62  C   UNL A   1      44.251  26.615  32.156  1.00  0.00     0.049 A 
ATOM     63  H   UNL A   1      42.905  25.159  31.450  1.00  0.00     0.167 HD
ATOM     64  C   UNL A   1      43.525  27.401  34.279  1.00  0.00     0.074 A 
ATOM     65  C   UNL A   1      43.380  27.711  35.687  1.00  0.00     0.031 C 
ATOM     66  C   UNL A   1      44.100  26.373  33.584  1.00  0.00     0.037 A 
BRANCH  53  67
ATOM     67  C   UNL A   1      43.572  25.175  27.588  1.00  0.00     0.058 A 
ATOM     68  C   UNL A   1      43.293  23.812  27.341  1.00  0.00     0.135 A 
ATOM     69  C   UNL A   1      44.425  25.775  26.641  1.00  0.00     0.135 A 
ATOM     70  F   UNL A   1      42.411  23.128  28.081  1.00  0.00    -0.206 F 
ATOM     71  C   UNL A   1      43.909  23.077  26.327  1.00  0.00     0.059 A 
ATOM     72  C   UNL A   1      45.098  25.050  25.650  1.00  0.00     0.059 A 
ATOM     73  F   UNL A   1      44.600  27.103  26.607  1.00  0.00    -0.206 F 
ATOM     74  C   UNL A   1      44.844  23.693  25.510  1.00  0.00     0.060 A 
BRANCH  74  75
ATOM     75  S   UNL A   1      45.707  22.702  24.276  1.00  0.00     0.124 S 
ATOM     76  O   UNL A   1      46.695  23.643  23.758  1.00  0.00    -0.237 OA
ATOM     77  O   UNL A   1      46.237  21.606  25.082  1.00  0.00    -0.237 OA
ATOM     78  O   UNL A   1      44.652  22.335  23.336  1.00  0.00    -0.744 OA
ENDBRANCH  74  75
ENDBRANCH  53  67
BRANCH  54  79
ATOM     79  C   UNL A   1      40.246  30.833  34.791  1.00  0.00     0.058 A 
ATOM     80  C   UNL A   1      40.204  32.055  35.487  1.00  0.00     0.135 A 
ATOM     81  C   UNL A   1      39.037  30.306  34.316  1.00  0.00     0.135 A 
ATOM     82  F   UNL A   1      41.334  32.582  35.986  1.00  0.00    -0.206 F 
ATOM     83  C   UNL A   1      39.049  32.824  35.530  1.00  0.00     0.059 A 
ATOM     84  C   UNL A   1      37.863  31.059  34.354  1.00  0.00     0.059 A 
ATOM     85  F   UNL A   1      39.018  29.137  33.661  1.00  0.00    -0.206 F 
ATOM     86  C   UNL A   1      37.907  32.349  34.886  1.00  0.00     0.060 A 
BRANCH  86  87
ATOM     87  S   UNL A   1      36.577  33.531  34.565  1.00  0.00     0.124 S 
ATOM     88  O   UNL A   1      37.296  34.642  33.951  1.00  0.00    -0.237 OA
ATOM     89  O   UNL A   1      35.723  32.756  33.666  1.00  0.00    -0.237 OA
ATOM     90  O   UNL A   1      36.032  33.787  35.892  1.00  0.00    -0.744 OA
ENDBRANCH  86  87
ENDBRANCH  54  79
BRANCH  66  91
ATOM     91  C   UNL A   1      44.654  25.094  34.170  1.00  0.00     0.058 A 
ATOM     92  C   UNL A   1      46.023  24.790  34.244  1.00  0.00     0.135 A 
ATOM     93  C   UNL A   1      43.792  24.172  34.815  1.00  0.00     0.135 A 
ATOM     94  F   UNL A   1      46.952  25.635  33.773  1.00  0.00    -0.206 F 
ATOM     95  C   UNL A   1      46.501  23.625  34.850  1.00  0.00     0.059 A 
ATOM     96  C   UNL A   1      44.251  23.033  35.472  1.00  0.00     0.059 A 
ATOM     97  F   UNL A   1      42.463  24.356  34.840  1.00  0.00    -0.206 F 
ATOM     98  C   UNL A   1      45.608  22.751  35.461  1.00  0.00     0.060 A 
BRANCH  98  99
ATOM     99  S   UNL A   1      46.215  21.276  36.301  1.00  0.00     0.124 S 
ATOM    100  O   UNL A   1      45.716  21.487  37.656  1.00  0.00    -0.237 OA
ATOM    101  O   UNL A   1      45.579  20.190  35.559  1.00  0.00    -0.237 OA
ATOM    102  O   UNL A   1      47.661  21.373  36.136  1.00  0.00    -0.744 OA
ENDBRANCH  98  99
ENDBRANCH  66  91
ENDBRANCH  40  41
ENDBRANCH  32  35
ENDBRANCH  30  31
ENDBRANCH  29  30
ENDBRANCH  28  29
ENDBRANCH   1  28
TORSDOF 20
ENDMDL
