MODEL 1
REMARK VINA RESULT:     -11.7      0.000      0.000
REMARK SMILES CC[C@@](C)(NC(=O)Nc1c(C)cccc1Cl)C(=O)NCCCCNC(=O)c1ccc(-c2c3nc(c(-c4c(F)cc(S(=O)(=O)[O-])cc4F)c4ccc([nH]4)c(-c4c(F)cc(S(=O)(=O)[O-])cc4F)c4nc(c(-c5c(F)cc(S(=O)(=O)[O-])cc5F)c5ccc2[nH]5)C=C4)C=C3)cc1
REMARK SMILES IDX 22 1 21 2 20 3 19 4 17 5 18 6 3 8 4 9 2 10 1 11 5 12 6 13
REMARK SMILES IDX 7 15 8 16 9 18 10 19 15 20 11 21 12 22 14 23 16 24 13 25
REMARK SMILES IDX 23 26 24 27 25 28 26 30 27 31 28 32 92 33 29 34 91 35 30 36
REMARK SMILES IDX 31 37 32 38 85 39 33 40 90 41 84 42 86 43 34 44 89 45 83 46
REMARK SMILES IDX 82 47 35 49 69 50 48 51 68 52 49 53 52 54 67 55 87 56 50 57
REMARK SMILES IDX 51 58 66 60 88 61 53 62 36 63 37 64 46 65 38 66 39 67 45 68
REMARK SMILES IDX 47 69 40 70 41 71 42 72 43 73 44 74 70 75 71 76 80 77 72 78
REMARK SMILES IDX 73 79 79 80 81 81 74 82 75 83 76 84 77 85 78 86 54 87 55 88
REMARK SMILES IDX 64 89 56 90 57 91 63 92 65 93 58 94 59 95 60 96 61 97 62 98
REMARK H PARENT 19 7 5 14 8 17 24 29 86 48 52 59
REMARK Flexibility Score: inf
ROOT
ATOM      1  C   UNL A   1      34.522  29.674  27.324  1.00  0.00     0.023 C 
ENDROOT
BRANCH   1   2
ATOM      2  C   UNL A   1      33.031  29.973  27.089  1.00  0.00     0.023 C 
BRANCH   2   3
ATOM      3  C   UNL A   1      32.437  30.049  25.661  1.00  0.00     0.116 C 
BRANCH   3   4
ATOM      4  N   UNL A   1      33.278  29.542  24.587  1.00  0.00    -0.354 N 
ATOM      5  C   UNL A   1      33.062  28.579  23.596  1.00  0.00     0.245 C 
ATOM      6  O   UNL A   1      33.147  28.861  22.399  1.00  0.00    -0.272 OA
ATOM      7  H   UNL A   1      34.170  29.956  24.552  1.00  0.00     0.163 HD
BRANCH   5   8
ATOM      8  C   UNL A   1      32.642  27.171  24.040  1.00  0.00     0.117 C 
ATOM      9  C   UNL A   1      33.694  26.881  25.146  1.00  0.00     0.045 C 
BRANCH   8  10
ATOM     10  C   UNL A   1      31.251  26.831  24.638  1.00  0.00     0.035 C 
ATOM     11  C   UNL A   1      31.098  26.699  26.136  1.00  0.00     0.007 C 
ENDBRANCH   8  10
BRANCH   8  12
ATOM     12  N   UNL A   1      32.806  26.354  22.851  1.00  0.00    -0.324 N 
ATOM     13  C   UNL A   1      33.031  25.054  22.677  1.00  0.00     0.320 C 
ATOM     14  H   UNL A   1      32.737  26.860  22.010  1.00  0.00     0.166 HD
ATOM     15  O   UNL A   1      33.275  24.747  21.499  1.00  0.00    -0.248 OA
ATOM     16  N   UNL A   1      33.047  24.024  23.539  1.00  0.00    -0.306 N 
ATOM     17  H   UNL A   1      32.995  23.216  22.979  1.00  0.00     0.171 HD
BRANCH  16  18
ATOM     18  C   UNL A   1      33.104  23.543  24.898  1.00  0.00     0.064 A 
ATOM     19  C   UNL A   1      32.149  23.298  25.932  1.00  0.00    -0.026 A 
ATOM     20  C   UNL A   1      34.405  23.009  25.177  1.00  0.00     0.064 A 
ATOM     21  C   UNL A   1      30.683  22.882  25.839  1.00  0.00     0.046 C 
ATOM     22  C   UNL A   1      32.611  22.953  27.237  1.00  0.00     0.005 A 
ATOM     23  C   UNL A   1      34.793  22.504  26.423  1.00  0.00     0.023 A 
ATOM     24  Cl  UNL A   1      35.621  22.896  23.927  1.00  0.00    -0.082 Cl
ATOM     25  C   UNL A   1      33.910  22.545  27.479  1.00  0.00     0.002 A 
ENDBRANCH  16  18
ENDBRANCH   8  12
ENDBRANCH   5   8
ENDBRANCH   3   4
ENDBRANCH   2   3
ENDBRANCH   1   2
BRANCH   1  26
ATOM     26  C   UNL A   1      35.390  30.724  28.009  1.00  0.00     0.116 C 
BRANCH  26  27
ATOM     27  N   UNL A   1      35.430  30.620  29.449  1.00  0.00    -0.352 N 
ATOM     28  C   UNL A   1      36.466  30.323  30.300  1.00  0.00     0.251 C 
ATOM     29  H   UNL A   1      34.569  30.790  29.894  1.00  0.00     0.163 HD
ATOM     30  O   UNL A   1      36.240  30.298  31.508  1.00  0.00    -0.269 OA
BRANCH  28  31
ATOM     31  C   UNL A   1      37.828  29.993  29.809  1.00  0.00     0.039 A 
ATOM     32  C   UNL A   1      38.819  29.753  30.769  1.00  0.00     0.014 A 
ATOM     33  C   UNL A   1      38.172  29.981  28.454  1.00  0.00     0.014 A 
ATOM     34  C   UNL A   1      40.128  29.451  30.377  1.00  0.00     0.010 A 
ATOM     35  C   UNL A   1      39.472  29.627  28.062  1.00  0.00     0.010 A 
ATOM     36  C   UNL A   1      40.465  29.353  29.018  1.00  0.00    -0.014 A 
BRANCH  36  37
ATOM     37  C   UNL A   1      41.839  28.945  28.603  1.00  0.00     0.031 A 
ATOM     38  C   UNL A   1      42.954  29.954  28.513  1.00  0.00     0.074 A 
ATOM     39  C   UNL A   1      42.079  27.659  28.270  1.00  0.00     0.049 A 
ATOM     40  N   UNL A   1      44.195  29.783  28.130  1.00  0.00    -0.248 NA
ATOM     41  C   UNL A   1      42.629  31.338  28.888  1.00  0.00     0.031 C 
ATOM     42  C   UNL A   1      41.082  26.585  28.282  1.00  0.00     0.029 A 
ATOM     43  N   UNL A   1      43.229  27.035  27.850  1.00  0.00    -0.354 N 
ATOM     44  C   UNL A   1      44.797  31.035  28.211  1.00  0.00     0.074 A 
ATOM     45  C   UNL A   1      43.770  31.964  28.632  1.00  0.00     0.031 C 
ATOM     46  C   UNL A   1      41.666  25.437  27.902  1.00  0.00     0.029 A 
ATOM     47  C   UNL A   1      43.066  25.695  27.580  1.00  0.00     0.049 A 
ATOM     48  H   UNL A   1      44.090  27.502  27.754  1.00  0.00     0.167 HD
ATOM     49  C   UNL A   1      46.089  31.375  27.976  1.00  0.00     0.037 A 
ATOM     50  C   UNL A   1      43.935  24.777  27.112  1.00  0.00     0.037 A 
ATOM     51  C   UNL A   1      47.112  30.445  27.565  1.00  0.00     0.049 A 
ATOM     52  C   UNL A   1      45.359  25.183  26.835  1.00  0.00     0.074 A 
ATOM     53  C   UNL A   1      48.457  30.689  27.343  1.00  0.00     0.029 A 
ATOM     54  N   UNL A   1      46.907  29.097  27.310  1.00  0.00    -0.354 N 
ATOM     55  N   UNL A   1      45.921  26.361  26.970  1.00  0.00    -0.248 NA
ATOM     56  C   UNL A   1      46.269  24.136  26.350  1.00  0.00     0.031 C 
ATOM     57  C   UNL A   1      49.053  29.502  26.903  1.00  0.00     0.029 A 
ATOM     58  C   UNL A   1      48.094  28.502  26.911  1.00  0.00     0.049 A 
ATOM     59  H   UNL A   1      46.045  28.630  27.400  1.00  0.00     0.167 HD
ATOM     60  C   UNL A   1      47.254  26.190  26.614  1.00  0.00     0.074 A 
ATOM     61  C   UNL A   1      47.418  24.792  26.271  1.00  0.00     0.031 C 
ATOM     62  C   UNL A   1      48.252  27.108  26.577  1.00  0.00     0.037 A 
BRANCH  49  63
ATOM     63  C   UNL A   1      46.477  32.820  28.156  1.00  0.00     0.058 A 
ATOM     64  C   UNL A   1      46.950  33.310  29.384  1.00  0.00     0.135 A 
ATOM     65  C   UNL A   1      46.419  33.719  27.076  1.00  0.00     0.135 A 
ATOM     66  F   UNL A   1      47.019  32.500  30.454  1.00  0.00    -0.206 F 
ATOM     67  C   UNL A   1      47.322  34.640  29.545  1.00  0.00     0.059 A 
ATOM     68  C   UNL A   1      46.814  35.048  27.207  1.00  0.00     0.059 A 
ATOM     69  F   UNL A   1      45.979  33.307  25.877  1.00  0.00    -0.206 F 
ATOM     70  C   UNL A   1      47.249  35.503  28.450  1.00  0.00     0.060 A 
BRANCH  70  71
ATOM     71  S   UNL A   1      47.735  37.227  28.679  1.00  0.00     0.124 S 
ATOM     72  O   UNL A   1      46.674  37.926  27.962  1.00  0.00    -0.237 OA
ATOM     73  O   UNL A   1      47.719  37.366  30.131  1.00  0.00    -0.237 OA
ATOM     74  O   UNL A   1      49.058  37.293  28.060  1.00  0.00    -0.744 OA
ENDBRANCH  70  71
ENDBRANCH  49  63
BRANCH  50  75
ATOM     75  C   UNL A   1      43.485  23.377  26.878  1.00  0.00     0.058 A 
ATOM     76  C   UNL A   1      43.278  22.889  25.580  1.00  0.00     0.135 A 
ATOM     77  C   UNL A   1      43.262  22.497  27.949  1.00  0.00     0.135 A 
ATOM     78  F   UNL A   1      43.468  23.693  24.522  1.00  0.00    -0.206 F 
ATOM     79  C   UNL A   1      42.847  21.585  25.350  1.00  0.00     0.059 A 
ATOM     80  C   UNL A   1      42.860  21.181  27.744  1.00  0.00     0.059 A 
ATOM     81  F   UNL A   1      43.460  22.909  29.211  1.00  0.00    -0.206 F 
ATOM     82  C   UNL A   1      42.645  20.737  26.441  1.00  0.00     0.060 A 
BRANCH  82  83
ATOM     83  S   UNL A   1      42.133  19.034  26.129  1.00  0.00     0.124 S 
ATOM     84  O   UNL A   1      43.038  18.647  25.054  1.00  0.00    -0.237 OA
ATOM     85  O   UNL A   1      42.367  18.402  27.422  1.00  0.00    -0.237 OA
ATOM     86  O   UNL A   1      40.728  19.170  25.752  1.00  0.00    -0.744 OA
ENDBRANCH  82  83
ENDBRANCH  50  75
BRANCH  62  87
ATOM     87  C   UNL A   1      49.625  26.630  26.186  1.00  0.00     0.058 A 
ATOM     88  C   UNL A   1      50.106  26.746  24.873  1.00  0.00     0.135 A 
ATOM     89  C   UNL A   1      50.492  26.093  27.153  1.00  0.00     0.135 A 
ATOM     90  F   UNL A   1      49.319  27.244  23.906  1.00  0.00    -0.206 F 
ATOM     91  C   UNL A   1      51.386  26.325  24.526  1.00  0.00     0.059 A 
ATOM     92  C   UNL A   1      51.787  25.694  26.836  1.00  0.00     0.059 A 
ATOM     93  F   UNL A   1      50.088  25.967  28.428  1.00  0.00    -0.206 F 
ATOM     94  C   UNL A   1      52.221  25.804  25.516  1.00  0.00     0.060 A 
BRANCH  94  95
ATOM     95  S   UNL A   1      53.893  25.296  25.061  1.00  0.00     0.124 S 
ATOM     96  O   UNL A   1      54.069  25.975  23.781  1.00  0.00    -0.237 OA
ATOM     97  O   UNL A   1      54.689  25.816  26.169  1.00  0.00    -0.237 OA
ATOM     98  O   UNL A   1      53.801  23.841  24.991  1.00  0.00    -0.744 OA
ENDBRANCH  94  95
ENDBRANCH  62  87
ENDBRANCH  36  37
ENDBRANCH  28  31
ENDBRANCH  26  27
ENDBRANCH   1  26
TORSDOF 17
ENDMDL
MODEL 2
REMARK VINA RESULT:     -11.6      6.664     12.124
REMARK SMILES CC[C@@](C)(NC(=O)Nc1c(C)cccc1Cl)C(=O)NCCCCNC(=O)c1ccc(-c2c3nc(c(-c4c(F)cc(S(=O)(=O)[O-])cc4F)c4ccc([nH]4)c(-c4c(F)cc(S(=O)(=O)[O-])cc4F)c4nc(c(-c5c(F)cc(S(=O)(=O)[O-])cc5F)c5ccc2[nH]5)C=C4)C=C3)cc1
REMARK SMILES IDX 22 1 21 2 20 3 19 4 17 5 18 6 3 8 4 9 2 10 1 11 5 12 6 13
REMARK SMILES IDX 7 15 8 16 9 18 10 19 15 20 11 21 12 22 14 23 16 24 13 25
REMARK SMILES IDX 23 26 24 27 25 28 26 30 27 31 28 32 92 33 29 34 91 35 30 36
REMARK SMILES IDX 31 37 32 38 85 39 33 40 90 41 84 42 86 43 34 44 89 45 83 46
REMARK SMILES IDX 82 47 35 49 69 50 48 51 68 52 49 53 52 54 67 55 87 56 50 57
REMARK SMILES IDX 51 58 66 60 88 61 53 62 36 63 37 64 46 65 38 66 39 67 45 68
REMARK SMILES IDX 47 69 40 70 41 71 42 72 43 73 44 74 70 75 71 76 80 77 72 78
REMARK SMILES IDX 73 79 79 80 81 81 74 82 75 83 76 84 77 85 78 86 54 87 55 88
REMARK SMILES IDX 64 89 56 90 57 91 63 92 65 93 58 94 59 95 60 96 61 97 62 98
REMARK H PARENT 19 7 5 14 8 17 24 29 86 48 52 59
REMARK Flexibility Score: inf
ROOT
ATOM      1  C   UNL A   1      38.075  23.551  26.114  1.00  0.00     0.023 C 
ENDROOT
BRANCH   1   2
ATOM      2  C   UNL A   1      37.570  22.333  25.320  1.00  0.00     0.023 C 
BRANCH   2   3
ATOM      3  C   UNL A   1      36.297  21.562  25.747  1.00  0.00     0.116 C 
BRANCH   3   4
ATOM      4  N   UNL A   1      35.482  22.186  26.779  1.00  0.00    -0.354 N 
ATOM      5  C   UNL A   1      34.121  22.503  26.841  1.00  0.00     0.245 C 
ATOM      6  O   UNL A   1      33.395  22.043  27.724  1.00  0.00    -0.272 OA
ATOM      7  H   UNL A   1      35.985  22.431  27.588  1.00  0.00     0.163 HD
BRANCH   5   8
ATOM      8  C   UNL A   1      33.538  23.389  25.732  1.00  0.00     0.117 C 
ATOM      9  C   UNL A   1      34.528  24.587  25.754  1.00  0.00     0.045 C 
BRANCH   8  10
ATOM     10  C   UNL A   1      33.400  22.945  24.252  1.00  0.00     0.035 C 
ATOM     11  C   UNL A   1      34.490  23.295  23.266  1.00  0.00     0.007 C 
ENDBRANCH   8  10
BRANCH   8  12
ATOM     12  N   UNL A   1      32.207  23.726  26.202  1.00  0.00    -0.324 N 
ATOM     13  C   UNL A   1      31.403  24.761  25.965  1.00  0.00     0.320 C 
ATOM     14  H   UNL A   1      31.822  23.058  26.814  1.00  0.00     0.166 HD
ATOM     15  O   UNL A   1      30.392  24.776  26.684  1.00  0.00    -0.248 OA
ATOM     16  N   UNL A   1      31.492  25.785  25.101  1.00  0.00    -0.306 N 
ATOM     17  H   UNL A   1      30.588  26.174  25.065  1.00  0.00     0.171 HD
BRANCH  16  18
ATOM     18  C   UNL A   1      32.287  26.584  24.200  1.00  0.00     0.064 A 
ATOM     19  C   UNL A   1      32.722  26.461  22.844  1.00  0.00    -0.026 A 
ATOM     20  C   UNL A   1      32.509  27.885  24.760  1.00  0.00     0.064 A 
ATOM     21  C   UNL A   1      32.057  25.770  21.657  1.00  0.00     0.046 C 
ATOM     22  C   UNL A   1      33.651  27.411  22.324  1.00  0.00     0.005 A 
ATOM     23  C   UNL A   1      33.281  28.879  24.150  1.00  0.00     0.023 A 
ATOM     24  Cl  UNL A   1      31.761  28.357  26.268  1.00  0.00    -0.082 Cl
ATOM     25  C   UNL A   1      33.915  28.611  22.958  1.00  0.00     0.002 A 
ENDBRANCH  16  18
ENDBRANCH   8  12
ENDBRANCH   5   8
ENDBRANCH   3   4
ENDBRANCH   2   3
ENDBRANCH   1   2
BRANCH   1  26
ATOM     26  C   UNL A   1      39.357  23.423  26.931  1.00  0.00     0.116 C 
BRANCH  26  27
ATOM     27  N   UNL A   1      40.564  23.725  26.199  1.00  0.00    -0.352 N 
ATOM     28  C   UNL A   1      41.497  24.717  26.374  1.00  0.00     0.251 C 
ATOM     29  H   UNL A   1      40.749  23.116  25.448  1.00  0.00     0.163 HD
ATOM     30  O   UNL A   1      42.455  24.760  25.606  1.00  0.00    -0.269 OA
BRANCH  28  31
ATOM     31  C   UNL A   1      41.365  25.755  27.428  1.00  0.00     0.039 A 
ATOM     32  C   UNL A   1      40.303  25.625  28.332  1.00  0.00     0.014 A 
ATOM     33  C   UNL A   1      42.200  26.873  27.513  1.00  0.00     0.014 A 
ATOM     34  C   UNL A   1      40.109  26.574  29.341  1.00  0.00     0.010 A 
ATOM     35  C   UNL A   1      42.036  27.797  28.557  1.00  0.00     0.010 A 
ATOM     36  C   UNL A   1      40.992  27.656  29.486  1.00  0.00    -0.014 A 
BRANCH  36  37
ATOM     37  C   UNL A   1      40.836  28.619  30.616  1.00  0.00     0.031 A 
ATOM     38  C   UNL A   1      41.672  28.492  31.864  1.00  0.00     0.074 A 
ATOM     39  C   UNL A   1      39.911  29.597  30.534  1.00  0.00     0.049 A 
ATOM     40  N   UNL A   1      41.639  29.212  32.957  1.00  0.00    -0.248 NA
ATOM     41  C   UNL A   1      42.662  27.405  31.892  1.00  0.00     0.031 C 
ATOM     42  C   UNL A   1      39.012  29.814  29.397  1.00  0.00     0.029 A 
ATOM     43  N   UNL A   1      39.562  30.587  31.421  1.00  0.00    -0.354 N 
ATOM     44  C   UNL A   1      42.596  28.664  33.806  1.00  0.00     0.074 A 
ATOM     45  C   UNL A   1      43.157  27.522  33.117  1.00  0.00     0.031 C 
ATOM     46  C   UNL A   1      38.229  30.874  29.650  1.00  0.00     0.029 A 
ATOM     47  C   UNL A   1      38.535  31.391  30.980  1.00  0.00     0.049 A 
ATOM     48  H   UNL A   1      40.006  30.710  32.291  1.00  0.00     0.167 HD
ATOM     49  C   UNL A   1      42.987  29.086  35.034  1.00  0.00     0.037 A 
ATOM     50  C   UNL A   1      37.900  32.418  31.579  1.00  0.00     0.037 A 
ATOM     51  C   UNL A   1      42.432  30.232  35.714  1.00  0.00     0.049 A 
ATOM     52  C   UNL A   1      38.333  32.854  32.953  1.00  0.00     0.074 A 
ATOM     53  C   UNL A   1      42.791  30.759  36.943  1.00  0.00     0.029 A 
ATOM     54  N   UNL A   1      41.400  31.022  35.230  1.00  0.00    -0.354 N 
ATOM     55  N   UNL A   1      39.278  32.355  33.716  1.00  0.00    -0.248 NA
ATOM     56  C   UNL A   1      37.622  33.994  33.547  1.00  0.00     0.031 C 
ATOM     57  C   UNL A   1      41.943  31.836  37.224  1.00  0.00     0.029 A 
ATOM     58  C   UNL A   1      41.096  32.019  36.144  1.00  0.00     0.049 A 
ATOM     59  H   UNL A   1      40.951  30.895  34.363  1.00  0.00     0.167 HD
ATOM     60  C   UNL A   1      39.293  33.139  34.865  1.00  0.00     0.074 A 
ATOM     61  C   UNL A   1      38.272  34.152  34.692  1.00  0.00     0.031 C 
ATOM     62  C   UNL A   1      40.081  33.029  35.963  1.00  0.00     0.037 A 
BRANCH  49  63
ATOM     63  C   UNL A   1      44.070  28.305  35.733  1.00  0.00     0.058 A 
ATOM     64  C   UNL A   1      43.769  27.259  36.620  1.00  0.00     0.135 A 
ATOM     65  C   UNL A   1      45.426  28.574  35.480  1.00  0.00     0.135 A 
ATOM     66  F   UNL A   1      42.491  26.962  36.908  1.00  0.00    -0.206 F 
ATOM     67  C   UNL A   1      44.770  26.529  37.253  1.00  0.00     0.059 A 
ATOM     68  C   UNL A   1      46.444  27.837  36.080  1.00  0.00     0.059 A 
ATOM     69  F   UNL A   1      45.774  29.559  34.637  1.00  0.00    -0.206 F 
ATOM     70  C   UNL A   1      46.105  26.826  36.978  1.00  0.00     0.060 A 
BRANCH  70  71
ATOM     71  S   UNL A   1      47.389  25.869  37.811  1.00  0.00     0.124 S 
ATOM     72  O   UNL A   1      47.889  25.040  36.719  1.00  0.00    -0.237 OA
ATOM     73  O   UNL A   1      48.295  26.908  38.287  1.00  0.00    -0.237 OA
ATOM     74  O   UNL A   1      46.657  25.153  38.855  1.00  0.00    -0.744 OA
ENDBRANCH  70  71
ENDBRANCH  49  63
BRANCH  50  75
ATOM     75  C   UNL A   1      36.783  33.111  30.878  1.00  0.00     0.058 A 
ATOM     76  C   UNL A   1      35.448  32.896  31.250  1.00  0.00     0.135 A 
ATOM     77  C   UNL A   1      37.031  34.011  29.829  1.00  0.00     0.135 A 
ATOM     78  F   UNL A   1      35.157  32.039  32.241  1.00  0.00    -0.206 F 
ATOM     79  C   UNL A   1      34.397  33.532  30.596  1.00  0.00     0.059 A 
ATOM     80  C   UNL A   1      36.000  34.681  29.179  1.00  0.00     0.059 A 
ATOM     81  F   UNL A   1      38.292  34.264  29.444  1.00  0.00    -0.206 F 
ATOM     82  C   UNL A   1      34.684  34.426  29.563  1.00  0.00     0.060 A 
BRANCH  82  83
ATOM     83  S   UNL A   1      33.315  35.281  28.753  1.00  0.00     0.124 S 
ATOM     84  O   UNL A   1      34.020  36.283  27.962  1.00  0.00    -0.237 OA
ATOM     85  O   UNL A   1      32.682  34.202  28.002  1.00  0.00    -0.237 OA
ATOM     86  O   UNL A   1      32.533  35.797  29.873  1.00  0.00    -0.744 OA
ENDBRANCH  82  83
ENDBRANCH  50  75
BRANCH  62  87
ATOM     87  C   UNL A   1      39.904  34.051  37.054  1.00  0.00     0.058 A 
ATOM     88  C   UNL A   1      40.605  35.267  37.053  1.00  0.00     0.135 A 
ATOM     89  C   UNL A   1      38.981  33.830  38.090  1.00  0.00     0.135 A 
ATOM     90  F   UNL A   1      41.505  35.528  36.092  1.00  0.00    -0.206 F 
ATOM     91  C   UNL A   1      40.415  36.217  38.052  1.00  0.00     0.059 A 
ATOM     92  C   UNL A   1      38.752  34.779  39.083  1.00  0.00     0.059 A 
ATOM     93  F   UNL A   1      38.276  32.688  38.136  1.00  0.00    -0.206 F 
ATOM     94  C   UNL A   1      39.483  35.965  39.061  1.00  0.00     0.060 A 
BRANCH  94  95
ATOM     95  S   UNL A   1      39.220  37.222  40.331  1.00  0.00     0.124 S 
ATOM     96  O   UNL A   1      38.394  38.192  39.619  1.00  0.00    -0.237 OA
ATOM     97  O   UNL A   1      38.546  36.466  41.382  1.00  0.00    -0.237 OA
ATOM     98  O   UNL A   1      40.572  37.668  40.655  1.00  0.00    -0.744 OA
ENDBRANCH  94  95
ENDBRANCH  62  87
ENDBRANCH  36  37
ENDBRANCH  28  31
ENDBRANCH  26  27
ENDBRANCH   1  26
TORSDOF 17
ENDMDL
MODEL 3
REMARK VINA RESULT:     -11.6      6.285      8.551
REMARK SMILES CC[C@@](C)(NC(=O)Nc1c(C)cccc1Cl)C(=O)NCCCCNC(=O)c1ccc(-c2c3nc(c(-c4c(F)cc(S(=O)(=O)[O-])cc4F)c4ccc([nH]4)c(-c4c(F)cc(S(=O)(=O)[O-])cc4F)c4nc(c(-c5c(F)cc(S(=O)(=O)[O-])cc5F)c5ccc2[nH]5)C=C4)C=C3)cc1
REMARK SMILES IDX 22 1 21 2 20 3 19 4 17 5 18 6 3 8 4 9 2 10 1 11 5 12 6 13
REMARK SMILES IDX 7 15 8 16 9 18 10 19 15 20 11 21 12 22 14 23 16 24 13 25
REMARK SMILES IDX 23 26 24 27 25 28 26 30 27 31 28 32 92 33 29 34 91 35 30 36
REMARK SMILES IDX 31 37 32 38 85 39 33 40 90 41 84 42 86 43 34 44 89 45 83 46
REMARK SMILES IDX 82 47 35 49 69 50 48 51 68 52 49 53 52 54 67 55 87 56 50 57
REMARK SMILES IDX 51 58 66 60 88 61 53 62 36 63 37 64 46 65 38 66 39 67 45 68
REMARK SMILES IDX 47 69 40 70 41 71 42 72 43 73 44 74 70 75 71 76 80 77 72 78
REMARK SMILES IDX 73 79 79 80 81 81 74 82 75 83 76 84 77 85 78 86 54 87 55 88
REMARK SMILES IDX 64 89 56 90 57 91 63 92 65 93 58 94 59 95 60 96 61 97 62 98
REMARK H PARENT 19 7 5 14 8 17 24 29 86 48 52 59
REMARK Flexibility Score: inf
ROOT
ATOM      1  C   UNL A   1      31.421  32.429  26.846  1.00  0.00     0.023 C 
ENDROOT
BRANCH   1   2
ATOM      2  C   UNL A   1      31.499  31.019  26.235  1.00  0.00     0.023 C 
BRANCH   2   3
ATOM      3  C   UNL A   1      32.663  30.055  26.573  1.00  0.00     0.116 C 
BRANCH   3   4
ATOM      4  N   UNL A   1      33.549  29.706  25.472  1.00  0.00    -0.354 N 
ATOM      5  C   UNL A   1      33.379  28.891  24.348  1.00  0.00     0.245 C 
ATOM      6  O   UNL A   1      33.509  29.338  23.207  1.00  0.00    -0.272 OA
ATOM      7  H   UNL A   1      34.438  30.123  25.530  1.00  0.00     0.163 HD
BRANCH   5   8
ATOM      8  C   UNL A   1      32.953  27.434  24.574  1.00  0.00     0.117 C 
ATOM      9  C   UNL A   1      33.904  27.020  25.732  1.00  0.00     0.045 C 
BRANCH   8  10
ATOM     10  C   UNL A   1      31.521  27.004  24.990  1.00  0.00     0.035 C 
ATOM     11  C   UNL A   1      31.230  26.697  26.440  1.00  0.00     0.007 C 
ENDBRANCH   8  10
BRANCH   8  12
ATOM     12  N   UNL A   1      33.247  26.773  23.315  1.00  0.00    -0.324 N 
ATOM     13  C   UNL A   1      33.517  25.507  23.004  1.00  0.00     0.320 C 
ATOM     14  H   UNL A   1      33.246  27.379  22.540  1.00  0.00     0.166 HD
ATOM     15  O   UNL A   1      33.878  25.352  21.827  1.00  0.00    -0.248 OA
ATOM     16  N   UNL A   1      33.475  24.377  23.731  1.00  0.00    -0.306 N 
ATOM     17  H   UNL A   1      33.494  23.645  23.073  1.00  0.00     0.171 HD
BRANCH  16  18
ATOM     18  C   UNL A   1      33.414  23.731  25.019  1.00  0.00     0.064 A 
ATOM     19  C   UNL A   1      32.370  23.265  25.876  1.00  0.00    -0.026 A 
ATOM     20  C   UNL A   1      34.721  23.291  25.412  1.00  0.00     0.064 A 
ATOM     21  C   UNL A   1      30.983  22.728  25.533  1.00  0.00     0.046 C 
ATOM     22  C   UNL A   1      32.701  22.798  27.183  1.00  0.00     0.005 A 
ATOM     23  C   UNL A   1      35.003  22.668  26.632  1.00  0.00     0.023 A 
ATOM     24  Cl  UNL A   1      36.090  23.458  24.337  1.00  0.00    -0.082 Cl
ATOM     25  C   UNL A   1      33.997  22.488  27.553  1.00  0.00     0.002 A 
ENDBRANCH  16  18
ENDBRANCH   8  12
ENDBRANCH   5   8
ENDBRANCH   3   4
ENDBRANCH   2   3
ENDBRANCH   1   2
BRANCH   1  26
ATOM     26  C   UNL A   1      32.706  33.113  27.298  1.00  0.00     0.116 C 
BRANCH  26  27
ATOM     27  N   UNL A   1      32.516  34.427  27.864  1.00  0.00    -0.352 N 
ATOM     28  C   UNL A   1      33.223  35.102  28.829  1.00  0.00     0.251 C 
ATOM     29  H   UNL A   1      31.750  34.924  27.495  1.00  0.00     0.163 HD
ATOM     30  O   UNL A   1      32.854  36.232  29.140  1.00  0.00    -0.269 OA
BRANCH  28  31
ATOM     31  C   UNL A   1      34.384  34.498  29.531  1.00  0.00     0.039 A 
ATOM     32  C   UNL A   1      34.148  33.910  30.780  1.00  0.00     0.014 A 
ATOM     33  C   UNL A   1      35.692  34.550  29.037  1.00  0.00     0.014 A 
ATOM     34  C   UNL A   1      35.198  33.335  31.504  1.00  0.00     0.010 A 
ATOM     35  C   UNL A   1      36.734  33.927  29.740  1.00  0.00     0.010 A 
ATOM     36  C   UNL A   1      36.500  33.308  30.979  1.00  0.00    -0.014 A 
BRANCH  36  37
ATOM     37  C   UNL A   1      37.601  32.616  31.712  1.00  0.00     0.031 A 
ATOM     38  C   UNL A   1      38.083  33.124  33.046  1.00  0.00     0.074 A 
ATOM     39  C   UNL A   1      38.196  31.540  31.157  1.00  0.00     0.049 A 
ATOM     40  N   UNL A   1      39.054  32.673  33.800  1.00  0.00    -0.248 NA
ATOM     41  C   UNL A   1      37.394  34.300  33.597  1.00  0.00     0.031 C 
ATOM     42  C   UNL A   1      37.850  30.963  29.856  1.00  0.00     0.029 A 
ATOM     43  N   UNL A   1      39.222  30.743  31.607  1.00  0.00    -0.354 N 
ATOM     44  C   UNL A   1      39.099  33.511  34.910  1.00  0.00     0.074 A 
ATOM     45  C   UNL A   1      38.088  34.527  34.704  1.00  0.00     0.031 C 
ATOM     46  C   UNL A   1      38.636  29.900  29.621  1.00  0.00     0.029 A 
ATOM     47  C   UNL A   1      39.571  29.741  30.730  1.00  0.00     0.049 A 
ATOM     48  H   UNL A   1      39.664  30.876  32.476  1.00  0.00     0.167 HD
ATOM     49  C   UNL A   1      39.893  33.431  36.007  1.00  0.00     0.037 A 
ATOM     50  C   UNL A   1      40.541  28.808  30.799  1.00  0.00     0.037 A 
ATOM     51  C   UNL A   1      40.893  32.411  36.212  1.00  0.00     0.049 A 
ATOM     52  C   UNL A   1      41.427  28.753  32.015  1.00  0.00     0.074 A 
ATOM     53  C   UNL A   1      41.717  32.225  37.309  1.00  0.00     0.029 A 
ATOM     54  N   UNL A   1      41.210  31.412  35.304  1.00  0.00    -0.354 N 
ATOM     55  N   UNL A   1      41.416  29.522  33.078  1.00  0.00    -0.248 NA
ATOM     56  C   UNL A   1      42.451  27.700  32.047  1.00  0.00     0.031 C 
ATOM     57  C   UNL A   1      42.567  31.146  37.043  1.00  0.00     0.029 A 
ATOM     58  C   UNL A   1      42.231  30.620  35.806  1.00  0.00     0.049 A 
ATOM     59  H   UNL A   1      40.772  31.283  34.432  1.00  0.00     0.167 HD
ATOM     60  C   UNL A   1      42.411  29.028  33.916  1.00  0.00     0.074 A 
ATOM     61  C   UNL A   1      42.994  27.886  33.242  1.00  0.00     0.031 C 
ATOM     62  C   UNL A   1      42.804  29.480  35.132  1.00  0.00     0.037 A 
BRANCH  49  63
ATOM     63  C   UNL A   1      39.717  34.476  37.078  1.00  0.00     0.058 A 
ATOM     64  C   UNL A   1      38.918  34.246  38.209  1.00  0.00     0.135 A 
ATOM     65  C   UNL A   1      40.391  35.707  36.997  1.00  0.00     0.135 A 
ATOM     66  F   UNL A   1      38.243  33.092  38.337  1.00  0.00    -0.206 F 
ATOM     67  C   UNL A   1      38.768  35.207  39.204  1.00  0.00     0.059 A 
ATOM     68  C   UNL A   1      40.279  36.672  37.995  1.00  0.00     0.059 A 
ATOM     69  F   UNL A   1      41.173  35.982  35.941  1.00  0.00    -0.206 F 
ATOM     70  C   UNL A   1      39.452  36.418  39.089  1.00  0.00     0.060 A 
BRANCH  70  71
ATOM     71  S   UNL A   1      39.244  37.652  40.389  1.00  0.00     0.124 S 
ATOM     72  O   UNL A   1      38.154  38.459  39.852  1.00  0.00    -0.237 OA
ATOM     73  O   UNL A   1      38.915  36.831  41.549  1.00  0.00    -0.237 OA
ATOM     74  O   UNL A   1      40.547  38.314  40.443  1.00  0.00    -0.744 OA
ENDBRANCH  70  71
ENDBRANCH  49  63
BRANCH  50  75
ATOM     75  C   UNL A   1      40.725  27.843  29.679  1.00  0.00     0.058 A 
ATOM     76  C   UNL A   1      41.774  27.990  28.760  1.00  0.00     0.135 A 
ATOM     77  C   UNL A   1      39.861  26.749  29.514  1.00  0.00     0.135 A 
ATOM     78  F   UNL A   1      42.623  29.024  28.869  1.00  0.00    -0.206 F 
ATOM     79  C   UNL A   1      41.950  27.099  27.704  1.00  0.00     0.059 A 
ATOM     80  C   UNL A   1      40.033  25.829  28.484  1.00  0.00     0.059 A 
ATOM     81  F   UNL A   1      38.850  26.554  30.374  1.00  0.00    -0.206 F 
ATOM     82  C   UNL A   1      41.074  26.018  27.578  1.00  0.00     0.060 A 
BRANCH  82  83
ATOM     83  S   UNL A   1      41.340  24.843  26.233  1.00  0.00     0.124 S 
ATOM     84  O   UNL A   1      41.499  25.734  25.091  1.00  0.00    -0.237 OA
ATOM     85  O   UNL A   1      42.543  24.143  26.671  1.00  0.00    -0.237 OA
ATOM     86  O   UNL A   1      40.119  24.041  26.243  1.00  0.00    -0.744 OA
ENDBRANCH  82  83
ENDBRANCH  50  75
BRANCH  62  87
ATOM     87  C   UNL A   1      43.893  28.720  35.840  1.00  0.00     0.058 A 
ATOM     88  C   UNL A   1      43.612  27.642  36.694  1.00  0.00     0.135 A 
ATOM     89  C   UNL A   1      45.243  29.043  35.620  1.00  0.00     0.135 A 
ATOM     90  F   UNL A   1      42.341  27.293  36.946  1.00  0.00    -0.206 F 
ATOM     91  C   UNL A   1      44.627  26.928  37.324  1.00  0.00     0.059 A 
ATOM     92  C   UNL A   1      46.276  28.324  36.215  1.00  0.00     0.059 A 
ATOM     93  F   UNL A   1      45.571  30.060  34.806  1.00  0.00    -0.206 F 
ATOM     94  C   UNL A   1      45.957  27.274  37.075  1.00  0.00     0.060 A 
BRANCH  94  95
ATOM     95  S   UNL A   1      47.265  26.316  37.870  1.00  0.00     0.124 S 
ATOM     96  O   UNL A   1      47.302  25.119  37.036  1.00  0.00    -0.237 OA
ATOM     97  O   UNL A   1      48.417  27.206  37.753  1.00  0.00    -0.237 OA
ATOM     98  O   UNL A   1      46.767  26.120  39.228  1.00  0.00    -0.744 OA
ENDBRANCH  94  95
ENDBRANCH  62  87
ENDBRANCH  36  37
ENDBRANCH  28  31
ENDBRANCH  26  27
ENDBRANCH   1  26
TORSDOF 17
ENDMDL
