MODEL 1
REMARK VINA RESULT:     -15.2      0.000      0.000
REMARK SMILES Cc1ccc(N2C(=O)C[C@H](Sc3ccccc3C(=O)NCCCCNC(=O)c3ccc(-c4c5nc(c(-c6c(F)cc(S(=O)(=O)[O-])cc6F)c6ccc([nH]6)c(-c6c(F)cc(S(=O)(=O)[O-])cc6F)c6nc(c(-c7c(F)cc(S(=O)(=O)[O-])cc7F)c7ccc4[nH]7)C=C6)C=C5)cc3)C2=O)cc1
REMARK SMILES IDX 22 1 21 2 20 3 18 4 19 5 17 7 12 8 13 9 14 10 16 11 15 12
REMARK SMILES IDX 11 13 10 14 6 15 7 16 94 17 8 18 9 19 95 20 5 21 1 22 2 23
REMARK SMILES IDX 3 24 97 25 4 26 96 27 23 28 24 29 25 30 26 31 27 33 28 34
REMARK SMILES IDX 29 35 93 36 30 37 92 38 31 39 32 40 33 41 86 42 34 43 91 44
REMARK SMILES IDX 85 45 87 46 35 47 90 48 84 49 83 50 36 52 70 53 49 54 69 55
REMARK SMILES IDX 50 56 53 57 68 58 88 59 51 60 52 61 67 63 89 64 54 65 37 66
REMARK SMILES IDX 38 67 47 68 39 69 40 70 46 71 48 72 41 73 42 74 43 75 44 76
REMARK SMILES IDX 45 77 71 78 72 79 81 80 73 81 74 82 80 83 82 84 75 85 76 86
REMARK SMILES IDX 77 87 78 88 79 89 55 90 56 91 65 92 57 93 58 94 64 95 66 96
REMARK SMILES IDX 59 97 60 98 61 99 62 100 63 101
REMARK H PARENT 20 6 25 32 87 51 53 62
REMARK Flexibility Score: inf
ROOT
ATOM      1  C   UNL A   1      32.044  29.123  27.184  1.00  0.00     0.023 C 
ENDROOT
BRANCH   1   2
ATOM      2  C   UNL A   1      32.451  27.673  26.904  1.00  0.00     0.116 C 
BRANCH   2   3
ATOM      3  N   UNL A   1      31.360  26.698  26.914  1.00  0.00    -0.352 N 
ATOM      4  C   UNL A   1      30.860  25.808  25.987  1.00  0.00     0.252 C 
ATOM      5  O   UNL A   1      29.996  25.019  26.364  1.00  0.00    -0.269 OA
ATOM      6  H   UNL A   1      30.877  26.672  27.771  1.00  0.00     0.163 HD
BRANCH   4   7
ATOM      7  C   UNL A   1      31.289  25.812  24.562  1.00  0.00     0.053 A 
ATOM      8  C   UNL A   1      32.314  24.969  24.065  1.00  0.00     0.021 A 
ATOM      9  C   UNL A   1      32.614  25.009  22.688  1.00  0.00     0.016 A 
ATOM     10  C   UNL A   1      31.958  25.893  21.828  1.00  0.00     0.001 A 
ATOM     11  C   UNL A   1      30.720  26.764  23.699  1.00  0.00     0.015 A 
ATOM     12  C   UNL A   1      31.032  26.790  22.340  1.00  0.00     0.001 A 
BRANCH   8  13
ATOM     13  S   UNL A   1      33.538  24.090  25.054  1.00  0.00    -0.111 SA
BRANCH  13  14
ATOM     14  C   UNL A   1      34.133  22.718  24.020  1.00  0.00     0.151 C 
ATOM     15  N   UNL A   1      34.267  20.482  24.670  1.00  0.00    -0.250 N 
ATOM     16  C   UNL A   1      35.540  20.988  24.810  1.00  0.00     0.235 C 
ATOM     17  C   UNL A   1      33.379  21.430  24.210  1.00  0.00     0.247 C 
ATOM     18  O   UNL A   1      36.545  20.423  25.220  1.00  0.00    -0.274 OA
ATOM     19  C   UNL A   1      35.585  22.351  24.196  1.00  0.00     0.126 C 
ATOM     20  O   UNL A   1      32.180  21.300  23.995  1.00  0.00    -0.273 OA
BRANCH  15  21
ATOM     21  C   UNL A   1      33.944  19.118  24.884  1.00  0.00     0.052 A 
ATOM     22  C   UNL A   1      32.707  14.991  25.267  1.00  0.00     0.044 C 
ATOM     23  C   UNL A   1      33.167  16.414  25.169  1.00  0.00    -0.051 A 
ATOM     24  C   UNL A   1      32.497  17.423  25.868  1.00  0.00     0.005 A 
ATOM     25  C   UNL A   1      34.227  16.765  24.330  1.00  0.00     0.005 A 
ATOM     26  C   UNL A   1      32.899  18.758  25.746  1.00  0.00     0.027 A 
ATOM     27  C   UNL A   1      34.602  18.103  24.180  1.00  0.00     0.027 A 
ENDBRANCH  15  21
ENDBRANCH  13  14
ENDBRANCH   8  13
ENDBRANCH   4   7
ENDBRANCH   2   3
ENDBRANCH   1   2
BRANCH   1  28
ATOM     28  C   UNL A   1      33.044  30.201  26.779  1.00  0.00     0.023 C 
BRANCH  28  29
ATOM     29  C   UNL A   1      34.487  29.948  27.208  1.00  0.00     0.116 C 
BRANCH  29  30
ATOM     30  N   UNL A   1      35.227  31.143  27.573  1.00  0.00    -0.352 N 
ATOM     31  C   UNL A   1      36.496  31.213  28.148  1.00  0.00     0.251 C 
ATOM     32  H   UNL A   1      34.782  32.002  27.393  1.00  0.00     0.163 HD
ATOM     33  O   UNL A   1      36.955  32.258  28.583  1.00  0.00    -0.269 OA
BRANCH  31  34
ATOM     34  C   UNL A   1      37.311  29.981  28.129  1.00  0.00     0.039 A 
ATOM     35  C   UNL A   1      37.328  29.199  29.289  1.00  0.00     0.014 A 
ATOM     36  C   UNL A   1      38.242  29.782  27.117  1.00  0.00     0.014 A 
ATOM     37  C   UNL A   1      38.414  28.362  29.533  1.00  0.00     0.010 A 
ATOM     38  C   UNL A   1      39.363  29.027  27.398  1.00  0.00     0.010 A 
ATOM     39  C   UNL A   1      39.475  28.365  28.629  1.00  0.00    -0.014 A 
BRANCH  39  40
ATOM     40  C   UNL A   1      40.781  27.778  28.913  1.00  0.00     0.031 A 
ATOM     41  C   UNL A   1      41.053  26.371  28.549  1.00  0.00     0.074 A 
ATOM     42  C   UNL A   1      41.773  28.562  29.388  1.00  0.00     0.049 A 
ATOM     43  N   UNL A   1      42.070  25.685  28.949  1.00  0.00    -0.248 NA
ATOM     44  C   UNL A   1      40.125  25.592  27.740  1.00  0.00     0.031 C 
ATOM     45  C   UNL A   1      43.205  28.282  29.374  1.00  0.00     0.029 A 
ATOM     46  N   UNL A   1      41.650  29.708  30.181  1.00  0.00    -0.354 N 
ATOM     47  C   UNL A   1      42.089  24.499  28.244  1.00  0.00     0.074 A 
ATOM     48  C   UNL A   1      40.805  24.454  27.589  1.00  0.00     0.031 C 
ATOM     49  C   UNL A   1      43.808  29.049  30.294  1.00  0.00     0.029 A 
ATOM     50  C   UNL A   1      42.763  29.723  31.044  1.00  0.00     0.049 A 
ATOM     51  H   UNL A   1      40.925  30.374  30.143  1.00  0.00     0.167 HD
ATOM     52  C   UNL A   1      43.248  23.776  28.206  1.00  0.00     0.037 A 
ATOM     53  C   UNL A   1      42.605  29.627  32.397  1.00  0.00     0.037 A 
ATOM     54  C   UNL A   1      44.206  24.296  29.189  1.00  0.00     0.049 A 
ATOM     55  C   UNL A   1      43.244  28.400  33.006  1.00  0.00     0.074 A 
ATOM     56  C   UNL A   1      45.312  25.124  29.088  1.00  0.00     0.029 A 
ATOM     57  N   UNL A   1      43.903  24.214  30.547  1.00  0.00    -0.354 N 
ATOM     58  N   UNL A   1      43.622  27.355  32.321  1.00  0.00    -0.248 NA
ATOM     59  C   UNL A   1      43.505  28.250  34.435  1.00  0.00     0.031 C 
ATOM     60  C   UNL A   1      45.613  25.616  30.386  1.00  0.00     0.029 A 
ATOM     61  C   UNL A   1      44.712  25.062  31.281  1.00  0.00     0.049 A 
ATOM     62  H   UNL A   1      43.209  23.631  30.931  1.00  0.00     0.167 HD
ATOM     63  C   UNL A   1      44.129  26.405  33.170  1.00  0.00     0.074 A 
ATOM     64  C   UNL A   1      44.061  27.026  34.480  1.00  0.00     0.031 C 
ATOM     65  C   UNL A   1      44.554  25.183  32.725  1.00  0.00     0.037 A 
BRANCH  52  66
ATOM     66  C   UNL A   1      43.629  22.796  27.094  1.00  0.00     0.058 A 
ATOM     67  C   UNL A   1      42.885  21.607  26.897  1.00  0.00     0.135 A 
ATOM     68  C   UNL A   1      44.760  22.895  26.258  1.00  0.00     0.135 A 
ATOM     69  F   UNL A   1      41.730  21.390  27.544  1.00  0.00    -0.206 F 
ATOM     70  C   UNL A   1      43.288  20.576  26.037  1.00  0.00     0.059 A 
ATOM     71  C   UNL A   1      45.203  21.868  25.418  1.00  0.00     0.059 A 
ATOM     72  F   UNL A   1      45.482  24.012  26.163  1.00  0.00    -0.206 F 
ATOM     73  C   UNL A   1      44.471  20.701  25.324  1.00  0.00     0.060 A 
BRANCH  73  74
ATOM     74  S   UNL A   1      45.028  19.350  24.271  1.00  0.00     0.124 S 
ATOM     75  O   UNL A   1      44.505  18.181  24.970  1.00  0.00    -0.237 OA
ATOM     76  O   UNL A   1      44.391  19.670  22.998  1.00  0.00    -0.237 OA
ATOM     77  O   UNL A   1      46.483  19.480  24.288  1.00  0.00    -0.744 OA
ENDBRANCH  73  74
ENDBRANCH  52  66
BRANCH  53  78
ATOM     78  C   UNL A   1      41.379  30.313  32.890  1.00  0.00     0.058 A 
ATOM     79  C   UNL A   1      40.273  29.503  33.213  1.00  0.00     0.135 A 
ATOM     80  C   UNL A   1      41.432  31.594  33.457  1.00  0.00     0.135 A 
ATOM     81  F   UNL A   1      40.165  28.272  32.686  1.00  0.00    -0.206 F 
ATOM     82  C   UNL A   1      39.354  29.875  34.186  1.00  0.00     0.059 A 
ATOM     83  C   UNL A   1      40.514  31.992  34.432  1.00  0.00     0.059 A 
ATOM     84  F   UNL A   1      42.459  32.412  33.184  1.00  0.00    -0.206 F 
ATOM     85  C   UNL A   1      39.526  31.092  34.839  1.00  0.00     0.060 A 
BRANCH  85  86
ATOM     86  S   UNL A   1      38.570  31.369  36.350  1.00  0.00     0.124 S 
ATOM     87  O   UNL A   1      37.427  32.126  35.851  1.00  0.00    -0.237 OA
ATOM     88  O   UNL A   1      38.283  29.996  36.766  1.00  0.00    -0.237 OA
ATOM     89  O   UNL A   1      39.495  32.108  37.201  1.00  0.00    -0.744 OA
ENDBRANCH  85  86
ENDBRANCH  53  78
BRANCH  65  90
ATOM     90  C   UNL A   1      44.942  24.015  33.604  1.00  0.00     0.058 A 
ATOM     91  C   UNL A   1      44.049  23.011  34.019  1.00  0.00     0.135 A 
ATOM     92  C   UNL A   1      46.299  23.800  33.947  1.00  0.00     0.135 A 
ATOM     93  F   UNL A   1      42.757  23.035  33.661  1.00  0.00    -0.206 F 
ATOM     94  C   UNL A   1      44.457  21.912  34.779  1.00  0.00     0.059 A 
ATOM     95  C   UNL A   1      46.736  22.684  34.656  1.00  0.00     0.059 A 
ATOM     96  F   UNL A   1      47.255  24.672  33.589  1.00  0.00    -0.206 F 
ATOM     97  C   UNL A   1      45.803  21.756  35.094  1.00  0.00     0.060 A 
BRANCH  97  98
ATOM     98  S   UNL A   1      46.354  20.310  36.019  1.00  0.00     0.124 S 
ATOM     99  O   UNL A   1      45.713  20.529  37.311  1.00  0.00    -0.237 OA
ATOM    100  O   UNL A   1      45.822  19.199  35.234  1.00  0.00    -0.237 OA
ATOM    101  O   UNL A   1      47.807  20.440  36.001  1.00  0.00    -0.744 OA
ENDBRANCH  97  98
ENDBRANCH  65  90
ENDBRANCH  39  40
ENDBRANCH  31  34
ENDBRANCH  29  30
ENDBRANCH  28  29
ENDBRANCH   1  28
TORSDOF 17
ENDMDL
MODEL 2
REMARK VINA RESULT:     -14.8      4.885     11.699
REMARK SMILES Cc1ccc(N2C(=O)C[C@H](Sc3ccccc3C(=O)NCCCCNC(=O)c3ccc(-c4c5nc(c(-c6c(F)cc(S(=O)(=O)[O-])cc6F)c6ccc([nH]6)c(-c6c(F)cc(S(=O)(=O)[O-])cc6F)c6nc(c(-c7c(F)cc(S(=O)(=O)[O-])cc7F)c7ccc4[nH]7)C=C6)C=C5)cc3)C2=O)cc1
REMARK SMILES IDX 22 1 21 2 20 3 18 4 19 5 17 7 12 8 13 9 14 10 16 11 15 12
REMARK SMILES IDX 11 13 10 14 6 15 7 16 94 17 8 18 9 19 95 20 5 21 1 22 2 23
REMARK SMILES IDX 3 24 97 25 4 26 96 27 23 28 24 29 25 30 26 31 27 33 28 34
REMARK SMILES IDX 29 35 93 36 30 37 92 38 31 39 32 40 33 41 86 42 34 43 91 44
REMARK SMILES IDX 85 45 87 46 35 47 90 48 84 49 83 50 36 52 70 53 49 54 69 55
REMARK SMILES IDX 50 56 53 57 68 58 88 59 51 60 52 61 67 63 89 64 54 65 37 66
REMARK SMILES IDX 38 67 47 68 39 69 40 70 46 71 48 72 41 73 42 74 43 75 44 76
REMARK SMILES IDX 45 77 71 78 72 79 81 80 73 81 74 82 80 83 82 84 75 85 76 86
REMARK SMILES IDX 77 87 78 88 79 89 55 90 56 91 65 92 57 93 58 94 64 95 66 96
REMARK SMILES IDX 59 97 60 98 61 99 62 100 63 101
REMARK H PARENT 20 6 25 32 87 51 53 62
REMARK Flexibility Score: inf
ROOT
ATOM      1  C   UNL A   1      37.810  20.979  24.999  1.00  0.00     0.023 C 
ENDROOT
BRANCH   1   2
ATOM      2  C   UNL A   1      36.473  20.232  25.020  1.00  0.00     0.116 C 
BRANCH   2   3
ATOM      3  N   UNL A   1      35.480  20.742  25.965  1.00  0.00    -0.352 N 
ATOM      4  C   UNL A   1      34.159  21.123  25.856  1.00  0.00     0.252 C 
ATOM      5  O   UNL A   1      33.555  21.389  26.893  1.00  0.00    -0.269 OA
ATOM      6  H   UNL A   1      35.831  20.833  26.879  1.00  0.00     0.163 HD
BRANCH   4   7
ATOM      7  C   UNL A   1      33.474  21.269  24.542  1.00  0.00     0.053 A 
ATOM      8  C   UNL A   1      33.526  22.460  23.776  1.00  0.00     0.021 A 
ATOM      9  C   UNL A   1      32.888  22.483  22.520  1.00  0.00     0.016 A 
ATOM     10  C   UNL A   1      32.173  21.380  22.048  1.00  0.00     0.001 A 
ATOM     11  C   UNL A   1      32.663  20.212  24.094  1.00  0.00     0.015 A 
ATOM     12  C   UNL A   1      32.037  20.256  22.849  1.00  0.00     0.001 A 
BRANCH   8  13
ATOM     13  S   UNL A   1      34.018  24.087  24.377  1.00  0.00    -0.111 SA
BRANCH  13  14
ATOM     14  C   UNL A   1      32.604  25.188  24.068  1.00  0.00     0.151 C 
ATOM     15  N   UNL A   1      32.126  27.150  25.235  1.00  0.00    -0.250 N 
ATOM     16  C   UNL A   1      31.312  26.183  25.782  1.00  0.00     0.235 C 
ATOM     17  C   UNL A   1      32.916  26.651  24.222  1.00  0.00     0.247 C 
ATOM     18  O   UNL A   1      30.519  26.288  26.708  1.00  0.00    -0.274 OA
ATOM     19  C   UNL A   1      31.393  24.952  24.936  1.00  0.00     0.126 C 
ATOM     20  O   UNL A   1      33.748  27.249  23.550  1.00  0.00    -0.273 OA
BRANCH  15  21
ATOM     21  C   UNL A   1      32.075  28.515  25.613  1.00  0.00     0.052 A 
ATOM     22  C   UNL A   1      31.630  32.596  26.977  1.00  0.00     0.044 C 
ATOM     23  C   UNL A   1      31.821  31.195  26.478  1.00  0.00    -0.051 A 
ATOM     24  C   UNL A   1      31.104  30.736  25.370  1.00  0.00     0.005 A 
ATOM     25  C   UNL A   1      32.668  30.310  27.148  1.00  0.00     0.005 A 
ATOM     26  C   UNL A   1      31.249  29.416  24.927  1.00  0.00     0.027 A 
ATOM     27  C   UNL A   1      32.783  28.981  26.728  1.00  0.00     0.027 A 
ENDBRANCH  15  21
ENDBRANCH  13  14
ENDBRANCH   8  13
ENDBRANCH   4   7
ENDBRANCH   2   3
ENDBRANCH   1   2
BRANCH   1  28
ATOM     28  C   UNL A   1      37.739  22.496  24.860  1.00  0.00     0.023 C 
BRANCH  28  29
ATOM     29  C   UNL A   1      38.001  23.283  26.143  1.00  0.00     0.116 C 
BRANCH  29  30
ATOM     30  N   UNL A   1      39.276  22.998  26.776  1.00  0.00    -0.352 N 
ATOM     31  C   UNL A   1      40.169  23.913  27.334  1.00  0.00     0.251 C 
ATOM     32  H   UNL A   1      39.541  22.051  26.815  1.00  0.00     0.163 HD
ATOM     33  O   UNL A   1      41.296  23.592  27.678  1.00  0.00    -0.269 OA
BRANCH  31  34
ATOM     34  C   UNL A   1      39.666  25.279  27.580  1.00  0.00     0.039 A 
ATOM     35  C   UNL A   1      40.133  26.300  26.745  1.00  0.00     0.014 A 
ATOM     36  C   UNL A   1      39.002  25.569  28.766  1.00  0.00     0.014 A 
ATOM     37  C   UNL A   1      40.129  27.614  27.206  1.00  0.00     0.010 A 
ATOM     38  C   UNL A   1      39.082  26.855  29.263  1.00  0.00     0.010 A 
ATOM     39  C   UNL A   1      39.697  27.864  28.508  1.00  0.00    -0.014 A 
BRANCH  39  40
ATOM     40  C   UNL A   1      39.923  29.125  29.207  1.00  0.00     0.031 A 
ATOM     41  C   UNL A   1      38.909  30.200  29.139  1.00  0.00     0.074 A 
ATOM     42  C   UNL A   1      40.997  29.254  30.017  1.00  0.00     0.049 A 
ATOM     43  N   UNL A   1      39.094  31.419  29.517  1.00  0.00    -0.248 NA
ATOM     44  C   UNL A   1      37.594  29.980  28.551  1.00  0.00     0.031 C 
ATOM     45  C   UNL A   1      41.197  30.244  31.070  1.00  0.00     0.029 A 
ATOM     46  N   UNL A   1      42.235  28.615  29.900  1.00  0.00    -0.354 N 
ATOM     47  C   UNL A   1      37.874  32.063  29.493  1.00  0.00     0.074 A 
ATOM     48  C   UNL A   1      37.005  31.153  28.789  1.00  0.00     0.031 C 
ATOM     49  C   UNL A   1      42.508  30.335  31.339  1.00  0.00     0.029 A 
ATOM     50  C   UNL A   1      43.206  29.530  30.353  1.00  0.00     0.049 A 
ATOM     51  H   UNL A   1      42.397  27.703  29.565  1.00  0.00     0.167 HD
ATOM     52  C   UNL A   1      37.732  33.228  30.193  1.00  0.00     0.037 A 
ATOM     53  C   UNL A   1      44.166  30.011  29.510  1.00  0.00     0.037 A 
ATOM     54  C   UNL A   1      39.043  33.722  30.631  1.00  0.00     0.049 A 
ATOM     55  C   UNL A   1      44.109  31.507  29.301  1.00  0.00     0.074 A 
ATOM     56  C   UNL A   1      39.723  33.669  31.838  1.00  0.00     0.029 A 
ATOM     57  N   UNL A   1      39.979  34.115  29.675  1.00  0.00    -0.354 N 
ATOM     58  N   UNL A   1      43.079  32.249  29.600  1.00  0.00    -0.248 NA
ATOM     59  C   UNL A   1      45.207  32.286  28.735  1.00  0.00     0.031 C 
ATOM     60  C   UNL A   1      41.093  33.939  31.584  1.00  0.00     0.029 A 
ATOM     61  C   UNL A   1      41.244  34.190  30.229  1.00  0.00     0.049 A 
ATOM     62  H   UNL A   1      39.768  34.313  28.734  1.00  0.00     0.167 HD
ATOM     63  C   UNL A   1      43.331  33.552  29.257  1.00  0.00     0.074 A 
ATOM     64  C   UNL A   1      44.690  33.527  28.746  1.00  0.00     0.031 C 
ATOM     65  C   UNL A   1      42.399  34.541  29.412  1.00  0.00     0.037 A 
BRANCH  52  66
ATOM     66  C   UNL A   1      36.405  33.767  30.733  1.00  0.00     0.058 A 
ATOM     67  C   UNL A   1      35.389  34.195  29.845  1.00  0.00     0.135 A 
ATOM     68  C   UNL A   1      36.096  33.991  32.090  1.00  0.00     0.135 A 
ATOM     69  F   UNL A   1      35.477  33.978  28.524  1.00  0.00    -0.206 F 
ATOM     70  C   UNL A   1      34.237  34.877  30.260  1.00  0.00     0.059 A 
ATOM     71  C   UNL A   1      34.973  34.699  32.529  1.00  0.00     0.059 A 
ATOM     72  F   UNL A   1      36.838  33.498  33.082  1.00  0.00    -0.206 F 
ATOM     73  C   UNL A   1      34.053  35.156  31.605  1.00  0.00     0.060 A 
BRANCH  73  74
ATOM     74  S   UNL A   1      32.607  36.092  32.136  1.00  0.00     0.124 S 
ATOM     75  O   UNL A   1      31.687  35.033  32.537  1.00  0.00    -0.237 OA
ATOM     76  O   UNL A   1      33.149  36.910  33.216  1.00  0.00    -0.237 OA
ATOM     77  O   UNL A   1      32.217  36.827  30.935  1.00  0.00    -0.744 OA
ENDBRANCH  73  74
ENDBRANCH  52  66
BRANCH  53  78
ATOM     78  C   UNL A   1      44.625  29.003  28.514  1.00  0.00     0.058 A 
ATOM     79  C   UNL A   1      44.075  29.081  27.220  1.00  0.00     0.135 A 
ATOM     80  C   UNL A   1      45.843  28.326  28.662  1.00  0.00     0.135 A 
ATOM     81  F   UNL A   1      42.901  29.706  27.024  1.00  0.00    -0.206 F 
ATOM     82  C   UNL A   1      44.781  28.662  26.100  1.00  0.00     0.059 A 
ATOM     83  C   UNL A   1      46.568  27.890  27.549  1.00  0.00     0.059 A 
ATOM     84  F   UNL A   1      46.414  28.217  29.871  1.00  0.00    -0.206 F 
ATOM     85  C   UNL A   1      46.057  28.132  26.272  1.00  0.00     0.060 A 
BRANCH  85  86
ATOM     86  S   UNL A   1      47.096  27.969  24.800  1.00  0.00     0.124 S 
ATOM     87  O   UNL A   1      48.438  28.076  25.363  1.00  0.00    -0.237 OA
ATOM     88  O   UNL A   1      46.716  26.639  24.324  1.00  0.00    -0.237 OA
ATOM     89  O   UNL A   1      46.670  29.085  23.964  1.00  0.00    -0.744 OA
ENDBRANCH  85  86
ENDBRANCH  53  78
BRANCH  65  90
ATOM     90  C   UNL A   1      42.521  35.954  28.887  1.00  0.00     0.058 A 
ATOM     91  C   UNL A   1      43.296  36.956  29.496  1.00  0.00     0.135 A 
ATOM     92  C   UNL A   1      41.949  36.303  27.639  1.00  0.00     0.135 A 
ATOM     93  F   UNL A   1      43.985  36.717  30.622  1.00  0.00    -0.206 F 
ATOM     94  C   UNL A   1      43.436  38.233  28.948  1.00  0.00     0.059 A 
ATOM     95  C   UNL A   1      42.122  37.552  27.047  1.00  0.00     0.059 A 
ATOM     96  F   UNL A   1      41.206  35.428  26.944  1.00  0.00    -0.206 F 
ATOM     97  C   UNL A   1      42.845  38.523  27.723  1.00  0.00     0.060 A 
BRANCH  97  98
ATOM     98  S   UNL A   1      43.071  40.146  26.972  1.00  0.00     0.124 S 
ATOM     99  O   UNL A   1      44.203  39.901  26.084  1.00  0.00    -0.237 OA
ATOM    100  O   UNL A   1      41.791  40.380  26.308  1.00  0.00    -0.237 OA
ATOM    101  O   UNL A   1      43.338  41.008  28.119  1.00  0.00    -0.744 OA
ENDBRANCH  97  98
ENDBRANCH  65  90
ENDBRANCH  39  40
ENDBRANCH  31  34
ENDBRANCH  29  30
ENDBRANCH  28  29
ENDBRANCH   1  28
TORSDOF 17
ENDMDL
MODEL 3
REMARK VINA RESULT:     -14.7      4.743     11.553
REMARK SMILES Cc1ccc(N2C(=O)C[C@H](Sc3ccccc3C(=O)NCCCCNC(=O)c3ccc(-c4c5nc(c(-c6c(F)cc(S(=O)(=O)[O-])cc6F)c6ccc([nH]6)c(-c6c(F)cc(S(=O)(=O)[O-])cc6F)c6nc(c(-c7c(F)cc(S(=O)(=O)[O-])cc7F)c7ccc4[nH]7)C=C6)C=C5)cc3)C2=O)cc1
REMARK SMILES IDX 22 1 21 2 20 3 18 4 19 5 17 7 12 8 13 9 14 10 16 11 15 12
REMARK SMILES IDX 11 13 10 14 6 15 7 16 94 17 8 18 9 19 95 20 5 21 1 22 2 23
REMARK SMILES IDX 3 24 97 25 4 26 96 27 23 28 24 29 25 30 26 31 27 33 28 34
REMARK SMILES IDX 29 35 93 36 30 37 92 38 31 39 32 40 33 41 86 42 34 43 91 44
REMARK SMILES IDX 85 45 87 46 35 47 90 48 84 49 83 50 36 52 70 53 49 54 69 55
REMARK SMILES IDX 50 56 53 57 68 58 88 59 51 60 52 61 67 63 89 64 54 65 37 66
REMARK SMILES IDX 38 67 47 68 39 69 40 70 46 71 48 72 41 73 42 74 43 75 44 76
REMARK SMILES IDX 45 77 71 78 72 79 81 80 73 81 74 82 80 83 82 84 75 85 76 86
REMARK SMILES IDX 77 87 78 88 79 89 55 90 56 91 65 92 57 93 58 94 64 95 66 96
REMARK SMILES IDX 59 97 60 98 61 99 62 100 63 101
REMARK H PARENT 20 6 25 32 87 51 53 62
REMARK Flexibility Score: inf
ROOT
ATOM      1  C   UNL A   1      37.850  21.077  25.248  1.00  0.00     0.023 C 
ENDROOT
BRANCH   1   2
ATOM      2  C   UNL A   1      36.559  20.310  24.948  1.00  0.00     0.116 C 
BRANCH   2   3
ATOM      3  N   UNL A   1      35.387  20.720  25.721  1.00  0.00    -0.352 N 
ATOM      4  C   UNL A   1      34.041  20.432  25.649  1.00  0.00     0.252 C 
ATOM      5  O   UNL A   1      33.319  20.850  26.552  1.00  0.00    -0.269 OA
ATOM      6  H   UNL A   1      35.608  21.339  26.454  1.00  0.00     0.163 HD
BRANCH   4   7
ATOM      7  C   UNL A   1      33.442  19.690  24.505  1.00  0.00     0.053 A 
ATOM      8  C   UNL A   1      32.663  20.320  23.503  1.00  0.00     0.021 A 
ATOM      9  C   UNL A   1      32.182  19.541  22.431  1.00  0.00     0.016 A 
ATOM     10  C   UNL A   1      32.418  18.166  22.371  1.00  0.00     0.001 A 
ATOM     11  C   UNL A   1      33.575  18.291  24.477  1.00  0.00     0.015 A 
ATOM     12  C   UNL A   1      33.090  17.538  23.409  1.00  0.00     0.001 A 
BRANCH   8  13
ATOM     13  S   UNL A   1      31.906  21.952  23.618  1.00  0.00    -0.111 SA
BRANCH  13  14
ATOM     14  C   UNL A   1      33.264  23.117  23.944  1.00  0.00     0.151 C 
ATOM     15  N   UNL A   1      33.063  25.436  24.085  1.00  0.00    -0.250 N 
ATOM     16  C   UNL A   1      33.529  25.179  22.815  1.00  0.00     0.235 C 
ATOM     17  C   UNL A   1      32.881  24.282  24.815  1.00  0.00     0.247 C 
ATOM     18  O   UNL A   1      33.765  25.972  21.913  1.00  0.00    -0.274 OA
ATOM     19  C   UNL A   1      33.901  23.733  22.724  1.00  0.00     0.126 C 
ATOM     20  O   UNL A   1      32.469  24.173  25.964  1.00  0.00    -0.273 OA
BRANCH  15  21
ATOM     21  C   UNL A   1      32.890  26.746  24.600  1.00  0.00     0.052 A 
ATOM     22  C   UNL A   1      32.207  30.588  26.466  1.00  0.00     0.044 C 
ATOM     23  C   UNL A   1      32.463  29.279  25.782  1.00  0.00    -0.051 A 
ATOM     24  C   UNL A   1      31.470  28.686  24.997  1.00  0.00     0.005 A 
ATOM     25  C   UNL A   1      33.670  28.601  25.970  1.00  0.00     0.005 A 
ATOM     26  C   UNL A   1      31.692  27.443  24.392  1.00  0.00     0.027 A 
ATOM     27  C   UNL A   1      33.875  27.343  25.395  1.00  0.00     0.027 A 
ENDBRANCH  15  21
ENDBRANCH  13  14
ENDBRANCH   8  13
ENDBRANCH   4   7
ENDBRANCH   2   3
ENDBRANCH   1   2
BRANCH   1  28
ATOM     28  C   UNL A   1      37.795  22.592  25.087  1.00  0.00     0.023 C 
BRANCH  28  29
ATOM     29  C   UNL A   1      38.062  23.394  26.359  1.00  0.00     0.116 C 
BRANCH  29  30
ATOM     30  N   UNL A   1      39.344  23.125  26.984  1.00  0.00    -0.352 N 
ATOM     31  C   UNL A   1      40.272  24.056  27.454  1.00  0.00     0.251 C 
ATOM     32  H   UNL A   1      39.587  22.177  27.089  1.00  0.00     0.163 HD
ATOM     33  O   UNL A   1      41.398  23.733  27.797  1.00  0.00    -0.269 OA
BRANCH  31  34
ATOM     34  C   UNL A   1      39.806  25.449  27.608  1.00  0.00     0.039 A 
ATOM     35  C   UNL A   1      40.412  26.425  26.809  1.00  0.00     0.014 A 
ATOM     36  C   UNL A   1      39.024  25.801  28.702  1.00  0.00     0.014 A 
ATOM     37  C   UNL A   1      40.415  27.751  27.236  1.00  0.00     0.010 A 
ATOM     38  C   UNL A   1      39.106  27.096  29.174  1.00  0.00     0.010 A 
ATOM     39  C   UNL A   1      39.849  28.056  28.472  1.00  0.00    -0.014 A 
BRANCH  39  40
ATOM     40  C   UNL A   1      40.051  29.326  29.163  1.00  0.00     0.031 A 
ATOM     41  C   UNL A   1      39.006  30.371  29.107  1.00  0.00     0.074 A 
ATOM     42  C   UNL A   1      41.133  29.487  29.956  1.00  0.00     0.049 A 
ATOM     43  N   UNL A   1      39.163  31.597  29.478  1.00  0.00    -0.248 NA
ATOM     44  C   UNL A   1      37.689  30.113  28.541  1.00  0.00     0.031 C 
ATOM     45  C   UNL A   1      41.322  30.487  31.002  1.00  0.00     0.029 A 
ATOM     46  N   UNL A   1      42.387  28.882  29.821  1.00  0.00    -0.354 N 
ATOM     47  C   UNL A   1      37.926  32.206  29.471  1.00  0.00     0.074 A 
ATOM     48  C   UNL A   1      37.071  31.270  28.784  1.00  0.00     0.031 C 
ATOM     49  C   UNL A   1      42.634  30.615  31.250  1.00  0.00     0.029 A 
ATOM     50  C   UNL A   1      43.339  29.826  30.256  1.00  0.00     0.049 A 
ATOM     51  H   UNL A   1      42.568  27.974  29.487  1.00  0.00     0.167 HD
ATOM     52  C   UNL A   1      37.762  33.370  30.169  1.00  0.00     0.037 A 
ATOM     53  C   UNL A   1      44.272  30.330  29.396  1.00  0.00     0.037 A 
ATOM     54  C   UNL A   1      39.066  33.902  30.584  1.00  0.00     0.049 A 
ATOM     55  C   UNL A   1      44.170  31.823  29.182  1.00  0.00     0.074 A 
ATOM     56  C   UNL A   1      39.765  33.873  31.780  1.00  0.00     0.029 A 
ATOM     57  N   UNL A   1      39.976  34.317  29.612  1.00  0.00    -0.354 N 
ATOM     58  N   UNL A   1      43.124  32.537  29.495  1.00  0.00    -0.248 NA
ATOM     59  C   UNL A   1      45.237  32.630  28.596  1.00  0.00     0.031 C 
ATOM     60  C   UNL A   1      41.124  34.180  31.503  1.00  0.00     0.029 A 
ATOM     61  C   UNL A   1      41.246  34.429  30.146  1.00  0.00     0.049 A 
ATOM     62  H   UNL A   1      39.744  34.505  28.673  1.00  0.00     0.167 HD
ATOM     63  C   UNL A   1      43.335  33.845  29.143  1.00  0.00     0.074 A 
ATOM     64  C   UNL A   1      44.685  33.856  28.611  1.00  0.00     0.031 C 
ATOM     65  C   UNL A   1      42.378  34.809  29.309  1.00  0.00     0.037 A 
BRANCH  52  66
ATOM     66  C   UNL A   1      36.430  33.874  30.727  1.00  0.00     0.058 A 
ATOM     67  C   UNL A   1      35.390  34.274  29.854  1.00  0.00     0.135 A 
ATOM     68  C   UNL A   1      36.135  34.092  32.089  1.00  0.00     0.135 A 
ATOM     69  F   UNL A   1      35.464  34.057  28.532  1.00  0.00    -0.206 F 
ATOM     70  C   UNL A   1      34.226  34.926  30.285  1.00  0.00     0.059 A 
ATOM     71  C   UNL A   1      34.999  34.770  32.543  1.00  0.00     0.059 A 
ATOM     72  F   UNL A   1      36.903  33.619  33.071  1.00  0.00    -0.206 F 
ATOM     73  C   UNL A   1      34.054  35.202  31.633  1.00  0.00     0.060 A 
BRANCH  73  74
ATOM     74  S   UNL A   1      32.592  36.099  32.184  1.00  0.00     0.124 S 
ATOM     75  O   UNL A   1      32.224  36.848  30.986  1.00  0.00    -0.237 OA
ATOM     76  O   UNL A   1      31.691  35.017  32.562  1.00  0.00    -0.237 OA
ATOM     77  O   UNL A   1      33.088  36.912  33.292  1.00  0.00    -0.744 OA
ENDBRANCH  73  74
ENDBRANCH  52  66
BRANCH  53  78
ATOM     78  C   UNL A   1      44.742  29.331  28.396  1.00  0.00     0.058 A 
ATOM     79  C   UNL A   1      45.695  28.387  28.829  1.00  0.00     0.135 A 
ATOM     80  C   UNL A   1      43.983  29.014  27.261  1.00  0.00     0.135 A 
ATOM     81  F   UNL A   1      46.459  28.647  29.903  1.00  0.00    -0.206 F 
ATOM     82  C   UNL A   1      45.770  27.118  28.270  1.00  0.00     0.059 A 
ATOM     83  C   UNL A   1      44.049  27.745  26.679  1.00  0.00     0.059 A 
ATOM     84  F   UNL A   1      43.064  29.875  26.801  1.00  0.00    -0.206 F 
ATOM     85  C   UNL A   1      44.893  26.785  27.242  1.00  0.00     0.060 A 
BRANCH  85  86
ATOM     86  S   UNL A   1      44.741  25.035  26.812  1.00  0.00     0.124 S 
ATOM     87  O   UNL A   1      46.043  24.754  26.217  1.00  0.00    -0.237 OA
ATOM     88  O   UNL A   1      44.505  24.433  28.124  1.00  0.00    -0.237 OA
ATOM     89  O   UNL A   1      43.609  25.013  25.893  1.00  0.00    -0.744 OA
ENDBRANCH  85  86
ENDBRANCH  53  78
BRANCH  65  90
ATOM     90  C   UNL A   1      42.453  36.222  28.777  1.00  0.00     0.058 A 
ATOM     91  C   UNL A   1      43.133  37.271  29.420  1.00  0.00     0.135 A 
ATOM     92  C   UNL A   1      41.937  36.529  27.494  1.00  0.00     0.135 A 
ATOM     93  F   UNL A   1      43.767  37.079  30.587  1.00  0.00    -0.206 F 
ATOM     94  C   UNL A   1      43.235  38.549  28.867  1.00  0.00     0.059 A 
ATOM     95  C   UNL A   1      42.075  37.781  26.900  1.00  0.00     0.059 A 
ATOM     96  F   UNL A   1      41.287  35.609  26.765  1.00  0.00    -0.206 F 
ATOM     97  C   UNL A   1      42.702  38.797  27.606  1.00  0.00     0.060 A 
BRANCH  97  98
ATOM     98  S   UNL A   1      42.882  40.425  26.852  1.00  0.00     0.124 S 
ATOM     99  O   UNL A   1      41.505  40.722  26.470  1.00  0.00    -0.237 OA
ATOM    100  O   UNL A   1      43.419  41.233  27.944  1.00  0.00    -0.237 OA
ATOM    101  O   UNL A   1      43.807  40.179  25.752  1.00  0.00    -0.744 OA
ENDBRANCH  97  98
ENDBRANCH  65  90
ENDBRANCH  39  40
ENDBRANCH  31  34
ENDBRANCH  29  30
ENDBRANCH  28  29
ENDBRANCH   1  28
TORSDOF 17
ENDMDL
