MODEL 1
REMARK VINA RESULT:     -12.2      0.000      0.000
REMARK SMILES O=C(NCCCCNC(=O)c1ccc(-c2c3nc(c(-c4c(F)cc(S(=O)(=O)[O-])cc4F)c4ccc([nH]4)c(-c4c(F)cc(S(=O)(=O)[O-])cc4F)c4nc(c(-c5c(F)cc(S(=O)(=O)[O-])cc5F)c5ccc2[nH]5)C=C4)C=C3)cc1)C1=Cc2cc(Cl)cc(Cl)c2O[C@@H]1C(F)(F)F
REMARK SMILES IDX 6 1 5 2 4 3 3 4 1 5 2 6 77 8 78 9 88 10 79 11 87 12 80 13
REMARK SMILES IDX 86 14 81 15 84 16 82 17 83 18 85 19 89 20 90 21 91 22 92 23
REMARK SMILES IDX 7 24 8 25 9 26 10 28 11 29 12 30 76 31 13 32 75 33 14 34
REMARK SMILES IDX 15 35 16 36 69 37 17 38 74 39 68 40 70 41 18 42 73 43 67 44
REMARK SMILES IDX 66 45 19 47 53 48 32 49 52 50 33 51 36 52 51 53 71 54 34 55
REMARK SMILES IDX 35 56 50 58 72 59 37 60 20 61 21 62 30 63 22 64 23 65 29 66
REMARK SMILES IDX 31 67 24 68 25 69 26 70 27 71 28 72 54 73 55 74 64 75 56 76
REMARK SMILES IDX 57 77 63 78 65 79 58 80 59 81 60 82 61 83 62 84 38 85 39 86
REMARK SMILES IDX 48 87 40 88 41 89 47 90 49 91 42 92 43 93 44 94 45 95 46 96
REMARK H PARENT 3 7 8 27 70 46 36 57
REMARK Flexibility Score: inf
ROOT
ATOM      1  C   UNL A   1      32.059  28.171  27.017  1.00  0.00     0.023 C 
ENDROOT
BRANCH   1   2
ATOM      2  C   UNL A   1      31.690  27.799  25.580  1.00  0.00     0.023 C 
BRANCH   2   3
ATOM      3  C   UNL A   1      30.698  26.636  25.462  1.00  0.00     0.116 C 
BRANCH   3   4
ATOM      4  N   UNL A   1      30.851  25.629  26.517  1.00  0.00    -0.352 N 
ATOM      5  O   UNL A   1      31.886  23.973  27.674  1.00  0.00    -0.270 OA
ATOM      6  C   UNL A   1      31.714  24.562  26.616  1.00  0.00     0.251 C 
ATOM      7  H   UNL A   1      30.236  25.734  27.279  1.00  0.00     0.163 HD
BRANCH   6   8
ATOM      8  C   UNL A   1      32.507  24.209  25.424  1.00  0.00     0.067 C 
ATOM      9  C   UNL A   1      33.753  24.682  25.311  1.00  0.00     0.025 C 
ATOM     10  C   UNL A   1      32.001  23.090  24.568  1.00  0.00     0.314 C 
ATOM     11  C   UNL A   1      34.719  23.616  25.000  1.00  0.00     0.020 A 
ATOM     12  O   UNL A   1      32.950  22.003  24.494  1.00  0.00    -0.474 OA
ATOM     13  C   UNL A   1      36.047  23.828  25.390  1.00  0.00     0.032 A 
ATOM     14  C   UNL A   1      34.270  22.303  24.741  1.00  0.00     0.146 A 
ATOM     15  C   UNL A   1      36.894  22.739  25.588  1.00  0.00     0.043 A 
ATOM     16  C   UNL A   1      35.148  21.223  24.911  1.00  0.00     0.085 A 
ATOM     17  Cl  UNL A   1      38.465  23.004  26.233  1.00  0.00    -0.084 Cl
ATOM     18  C   UNL A   1      36.452  21.439  25.358  1.00  0.00     0.045 A 
ATOM     19  Cl  UNL A   1      34.607  19.593  24.720  1.00  0.00    -0.080 Cl
BRANCH  10  20
ATOM     20  C   UNL A   1      31.636  23.590  23.158  1.00  0.00     0.429 C 
ATOM     21  F   UNL A   1      32.274  22.875  22.201  1.00  0.00    -0.167 F 
ATOM     22  F   UNL A   1      30.310  23.482  22.908  1.00  0.00    -0.167 F 
ATOM     23  F   UNL A   1      31.971  24.891  22.970  1.00  0.00    -0.167 F 
ENDBRANCH  10  20
ENDBRANCH   6   8
ENDBRANCH   3   4
ENDBRANCH   2   3
ENDBRANCH   1   2
BRANCH   1  24
ATOM     24  C   UNL A   1      33.465  28.724  27.245  1.00  0.00     0.116 C 
BRANCH  24  25
ATOM     25  N   UNL A   1      33.513  30.080  27.773  1.00  0.00    -0.352 N 
ATOM     26  C   UNL A   1      34.600  30.748  28.298  1.00  0.00     0.251 C 
ATOM     27  H   UNL A   1      32.666  30.581  27.754  1.00  0.00     0.163 HD
ATOM     28  O   UNL A   1      34.484  31.897  28.717  1.00  0.00    -0.269 OA
BRANCH  26  29
ATOM     29  C   UNL A   1      35.896  30.039  28.406  1.00  0.00     0.039 A 
ATOM     30  C   UNL A   1      36.788  30.101  27.333  1.00  0.00     0.014 A 
ATOM     31  C   UNL A   1      36.271  29.421  29.601  1.00  0.00     0.014 A 
ATOM     32  C   UNL A   1      38.099  29.645  27.498  1.00  0.00     0.010 A 
ATOM     33  C   UNL A   1      37.595  29.034  29.787  1.00  0.00     0.010 A 
ATOM     34  C   UNL A   1      38.530  29.165  28.748  1.00  0.00    -0.014 A 
BRANCH  34  35
ATOM     35  C   UNL A   1      39.961  28.850  29.002  1.00  0.00     0.031 A 
ATOM     36  C   UNL A   1      40.879  29.895  29.573  1.00  0.00     0.074 A 
ATOM     37  C   UNL A   1      40.453  27.649  28.637  1.00  0.00     0.049 A 
ATOM     38  N   UNL A   1      42.169  29.832  29.789  1.00  0.00    -0.248 NA
ATOM     39  C   UNL A   1      40.274  31.191  29.917  1.00  0.00     0.031 C 
ATOM     40  C   UNL A   1      39.683  26.568  28.017  1.00  0.00     0.029 A 
ATOM     41  N   UNL A   1      41.725  27.135  28.723  1.00  0.00    -0.354 N 
ATOM     42  C   UNL A   1      42.532  31.080  30.278  1.00  0.00     0.074 A 
ATOM     43  C   UNL A   1      41.335  31.896  30.280  1.00  0.00     0.031 C 
ATOM     44  C   UNL A   1      40.488  25.514  27.806  1.00  0.00     0.029 A 
ATOM     45  C   UNL A   1      41.840  25.852  28.241  1.00  0.00     0.049 A 
ATOM     46  H   UNL A   1      42.484  27.640  29.097  1.00  0.00     0.167 HD
ATOM     47  C   UNL A   1      43.745  31.504  30.708  1.00  0.00     0.037 A 
ATOM     48  C   UNL A   1      42.911  25.039  28.159  1.00  0.00     0.037 A 
ATOM     49  C   UNL A   1      44.926  30.683  30.733  1.00  0.00     0.049 A 
ATOM     50  C   UNL A   1      44.244  25.525  28.657  1.00  0.00     0.074 A 
ATOM     51  C   UNL A   1      46.187  31.001  31.207  1.00  0.00     0.029 A 
ATOM     52  N   UNL A   1      44.994  29.378  30.265  1.00  0.00    -0.354 N 
ATOM     53  N   UNL A   1      44.554  26.689  29.177  1.00  0.00    -0.248 NA
ATOM     54  C   UNL A   1      45.371  24.587  28.563  1.00  0.00     0.031 C 
ATOM     55  C   UNL A   1      47.024  29.899  30.999  1.00  0.00     0.029 A 
ATOM     56  C   UNL A   1      46.277  28.883  30.427  1.00  0.00     0.049 A 
ATOM     57  H   UNL A   1      44.240  28.879  29.874  1.00  0.00     0.167 HD
ATOM     58  C   UNL A   1      45.905  26.613  29.496  1.00  0.00     0.074 A 
ATOM     59  C   UNL A   1      46.352  25.288  29.118  1.00  0.00     0.031 C 
ATOM     60  C   UNL A   1      46.702  27.557  30.054  1.00  0.00     0.037 A 
BRANCH  47  61
ATOM     61  C   UNL A   1      43.845  32.922  31.194  1.00  0.00     0.058 A 
ATOM     62  C   UNL A   1      43.650  33.249  32.546  1.00  0.00     0.135 A 
ATOM     63  C   UNL A   1      44.142  33.966  30.304  1.00  0.00     0.135 A 
ATOM     64  F   UNL A   1      43.349  32.291  33.437  1.00  0.00    -0.206 F 
ATOM     65  C   UNL A   1      43.706  34.566  32.991  1.00  0.00     0.059 A 
ATOM     66  C   UNL A   1      44.229  35.287  30.732  1.00  0.00     0.059 A 
ATOM     67  F   UNL A   1      44.339  33.709  29.001  1.00  0.00    -0.206 F 
ATOM     68  C   UNL A   1      43.988  35.580  32.074  1.00  0.00     0.060 A 
BRANCH  68  69
ATOM     69  S   UNL A   1      44.036  37.286  32.660  1.00  0.00     0.124 S 
ATOM     70  O   UNL A   1      42.974  37.277  33.662  1.00  0.00    -0.237 OA
ATOM     71  O   UNL A   1      45.396  37.402  33.181  1.00  0.00    -0.237 OA
ATOM     72  O   UNL A   1      43.760  38.065  31.458  1.00  0.00    -0.744 OA
ENDBRANCH  68  69
ENDBRANCH  47  61
BRANCH  48  73
ATOM     73  C   UNL A   1      42.761  23.663  27.613  1.00  0.00     0.058 A 
ATOM     74  C   UNL A   1      42.520  22.577  28.469  1.00  0.00     0.135 A 
ATOM     75  C   UNL A   1      42.843  23.406  26.237  1.00  0.00     0.135 A 
ATOM     76  F   UNL A   1      42.439  22.773  29.793  1.00  0.00    -0.206 F 
ATOM     77  C   UNL A   1      42.380  21.282  27.981  1.00  0.00     0.059 A 
ATOM     78  C   UNL A   1      42.686  22.123  25.723  1.00  0.00     0.059 A 
ATOM     79  F   UNL A   1      43.056  24.414  25.376  1.00  0.00    -0.206 F 
ATOM     80  C   UNL A   1      42.463  21.065  26.605  1.00  0.00     0.060 A 
BRANCH  80  81
ATOM     81  S   UNL A   1      42.228  19.388  25.976  1.00  0.00     0.124 S 
ATOM     82  O   UNL A   1      43.080  19.396  24.794  1.00  0.00    -0.237 OA
ATOM     83  O   UNL A   1      42.692  18.572  27.093  1.00  0.00    -0.237 OA
ATOM     84  O   UNL A   1      40.791  19.328  25.721  1.00  0.00    -0.744 OA
ENDBRANCH  80  81
ENDBRANCH  48  73
BRANCH  60  85
ATOM     85  C   UNL A   1      48.133  27.182  30.321  1.00  0.00     0.058 A 
ATOM     86  C   UNL A   1      49.167  27.559  29.451  1.00  0.00     0.135 A 
ATOM     87  C   UNL A   1      48.476  26.478  31.486  1.00  0.00     0.135 A 
ATOM     88  F   UNL A   1      48.888  28.225  28.319  1.00  0.00    -0.206 F 
ATOM     89  C   UNL A   1      50.493  27.238  29.720  1.00  0.00     0.059 A 
ATOM     90  C   UNL A   1      49.798  26.166  31.785  1.00  0.00     0.059 A 
ATOM     91  F   UNL A   1      47.524  26.102  32.354  1.00  0.00    -0.206 F 
ATOM     92  C   UNL A   1      50.799  26.541  30.890  1.00  0.00     0.060 A 
BRANCH  92  93
ATOM     93  S   UNL A   1      52.528  26.162  31.250  1.00  0.00     0.124 S 
ATOM     94  O   UNL A   1      53.084  26.032  29.907  1.00  0.00    -0.237 OA
ATOM     95  O   UNL A   1      52.958  27.336  32.004  1.00  0.00    -0.237 OA
ATOM     96  O   UNL A   1      52.450  24.925  32.021  1.00  0.00    -0.744 OA
ENDBRANCH  92  93
ENDBRANCH  60  85
ENDBRANCH  34  35
ENDBRANCH  26  29
ENDBRANCH  24  25
ENDBRANCH   1  24
TORSDOF 15
ENDMDL
MODEL 2
REMARK VINA RESULT:     -11.8      1.804      2.742
REMARK SMILES O=C(NCCCCNC(=O)c1ccc(-c2c3nc(c(-c4c(F)cc(S(=O)(=O)[O-])cc4F)c4ccc([nH]4)c(-c4c(F)cc(S(=O)(=O)[O-])cc4F)c4nc(c(-c5c(F)cc(S(=O)(=O)[O-])cc5F)c5ccc2[nH]5)C=C4)C=C3)cc1)C1=Cc2cc(Cl)cc(Cl)c2O[C@@H]1C(F)(F)F
REMARK SMILES IDX 6 1 5 2 4 3 3 4 1 5 2 6 77 8 78 9 88 10 79 11 87 12 80 13
REMARK SMILES IDX 86 14 81 15 84 16 82 17 83 18 85 19 89 20 90 21 91 22 92 23
REMARK SMILES IDX 7 24 8 25 9 26 10 28 11 29 12 30 76 31 13 32 75 33 14 34
REMARK SMILES IDX 15 35 16 36 69 37 17 38 74 39 68 40 70 41 18 42 73 43 67 44
REMARK SMILES IDX 66 45 19 47 53 48 32 49 52 50 33 51 36 52 51 53 71 54 34 55
REMARK SMILES IDX 35 56 50 58 72 59 37 60 20 61 21 62 30 63 22 64 23 65 29 66
REMARK SMILES IDX 31 67 24 68 25 69 26 70 27 71 28 72 54 73 55 74 64 75 56 76
REMARK SMILES IDX 57 77 63 78 65 79 58 80 59 81 60 82 61 83 62 84 38 85 39 86
REMARK SMILES IDX 48 87 40 88 41 89 47 90 49 91 42 92 43 93 44 94 45 95 46 96
REMARK H PARENT 3 7 8 27 70 46 36 57
REMARK Flexibility Score: inf
ROOT
ATOM      1  C   UNL A   1      32.194  28.628  26.390  1.00  0.00     0.023 C 
ENDROOT
BRANCH   1   2
ATOM      2  C   UNL A   1      31.525  27.266  26.580  1.00  0.00     0.023 C 
BRANCH   2   3
ATOM      3  C   UNL A   1      32.482  26.072  26.495  1.00  0.00     0.116 C 
BRANCH   3   4
ATOM      4  N   UNL A   1      31.800  24.773  26.535  1.00  0.00    -0.352 N 
ATOM      5  O   UNL A   1      31.126  22.756  25.743  1.00  0.00    -0.270 OA
ATOM      6  C   UNL A   1      31.461  23.911  25.519  1.00  0.00     0.251 C 
ATOM      7  H   UNL A   1      31.544  24.470  27.436  1.00  0.00     0.163 HD
BRANCH   6   8
ATOM      8  C   UNL A   1      31.609  24.392  24.133  1.00  0.00     0.067 C 
ATOM      9  C   UNL A   1      30.580  25.016  23.550  1.00  0.00     0.025 C 
ATOM     10  C   UNL A   1      32.995  24.447  23.569  1.00  0.00     0.314 C 
ATOM     11  C   UNL A   1      30.984  26.296  22.945  1.00  0.00     0.020 A 
ATOM     12  O   UNL A   1      33.365  25.793  23.192  1.00  0.00    -0.474 OA
ATOM     13  C   UNL A   1      29.992  27.275  22.809  1.00  0.00     0.032 A 
ATOM     14  C   UNL A   1      32.344  26.674  22.922  1.00  0.00     0.146 A 
ATOM     15  C   UNL A   1      30.352  28.619  22.723  1.00  0.00     0.043 A 
ATOM     16  C   UNL A   1      32.686  28.028  22.798  1.00  0.00     0.085 A 
ATOM     17  Cl  UNL A   1      29.121  29.819  22.731  1.00  0.00    -0.084 Cl
ATOM     18  C   UNL A   1      31.691  29.002  22.723  1.00  0.00     0.045 A 
ATOM     19  Cl  UNL A   1      34.333  28.544  22.883  1.00  0.00    -0.080 Cl
BRANCH  10  20
ATOM     20  C   UNL A   1      33.147  23.487  22.375  1.00  0.00     0.429 C 
ATOM     21  F   UNL A   1      34.392  22.955  22.325  1.00  0.00    -0.167 F 
ATOM     22  F   UNL A   1      32.282  22.448  22.444  1.00  0.00    -0.167 F 
ATOM     23  F   UNL A   1      32.933  24.104  21.187  1.00  0.00    -0.167 F 
ENDBRANCH  10  20
ENDBRANCH   6   8
ENDBRANCH   3   4
ENDBRANCH   2   3
ENDBRANCH   1   2
BRANCH   1  24
ATOM     24  C   UNL A   1      33.421  28.919  27.254  1.00  0.00     0.116 C 
BRANCH  24  25
ATOM     25  N   UNL A   1      33.470  30.260  27.818  1.00  0.00    -0.352 N 
ATOM     26  C   UNL A   1      34.550  30.902  28.389  1.00  0.00     0.251 C 
ATOM     27  H   UNL A   1      32.630  30.772  27.788  1.00  0.00     0.163 HD
ATOM     28  O   UNL A   1      34.436  32.040  28.834  1.00  0.00    -0.269 OA
BRANCH  26  29
ATOM     29  C   UNL A   1      35.834  30.174  28.514  1.00  0.00     0.039 A 
ATOM     30  C   UNL A   1      36.712  30.168  27.427  1.00  0.00     0.014 A 
ATOM     31  C   UNL A   1      36.214  29.606  29.732  1.00  0.00     0.014 A 
ATOM     32  C   UNL A   1      38.017  29.695  27.597  1.00  0.00     0.010 A 
ATOM     33  C   UNL A   1      37.534  29.203  29.918  1.00  0.00     0.010 A 
ATOM     34  C   UNL A   1      38.456  29.267  28.862  1.00  0.00    -0.014 A 
BRANCH  34  35
ATOM     35  C   UNL A   1      39.885  28.938  29.113  1.00  0.00     0.031 A 
ATOM     36  C   UNL A   1      40.814  29.971  29.684  1.00  0.00     0.074 A 
ATOM     37  C   UNL A   1      40.364  27.732  28.744  1.00  0.00     0.049 A 
ATOM     38  N   UNL A   1      42.103  29.896  29.898  1.00  0.00    -0.248 NA
ATOM     39  C   UNL A   1      40.222  31.272  30.034  1.00  0.00     0.031 C 
ATOM     40  C   UNL A   1      39.582  26.661  28.122  1.00  0.00     0.029 A 
ATOM     41  N   UNL A   1      41.631  27.206  28.825  1.00  0.00    -0.354 N 
ATOM     42  C   UNL A   1      42.480  31.139  30.389  1.00  0.00     0.074 A 
ATOM     43  C   UNL A   1      41.291  31.966  30.396  1.00  0.00     0.031 C 
ATOM     44  C   UNL A   1      40.376  25.600  27.906  1.00  0.00     0.029 A 
ATOM     45  C   UNL A   1      41.732  25.924  28.340  1.00  0.00     0.049 A 
ATOM     46  H   UNL A   1      42.395  27.702  29.199  1.00  0.00     0.167 HD
ATOM     47  C   UNL A   1      43.697  31.550  30.819  1.00  0.00     0.037 A 
ATOM     48  C   UNL A   1      42.795  25.100  28.253  1.00  0.00     0.037 A 
ATOM     49  C   UNL A   1      44.871  30.717  30.838  1.00  0.00     0.049 A 
ATOM     50  C   UNL A   1      44.134  25.572  28.750  1.00  0.00     0.074 A 
ATOM     51  C   UNL A   1      46.136  31.022  31.311  1.00  0.00     0.029 A 
ATOM     52  N   UNL A   1      44.925  29.413  30.367  1.00  0.00    -0.354 N 
ATOM     53  N   UNL A   1      44.456  26.731  29.272  1.00  0.00    -0.248 NA
ATOM     54  C   UNL A   1      45.252  24.623  28.651  1.00  0.00     0.031 C 
ATOM     55  C   UNL A   1      46.962  29.912  31.098  1.00  0.00     0.029 A 
ATOM     56  C   UNL A   1      46.203  28.904  30.524  1.00  0.00     0.049 A 
ATOM     57  H   UNL A   1      44.166  28.922  29.976  1.00  0.00     0.167 HD
ATOM     58  C   UNL A   1      45.807  26.641  29.589  1.00  0.00     0.074 A 
ATOM     59  C   UNL A   1      46.240  25.313  29.205  1.00  0.00     0.031 C 
ATOM     60  C   UNL A   1      46.615  27.576  30.147  1.00  0.00     0.037 A 
BRANCH  47  61
ATOM     61  C   UNL A   1      43.813  32.965  31.308  1.00  0.00     0.058 A 
ATOM     62  C   UNL A   1      43.584  33.296  32.654  1.00  0.00     0.135 A 
ATOM     63  C   UNL A   1      44.157  34.003  30.428  1.00  0.00     0.135 A 
ATOM     64  F   UNL A   1      43.237  32.345  33.535  1.00  0.00    -0.206 F 
ATOM     65  C   UNL A   1      43.654  34.611  33.101  1.00  0.00     0.059 A 
ATOM     66  C   UNL A   1      44.258  35.322  30.860  1.00  0.00     0.059 A 
ATOM     67  F   UNL A   1      44.388  33.742  29.131  1.00  0.00    -0.206 F 
ATOM     68  C   UNL A   1      43.984  35.619  32.194  1.00  0.00     0.060 A 
BRANCH  68  69
ATOM     69  S   UNL A   1      44.050  37.324  32.782  1.00  0.00     0.124 S 
ATOM     70  O   UNL A   1      45.400  37.387  33.335  1.00  0.00    -0.237 OA
ATOM     71  O   UNL A   1      43.833  38.088  31.557  1.00  0.00    -0.237 OA
ATOM     72  O   UNL A   1      42.967  37.388  33.758  1.00  0.00    -0.744 OA
ENDBRANCH  68  69
ENDBRANCH  47  61
BRANCH  48  73
ATOM     73  C   UNL A   1      42.630  23.727  27.704  1.00  0.00     0.058 A 
ATOM     74  C   UNL A   1      42.449  22.631  28.561  1.00  0.00     0.135 A 
ATOM     75  C   UNL A   1      42.641  23.483  26.323  1.00  0.00     0.135 A 
ATOM     76  F   UNL A   1      42.438  22.815  29.890  1.00  0.00    -0.206 F 
ATOM     77  C   UNL A   1      42.296  21.339  28.070  1.00  0.00     0.059 A 
ATOM     78  C   UNL A   1      42.469  22.203  25.806  1.00  0.00     0.059 A 
ATOM     79  F   UNL A   1      42.795  24.501  25.461  1.00  0.00    -0.206 F 
ATOM     80  C   UNL A   1      42.307  21.135  26.689  1.00  0.00     0.060 A 
BRANCH  80  81
ATOM     81  S   UNL A   1      42.056  19.461  26.059  1.00  0.00     0.124 S 
ATOM     82  O   UNL A   1      42.551  18.653  27.166  1.00  0.00    -0.237 OA
ATOM     83  O   UNL A   1      40.614  19.428  25.837  1.00  0.00    -0.237 OA
ATOM     84  O   UNL A   1      42.869  19.438  24.845  1.00  0.00    -0.744 OA
ENDBRANCH  80  81
ENDBRANCH  48  73
BRANCH  60  85
ATOM     85  C   UNL A   1      48.042  27.186  30.410  1.00  0.00     0.058 A 
ATOM     86  C   UNL A   1      49.059  27.442  29.478  1.00  0.00     0.135 A 
ATOM     87  C   UNL A   1      48.402  26.592  31.630  1.00  0.00     0.135 A 
ATOM     88  F   UNL A   1      48.763  28.000  28.292  1.00  0.00    -0.206 F 
ATOM     89  C   UNL A   1      50.383  27.110  29.740  1.00  0.00     0.059 A 
ATOM     90  C   UNL A   1      49.724  26.272  31.922  1.00  0.00     0.059 A 
ATOM     91  F   UNL A   1      47.468  26.334  32.558  1.00  0.00    -0.206 F 
ATOM     92  C   UNL A   1      50.706  26.524  30.966  1.00  0.00     0.060 A 
BRANCH  92  93
ATOM     93  S   UNL A   1      52.435  26.131  31.312  1.00  0.00     0.124 S 
ATOM     94  O   UNL A   1      52.813  27.228  32.197  1.00  0.00    -0.237 OA
ATOM     95  O   UNL A   1      52.340  24.815  31.937  1.00  0.00    -0.237 OA
ATOM     96  O   UNL A   1      53.056  26.146  29.991  1.00  0.00    -0.744 OA
ENDBRANCH  92  93
ENDBRANCH  60  85
ENDBRANCH  34  35
ENDBRANCH  26  29
ENDBRANCH  24  25
ENDBRANCH   1  24
TORSDOF 15
ENDMDL
MODEL 3
REMARK VINA RESULT:     -11.8      0.609      8.222
REMARK SMILES O=C(NCCCCNC(=O)c1ccc(-c2c3nc(c(-c4c(F)cc(S(=O)(=O)[O-])cc4F)c4ccc([nH]4)c(-c4c(F)cc(S(=O)(=O)[O-])cc4F)c4nc(c(-c5c(F)cc(S(=O)(=O)[O-])cc5F)c5ccc2[nH]5)C=C4)C=C3)cc1)C1=Cc2cc(Cl)cc(Cl)c2O[C@@H]1C(F)(F)F
REMARK SMILES IDX 6 1 5 2 4 3 3 4 1 5 2 6 77 8 78 9 88 10 79 11 87 12 80 13
REMARK SMILES IDX 86 14 81 15 84 16 82 17 83 18 85 19 89 20 90 21 91 22 92 23
REMARK SMILES IDX 7 24 8 25 9 26 10 28 11 29 12 30 76 31 13 32 75 33 14 34
REMARK SMILES IDX 15 35 16 36 69 37 17 38 74 39 68 40 70 41 18 42 73 43 67 44
REMARK SMILES IDX 66 45 19 47 53 48 32 49 52 50 33 51 36 52 51 53 71 54 34 55
REMARK SMILES IDX 35 56 50 58 72 59 37 60 20 61 21 62 30 63 22 64 23 65 29 66
REMARK SMILES IDX 31 67 24 68 25 69 26 70 27 71 28 72 54 73 55 74 64 75 56 76
REMARK SMILES IDX 57 77 63 78 65 79 58 80 59 81 60 82 61 83 62 84 38 85 39 86
REMARK SMILES IDX 48 87 40 88 41 89 47 90 49 91 42 92 43 93 44 94 45 95 46 96
REMARK H PARENT 3 7 8 27 70 46 36 57
REMARK Flexibility Score: inf
ROOT
ATOM      1  C   UNL A   1      32.362  28.416  26.301  1.00  0.00     0.023 C 
ENDROOT
BRANCH   1   2
ATOM      2  C   UNL A   1      31.426  27.351  26.877  1.00  0.00     0.023 C 
BRANCH   2   3
ATOM      3  C   UNL A   1      31.361  26.056  26.060  1.00  0.00     0.116 C 
BRANCH   3   4
ATOM      4  N   UNL A   1      31.350  24.844  26.887  1.00  0.00    -0.352 N 
ATOM      5  O   UNL A   1      32.154  22.894  27.724  1.00  0.00    -0.270 OA
ATOM      6  C   UNL A   1      32.110  23.702  26.806  1.00  0.00     0.251 C 
ATOM      7  H   UNL A   1      30.692  24.851  27.619  1.00  0.00     0.163 HD
BRANCH   6   8
ATOM      8  C   UNL A   1      32.956  23.524  25.612  1.00  0.00     0.067 C 
ATOM      9  C   UNL A   1      34.133  24.157  25.551  1.00  0.00     0.025 C 
ATOM     10  C   UNL A   1      32.608  22.403  24.682  1.00  0.00     0.314 C 
ATOM     11  C   UNL A   1      35.232  23.243  25.198  1.00  0.00     0.020 A 
ATOM     12  O   UNL A   1      33.690  21.451  24.565  1.00  0.00    -0.474 OA
ATOM     13  C   UNL A   1      36.516  23.598  25.626  1.00  0.00     0.032 A 
ATOM     14  C   UNL A   1      34.958  21.902  24.854  1.00  0.00     0.146 A 
ATOM     15  C   UNL A   1      37.493  22.616  25.777  1.00  0.00     0.043 A 
ATOM     16  C   UNL A   1      35.965  20.934  24.979  1.00  0.00     0.085 A 
ATOM     17  Cl  UNL A   1      39.009  23.039  26.467  1.00  0.00    -0.084 Cl
ATOM     18  C   UNL A   1      37.224  21.286  25.464  1.00  0.00     0.045 A 
ATOM     19  Cl  UNL A   1      35.639  19.262  24.683  1.00  0.00    -0.080 Cl
BRANCH  10  20
ATOM     20  C   UNL A   1      32.200  22.936  23.297  1.00  0.00     0.429 C 
ATOM     21  F   UNL A   1      31.452  22.030  22.621  1.00  0.00    -0.167 F 
ATOM     22  F   UNL A   1      31.459  24.066  23.384  1.00  0.00    -0.167 F 
ATOM     23  F   UNL A   1      33.273  23.223  22.519  1.00  0.00    -0.167 F 
ENDBRANCH  10  20
ENDBRANCH   6   8
ENDBRANCH   3   4
ENDBRANCH   2   3
ENDBRANCH   1   2
BRANCH   1  24
ATOM     24  C   UNL A   1      33.604  28.758  27.123  1.00  0.00     0.116 C 
BRANCH  24  25
ATOM     25  N   UNL A   1      33.570  30.061  27.772  1.00  0.00    -0.352 N 
ATOM     26  C   UNL A   1      34.609  30.730  28.387  1.00  0.00     0.251 C 
ATOM     27  H   UNL A   1      32.699  30.520  27.774  1.00  0.00     0.163 HD
ATOM     28  O   UNL A   1      34.424  31.828  28.904  1.00  0.00    -0.269 OA
BRANCH  26  29
ATOM     29  C   UNL A   1      35.936  30.078  28.467  1.00  0.00     0.039 A 
ATOM     30  C   UNL A   1      36.781  30.131  27.355  1.00  0.00     0.014 A 
ATOM     31  C   UNL A   1      36.384  29.524  29.669  1.00  0.00     0.014 A 
ATOM     32  C   UNL A   1      38.115  29.733  27.483  1.00  0.00     0.010 A 
ATOM     33  C   UNL A   1      37.730  29.197  29.813  1.00  0.00     0.010 A 
ATOM     34  C   UNL A   1      38.615  29.322  28.731  1.00  0.00    -0.014 A 
BRANCH  34  35
ATOM     35  C   UNL A   1      40.067  29.075  28.937  1.00  0.00     0.031 A 
ATOM     36  C   UNL A   1      40.668  27.742  28.588  1.00  0.00     0.074 A 
ATOM     37  C   UNL A   1      40.828  30.024  29.520  1.00  0.00     0.049 A 
ATOM     38  N   UNL A   1      41.892  27.315  28.769  1.00  0.00    -0.248 NA
ATOM     39  C   UNL A   1      39.767  26.749  27.983  1.00  0.00     0.031 C 
ATOM     40  C   UNL A   1      40.355  31.338  29.964  1.00  0.00     0.029 A 
ATOM     41  N   UNL A   1      42.161  30.027  29.854  1.00  0.00    -0.354 N 
ATOM     42  C   UNL A   1      41.905  26.001  28.317  1.00  0.00     0.074 A 
ATOM     43  C   UNL A   1      40.555  25.687  27.900  1.00  0.00     0.031 C 
ATOM     44  C   UNL A   1      41.384  32.028  30.482  1.00  0.00     0.029 A 
ATOM     45  C   UNL A   1      42.583  31.196  30.442  1.00  0.00     0.049 A 
ATOM     46  H   UNL A   1      42.759  29.263  29.685  1.00  0.00     0.167 HD
ATOM     47  C   UNL A   1      42.949  25.142  28.235  1.00  0.00     0.037 A 
ATOM     48  C   UNL A   1      43.798  31.559  30.899  1.00  0.00     0.037 A 
ATOM     49  C   UNL A   1      44.297  25.466  28.623  1.00  0.00     0.049 A 
ATOM     50  C   UNL A   1      44.946  30.594  30.783  1.00  0.00     0.074 A 
ATOM     51  C   UNL A   1      45.434  24.685  28.521  1.00  0.00     0.029 A 
ATOM     52  N   UNL A   1      44.690  26.672  29.186  1.00  0.00    -0.354 N 
ATOM     53  N   UNL A   1      44.953  29.377  30.294  1.00  0.00    -0.248 NA
ATOM     54  C   UNL A   1      46.253  31.052  31.277  1.00  0.00     0.031 C 
ATOM     55  C   UNL A   1      46.510  25.408  29.050  1.00  0.00     0.029 A 
ATOM     56  C   UNL A   1      46.049  26.652  29.450  1.00  0.00     0.049 A 
ATOM     57  H   UNL A   1      44.089  27.430  29.373  1.00  0.00     0.167 HD
ATOM     58  C   UNL A   1      46.266  28.935  30.395  1.00  0.00     0.074 A 
ATOM     59  C   UNL A   1      47.028  30.016  30.987  1.00  0.00     0.031 C 
ATOM     60  C   UNL A   1      46.794  27.740  30.029  1.00  0.00     0.037 A 
BRANCH  47  61
ATOM     61  C   UNL A   1      42.668  23.768  27.696  1.00  0.00     0.058 A 
ATOM     62  C   UNL A   1      42.384  22.690  28.549  1.00  0.00     0.135 A 
ATOM     63  C   UNL A   1      42.680  23.524  26.313  1.00  0.00     0.135 A 
ATOM     64  F   UNL A   1      42.375  22.865  29.880  1.00  0.00    -0.206 F 
ATOM     65  C   UNL A   1      42.160  21.410  28.054  1.00  0.00     0.059 A 
ATOM     66  C   UNL A   1      42.433  22.256  25.795  1.00  0.00     0.059 A 
ATOM     67  F   UNL A   1      42.945  24.519  25.452  1.00  0.00    -0.206 F 
ATOM     68  C   UNL A   1      42.195  21.201  26.675  1.00  0.00     0.060 A 
BRANCH  68  69
ATOM     69  S   UNL A   1      41.925  19.531  26.046  1.00  0.00     0.124 S 
ATOM     70  O   UNL A   1      42.844  19.497  24.912  1.00  0.00    -0.237 OA
ATOM     71  O   UNL A   1      42.298  18.701  27.187  1.00  0.00    -0.237 OA
ATOM     72  O   UNL A   1      40.506  19.522  25.706  1.00  0.00    -0.744 OA
ENDBRANCH  68  69
ENDBRANCH  47  61
BRANCH  48  73
ATOM     73  C   UNL A   1      44.002  32.914  31.477  1.00  0.00     0.058 A 
ATOM     74  C   UNL A   1      43.889  33.126  32.860  1.00  0.00     0.135 A 
ATOM     75  C   UNL A   1      44.322  34.016  30.670  1.00  0.00     0.135 A 
ATOM     76  F   UNL A   1      43.579  32.104  33.671  1.00  0.00    -0.206 F 
ATOM     77  C   UNL A   1      44.072  34.385  33.421  1.00  0.00     0.059 A 
ATOM     78  C   UNL A   1      44.530  35.281  31.210  1.00  0.00     0.059 A 
ATOM     79  F   UNL A   1      44.457  33.861  29.343  1.00  0.00    -0.206 F 
ATOM     80  C   UNL A   1      44.394  35.457  32.587  1.00  0.00     0.060 A 
BRANCH  80  81
ATOM     81  S   UNL A   1      44.681  37.079  33.331  1.00  0.00     0.124 S 
ATOM     82  O   UNL A   1      45.098  36.713  34.679  1.00  0.00    -0.237 OA
ATOM     83  O   UNL A   1      45.720  37.633  32.469  1.00  0.00    -0.237 OA
ATOM     84  O   UNL A   1      43.378  37.728  33.225  1.00  0.00    -0.744 OA
ENDBRANCH  80  81
ENDBRANCH  48  73
BRANCH  60  85
ATOM     85  C   UNL A   1      48.271  27.549  30.227  1.00  0.00     0.058 A 
ATOM     86  C   UNL A   1      48.795  27.067  31.436  1.00  0.00     0.135 A 
ATOM     87  C   UNL A   1      49.167  27.806  29.177  1.00  0.00     0.135 A 
ATOM     88  F   UNL A   1      47.980  26.815  32.473  1.00  0.00    -0.206 F 
ATOM     89  C   UNL A   1      50.160  26.860  31.603  1.00  0.00     0.059 A 
ATOM     90  C   UNL A   1      50.533  27.585  29.315  1.00  0.00     0.059 A 
ATOM     91  F   UNL A   1      48.715  28.261  27.999  1.00  0.00    -0.206 F 
ATOM     92  C   UNL A   1      51.022  27.122  30.536  1.00  0.00     0.060 A 
BRANCH  92  93
ATOM     93  S   UNL A   1      52.789  26.814  30.750  1.00  0.00     0.124 S 
ATOM     94  O   UNL A   1      53.250  26.782  29.366  1.00  0.00    -0.237 OA
ATOM     95  O   UNL A   1      53.217  27.967  31.536  1.00  0.00    -0.237 OA
ATOM     96  O   UNL A   1      52.826  25.535  31.454  1.00  0.00    -0.744 OA
ENDBRANCH  92  93
ENDBRANCH  60  85
ENDBRANCH  34  35
ENDBRANCH  26  29
ENDBRANCH  24  25
ENDBRANCH   1  24
TORSDOF 15
ENDMDL
