MODEL 1
REMARK VINA RESULT:     -11.5      0.000      0.000
REMARK SMILES COc1ccc(CCNC(=O)[C@@]2(C)CC[C@@H](C(=O)NCCCCNC(=O)c3ccc(-c4c5nc(c(-c6c(F)cc(S(=O)(=O)[O-])cc6F)c6ccc([nH]6)c(-c6c(F)cc(S(=O)(=O)[O-])cc6F)c6nc(c(-c7c(F)cc(S(=O)(=O)[O-])cc7F)c7ccc4[nH]7)C=C6)C=C5)cc3)C2(C)C)cc1OC
REMARK SMILES IDX 20 1 19 2 17 3 18 4 16 6 12 7 13 8 14 9 93 10 15 11 94 12
REMARK SMILES IDX 95 13 10 14 9 15 11 17 8 18 7 19 6 20 3 21 4 22 97 23 5 24
REMARK SMILES IDX 96 25 2 26 1 27 98 28 99 29 21 30 22 31 23 32 24 33 25 34
REMARK SMILES IDX 26 36 27 37 28 38 92 39 29 40 91 41 30 42 31 43 32 44 85 45
REMARK SMILES IDX 33 46 90 47 84 48 86 49 34 50 89 51 83 52 82 53 35 55 69 56
REMARK SMILES IDX 48 57 68 58 49 59 52 60 67 61 87 62 50 63 51 64 66 66 88 67
REMARK SMILES IDX 53 68 36 69 37 70 46 71 38 72 39 73 45 74 47 75 40 76 41 77
REMARK SMILES IDX 42 78 43 79 44 80 70 81 71 82 80 83 72 84 73 85 79 86 81 87
REMARK SMILES IDX 74 88 75 89 76 90 77 91 78 92 54 93 55 94 64 95 56 96 57 97
REMARK SMILES IDX 63 98 65 99 58 100 59 101 60 102 61 103 62 104
REMARK H PARENT 19 5 9 16 24 35 86 54 52 65
REMARK Flexibility Score: inf
ROOT
ATOM      1  C   UNL A   1      38.135  22.733  25.768  1.00  0.00     0.116 C 
ENDROOT
BRANCH   1   2
ATOM      2  N   UNL A   1      37.493  22.882  24.481  1.00  0.00    -0.356 N 
ATOM      3  C   UNL A   1      36.222  22.636  24.083  1.00  0.00     0.223 C 
ATOM      4  O   UNL A   1      35.962  22.860  22.894  1.00  0.00    -0.275 OA
ATOM      5  H   UNL A   1      38.083  23.222  23.770  1.00  0.00     0.163 HD
BRANCH   3   6
ATOM      6  C   UNL A   1      35.101  22.144  25.010  1.00  0.00     0.085 C 
ATOM      7  C   UNL A   1      32.579  22.430  25.013  1.00  0.00     0.052 C 
ATOM      8  C   UNL A   1      31.772  21.959  26.240  1.00  0.00     0.022 C 
ATOM      9  C   UNL A   1      32.996  21.164  24.213  1.00  0.00     0.018 C 
ATOM     10  C   UNL A   1      33.977  23.113  25.494  1.00  0.00    -0.010 C 
ATOM     11  C   UNL A   1      34.437  20.849  24.560  1.00  0.00     0.015 C 
ATOM     12  C   UNL A   1      34.231  24.575  25.083  1.00  0.00     0.013 C 
ATOM     13  C   UNL A   1      34.094  23.226  27.050  1.00  0.00     0.013 C 
BRANCH   7  14
ATOM     14  C   UNL A   1      31.708  23.291  24.031  1.00  0.00     0.226 C 
ATOM     15  N   UNL A   1      30.741  24.155  24.438  1.00  0.00    -0.355 N 
ATOM     16  H   UNL A   1      30.129  24.425  23.715  1.00  0.00     0.163 HD
ATOM     17  O   UNL A   1      31.749  23.161  22.805  1.00  0.00    -0.274 OA
BRANCH  15  18
ATOM     18  C   UNL A   1      30.426  24.763  25.716  1.00  0.00     0.120 C 
BRANCH  18  19
ATOM     19  C   UNL A   1      31.017  26.178  25.816  1.00  0.00     0.057 C 
BRANCH  19  20
ATOM     20  C   UNL A   1      30.723  27.012  24.592  1.00  0.00    -0.042 A 
ATOM     21  C   UNL A   1      30.230  28.737  22.433  1.00  0.00     0.160 A 
ATOM     22  C   UNL A   1      29.175  28.048  23.046  1.00  0.00     0.051 A 
ATOM     23  C   UNL A   1      31.544  28.548  22.879  1.00  0.00     0.160 A 
ATOM     24  C   UNL A   1      29.422  27.176  24.110  1.00  0.00     0.008 A 
ATOM     25  C   UNL A   1      31.773  27.686  23.956  1.00  0.00     0.054 A 
BRANCH  21  26
ATOM     26  O   UNL A   1      29.941  29.691  21.494  1.00  0.00    -0.493 OA
ATOM     27  C   UNL A   1      29.167  30.765  22.022  1.00  0.00     0.278 C 
ENDBRANCH  21  26
BRANCH  23  28
ATOM     28  O   UNL A   1      32.691  29.137  22.421  1.00  0.00    -0.493 OA
ATOM     29  C   UNL A   1      33.928  28.559  22.805  1.00  0.00     0.278 C 
ENDBRANCH  23  28
ENDBRANCH  19  20
ENDBRANCH  18  19
ENDBRANCH  15  18
ENDBRANCH   7  14
ENDBRANCH   3   6
ENDBRANCH   1   2
BRANCH   1  30
ATOM     30  C   UNL A   1      38.367  24.058  26.494  1.00  0.00     0.023 C 
BRANCH  30  31
ATOM     31  C   UNL A   1      39.753  24.649  26.315  1.00  0.00     0.023 C 
BRANCH  31  32
ATOM     32  C   UNL A   1      40.868  23.698  26.698  1.00  0.00     0.116 C 
BRANCH  32  33
ATOM     33  N   UNL A   1      42.160  24.115  26.166  1.00  0.00    -0.352 N 
ATOM     34  C   UNL A   1      42.857  25.272  26.410  1.00  0.00     0.251 C 
ATOM     35  H   UNL A   1      42.591  23.481  25.547  1.00  0.00     0.163 HD
ATOM     36  O   UNL A   1      43.834  25.570  25.731  1.00  0.00    -0.269 OA
BRANCH  34  37
ATOM     37  C   UNL A   1      42.391  26.155  27.495  1.00  0.00     0.039 A 
ATOM     38  C   UNL A   1      41.971  25.600  28.704  1.00  0.00     0.014 A 
ATOM     39  C   UNL A   1      42.445  27.540  27.325  1.00  0.00     0.014 A 
ATOM     40  C   UNL A   1      41.655  26.447  29.766  1.00  0.00     0.010 A 
ATOM     41  C   UNL A   1      42.257  28.370  28.417  1.00  0.00     0.010 A 
ATOM     42  C   UNL A   1      41.826  27.836  29.639  1.00  0.00    -0.014 A 
BRANCH  42  43
ATOM     43  C   UNL A   1      41.503  28.765  30.747  1.00  0.00     0.031 A 
ATOM     44  C   UNL A   1      42.320  28.711  32.013  1.00  0.00     0.074 A 
ATOM     45  C   UNL A   1      40.452  29.601  30.642  1.00  0.00     0.049 A 
ATOM     46  N   UNL A   1      42.164  29.378  33.126  1.00  0.00    -0.248 NA
ATOM     47  C   UNL A   1      43.436  27.748  32.046  1.00  0.00     0.031 C 
ATOM     48  C   UNL A   1      39.550  29.692  29.491  1.00  0.00     0.029 A 
ATOM     49  N   UNL A   1      39.959  30.530  31.522  1.00  0.00    -0.354 N 
ATOM     50  C   UNL A   1      43.141  28.898  33.991  1.00  0.00     0.074 A 
ATOM     51  C   UNL A   1      43.833  27.832  33.304  1.00  0.00     0.031 C 
ATOM     52  C   UNL A   1      38.638  30.651  29.721  1.00  0.00     0.029 A 
ATOM     53  C   UNL A   1      38.865  31.214  31.048  1.00  0.00     0.049 A 
ATOM     54  H   UNL A   1      40.351  30.692  32.410  1.00  0.00     0.167 HD
ATOM     55  C   UNL A   1      43.459  29.333  35.232  1.00  0.00     0.037 A 
ATOM     56  C   UNL A   1      38.132  32.188  31.621  1.00  0.00     0.037 A 
ATOM     57  C   UNL A   1      42.792  30.425  35.886  1.00  0.00     0.049 A 
ATOM     58  C   UNL A   1      38.523  32.676  32.991  1.00  0.00     0.074 A 
ATOM     59  C   UNL A   1      43.069  30.990  37.116  1.00  0.00     0.029 A 
ATOM     60  N   UNL A   1      41.715  31.121  35.356  1.00  0.00    -0.354 N 
ATOM     61  N   UNL A   1      39.491  32.255  33.771  1.00  0.00    -0.248 NA
ATOM     62  C   UNL A   1      37.730  33.777  33.554  1.00  0.00     0.031 C 
ATOM     63  C   UNL A   1      42.133  32.003  37.350  1.00  0.00     0.029 A 
ATOM     64  C   UNL A   1      41.308  32.105  36.241  1.00  0.00     0.049 A 
ATOM     65  H   UNL A   1      41.302  30.943  34.481  1.00  0.00     0.167 HD
ATOM     66  C   UNL A   1      39.448  33.065  34.902  1.00  0.00     0.074 A 
ATOM     67  C   UNL A   1      38.364  34.004  34.697  1.00  0.00     0.031 C 
ATOM     68  C   UNL A   1      40.233  33.038  36.007  1.00  0.00     0.037 A 
BRANCH  55  69
ATOM     69  C   UNL A   1      44.585  28.635  35.947  1.00  0.00     0.058 A 
ATOM     70  C   UNL A   1      44.357  27.525  36.778  1.00  0.00     0.135 A 
ATOM     71  C   UNL A   1      45.910  29.071  35.788  1.00  0.00     0.135 A 
ATOM     72  F   UNL A   1      43.108  27.077  36.983  1.00  0.00    -0.206 F 
ATOM     73  C   UNL A   1      45.397  26.893  37.452  1.00  0.00     0.059 A 
ATOM     74  C   UNL A   1      46.971  28.433  36.427  1.00  0.00     0.059 A 
ATOM     75  F   UNL A   1      46.186  30.129  35.011  1.00  0.00    -0.206 F 
ATOM     76  C   UNL A   1      46.702  27.355  37.269  1.00  0.00     0.060 A 
BRANCH  76  77
ATOM     77  S   UNL A   1      48.040  26.518  38.144  1.00  0.00     0.124 S 
ATOM     78  O   UNL A   1      47.891  25.148  37.663  1.00  0.00    -0.237 OA
ATOM     79  O   UNL A   1      49.219  27.232  37.665  1.00  0.00    -0.237 OA
ATOM     80  O   UNL A   1      47.712  26.729  39.550  1.00  0.00    -0.744 OA
ENDBRANCH  76  77
ENDBRANCH  55  69
BRANCH  56  81
ATOM     81  C   UNL A   1      36.990  32.793  30.887  1.00  0.00     0.058 A 
ATOM     82  C   UNL A   1      35.672  32.373  31.126  1.00  0.00     0.135 A 
ATOM     83  C   UNL A   1      37.186  33.811  29.940  1.00  0.00     0.135 A 
ATOM     84  F   UNL A   1      35.431  31.402  32.021  1.00  0.00    -0.206 F 
ATOM     85  C   UNL A   1      34.594  32.921  30.439  1.00  0.00     0.059 A 
ATOM     86  C   UNL A   1      36.122  34.394  29.259  1.00  0.00     0.059 A 
ATOM     87  F   UNL A   1      38.424  34.264  29.688  1.00  0.00    -0.206 F 
ATOM     88  C   UNL A   1      34.829  33.934  29.507  1.00  0.00     0.060 A 
BRANCH  88  89
ATOM     89  S   UNL A   1      33.418  34.665  28.651  1.00  0.00     0.124 S 
ATOM     90  O   UNL A   1      33.004  33.571  27.779  1.00  0.00    -0.237 OA
ATOM     91  O   UNL A   1      32.517  34.977  29.755  1.00  0.00    -0.237 OA
ATOM     92  O   UNL A   1      33.997  35.823  27.977  1.00  0.00    -0.744 OA
ENDBRANCH  88  89
ENDBRANCH  56  81
BRANCH  68  93
ATOM     93  C   UNL A   1      39.985  34.086  37.056  1.00  0.00     0.058 A 
ATOM     94  C   UNL A   1      39.220  33.821  38.202  1.00  0.00     0.135 A 
ATOM     95  C   UNL A   1      40.563  35.360  36.931  1.00  0.00     0.135 A 
ATOM     96  F   UNL A   1      38.644  32.620  38.369  1.00  0.00    -0.206 F 
ATOM     97  C   UNL A   1      39.008  34.794  39.173  1.00  0.00     0.059 A 
ATOM     98  C   UNL A   1      40.391  36.338  37.905  1.00  0.00     0.059 A 
ATOM     99  F   UNL A   1      41.316  35.659  35.861  1.00  0.00    -0.206 F 
ATOM    100  C   UNL A   1      39.599  36.051  39.014  1.00  0.00     0.060 A 
BRANCH 100 101
ATOM    101  S   UNL A   1      39.333  37.299  40.290  1.00  0.00     0.124 S 
ATOM    102  O   UNL A   1      38.499  36.571  41.242  1.00  0.00    -0.237 OA
ATOM    103  O   UNL A   1      40.694  37.590  40.731  1.00  0.00    -0.237 OA
ATOM    104  O   UNL A   1      38.667  38.382  39.572  1.00  0.00    -0.744 OA
ENDBRANCH 100 101
ENDBRANCH  68  93
ENDBRANCH  42  43
ENDBRANCH  34  37
ENDBRANCH  32  33
ENDBRANCH  31  32
ENDBRANCH  30  31
ENDBRANCH   1  30
TORSDOF 20
ENDMDL
MODEL 2
REMARK VINA RESULT:     -11.4      6.132     11.593
REMARK SMILES COc1ccc(CCNC(=O)[C@@]2(C)CC[C@@H](C(=O)NCCCCNC(=O)c3ccc(-c4c5nc(c(-c6c(F)cc(S(=O)(=O)[O-])cc6F)c6ccc([nH]6)c(-c6c(F)cc(S(=O)(=O)[O-])cc6F)c6nc(c(-c7c(F)cc(S(=O)(=O)[O-])cc7F)c7ccc4[nH]7)C=C6)C=C5)cc3)C2(C)C)cc1OC
REMARK SMILES IDX 20 1 19 2 17 3 18 4 16 6 12 7 13 8 14 9 93 10 15 11 94 12
REMARK SMILES IDX 95 13 10 14 9 15 11 17 8 18 7 19 6 20 3 21 4 22 97 23 5 24
REMARK SMILES IDX 96 25 2 26 1 27 98 28 99 29 21 30 22 31 23 32 24 33 25 34
REMARK SMILES IDX 26 36 27 37 28 38 92 39 29 40 91 41 30 42 31 43 32 44 85 45
REMARK SMILES IDX 33 46 90 47 84 48 86 49 34 50 89 51 83 52 82 53 35 55 69 56
REMARK SMILES IDX 48 57 68 58 49 59 52 60 67 61 87 62 50 63 51 64 66 66 88 67
REMARK SMILES IDX 53 68 36 69 37 70 46 71 38 72 39 73 45 74 47 75 40 76 41 77
REMARK SMILES IDX 42 78 43 79 44 80 70 81 71 82 80 83 72 84 73 85 79 86 81 87
REMARK SMILES IDX 74 88 75 89 76 90 77 91 78 92 54 93 55 94 64 95 56 96 57 97
REMARK SMILES IDX 63 98 65 99 58 100 59 101 60 102 61 103 62 104
REMARK H PARENT 19 5 9 16 24 35 86 54 52 65
REMARK Flexibility Score: inf
ROOT
ATOM      1  C   UNL A   1      34.994  29.503  27.174  1.00  0.00     0.116 C 
ENDROOT
BRANCH   1   2
ATOM      2  N   UNL A   1      33.755  28.919  27.635  1.00  0.00    -0.356 N 
ATOM      3  C   UNL A   1      32.623  28.582  26.970  1.00  0.00     0.223 C 
ATOM      4  O   UNL A   1      31.709  28.095  27.646  1.00  0.00    -0.275 OA
ATOM      5  H   UNL A   1      33.729  28.732  28.602  1.00  0.00     0.163 HD
BRANCH   3   6
ATOM      6  C   UNL A   1      32.431  28.732  25.454  1.00  0.00     0.085 C 
ATOM      7  C   UNL A   1      31.604  27.170  23.631  1.00  0.00     0.052 C 
ATOM      8  C   UNL A   1      31.741  27.600  22.156  1.00  0.00     0.022 C 
ATOM      9  C   UNL A   1      30.429  27.980  24.248  1.00  0.00     0.018 C 
ATOM     10  C   UNL A   1      32.924  27.626  24.469  1.00  0.00    -0.010 C 
ATOM     11  C   UNL A   1      31.020  29.131  25.037  1.00  0.00     0.015 C 
ATOM     12  C   UNL A   1      33.736  26.521  25.171  1.00  0.00     0.013 C 
ATOM     13  C   UNL A   1      34.028  28.264  23.564  1.00  0.00     0.013 C 
BRANCH   7  14
ATOM     14  C   UNL A   1      31.202  25.659  23.769  1.00  0.00     0.226 C 
ATOM     15  N   UNL A   1      31.639  24.681  22.932  1.00  0.00    -0.355 N 
ATOM     16  H   UNL A   1      31.114  23.851  22.995  1.00  0.00     0.163 HD
ATOM     17  O   UNL A   1      30.362  25.257  24.577  1.00  0.00    -0.274 OA
BRANCH  15  18
ATOM     18  C   UNL A   1      32.718  24.609  21.966  1.00  0.00     0.120 C 
BRANCH  18  19
ATOM     19  C   UNL A   1      33.305  23.190  21.898  1.00  0.00     0.057 C 
BRANCH  19  20
ATOM     20  C   UNL A   1      33.528  22.594  23.267  1.00  0.00    -0.042 A 
ATOM     21  C   UNL A   1      33.742  21.545  25.862  1.00  0.00     0.160 A 
ATOM     22  C   UNL A   1      34.509  22.654  25.480  1.00  0.00     0.051 A 
ATOM     23  C   UNL A   1      32.881  20.936  24.941  1.00  0.00     0.160 A 
ATOM     24  C   UNL A   1      34.415  23.166  24.182  1.00  0.00     0.008 A 
ATOM     25  C   UNL A   1      32.786  21.470  23.652  1.00  0.00     0.054 A 
BRANCH  21  26
ATOM     26  O   UNL A   1      33.746  21.159  27.176  1.00  0.00    -0.493 OA
ATOM     27  C   UNL A   1      33.316  22.197  28.054  1.00  0.00     0.278 C 
ENDBRANCH  21  26
BRANCH  23  28
ATOM     28  O   UNL A   1      32.051  19.865  25.131  1.00  0.00    -0.493 OA
ATOM     29  C   UNL A   1      32.435  18.624  24.564  1.00  0.00     0.278 C 
ENDBRANCH  23  28
ENDBRANCH  19  20
ENDBRANCH  18  19
ENDBRANCH  15  18
ENDBRANCH   7  14
ENDBRANCH   3   6
ENDBRANCH   1   2
BRANCH   1  30
ATOM     30  C   UNL A   1      36.070  29.591  28.256  1.00  0.00     0.023 C 
BRANCH  30  31
ATOM     31  C   UNL A   1      35.796  30.608  29.348  1.00  0.00     0.023 C 
BRANCH  31  32
ATOM     32  C   UNL A   1      36.083  30.088  30.742  1.00  0.00     0.116 C 
BRANCH  32  33
ATOM     33  N   UNL A   1      36.465  31.153  31.662  1.00  0.00    -0.352 N 
ATOM     34  C   UNL A   1      37.721  31.511  32.086  1.00  0.00     0.251 C 
ATOM     35  H   UNL A   1      35.724  31.686  32.029  1.00  0.00     0.163 HD
ATOM     36  O   UNL A   1      37.866  32.296  33.018  1.00  0.00    -0.269 OA
BRANCH  34  37
ATOM     37  C   UNL A   1      38.887  30.918  31.407  1.00  0.00     0.039 A 
ATOM     38  C   UNL A   1      39.195  31.303  30.102  1.00  0.00     0.014 A 
ATOM     39  C   UNL A   1      39.711  30.031  32.103  1.00  0.00     0.014 A 
ATOM     40  C   UNL A   1      40.370  30.834  29.516  1.00  0.00     0.010 A 
ATOM     41  C   UNL A   1      40.936  29.673  31.568  1.00  0.00     0.010 A 
ATOM     42  C   UNL A   1      41.264  30.042  30.257  1.00  0.00    -0.014 A 
BRANCH  42  43
ATOM     43  C   UNL A   1      42.522  29.529  29.667  1.00  0.00     0.031 A 
ATOM     44  C   UNL A   1      43.720  30.440  29.585  1.00  0.00     0.074 A 
ATOM     45  C   UNL A   1      42.569  28.284  29.155  1.00  0.00     0.049 A 
ATOM     46  N   UNL A   1      44.890  30.220  29.044  1.00  0.00    -0.248 NA
ATOM     47  C   UNL A   1      43.568  31.794  30.148  1.00  0.00     0.031 C 
ATOM     48  C   UNL A   1      41.451  27.337  29.120  1.00  0.00     0.029 A 
ATOM     49  N   UNL A   1      43.598  27.601  28.560  1.00  0.00    -0.354 N 
ATOM     50  C   UNL A   1      45.596  31.410  29.181  1.00  0.00     0.074 A 
ATOM     51  C   UNL A   1      44.701  32.370  29.784  1.00  0.00     0.031 C 
ATOM     52  C   UNL A   1      41.867  26.185  28.567  1.00  0.00     0.029 A 
ATOM     53  C   UNL A   1      43.266  26.324  28.175  1.00  0.00     0.049 A 
ATOM     54  H   UNL A   1      44.492  27.989  28.421  1.00  0.00     0.167 HD
ATOM     55  C   UNL A   1      46.887  31.668  28.869  1.00  0.00     0.037 A 
ATOM     56  C   UNL A   1      44.009  25.374  27.576  1.00  0.00     0.037 A 
ATOM     57  C   UNL A   1      47.780  30.689  28.312  1.00  0.00     0.049 A 
ATOM     58  C   UNL A   1      45.452  25.673  27.265  1.00  0.00     0.074 A 
ATOM     59  C   UNL A   1      49.123  30.821  28.013  1.00  0.00     0.029 A 
ATOM     60  N   UNL A   1      47.417  29.392  27.975  1.00  0.00    -0.354 N 
ATOM     61  N   UNL A   1      46.124  26.784  27.461  1.00  0.00    -0.248 NA
ATOM     62  C   UNL A   1      46.240  24.590  26.664  1.00  0.00     0.031 C 
ATOM     63  C   UNL A   1      49.564  29.615  27.457  1.00  0.00     0.029 A 
ATOM     64  C   UNL A   1      48.510  28.716  27.460  1.00  0.00     0.049 A 
ATOM     65  H   UNL A   1      46.517  29.011  28.087  1.00  0.00     0.167 HD
ATOM     66  C   UNL A   1      47.424  26.520  27.041  1.00  0.00     0.074 A 
ATOM     67  C   UNL A   1      47.442  25.143  26.589  1.00  0.00     0.031 C 
ATOM     68  C   UNL A   1      48.505  27.339  27.030  1.00  0.00     0.037 A 
BRANCH  55  69
ATOM     69  C   UNL A   1      47.406  33.054  29.141  1.00  0.00     0.058 A 
ATOM     70  C   UNL A   1      47.977  33.400  30.378  1.00  0.00     0.135 A 
ATOM     71  C   UNL A   1      47.346  34.046  28.149  1.00  0.00     0.135 A 
ATOM     72  F   UNL A   1      48.042  32.498  31.370  1.00  0.00    -0.206 F 
ATOM     73  C   UNL A   1      48.439  34.688  30.633  1.00  0.00     0.059 A 
ATOM     74  C   UNL A   1      47.833  35.332  28.371  1.00  0.00     0.059 A 
ATOM     75  F   UNL A   1      46.807  33.774  26.951  1.00  0.00    -0.206 F 
ATOM     76  C   UNL A   1      48.363  35.647  29.622  1.00  0.00     0.060 A 
BRANCH  76  77
ATOM     77  S   UNL A   1      48.975  37.309  29.966  1.00  0.00     0.124 S 
ATOM     78  O   UNL A   1      50.342  37.226  29.461  1.00  0.00    -0.237 OA
ATOM     79  O   UNL A   1      48.063  38.144  29.191  1.00  0.00    -0.237 OA
ATOM     80  O   UNL A   1      48.848  37.426  31.415  1.00  0.00    -0.744 OA
ENDBRANCH  76  77
ENDBRANCH  55  69
BRANCH  56  81
ATOM     81  C   UNL A   1      43.418  24.043  27.274  1.00  0.00     0.058 A 
ATOM     82  C   UNL A   1      43.369  23.036  28.251  1.00  0.00     0.135 A 
ATOM     83  C   UNL A   1      42.880  23.751  26.011  1.00  0.00     0.135 A 
ATOM     84  F   UNL A   1      43.871  23.265  29.474  1.00  0.00    -0.206 F 
ATOM     85  C   UNL A   1      42.830  21.782  27.982  1.00  0.00     0.059 A 
ATOM     86  C   UNL A   1      42.312  22.514  25.725  1.00  0.00     0.059 A 
ATOM     87  F   UNL A   1      42.884  24.686  25.047  1.00  0.00    -0.206 F 
ATOM     88  C   UNL A   1      42.302  21.531  26.713  1.00  0.00     0.060 A 
BRANCH  88  89
ATOM     89  S   UNL A   1      41.569  19.913  26.388  1.00  0.00     0.124 S 
ATOM     90  O   UNL A   1      41.797  19.227  27.655  1.00  0.00    -0.237 OA
ATOM     91  O   UNL A   1      40.184  20.258  26.088  1.00  0.00    -0.237 OA
ATOM     92  O   UNL A   1      42.344  19.416  25.255  1.00  0.00    -0.744 OA
ENDBRANCH  88  89
ENDBRANCH  56  81
BRANCH  68  93
ATOM     93  C   UNL A   1      49.810  26.754  26.567  1.00  0.00     0.058 A 
ATOM     94  C   UNL A   1      50.682  26.097  27.448  1.00  0.00     0.135 A 
ATOM     95  C   UNL A   1      50.168  26.813  25.210  1.00  0.00     0.135 A 
ATOM     96  F   UNL A   1      50.388  26.014  28.755  1.00  0.00    -0.206 F 
ATOM     97  C   UNL A   1      51.881  25.548  27.005  1.00  0.00     0.059 A 
ATOM     98  C   UNL A   1      51.345  26.243  24.740  1.00  0.00     0.059 A 
ATOM     99  F   UNL A   1      49.360  27.418  24.324  1.00  0.00    -0.206 F 
ATOM    100  C   UNL A   1      52.203  25.627  25.648  1.00  0.00     0.060 A 
BRANCH 100 101
ATOM    101  S   UNL A   1      53.752  24.893  25.083  1.00  0.00     0.124 S 
ATOM    102  O   UNL A   1      53.404  23.476  25.034  1.00  0.00    -0.237 OA
ATOM    103  O   UNL A   1      53.952  25.541  23.790  1.00  0.00    -0.237 OA
ATOM    104  O   UNL A   1      54.706  25.270  26.122  1.00  0.00    -0.744 OA
ENDBRANCH 100 101
ENDBRANCH  68  93
ENDBRANCH  42  43
ENDBRANCH  34  37
ENDBRANCH  32  33
ENDBRANCH  31  32
ENDBRANCH  30  31
ENDBRANCH   1  30
TORSDOF 20
ENDMDL
MODEL 3
REMARK VINA RESULT:     -11.4      5.898     11.647
REMARK SMILES COc1ccc(CCNC(=O)[C@@]2(C)CC[C@@H](C(=O)NCCCCNC(=O)c3ccc(-c4c5nc(c(-c6c(F)cc(S(=O)(=O)[O-])cc6F)c6ccc([nH]6)c(-c6c(F)cc(S(=O)(=O)[O-])cc6F)c6nc(c(-c7c(F)cc(S(=O)(=O)[O-])cc7F)c7ccc4[nH]7)C=C6)C=C5)cc3)C2(C)C)cc1OC
REMARK SMILES IDX 20 1 19 2 17 3 18 4 16 6 12 7 13 8 14 9 93 10 15 11 94 12
REMARK SMILES IDX 95 13 10 14 9 15 11 17 8 18 7 19 6 20 3 21 4 22 97 23 5 24
REMARK SMILES IDX 96 25 2 26 1 27 98 28 99 29 21 30 22 31 23 32 24 33 25 34
REMARK SMILES IDX 26 36 27 37 28 38 92 39 29 40 91 41 30 42 31 43 32 44 85 45
REMARK SMILES IDX 33 46 90 47 84 48 86 49 34 50 89 51 83 52 82 53 35 55 69 56
REMARK SMILES IDX 48 57 68 58 49 59 52 60 67 61 87 62 50 63 51 64 66 66 88 67
REMARK SMILES IDX 53 68 36 69 37 70 46 71 38 72 39 73 45 74 47 75 40 76 41 77
REMARK SMILES IDX 42 78 43 79 44 80 70 81 71 82 80 83 72 84 73 85 79 86 81 87
REMARK SMILES IDX 74 88 75 89 76 90 77 91 78 92 54 93 55 94 64 95 56 96 57 97
REMARK SMILES IDX 63 98 65 99 58 100 59 101 60 102 61 103 62 104
REMARK H PARENT 19 5 9 16 24 35 86 54 52 65
REMARK Flexibility Score: inf
ROOT
ATOM      1  C   UNL A   1      34.204  30.174  27.270  1.00  0.00     0.116 C 
ENDROOT
BRANCH   1   2
ATOM      2  N   UNL A   1      32.997  29.487  27.672  1.00  0.00    -0.356 N 
ATOM      3  C   UNL A   1      32.072  28.809  26.950  1.00  0.00     0.223 C 
ATOM      4  O   UNL A   1      31.126  28.323  27.581  1.00  0.00    -0.275 OA
ATOM      5  H   UNL A   1      32.816  29.515  28.639  1.00  0.00     0.163 HD
BRANCH   3   6
ATOM      6  C   UNL A   1      32.149  28.584  25.433  1.00  0.00     0.085 C 
ATOM      7  C   UNL A   1      30.989  26.984  23.839  1.00  0.00     0.052 C 
ATOM      8  C   UNL A   1      31.474  26.899  22.377  1.00  0.00     0.022 C 
ATOM      9  C   UNL A   1      30.183  28.306  23.989  1.00  0.00     0.018 C 
ATOM     10  C   UNL A   1      32.264  27.144  24.841  1.00  0.00    -0.010 C 
ATOM     11  C   UNL A   1      31.091  29.334  24.632  1.00  0.00     0.015 C 
ATOM     12  C   UNL A   1      32.455  26.067  25.924  1.00  0.00     0.013 C 
ATOM     13  C   UNL A   1      33.636  27.052  24.097  1.00  0.00     0.013 C 
BRANCH   7  14
ATOM     14  C   UNL A   1      29.989  25.829  24.195  1.00  0.00     0.226 C 
ATOM     15  N   UNL A   1      30.018  24.599  23.618  1.00  0.00    -0.355 N 
ATOM     16  H   UNL A   1      29.193  24.081  23.760  1.00  0.00     0.163 HD
ATOM     17  O   UNL A   1      29.019  25.984  24.941  1.00  0.00    -0.274 OA
BRANCH  15  18
ATOM     18  C   UNL A   1      31.014  23.891  22.838  1.00  0.00     0.120 C 
BRANCH  18  19
ATOM     19  C   UNL A   1      31.604  22.714  23.631  1.00  0.00     0.057 C 
BRANCH  19  20
ATOM     20  C   UNL A   1      33.027  22.970  24.067  1.00  0.00    -0.042 A 
ATOM     21  C   UNL A   1      35.599  23.610  24.993  1.00  0.00     0.160 A 
ATOM     22  C   UNL A   1      35.269  23.780  23.642  1.00  0.00     0.051 A 
ATOM     23  C   UNL A   1      34.653  23.093  25.887  1.00  0.00     0.160 A 
ATOM     24  C   UNL A   1      33.994  23.445  23.177  1.00  0.00     0.008 A 
ATOM     25  C   UNL A   1      33.376  22.779  25.410  1.00  0.00     0.054 A 
BRANCH  21  26
ATOM     26  O   UNL A   1      36.802  24.082  25.446  1.00  0.00    -0.493 OA
ATOM     27  C   UNL A   1      37.711  23.036  25.780  1.00  0.00     0.278 C 
ENDBRANCH  21  26
BRANCH  23  28
ATOM     28  O   UNL A   1      34.783  22.871  27.231  1.00  0.00    -0.493 OA
ATOM     29  C   UNL A   1      33.711  22.227  27.900  1.00  0.00     0.278 C 
ENDBRANCH  23  28
ENDBRANCH  19  20
ENDBRANCH  18  19
ENDBRANCH  15  18
ENDBRANCH   7  14
ENDBRANCH   3   6
ENDBRANCH   1   2
BRANCH   1  30
ATOM     30  C   UNL A   1      35.482  29.389  27.568  1.00  0.00     0.023 C 
BRANCH  30  31
ATOM     31  C   UNL A   1      36.457  30.087  28.498  1.00  0.00     0.023 C 
BRANCH  31  32
ATOM     32  C   UNL A   1      36.404  29.572  29.921  1.00  0.00     0.116 C 
BRANCH  32  33
ATOM     33  N   UNL A   1      36.389  30.653  30.900  1.00  0.00    -0.352 N 
ATOM     34  C   UNL A   1      37.437  31.183  31.611  1.00  0.00     0.251 C 
ATOM     35  H   UNL A   1      35.508  31.057  31.076  1.00  0.00     0.163 HD
ATOM     36  O   UNL A   1      37.234  31.950  32.547  1.00  0.00    -0.269 OA
BRANCH  34  37
ATOM     37  C   UNL A   1      38.808  30.793  31.236  1.00  0.00     0.039 A 
ATOM     38  C   UNL A   1      39.495  29.856  32.008  1.00  0.00     0.014 A 
ATOM     39  C   UNL A   1      39.375  31.312  30.070  1.00  0.00     0.014 A 
ATOM     40  C   UNL A   1      40.739  29.400  31.573  1.00  0.00     0.010 A 
ATOM     41  C   UNL A   1      40.546  30.762  29.577  1.00  0.00     0.010 A 
ATOM     42  C   UNL A   1      41.258  29.826  30.339  1.00  0.00    -0.014 A 
BRANCH  42  43
ATOM     43  C   UNL A   1      42.574  29.360  29.844  1.00  0.00     0.031 A 
ATOM     44  C   UNL A   1      42.685  27.985  29.235  1.00  0.00     0.074 A 
ATOM     45  C   UNL A   1      43.666  30.134  29.998  1.00  0.00     0.049 A 
ATOM     46  N   UNL A   1      43.748  27.354  28.809  1.00  0.00    -0.248 NA
ATOM     47  C   UNL A   1      41.442  27.200  29.131  1.00  0.00     0.031 C 
ATOM     48  C   UNL A   1      43.688  31.454  30.633  1.00  0.00     0.029 A 
ATOM     49  N   UNL A   1      44.970  29.919  29.636  1.00  0.00    -0.354 N 
ATOM     50  C   UNL A   1      43.303  26.098  28.412  1.00  0.00     0.074 A 
ATOM     51  C   UNL A   1      41.894  26.027  28.720  1.00  0.00     0.031 C 
ATOM     52  C   UNL A   1      44.938  31.945  30.583  1.00  0.00     0.029 A 
ATOM     53  C   UNL A   1      45.809  30.962  29.948  1.00  0.00     0.049 A 
ATOM     54  H   UNL A   1      45.278  29.095  29.195  1.00  0.00     0.167 HD
ATOM     55  C   UNL A   1      43.999  25.106  27.810  1.00  0.00     0.037 A 
ATOM     56  C   UNL A   1      47.133  31.107  29.741  1.00  0.00     0.037 A 
ATOM     57  C   UNL A   1      45.391  25.207  27.468  1.00  0.00     0.049 A 
ATOM     58  C   UNL A   1      47.881  30.002  29.042  1.00  0.00     0.074 A 
ATOM     59  C   UNL A   1      46.182  24.291  26.802  1.00  0.00     0.029 A 
ATOM     60  N   UNL A   1      46.198  26.297  27.762  1.00  0.00    -0.354 N 
ATOM     61  N   UNL A   1      47.432  28.846  28.614  1.00  0.00    -0.248 NA
ATOM     62  C   UNL A   1      49.309  30.227  28.787  1.00  0.00     0.031 C 
ATOM     63  C   UNL A   1      47.480  24.809  26.729  1.00  0.00     0.029 A 
ATOM     64  C   UNL A   1      47.483  26.071  27.301  1.00  0.00     0.049 A 
ATOM     65  H   UNL A   1      45.900  27.111  28.229  1.00  0.00     0.167 HD
ATOM     66  C   UNL A   1      48.515  28.219  28.006  1.00  0.00     0.074 A 
ATOM     67  C   UNL A   1      49.636  29.131  28.116  1.00  0.00     0.031 C 
ATOM     68  C   UNL A   1      48.579  27.003  27.410  1.00  0.00     0.037 A 
BRANCH  55  69
ATOM     69  C   UNL A   1      43.257  23.841  27.471  1.00  0.00     0.058 A 
ATOM     70  C   UNL A   1      43.101  22.803  28.405  1.00  0.00     0.135 A 
ATOM     71  C   UNL A   1      42.680  23.670  26.203  1.00  0.00     0.135 A 
ATOM     72  F   UNL A   1      43.649  22.903  29.627  1.00  0.00    -0.206 F 
ATOM     73  C   UNL A   1      42.431  21.627  28.083  1.00  0.00     0.059 A 
ATOM     74  C   UNL A   1      41.976  22.515  25.870  1.00  0.00     0.059 A 
ATOM     75  F   UNL A   1      42.801  24.626  25.269  1.00  0.00    -0.206 F 
ATOM     76  C   UNL A   1      41.870  21.493  26.813  1.00  0.00     0.060 A 
BRANCH  76  77
ATOM     77  S   UNL A   1      40.996  19.966  26.415  1.00  0.00     0.124 S 
ATOM     78  O   UNL A   1      39.758  20.480  25.838  1.00  0.00    -0.237 OA
ATOM     79  O   UNL A   1      41.909  19.318  25.479  1.00  0.00    -0.237 OA
ATOM     80  O   UNL A   1      40.858  19.305  27.709  1.00  0.00    -0.744 OA
ENDBRANCH  76  77
ENDBRANCH  55  69
BRANCH  56  81
ATOM     81  C   UNL A   1      47.822  32.357  30.158  1.00  0.00     0.058 A 
ATOM     82  C   UNL A   1      48.410  32.470  31.428  1.00  0.00     0.135 A 
ATOM     83  C   UNL A   1      47.918  33.461  29.296  1.00  0.00     0.135 A 
ATOM     84  F   UNL A   1      48.343  31.444  32.290  1.00  0.00    -0.206 F 
ATOM     85  C   UNL A   1      49.047  33.636  31.837  1.00  0.00     0.059 A 
ATOM     86  C   UNL A   1      48.574  34.629  29.672  1.00  0.00     0.059 A 
ATOM     87  F   UNL A   1      47.391  33.399  28.063  1.00  0.00    -0.206 F 
ATOM     88  C   UNL A   1      49.125  34.712  30.950  1.00  0.00     0.060 A 
BRANCH  88  89
ATOM     89  S   UNL A   1      49.990  36.207  31.478  1.00  0.00     0.124 S 
ATOM     90  O   UNL A   1      50.469  36.735  30.206  1.00  0.00    -0.237 OA
ATOM     91  O   UNL A   1      48.925  36.966  32.125  1.00  0.00    -0.237 OA
ATOM     92  O   UNL A   1      51.022  35.697  32.377  1.00  0.00    -0.744 OA
ENDBRANCH  88  89
ENDBRANCH  56  81
BRANCH  68  93
ATOM     93  C   UNL A   1      49.887  26.609  26.782  1.00  0.00     0.058 A 
ATOM     94  C   UNL A   1      50.859  25.882  27.486  1.00  0.00     0.135 A 
ATOM     95  C   UNL A   1      50.149  26.926  25.439  1.00  0.00     0.135 A 
ATOM     96  F   UNL A   1      50.659  25.556  28.773  1.00  0.00    -0.206 F 
ATOM     97  C   UNL A   1      52.060  25.512  26.891  1.00  0.00     0.059 A 
ATOM     98  C   UNL A   1      51.329  26.539  24.814  1.00  0.00     0.059 A 
ATOM     99  F   UNL A   1      49.245  27.608  24.717  1.00  0.00    -0.206 F 
ATOM    100  C   UNL A   1      52.285  25.846  25.553  1.00  0.00     0.060 A 
BRANCH 100 101
ATOM    101  S   UNL A   1      53.839  25.343  24.786  1.00  0.00     0.124 S 
ATOM    102  O   UNL A   1      53.705  25.916  23.450  1.00  0.00    -0.237 OA
ATOM    103  O   UNL A   1      54.833  25.973  25.649  1.00  0.00    -0.237 OA
ATOM    104  O   UNL A   1      53.794  23.885  24.851  1.00  0.00    -0.744 OA
ENDBRANCH 100 101
ENDBRANCH  68  93
ENDBRANCH  42  43
ENDBRANCH  34  37
ENDBRANCH  32  33
ENDBRANCH  31  32
ENDBRANCH  30  31
ENDBRANCH   1  30
TORSDOF 20
ENDMDL
