MODEL 1
REMARK VINA RESULT:     -13.4      0.000      0.000
REMARK SMILES O=C(NCCCCNC(=O)c1ccc(-c2c3nc(c(-c4c(F)cc(S(=O)(=O)[O-])cc4F)c4ccc([nH]4)c(-c4c(F)cc(S(=O)(=O)[O-])cc4F)c4nc(c(-c5c(F)cc(S(=O)(=O)[O-])cc5F)c5ccc2[nH]5)C=C4)C=C3)cc1)C1=Cc2cc(Cl)cc(-c3ccc(O)cc3)c2O[C@@H]1C(F)(F)F
REMARK SMILES IDX 6 1 5 2 4 3 3 4 1 5 2 6 77 8 78 9 94 10 79 11 93 12 80 13
REMARK SMILES IDX 92 14 81 15 84 16 82 17 83 18 95 19 96 20 97 21 98 22 85 23
REMARK SMILES IDX 86 24 91 25 87 26 90 27 88 28 89 29 7 31 8 32 9 33 10 35
REMARK SMILES IDX 11 36 12 37 76 38 13 39 75 40 14 41 15 42 16 43 69 44 17 45
REMARK SMILES IDX 74 46 68 47 70 48 18 49 73 50 67 51 66 52 19 54 53 55 32 56
REMARK SMILES IDX 52 57 33 58 36 59 51 60 71 61 34 62 35 63 50 65 72 66 37 67
REMARK SMILES IDX 20 68 21 69 30 70 22 71 23 72 29 73 31 74 24 75 25 76 26 77
REMARK SMILES IDX 27 78 28 79 54 80 55 81 64 82 56 83 57 84 63 85 65 86 58 87
REMARK SMILES IDX 59 88 60 89 61 90 62 91 38 92 39 93 48 94 40 95 41 96 47 97
REMARK SMILES IDX 49 98 42 99 43 100 44 101 45 102 46 103
REMARK H PARENT 3 7 89 30 8 34 70 53 36 64
REMARK Flexibility Score: inf
ROOT
ATOM      1  C   UNL A   1      32.069  28.012  27.073  1.00  0.00     0.023 C 
ENDROOT
BRANCH   1   2
ATOM      2  C   UNL A   1      31.890  27.110  25.848  1.00  0.00     0.023 C 
BRANCH   2   3
ATOM      3  C   UNL A   1      30.763  26.079  25.960  1.00  0.00     0.116 C 
BRANCH   3   4
ATOM      4  N   UNL A   1      31.048  24.999  26.911  1.00  0.00    -0.352 N 
ATOM      5  O   UNL A   1      32.184  23.249  27.804  1.00  0.00    -0.270 OA
ATOM      6  C   UNL A   1      31.912  23.933  26.824  1.00  0.00     0.251 C 
ATOM      7  H   UNL A   1      30.534  25.045  27.751  1.00  0.00     0.163 HD
BRANCH   6   8
ATOM      8  C   UNL A   1      32.602  23.701  25.541  1.00  0.00     0.067 C 
ATOM      9  C   UNL A   1      33.884  24.056  25.388  1.00  0.00     0.025 C 
ATOM     10  C   UNL A   1      31.951  22.762  24.578  1.00  0.00     0.314 C 
ATOM     11  C   UNL A   1      34.705  22.933  24.881  1.00  0.00     0.019 A 
ATOM     12  O   UNL A   1      32.726  21.549  24.462  1.00  0.00    -0.475 OA
ATOM     13  C   UNL A   1      36.078  23.005  25.125  1.00  0.00     0.032 A 
ATOM     14  C   UNL A   1      34.090  21.673  24.637  1.00  0.00     0.135 A 
ATOM     15  C   UNL A   1      36.818  21.832  25.206  1.00  0.00     0.042 A 
ATOM     16  C   UNL A   1      34.825  20.476  24.784  1.00  0.00     0.026 A 
ATOM     17  Cl  UNL A   1      38.475  21.912  25.665  1.00  0.00    -0.084 Cl
ATOM     18  C   UNL A   1      36.205  20.589  25.050  1.00  0.00     0.033 A 
BRANCH  10  19
ATOM     19  C   UNL A   1      31.710  23.435  23.211  1.00  0.00     0.429 C 
ATOM     20  F   UNL A   1      32.133  24.723  23.213  1.00  0.00    -0.167 F 
ATOM     21  F   UNL A   1      32.381  22.806  22.216  1.00  0.00    -0.167 F 
ATOM     22  F   UNL A   1      30.402  23.450  22.855  1.00  0.00    -0.167 F 
ENDBRANCH  10  19
BRANCH  16  23
ATOM     23  C   UNL A   1      34.187  19.138  24.868  1.00  0.00    -0.014 A 
ATOM     24  C   UNL A   1      34.829  18.017  24.304  1.00  0.00     0.012 A 
ATOM     25  C   UNL A   1      32.951  18.923  25.499  1.00  0.00     0.012 A 
ATOM     26  C   UNL A   1      34.248  16.748  24.333  1.00  0.00     0.047 A 
ATOM     27  C   UNL A   1      32.367  17.648  25.539  1.00  0.00     0.047 A 
ATOM     28  C   UNL A   1      33.019  16.574  24.946  1.00  0.00     0.115 A 
BRANCH  28  29
ATOM     29  O   UNL A   1      32.488  15.320  24.934  1.00  0.00    -0.508 OA
ATOM     30  H   UNL A   1      32.818  14.677  24.337  1.00  0.00     0.293 HD
ENDBRANCH  28  29
ENDBRANCH  16  23
ENDBRANCH   6   8
ENDBRANCH   3   4
ENDBRANCH   2   3
ENDBRANCH   1   2
BRANCH   1  31
ATOM     31  C   UNL A   1      33.467  28.584  27.309  1.00  0.00     0.116 C 
BRANCH  31  32
ATOM     32  N   UNL A   1      33.499  29.962  27.776  1.00  0.00    -0.352 N 
ATOM     33  C   UNL A   1      34.571  30.657  28.294  1.00  0.00     0.251 C 
ATOM     34  H   UNL A   1      32.651  30.458  27.714  1.00  0.00     0.163 HD
ATOM     35  O   UNL A   1      34.429  31.821  28.660  1.00  0.00    -0.269 OA
BRANCH  33  36
ATOM     36  C   UNL A   1      35.884  29.985  28.446  1.00  0.00     0.039 A 
ATOM     37  C   UNL A   1      36.773  29.989  27.367  1.00  0.00     0.014 A 
ATOM     38  C   UNL A   1      36.262  29.410  29.662  1.00  0.00     0.014 A 
ATOM     39  C   UNL A   1      38.079  29.523  27.544  1.00  0.00     0.010 A 
ATOM     40  C   UNL A   1      37.574  28.988  29.853  1.00  0.00     0.010 A 
ATOM     41  C   UNL A   1      38.501  29.072  28.805  1.00  0.00    -0.014 A 
BRANCH  41  42
ATOM     42  C   UNL A   1      39.929  28.796  29.090  1.00  0.00     0.031 A 
ATOM     43  C   UNL A   1      40.823  29.866  29.642  1.00  0.00     0.074 A 
ATOM     44  C   UNL A   1      40.434  27.599  28.729  1.00  0.00     0.049 A 
ATOM     45  N   UNL A   1      42.101  29.809  29.913  1.00  0.00    -0.248 NA
ATOM     46  C   UNL A   1      40.207  31.176  29.898  1.00  0.00     0.031 C 
ATOM     47  C   UNL A   1      39.668  26.513  28.110  1.00  0.00     0.029 A 
ATOM     48  N   UNL A   1      41.708  27.101  28.807  1.00  0.00    -0.354 N 
ATOM     49  C   UNL A   1      42.445  31.073  30.378  1.00  0.00     0.074 A 
ATOM     50  C   UNL A   1      41.251  31.889  30.300  1.00  0.00     0.031 C 
ATOM     51  C   UNL A   1      40.485  25.474  27.877  1.00  0.00     0.029 A 
ATOM     52  C   UNL A   1      41.833  25.825  28.309  1.00  0.00     0.049 A 
ATOM     53  H   UNL A   1      42.463  27.608  29.185  1.00  0.00     0.167 HD
ATOM     54  C   UNL A   1      43.643  31.504  30.843  1.00  0.00     0.037 A 
ATOM     55  C   UNL A   1      42.914  25.028  28.213  1.00  0.00     0.037 A 
ATOM     56  C   UNL A   1      44.824  30.680  30.902  1.00  0.00     0.049 A 
ATOM     57  C   UNL A   1      44.232  25.528  28.732  1.00  0.00     0.074 A 
ATOM     58  C   UNL A   1      46.070  30.994  31.415  1.00  0.00     0.029 A 
ATOM     59  N   UNL A   1      44.910  29.383  30.413  1.00  0.00    -0.354 N 
ATOM     60  N   UNL A   1      44.519  26.691  29.267  1.00  0.00    -0.248 NA
ATOM     61  C   UNL A   1      45.372  24.606  28.646  1.00  0.00     0.031 C 
ATOM     62  C   UNL A   1      46.921  29.902  31.197  1.00  0.00     0.029 A 
ATOM     63  C   UNL A   1      46.193  28.891  30.590  1.00  0.00     0.049 A 
ATOM     64  H   UNL A   1      44.166  28.885  30.002  1.00  0.00     0.167 HD
ATOM     65  C   UNL A   1      45.863  26.629  29.614  1.00  0.00     0.074 A 
ATOM     66  C   UNL A   1      46.331  25.312  29.231  1.00  0.00     0.031 C 
ATOM     67  C   UNL A   1      46.639  27.574  30.201  1.00  0.00     0.037 A 
BRANCH  54  68
ATOM     68  C   UNL A   1      43.728  32.928  31.323  1.00  0.00     0.058 A 
ATOM     69  C   UNL A   1      44.059  33.978  30.450  1.00  0.00     0.135 A 
ATOM     70  C   UNL A   1      43.463  33.252  32.663  1.00  0.00     0.135 A 
ATOM     71  F   UNL A   1      44.331  33.726  29.161  1.00  0.00    -0.206 F 
ATOM     72  C   UNL A   1      44.164  35.292  30.897  1.00  0.00     0.059 A 
ATOM     73  C   UNL A   1      43.537  34.563  33.127  1.00  0.00     0.059 A 
ATOM     74  F   UNL A   1      43.139  32.290  33.541  1.00  0.00    -0.206 F 
ATOM     75  C   UNL A   1      43.908  35.574  32.240  1.00  0.00     0.060 A 
BRANCH  75  76
ATOM     76  S   UNL A   1      44.068  37.280  32.809  1.00  0.00     0.124 S 
ATOM     77  O   UNL A   1      45.413  37.270  33.381  1.00  0.00    -0.237 OA
ATOM     78  O   UNL A   1      43.913  38.040  31.574  1.00  0.00    -0.237 OA
ATOM     79  O   UNL A   1      42.980  37.421  33.771  1.00  0.00    -0.744 OA
ENDBRANCH  75  76
ENDBRANCH  54  68
BRANCH  55  80
ATOM     80  C   UNL A   1      42.776  23.657  27.656  1.00  0.00     0.058 A 
ATOM     81  C   UNL A   1      42.488  22.571  28.497  1.00  0.00     0.135 A 
ATOM     82  C   UNL A   1      42.891  23.406  26.280  1.00  0.00     0.135 A 
ATOM     83  F   UNL A   1      42.370  22.762  29.820  1.00  0.00    -0.206 F 
ATOM     84  C   UNL A   1      42.331  21.284  27.997  1.00  0.00     0.059 A 
ATOM     85  C   UNL A   1      42.717  22.130  25.753  1.00  0.00     0.059 A 
ATOM     86  F   UNL A   1      43.145  24.415  25.432  1.00  0.00    -0.206 F 
ATOM     87  C   UNL A   1      42.444  21.074  26.622  1.00  0.00     0.060 A 
BRANCH  87  88
ATOM     88  S   UNL A   1      42.179  19.406  25.978  1.00  0.00     0.124 S 
ATOM     89  O   UNL A   1      42.964  19.437  24.750  1.00  0.00    -0.237 OA
ATOM     90  O   UNL A   1      42.708  18.575  27.054  1.00  0.00    -0.237 OA
ATOM     91  O   UNL A   1      40.731  19.342  25.802  1.00  0.00    -0.744 OA
ENDBRANCH  87  88
ENDBRANCH  55  80
BRANCH  67  92
ATOM     92  C   UNL A   1      48.065  27.203  30.494  1.00  0.00     0.058 A 
ATOM     93  C   UNL A   1      49.100  27.482  29.589  1.00  0.00     0.135 A 
ATOM     94  C   UNL A   1      48.404  26.592  31.712  1.00  0.00     0.135 A 
ATOM     95  F   UNL A   1      48.828  28.055  28.406  1.00  0.00    -0.206 F 
ATOM     96  C   UNL A   1      50.420  27.144  29.870  1.00  0.00     0.059 A 
ATOM     97  C   UNL A   1      49.720  26.270  32.025  1.00  0.00     0.059 A 
ATOM     98  F   UNL A   1      47.452  26.313  32.616  1.00  0.00    -0.206 F 
ATOM     99  C   UNL A   1      50.720  26.537  31.092  1.00  0.00     0.060 A 
BRANCH  99 100
ATOM    100  S   UNL A   1      52.440  26.129  31.457  1.00  0.00     0.124 S 
ATOM    101  O   UNL A   1      53.054  26.235  30.138  1.00  0.00    -0.237 OA
ATOM    102  O   UNL A   1      52.813  27.165  32.416  1.00  0.00    -0.237 OA
ATOM    103  O   UNL A   1      52.358  24.779  32.005  1.00  0.00    -0.744 OA
ENDBRANCH  99 100
ENDBRANCH  67  92
ENDBRANCH  41  42
ENDBRANCH  33  36
ENDBRANCH  31  32
ENDBRANCH   1  31
TORSDOF 17
ENDMDL
MODEL 2
REMARK VINA RESULT:     -13.0      0.435      8.044
REMARK SMILES O=C(NCCCCNC(=O)c1ccc(-c2c3nc(c(-c4c(F)cc(S(=O)(=O)[O-])cc4F)c4ccc([nH]4)c(-c4c(F)cc(S(=O)(=O)[O-])cc4F)c4nc(c(-c5c(F)cc(S(=O)(=O)[O-])cc5F)c5ccc2[nH]5)C=C4)C=C3)cc1)C1=Cc2cc(Cl)cc(-c3ccc(O)cc3)c2O[C@@H]1C(F)(F)F
REMARK SMILES IDX 6 1 5 2 4 3 3 4 1 5 2 6 77 8 78 9 94 10 79 11 93 12 80 13
REMARK SMILES IDX 92 14 81 15 84 16 82 17 83 18 95 19 96 20 97 21 98 22 85 23
REMARK SMILES IDX 86 24 91 25 87 26 90 27 88 28 89 29 7 31 8 32 9 33 10 35
REMARK SMILES IDX 11 36 12 37 76 38 13 39 75 40 14 41 15 42 16 43 69 44 17 45
REMARK SMILES IDX 74 46 68 47 70 48 18 49 73 50 67 51 66 52 19 54 53 55 32 56
REMARK SMILES IDX 52 57 33 58 36 59 51 60 71 61 34 62 35 63 50 65 72 66 37 67
REMARK SMILES IDX 20 68 21 69 30 70 22 71 23 72 29 73 31 74 24 75 25 76 26 77
REMARK SMILES IDX 27 78 28 79 54 80 55 81 64 82 56 83 57 84 63 85 65 86 58 87
REMARK SMILES IDX 59 88 60 89 61 90 62 91 38 92 39 93 48 94 40 95 41 96 47 97
REMARK SMILES IDX 49 98 42 99 43 100 44 101 45 102 46 103
REMARK H PARENT 3 7 89 30 8 34 70 53 36 64
REMARK Flexibility Score: inf
ROOT
ATOM      1  C   UNL A   1      32.031  28.003  27.039  1.00  0.00     0.023 C 
ENDROOT
BRANCH   1   2
ATOM      2  C   UNL A   1      31.815  27.234  25.732  1.00  0.00     0.023 C 
BRANCH   2   3
ATOM      3  C   UNL A   1      30.712  26.173  25.778  1.00  0.00     0.116 C 
BRANCH   3   4
ATOM      4  N   UNL A   1      30.969  25.100  26.745  1.00  0.00    -0.352 N 
ATOM      5  O   UNL A   1      32.106  23.392  27.714  1.00  0.00    -0.270 OA
ATOM      6  C   UNL A   1      31.879  24.070  26.719  1.00  0.00     0.251 C 
ATOM      7  H   UNL A   1      30.393  25.120  27.544  1.00  0.00     0.163 HD
BRANCH   6   8
ATOM      8  C   UNL A   1      32.672  23.873  25.490  1.00  0.00     0.067 C 
ATOM      9  C   UNL A   1      33.960  24.236  25.450  1.00  0.00     0.025 C 
ATOM     10  C   UNL A   1      32.105  22.958  24.454  1.00  0.00     0.314 C 
ATOM     11  C   UNL A   1      34.824  23.129  24.982  1.00  0.00     0.019 A 
ATOM     12  O   UNL A   1      32.892  21.751  24.369  1.00  0.00    -0.475 OA
ATOM     13  C   UNL A   1      36.174  23.198  25.338  1.00  0.00     0.032 A 
ATOM     14  C   UNL A   1      34.238  21.874  24.656  1.00  0.00     0.135 A 
ATOM     15  C   UNL A   1      36.911  22.025  25.447  1.00  0.00     0.042 A 
ATOM     16  C   UNL A   1      34.964  20.675  24.831  1.00  0.00     0.026 A 
ATOM     17  Cl  UNL A   1      38.525  22.098  26.041  1.00  0.00    -0.084 Cl
ATOM     18  C   UNL A   1      36.317  20.785  25.210  1.00  0.00     0.033 A 
BRANCH  10  19
ATOM     19  C   UNL A   1      31.971  23.667  23.090  1.00  0.00     0.429 C 
ATOM     20  F   UNL A   1      32.498  22.919  22.090  1.00  0.00    -0.167 F 
ATOM     21  F   UNL A   1      30.674  23.891  22.766  1.00  0.00    -0.167 F 
ATOM     22  F   UNL A   1      32.598  24.868  23.057  1.00  0.00    -0.167 F 
ENDBRANCH  10  19
BRANCH  16  23
ATOM     23  C   UNL A   1      34.328  19.334  24.829  1.00  0.00    -0.014 A 
ATOM     24  C   UNL A   1      33.056  19.159  25.411  1.00  0.00     0.012 A 
ATOM     25  C   UNL A   1      34.937  18.203  24.261  1.00  0.00     0.012 A 
ATOM     26  C   UNL A   1      32.437  17.909  25.459  1.00  0.00     0.047 A 
ATOM     27  C   UNL A   1      34.315  16.947  24.298  1.00  0.00     0.047 A 
ATOM     28  C   UNL A   1      33.073  16.811  24.906  1.00  0.00     0.115 A 
BRANCH  28  29
ATOM     29  O   UNL A   1      32.435  15.611  24.993  1.00  0.00    -0.508 OA
ATOM     30  H   UNL A   1      31.544  15.534  24.714  1.00  0.00     0.293 HD
ENDBRANCH  28  29
ENDBRANCH  16  23
ENDBRANCH   6   8
ENDBRANCH   3   4
ENDBRANCH   2   3
ENDBRANCH   1   2
BRANCH   1  31
ATOM     31  C   UNL A   1      33.410  28.628  27.251  1.00  0.00     0.116 C 
BRANCH  31  32
ATOM     32  N   UNL A   1      33.398  29.985  27.777  1.00  0.00    -0.352 N 
ATOM     33  C   UNL A   1      34.453  30.698  28.306  1.00  0.00     0.251 C 
ATOM     34  H   UNL A   1      32.531  30.450  27.750  1.00  0.00     0.163 HD
ATOM     35  O   UNL A   1      34.273  31.840  28.724  1.00  0.00    -0.269 OA
BRANCH  33  36
ATOM     36  C   UNL A   1      35.792  30.072  28.407  1.00  0.00     0.039 A 
ATOM     37  C   UNL A   1      36.632  30.088  27.288  1.00  0.00     0.014 A 
ATOM     38  C   UNL A   1      36.245  29.528  29.612  1.00  0.00     0.014 A 
ATOM     39  C   UNL A   1      37.958  29.667  27.412  1.00  0.00     0.010 A 
ATOM     40  C   UNL A   1      37.576  29.151  29.748  1.00  0.00     0.010 A 
ATOM     41  C   UNL A   1      38.452  29.250  28.659  1.00  0.00    -0.014 A 
BRANCH  41  42
ATOM     42  C   UNL A   1      39.900  29.024  28.882  1.00  0.00     0.031 A 
ATOM     43  C   UNL A   1      40.527  27.698  28.574  1.00  0.00     0.074 A 
ATOM     44  C   UNL A   1      40.615  29.998  29.480  1.00  0.00     0.049 A 
ATOM     45  N   UNL A   1      41.766  27.316  28.743  1.00  0.00    -0.248 NA
ATOM     46  C   UNL A   1      39.642  26.658  28.029  1.00  0.00     0.031 C 
ATOM     47  C   UNL A   1      40.083  31.300  29.894  1.00  0.00     0.029 A 
ATOM     48  N   UNL A   1      41.929  30.042  29.865  1.00  0.00    -0.354 N 
ATOM     49  C   UNL A   1      41.815  25.993  28.322  1.00  0.00     0.074 A 
ATOM     50  C   UNL A   1      40.468  25.624  27.940  1.00  0.00     0.031 C 
ATOM     51  C   UNL A   1      41.065  32.017  30.463  1.00  0.00     0.029 A 
ATOM     52  C   UNL A   1      42.288  31.222  30.473  1.00  0.00     0.049 A 
ATOM     53  H   UNL A   1      42.559  29.298  29.718  1.00  0.00     0.167 HD
ATOM     54  C   UNL A   1      42.890  25.170  28.245  1.00  0.00     0.037 A 
ATOM     55  C   UNL A   1      43.470  31.618  30.980  1.00  0.00     0.037 A 
ATOM     56  C   UNL A   1      44.222  25.552  28.642  1.00  0.00     0.049 A 
ATOM     57  C   UNL A   1      44.647  30.688  30.887  1.00  0.00     0.074 A 
ATOM     58  C   UNL A   1      45.394  24.823  28.545  1.00  0.00     0.029 A 
ATOM     59  N   UNL A   1      44.556  26.765  29.230  1.00  0.00    -0.354 N 
ATOM     60  N   UNL A   1      44.701  29.476  30.387  1.00  0.00    -0.248 NA
ATOM     61  C   UNL A   1      45.926  31.182  31.414  1.00  0.00     0.031 C 
ATOM     62  C   UNL A   1      46.428  25.577  29.113  1.00  0.00     0.029 A 
ATOM     63  C   UNL A   1      45.909  26.795  29.523  1.00  0.00     0.049 A 
ATOM     64  H   UNL A   1      43.922  27.497  29.411  1.00  0.00     0.167 HD
ATOM     65  C   UNL A   1      46.027  29.075  30.508  1.00  0.00     0.074 A 
ATOM     66  C   UNL A   1      46.740  30.175  31.124  1.00  0.00     0.031 C 
ATOM     67  C   UNL A   1      46.602  27.903  30.137  1.00  0.00     0.037 A 
BRANCH  54  68
ATOM     68  C   UNL A   1      42.663  23.782  27.711  1.00  0.00     0.058 A 
ATOM     69  C   UNL A   1      42.569  23.532  26.332  1.00  0.00     0.135 A 
ATOM     70  C   UNL A   1      42.552  22.686  28.581  1.00  0.00     0.135 A 
ATOM     71  F   UNL A   1      42.659  24.543  25.454  1.00  0.00    -0.206 F 
ATOM     72  C   UNL A   1      42.333  22.253  25.837  1.00  0.00     0.059 A 
ATOM     73  C   UNL A   1      42.341  21.393  28.107  1.00  0.00     0.059 A 
ATOM     74  F   UNL A   1      42.637  22.864  29.909  1.00  0.00    -0.206 F 
ATOM     75  C   UNL A   1      42.213  21.190  26.733  1.00  0.00     0.060 A 
BRANCH  75  76
ATOM     76  S   UNL A   1      41.886  19.540  26.077  1.00  0.00     0.124 S 
ATOM     77  O   UNL A   1      42.788  19.501  24.929  1.00  0.00    -0.237 OA
ATOM     78  O   UNL A   1      42.251  18.678  27.197  1.00  0.00    -0.237 OA
ATOM     79  O   UNL A   1      40.463  19.577  25.756  1.00  0.00    -0.744 OA
ENDBRANCH  75  76
ENDBRANCH  54  68
BRANCH  55  80
ATOM     80  C   UNL A   1      43.608  32.977  31.565  1.00  0.00     0.058 A 
ATOM     81  C   UNL A   1      43.970  34.067  30.759  1.00  0.00     0.135 A 
ATOM     82  C   UNL A   1      43.347  33.225  32.921  1.00  0.00     0.135 A 
ATOM     83  F   UNL A   1      44.230  33.879  29.456  1.00  0.00    -0.206 F 
ATOM     84  C   UNL A   1      44.082  35.352  31.278  1.00  0.00     0.059 A 
ATOM     85  C   UNL A   1      43.432  34.505  33.459  1.00  0.00     0.059 A 
ATOM     86  F   UNL A   1      42.977  32.219  33.729  1.00  0.00    -0.206 F 
ATOM     87  C   UNL A   1      43.808  35.562  32.630  1.00  0.00     0.060 A 
BRANCH  87  88
ATOM     88  S   UNL A   1      43.899  37.246  33.279  1.00  0.00     0.124 S 
ATOM     89  O   UNL A   1      42.803  37.250  34.240  1.00  0.00    -0.237 OA
ATOM     90  O   UNL A   1      45.244  37.284  33.843  1.00  0.00    -0.237 OA
ATOM     91  O   UNL A   1      43.702  38.073  32.091  1.00  0.00    -0.744 OA
ENDBRANCH  87  88
ENDBRANCH  55  80
BRANCH  67  92
ATOM     92  C   UNL A   1      48.082  27.767  30.360  1.00  0.00     0.058 A 
ATOM     93  C   UNL A   1      48.603  27.230  31.547  1.00  0.00     0.135 A 
ATOM     94  C   UNL A   1      48.988  28.149  29.358  1.00  0.00     0.135 A 
ATOM     95  F   UNL A   1      47.780  26.860  32.540  1.00  0.00    -0.206 F 
ATOM     96  C   UNL A   1      49.974  27.099  31.742  1.00  0.00     0.059 A 
ATOM     97  C   UNL A   1      50.361  28.002  29.521  1.00  0.00     0.059 A 
ATOM     98  F   UNL A   1      48.540  28.660  28.200  1.00  0.00    -0.206 F 
ATOM     99  C   UNL A   1      50.846  27.488  30.723  1.00  0.00     0.060 A 
BRANCH  99 100
ATOM    100  S   UNL A   1      52.621  27.287  30.977  1.00  0.00     0.124 S 
ATOM    101  O   UNL A   1      53.030  26.670  29.720  1.00  0.00    -0.237 OA
ATOM    102  O   UNL A   1      53.067  28.662  31.184  1.00  0.00    -0.237 OA
ATOM    103  O   UNL A   1      52.700  26.427  32.153  1.00  0.00    -0.744 OA
ENDBRANCH  99 100
ENDBRANCH  67  92
ENDBRANCH  41  42
ENDBRANCH  33  36
ENDBRANCH  31  32
ENDBRANCH   1  31
TORSDOF 17
ENDMDL
MODEL 3
REMARK VINA RESULT:     -12.6      3.343      9.597
REMARK SMILES O=C(NCCCCNC(=O)c1ccc(-c2c3nc(c(-c4c(F)cc(S(=O)(=O)[O-])cc4F)c4ccc([nH]4)c(-c4c(F)cc(S(=O)(=O)[O-])cc4F)c4nc(c(-c5c(F)cc(S(=O)(=O)[O-])cc5F)c5ccc2[nH]5)C=C4)C=C3)cc1)C1=Cc2cc(Cl)cc(-c3ccc(O)cc3)c2O[C@@H]1C(F)(F)F
REMARK SMILES IDX 6 1 5 2 4 3 3 4 1 5 2 6 77 8 78 9 94 10 79 11 93 12 80 13
REMARK SMILES IDX 92 14 81 15 84 16 82 17 83 18 95 19 96 20 97 21 98 22 85 23
REMARK SMILES IDX 86 24 91 25 87 26 90 27 88 28 89 29 7 31 8 32 9 33 10 35
REMARK SMILES IDX 11 36 12 37 76 38 13 39 75 40 14 41 15 42 16 43 69 44 17 45
REMARK SMILES IDX 74 46 68 47 70 48 18 49 73 50 67 51 66 52 19 54 53 55 32 56
REMARK SMILES IDX 52 57 33 58 36 59 51 60 71 61 34 62 35 63 50 65 72 66 37 67
REMARK SMILES IDX 20 68 21 69 30 70 22 71 23 72 29 73 31 74 24 75 25 76 26 77
REMARK SMILES IDX 27 78 28 79 54 80 55 81 64 82 56 83 57 84 63 85 65 86 58 87
REMARK SMILES IDX 59 88 60 89 61 90 62 91 38 92 39 93 48 94 40 95 41 96 47 97
REMARK SMILES IDX 49 98 42 99 43 100 44 101 45 102 46 103
REMARK H PARENT 3 7 89 30 8 34 70 53 36 64
REMARK Flexibility Score: inf
ROOT
ATOM      1  C   UNL A   1      35.777  22.438  25.938  1.00  0.00     0.023 C 
ENDROOT
BRANCH   1   2
ATOM      2  C   UNL A   1      35.214  21.452  24.910  1.00  0.00     0.023 C 
BRANCH   2   3
ATOM      3  C   UNL A   1      33.949  21.920  24.186  1.00  0.00     0.116 C 
BRANCH   3   4
ATOM      4  N   UNL A   1      34.181  23.028  23.254  1.00  0.00    -0.352 N 
ATOM      5  O   UNL A   1      34.363  25.189  22.583  1.00  0.00    -0.270 OA
ATOM      6  C   UNL A   1      33.901  24.370  23.369  1.00  0.00     0.251 C 
ATOM      7  H   UNL A   1      34.607  22.768  22.404  1.00  0.00     0.163 HD
BRANCH   6   8
ATOM      8  C   UNL A   1      33.124  24.820  24.539  1.00  0.00     0.067 C 
ATOM      9  C   UNL A   1      33.713  25.524  25.514  1.00  0.00     0.025 C 
ATOM     10  C   UNL A   1      31.635  24.775  24.425  1.00  0.00     0.314 C 
ATOM     11  C   UNL A   1      32.976  26.774  25.807  1.00  0.00     0.019 A 
ATOM     12  O   UNL A   1      31.098  26.114  24.378  1.00  0.00    -0.475 OA
ATOM     13  C   UNL A   1      33.702  27.795  26.425  1.00  0.00     0.032 A 
ATOM     14  C   UNL A   1      31.803  27.084  25.063  1.00  0.00     0.135 A 
ATOM     15  C   UNL A   1      33.313  29.116  26.239  1.00  0.00     0.042 A 
ATOM     16  C   UNL A   1      31.443  28.427  24.818  1.00  0.00     0.026 A 
ATOM     17  Cl  UNL A   1      34.299  30.379  26.867  1.00  0.00    -0.084 Cl
ATOM     18  C   UNL A   1      32.212  29.430  25.442  1.00  0.00     0.033 A 
BRANCH  10  19
ATOM     19  C   UNL A   1      31.008  23.932  25.555  1.00  0.00     0.429 C 
ATOM     20  F   UNL A   1      29.941  24.559  26.106  1.00  0.00    -0.167 F 
ATOM     21  F   UNL A   1      30.564  22.734  25.101  1.00  0.00    -0.167 F 
ATOM     22  F   UNL A   1      31.877  23.673  26.562  1.00  0.00    -0.167 F 
ENDBRANCH  10  19
BRANCH  16  23
ATOM     23  C   UNL A   1      30.442  28.824  23.796  1.00  0.00    -0.014 A 
ATOM     24  C   UNL A   1      30.827  29.646  22.718  1.00  0.00     0.012 A 
ATOM     25  C   UNL A   1      29.100  28.412  23.845  1.00  0.00     0.012 A 
ATOM     26  C   UNL A   1      29.910  30.069  21.754  1.00  0.00     0.047 A 
ATOM     27  C   UNL A   1      28.177  28.826  22.874  1.00  0.00     0.047 A 
ATOM     28  C   UNL A   1      28.591  29.660  21.842  1.00  0.00     0.115 A 
BRANCH  28  29
ATOM     29  O   UNL A   1      27.732  30.112  20.887  1.00  0.00    -0.508 OA
ATOM     30  H   UNL A   1      27.095  29.533  20.517  1.00  0.00     0.293 HD
ENDBRANCH  28  29
ENDBRANCH  16  23
ENDBRANCH   6   8
ENDBRANCH   3   4
ENDBRANCH   2   3
ENDBRANCH   1   2
BRANCH   1  31
ATOM     31  C   UNL A   1      37.015  23.233  25.525  1.00  0.00     0.116 C 
BRANCH  31  32
ATOM     32  N   UNL A   1      38.270  22.501  25.595  1.00  0.00    -0.352 N 
ATOM     33  C   UNL A   1      39.460  22.910  26.161  1.00  0.00     0.251 C 
ATOM     34  H   UNL A   1      38.270  21.604  25.190  1.00  0.00     0.163 HD
ATOM     35  O   UNL A   1      40.442  22.173  26.125  1.00  0.00    -0.269 OA
BRANCH  33  36
ATOM     36  C   UNL A   1      39.562  24.255  26.776  1.00  0.00     0.039 A 
ATOM     37  C   UNL A   1      39.033  24.455  28.055  1.00  0.00     0.014 A 
ATOM     38  C   UNL A   1      40.230  25.296  26.126  1.00  0.00     0.014 A 
ATOM     39  C   UNL A   1      39.275  25.656  28.725  1.00  0.00     0.010 A 
ATOM     40  C   UNL A   1      40.511  26.475  26.808  1.00  0.00     0.010 A 
ATOM     41  C   UNL A   1      40.065  26.651  28.125  1.00  0.00    -0.014 A 
BRANCH  41  42
ATOM     42  C   UNL A   1      40.538  27.830  28.889  1.00  0.00     0.031 A 
ATOM     43  C   UNL A   1      41.872  27.817  29.572  1.00  0.00     0.074 A 
ATOM     44  C   UNL A   1      39.692  28.866  29.056  1.00  0.00     0.049 A 
ATOM     45  N   UNL A   1      42.426  28.742  30.312  1.00  0.00    -0.248 NA
ATOM     46  C   UNL A   1      42.679  26.596  29.426  1.00  0.00     0.031 C 
ATOM     47  C   UNL A   1      38.338  28.947  28.499  1.00  0.00     0.029 A 
ATOM     48  N   UNL A   1      39.831  30.035  29.757  1.00  0.00    -0.354 N 
ATOM     49  C   UNL A   1      43.648  28.221  30.717  1.00  0.00     0.074 A 
ATOM     50  C   UNL A   1      43.729  26.877  30.185  1.00  0.00     0.031 C 
ATOM     51  C   UNL A   1      37.778  30.109  28.870  1.00  0.00     0.029 A 
ATOM     52  C   UNL A   1      38.720  30.845  29.705  1.00  0.00     0.049 A 
ATOM     53  H   UNL A   1      40.649  30.274  30.250  1.00  0.00     0.167 HD
ATOM     54  C   UNL A   1      44.619  28.818  31.452  1.00  0.00     0.037 A 
ATOM     55  C   UNL A   1      38.490  32.047  30.267  1.00  0.00     0.037 A 
ATOM     56  C   UNL A   1      44.514  30.154  31.984  1.00  0.00     0.049 A 
ATOM     57  C   UNL A   1      39.578  32.688  31.079  1.00  0.00     0.074 A 
ATOM     58  C   UNL A   1      45.461  30.880  32.684  1.00  0.00     0.029 A 
ATOM     59  N   UNL A   1      43.385  30.957  31.891  1.00  0.00    -0.354 N 
ATOM     60  N   UNL A   1      40.773  32.226  31.366  1.00  0.00    -0.248 NA
ATOM     61  C   UNL A   1      39.296  34.018  31.635  1.00  0.00     0.031 C 
ATOM     62  C   UNL A   1      44.890  32.105  33.051  1.00  0.00     0.029 A 
ATOM     63  C   UNL A   1      43.603  32.161  32.541  1.00  0.00     0.049 A 
ATOM     64  H   UNL A   1      42.552  30.707  31.429  1.00  0.00     0.167 HD
ATOM     65  C   UNL A   1      41.398  33.223  32.107  1.00  0.00     0.074 A 
ATOM     66  C   UNL A   1      40.450  34.313  32.219  1.00  0.00     0.031 C 
ATOM     67  C   UNL A   1      42.644  33.236  32.641  1.00  0.00     0.037 A 
BRANCH  54  68
ATOM     68  C   UNL A   1      45.872  28.029  31.717  1.00  0.00     0.058 A 
ATOM     69  C   UNL A   1      46.992  28.125  30.874  1.00  0.00     0.135 A 
ATOM     70  C   UNL A   1      45.964  27.178  32.830  1.00  0.00     0.135 A 
ATOM     71  F   UNL A   1      46.957  28.916  29.790  1.00  0.00    -0.206 F 
ATOM     72  C   UNL A   1      48.142  27.376  31.102  1.00  0.00     0.059 A 
ATOM     73  C   UNL A   1      47.115  26.439  33.092  1.00  0.00     0.059 A 
ATOM     74  F   UNL A   1      44.927  27.049  33.671  1.00  0.00    -0.206 F 
ATOM     75  C   UNL A   1      48.192  26.529  32.210  1.00  0.00     0.060 A 
BRANCH  75  76
ATOM     76  S   UNL A   1      49.683  25.548  32.482  1.00  0.00     0.124 S 
ATOM     77  O   UNL A   1      49.233  24.614  33.510  1.00  0.00    -0.237 OA
ATOM     78  O   UNL A   1      49.924  24.970  31.164  1.00  0.00    -0.237 OA
ATOM     79  O   UNL A   1      50.665  26.536  32.919  1.00  0.00    -0.744 OA
ENDBRANCH  75  76
ENDBRANCH  54  68
BRANCH  55  80
ATOM     80  C   UNL A   1      37.197  32.740  30.028  1.00  0.00     0.058 A 
ATOM     81  C   UNL A   1      36.130  32.589  30.926  1.00  0.00     0.135 A 
ATOM     82  C   UNL A   1      37.011  33.591  28.928  1.00  0.00     0.135 A 
ATOM     83  F   UNL A   1      36.261  31.786  31.993  1.00  0.00    -0.206 F 
ATOM     84  C   UNL A   1      34.920  33.246  30.737  1.00  0.00     0.059 A 
ATOM     85  C   UNL A   1      35.816  34.276  28.728  1.00  0.00     0.059 A 
ATOM     86  F   UNL A   1      38.008  33.784  28.051  1.00  0.00    -0.206 F 
ATOM     87  C   UNL A   1      34.773  34.091  29.636  1.00  0.00     0.060 A 
BRANCH  87  88
ATOM     88  S   UNL A   1      33.216  34.985  29.434  1.00  0.00     0.124 S 
ATOM     89  O   UNL A   1      33.683  36.294  28.996  1.00  0.00    -0.237 OA
ATOM     90  O   UNL A   1      32.530  34.181  28.427  1.00  0.00    -0.237 OA
ATOM     91  O   UNL A   1      32.627  34.936  30.770  1.00  0.00    -0.744 OA
ENDBRANCH  87  88
ENDBRANCH  55  80
BRANCH  67  92
ATOM     92  C   UNL A   1      43.064  34.483  33.366  1.00  0.00     0.058 A 
ATOM     93  C   UNL A   1      42.794  34.669  34.730  1.00  0.00     0.135 A 
ATOM     94  C   UNL A   1      43.776  35.489  32.694  1.00  0.00     0.135 A 
ATOM     95  F   UNL A   1      42.107  33.743  35.416  1.00  0.00    -0.206 F 
ATOM     96  C   UNL A   1      43.194  35.823  35.398  1.00  0.00     0.059 A 
ATOM     97  C   UNL A   1      44.209  36.638  33.348  1.00  0.00     0.059 A 
ATOM     98  F   UNL A   1      44.069  35.356  31.391  1.00  0.00    -0.206 F 
ATOM     99  C   UNL A   1      43.901  36.802  34.697  1.00  0.00     0.060 A 
BRANCH  99 100
ATOM    100  S   UNL A   1      44.439  38.281  35.581  1.00  0.00     0.124 S 
ATOM    101  O   UNL A   1      45.891  38.171  35.481  1.00  0.00    -0.237 OA
ATOM    102  O   UNL A   1      43.829  39.354  34.800  1.00  0.00    -0.237 OA
ATOM    103  O   UNL A   1      43.885  38.097  36.918  1.00  0.00    -0.744 OA
ENDBRANCH  99 100
ENDBRANCH  67  92
ENDBRANCH  41  42
ENDBRANCH  33  36
ENDBRANCH  31  32
ENDBRANCH   1  31
TORSDOF 17
ENDMDL
