MODEL 1
REMARK VINA RESULT:     -11.9      0.000      0.000
REMARK SMILES Cc1noc(C[N@@H+]2CCC[C@H]2C(=O)NCCCCNC(=O)c2ccc(-c3c4nc(c(-c5c(F)cc(S(=O)(=O)[O-])cc5F)c5ccc([nH]5)c(-c5c(F)cc(S(=O)(=O)[O-])cc5F)c5nc(c(-c6c(F)cc(S(=O)(=O)[O-])cc6F)c6ccc3[nH]6)C=C5)C=C4)cc2)n1
REMARK SMILES IDX 17 1 16 2 15 3 14 4 12 5 13 6 11 8 7 9 8 10 9 12 10 13 6 14
REMARK SMILES IDX 5 15 1 16 2 17 3 18 88 19 4 20 18 21 19 22 20 23 21 25 22 26
REMARK SMILES IDX 23 27 87 28 24 29 86 30 25 31 26 32 27 33 80 34 28 35 85 36
REMARK SMILES IDX 79 37 81 38 29 39 84 40 78 41 77 42 30 44 64 45 43 46 63 47
REMARK SMILES IDX 44 48 47 49 62 50 82 51 45 52 46 53 61 55 83 56 48 57 31 58
REMARK SMILES IDX 32 59 41 60 33 61 34 62 40 63 42 64 35 65 36 66 37 67 38 68
REMARK SMILES IDX 39 69 65 70 66 71 75 72 67 73 68 74 74 75 76 76 69 77 70 78
REMARK SMILES IDX 71 79 72 80 73 81 49 82 50 83 59 84 51 85 52 86 58 87 60 88
REMARK SMILES IDX 53 89 54 90 55 91 56 92 57 93
REMARK H PARENT 14 7 7 11 19 24 81 43 47 54
REMARK Flexibility Score: inf
ROOT
ATOM      1  C   UNL A   1      39.270  22.490  26.544  1.00  0.00     0.023 C 
ENDROOT
BRANCH   1   2
ATOM      2  C   UNL A   1      38.145  23.417  26.070  1.00  0.00     0.023 C 
BRANCH   2   3
ATOM      3  C   UNL A   1      36.932  22.700  25.482  1.00  0.00     0.116 C 
BRANCH   3   4
ATOM      4  N   UNL A   1      36.086  22.138  26.517  1.00  0.00    -0.351 N 
ATOM      5  C   UNL A   1      34.779  21.740  26.457  1.00  0.00     0.278 C 
ATOM      6  O   UNL A   1      34.257  21.313  27.489  1.00  0.00    -0.268 OA
ATOM      7  H   UNL A   1      36.518  22.025  27.395  1.00  0.00     0.163 HD
BRANCH   5   8
ATOM      8  C   UNL A   1      34.033  21.794  25.105  1.00  0.00     0.274 C 
ATOM      9  N   UNL A   1      32.776  21.023  25.258  1.00  0.00    -0.317 N 
ATOM     10  C   UNL A   1      31.706  21.999  25.488  1.00  0.00     0.263 C 
ATOM     11  H   UNL A   1      32.855  20.396  26.058  1.00  0.00     0.349 HD
ATOM     12  C   UNL A   1      32.126  23.285  24.802  1.00  0.00     0.068 C 
ATOM     13  C   UNL A   1      33.641  23.230  24.744  1.00  0.00     0.081 C 
BRANCH   9  14
ATOM     14  C   UNL A   1      32.503  20.062  24.175  1.00  0.00     0.364 C 
BRANCH  14  15
ATOM     15  C   UNL A   1      32.935  18.660  24.429  1.00  0.00     0.281 A 
ATOM     16  C   UNL A   1      35.112  16.042  25.214  1.00  0.00     0.093 C 
ATOM     17  C   UNL A   1      33.964  16.916  24.923  1.00  0.00     0.169 A 
ATOM     18  N   UNL A   1      32.731  16.678  25.388  1.00  0.00    -0.063 NA
ATOM     19  N   UNL A   1      34.117  18.107  24.267  1.00  0.00    -0.191 NA
ATOM     20  O   UNL A   1      32.036  17.843  25.054  1.00  0.00    -0.333 OA
ENDBRANCH  14  15
ENDBRANCH   9  14
ENDBRANCH   5   8
ENDBRANCH   3   4
ENDBRANCH   2   3
ENDBRANCH   1   2
BRANCH   1  21
ATOM     21  C   UNL A   1      40.552  23.185  26.998  1.00  0.00     0.116 C 
BRANCH  21  22
ATOM     22  N   UNL A   1      41.134  24.032  25.968  1.00  0.00    -0.352 N 
ATOM     23  C   UNL A   1      41.445  25.368  26.007  1.00  0.00     0.251 C 
ATOM     24  H   UNL A   1      41.334  23.579  25.118  1.00  0.00     0.163 HD
ATOM     25  O   UNL A   1      41.809  25.931  24.974  1.00  0.00    -0.269 OA
BRANCH  23  26
ATOM     26  C   UNL A   1      41.315  26.142  27.263  1.00  0.00     0.039 A 
ATOM     27  C   UNL A   1      42.286  27.103  27.559  1.00  0.00     0.014 A 
ATOM     28  C   UNL A   1      40.256  25.928  28.151  1.00  0.00     0.014 A 
ATOM     29  C   UNL A   1      42.157  27.891  28.705  1.00  0.00     0.010 A 
ATOM     30  C   UNL A   1      40.088  26.767  29.252  1.00  0.00     0.010 A 
ATOM     31  C   UNL A   1      41.034  27.762  29.541  1.00  0.00    -0.014 A 
BRANCH  31  32
ATOM     32  C   UNL A   1      40.830  28.691  30.685  1.00  0.00     0.031 A 
ATOM     33  C   UNL A   1      41.665  28.583  31.932  1.00  0.00     0.074 A 
ATOM     34  C   UNL A   1      39.850  29.615  30.613  1.00  0.00     0.049 A 
ATOM     35  N   UNL A   1      41.632  29.321  33.013  1.00  0.00    -0.248 NA
ATOM     36  C   UNL A   1      42.647  27.490  31.985  1.00  0.00     0.031 C 
ATOM     37  C   UNL A   1      38.926  29.775  29.489  1.00  0.00     0.029 A 
ATOM     38  N   UNL A   1      39.466  30.590  31.499  1.00  0.00    -0.354 N 
ATOM     39  C   UNL A   1      42.580  28.782  33.875  1.00  0.00     0.074 A 
ATOM     40  C   UNL A   1      43.130  27.617  33.213  1.00  0.00     0.031 C 
ATOM     41  C   UNL A   1      38.106  30.809  29.737  1.00  0.00     0.029 A 
ATOM     42  C   UNL A   1      38.419  31.360  31.051  1.00  0.00     0.049 A 
ATOM     43  H   UNL A   1      39.899  30.725  32.373  1.00  0.00     0.167 HD
ATOM     44  C   UNL A   1      42.970  29.226  35.095  1.00  0.00     0.037 A 
ATOM     45  C   UNL A   1      37.779  32.395  31.630  1.00  0.00     0.037 A 
ATOM     46  C   UNL A   1      42.420  30.389  35.745  1.00  0.00     0.049 A 
ATOM     47  C   UNL A   1      38.237  32.880  32.976  1.00  0.00     0.074 A 
ATOM     48  C   UNL A   1      42.794  30.959  36.950  1.00  0.00     0.029 A 
ATOM     49  N   UNL A   1      41.370  31.154  35.254  1.00  0.00    -0.354 N 
ATOM     50  N   UNL A   1      39.195  32.411  33.739  1.00  0.00    -0.248 NA
ATOM     51  C   UNL A   1      37.538  34.045  33.535  1.00  0.00     0.031 C 
ATOM     52  C   UNL A   1      41.933  32.030  37.215  1.00  0.00     0.029 A 
ATOM     53  C   UNL A   1      41.064  32.171  36.145  1.00  0.00     0.049 A 
ATOM     54  H   UNL A   1      40.911  30.996  34.397  1.00  0.00     0.167 HD
ATOM     55  C   UNL A   1      39.229  33.236  34.858  1.00  0.00     0.074 A 
ATOM     56  C   UNL A   1      38.207  34.244  34.662  1.00  0.00     0.031 C 
ATOM     57  C   UNL A   1      40.036  33.165  35.947  1.00  0.00     0.037 A 
BRANCH  44  58
ATOM     58  C   UNL A   1      44.040  28.442  35.812  1.00  0.00     0.058 A 
ATOM     59  C   UNL A   1      43.727  27.398  36.700  1.00  0.00     0.135 A 
ATOM     60  C   UNL A   1      45.399  28.722  35.593  1.00  0.00     0.135 A 
ATOM     61  F   UNL A   1      42.445  27.091  36.958  1.00  0.00    -0.206 F 
ATOM     62  C   UNL A   1      44.717  26.692  37.376  1.00  0.00     0.059 A 
ATOM     63  C   UNL A   1      46.408  28.006  36.232  1.00  0.00     0.059 A 
ATOM     64  F   UNL A   1      45.760  29.703  34.751  1.00  0.00    -0.206 F 
ATOM     65  C   UNL A   1      46.057  27.006  37.137  1.00  0.00     0.060 A 
BRANCH  65  66
ATOM     66  S   UNL A   1      47.328  26.093  38.034  1.00  0.00     0.124 S 
ATOM     67  O   UNL A   1      47.476  26.905  39.238  1.00  0.00    -0.237 OA
ATOM     68  O   UNL A   1      46.701  24.789  38.224  1.00  0.00    -0.237 OA
ATOM     69  O   UNL A   1      48.468  26.110  37.122  1.00  0.00    -0.744 OA
ENDBRANCH  65  66
ENDBRANCH  44  58
BRANCH  45  70
ATOM     70  C   UNL A   1      36.655  33.057  30.911  1.00  0.00     0.058 A 
ATOM     71  C   UNL A   1      35.329  32.901  31.339  1.00  0.00     0.135 A 
ATOM     72  C   UNL A   1      36.893  33.894  29.810  1.00  0.00     0.135 A 
ATOM     73  F   UNL A   1      35.050  32.104  32.382  1.00  0.00    -0.206 F 
ATOM     74  C   UNL A   1      34.277  33.548  30.699  1.00  0.00     0.059 A 
ATOM     75  C   UNL A   1      35.860  34.574  29.171  1.00  0.00     0.059 A 
ATOM     76  F   UNL A   1      38.146  34.090  29.371  1.00  0.00    -0.206 F 
ATOM     77  C   UNL A   1      34.554  34.390  29.622  1.00  0.00     0.060 A 
BRANCH  77  78
ATOM     78  S   UNL A   1      33.190  35.289  28.851  1.00  0.00     0.124 S 
ATOM     79  O   UNL A   1      32.429  35.726  30.016  1.00  0.00    -0.237 OA
ATOM     80  O   UNL A   1      33.891  36.336  28.116  1.00  0.00    -0.237 OA
ATOM     81  O   UNL A   1      32.546  34.275  28.021  1.00  0.00    -0.744 OA
ENDBRANCH  77  78
ENDBRANCH  45  70
BRANCH  57  82
ATOM     82  C   UNL A   1      39.864  34.226  37.003  1.00  0.00     0.058 A 
ATOM     83  C   UNL A   1      40.463  35.492  36.888  1.00  0.00     0.135 A 
ATOM     84  C   UNL A   1      39.073  33.978  38.136  1.00  0.00     0.135 A 
ATOM     85  F   UNL A   1      41.233  35.782  35.828  1.00  0.00    -0.206 F 
ATOM     86  C   UNL A   1      40.317  36.458  37.879  1.00  0.00     0.059 A 
ATOM     87  C   UNL A   1      38.886  34.941  39.123  1.00  0.00     0.059 A 
ATOM     88  F   UNL A   1      38.465  32.791  38.292  1.00  0.00    -0.206 F 
ATOM     89  C   UNL A   1      39.527  36.172  38.995  1.00  0.00     0.060 A 
BRANCH  89  90
ATOM     90  S   UNL A   1      39.346  37.433  40.274  1.00  0.00     0.124 S 
ATOM     91  O   UNL A   1      38.420  38.365  39.639  1.00  0.00    -0.237 OA
ATOM     92  O   UNL A   1      38.805  36.667  41.394  1.00  0.00    -0.237 OA
ATOM     93  O   UNL A   1      40.706  37.927  40.460  1.00  0.00    -0.744 OA
ENDBRANCH  89  90
ENDBRANCH  57  82
ENDBRANCH  31  32
ENDBRANCH  23  26
ENDBRANCH  21  22
ENDBRANCH   1  21
TORSDOF 16
ENDMDL
MODEL 2
REMARK VINA RESULT:     -11.8      6.968     14.018
REMARK SMILES Cc1noc(C[N@@H+]2CCC[C@H]2C(=O)NCCCCNC(=O)c2ccc(-c3c4nc(c(-c5c(F)cc(S(=O)(=O)[O-])cc5F)c5ccc([nH]5)c(-c5c(F)cc(S(=O)(=O)[O-])cc5F)c5nc(c(-c6c(F)cc(S(=O)(=O)[O-])cc6F)c6ccc3[nH]6)C=C5)C=C4)cc2)n1
REMARK SMILES IDX 17 1 16 2 15 3 14 4 12 5 13 6 11 8 7 9 8 10 9 12 10 13 6 14
REMARK SMILES IDX 5 15 1 16 2 17 3 18 88 19 4 20 18 21 19 22 20 23 21 25 22 26
REMARK SMILES IDX 23 27 87 28 24 29 86 30 25 31 26 32 27 33 80 34 28 35 85 36
REMARK SMILES IDX 79 37 81 38 29 39 84 40 78 41 77 42 30 44 64 45 43 46 63 47
REMARK SMILES IDX 44 48 47 49 62 50 82 51 45 52 46 53 61 55 83 56 48 57 31 58
REMARK SMILES IDX 32 59 41 60 33 61 34 62 40 63 42 64 35 65 36 66 37 67 38 68
REMARK SMILES IDX 39 69 65 70 66 71 75 72 67 73 68 74 74 75 76 76 69 77 70 78
REMARK SMILES IDX 71 79 72 80 73 81 49 82 50 83 59 84 51 85 52 86 58 87 60 88
REMARK SMILES IDX 53 89 54 90 55 91 56 92 57 93
REMARK H PARENT 14 7 7 11 19 24 81 43 47 54
REMARK Flexibility Score: inf
ROOT
ATOM      1  C   UNL A   1      35.158  32.227  27.865  1.00  0.00     0.023 C 
ENDROOT
BRANCH   1   2
ATOM      2  C   UNL A   1      34.711  33.438  28.691  1.00  0.00     0.023 C 
BRANCH   2   3
ATOM      3  C   UNL A   1      33.412  34.088  28.219  1.00  0.00     0.116 C 
BRANCH   3   4
ATOM      4  N   UNL A   1      33.413  35.520  28.448  1.00  0.00    -0.351 N 
ATOM      5  C   UNL A   1      33.237  36.218  29.611  1.00  0.00     0.278 C 
ATOM      6  O   UNL A   1      33.252  37.450  29.553  1.00  0.00    -0.268 OA
ATOM      7  H   UNL A   1      33.565  36.071  27.648  1.00  0.00     0.163 HD
BRANCH   5   8
ATOM      8  C   UNL A   1      33.077  35.447  30.940  1.00  0.00     0.274 C 
ATOM      9  N   UNL A   1      34.369  35.531  31.663  1.00  0.00    -0.317 N 
ATOM     10  C   UNL A   1      34.225  36.591  32.666  1.00  0.00     0.263 C 
ATOM     11  H   UNL A   1      35.113  35.770  31.007  1.00  0.00     0.349 HD
ATOM     12  C   UNL A   1      32.756  36.650  33.039  1.00  0.00     0.068 C 
ATOM     13  C   UNL A   1      32.017  36.097  31.835  1.00  0.00     0.081 C 
BRANCH   9  14
ATOM     14  C   UNL A   1      34.866  34.250  32.195  1.00  0.00     0.364 C 
BRANCH  14  15
ATOM     15  C   UNL A   1      35.738  34.344  33.398  1.00  0.00     0.281 A 
ATOM     16  C   UNL A   1      37.215  33.349  36.404  1.00  0.00     0.093 C 
ATOM     17  C   UNL A   1      36.820  34.004  35.146  1.00  0.00     0.169 A 
ATOM     18  N   UNL A   1      37.665  34.735  34.409  1.00  0.00    -0.063 NA
ATOM     19  N   UNL A   1      35.591  33.792  34.582  1.00  0.00    -0.191 NA
ATOM     20  O   UNL A   1      36.942  34.970  33.238  1.00  0.00    -0.333 OA
ENDBRANCH  14  15
ENDBRANCH   9  14
ENDBRANCH   5   8
ENDBRANCH   3   4
ENDBRANCH   2   3
ENDBRANCH   1   2
BRANCH   1  21
ATOM     21  C   UNL A   1      35.458  30.958  28.662  1.00  0.00     0.116 C 
BRANCH  21  22
ATOM     22  N   UNL A   1      35.557  31.197  30.093  1.00  0.00    -0.352 N 
ATOM     23  C   UNL A   1      36.570  30.882  30.965  1.00  0.00     0.251 C 
ATOM     24  H   UNL A   1      34.784  31.652  30.496  1.00  0.00     0.163 HD
ATOM     25  O   UNL A   1      36.399  31.051  32.172  1.00  0.00    -0.269 OA
BRANCH  23  26
ATOM     26  C   UNL A   1      37.845  30.311  30.472  1.00  0.00     0.039 A 
ATOM     27  C   UNL A   1      38.098  30.331  29.097  1.00  0.00     0.014 A 
ATOM     28  C   UNL A   1      38.787  29.756  31.344  1.00  0.00     0.014 A 
ATOM     29  C   UNL A   1      39.318  29.858  28.609  1.00  0.00     0.010 A 
ATOM     30  C   UNL A   1      40.033  29.357  30.862  1.00  0.00     0.010 A 
ATOM     31  C   UNL A   1      40.316  29.406  29.489  1.00  0.00    -0.014 A 
BRANCH  31  32
ATOM     32  C   UNL A   1      41.662  29.028  28.980  1.00  0.00     0.031 A 
ATOM     33  C   UNL A   1      42.772  30.040  28.892  1.00  0.00     0.074 A 
ATOM     34  C   UNL A   1      41.870  27.766  28.551  1.00  0.00     0.049 A 
ATOM     35  N   UNL A   1      44.007  29.875  28.492  1.00  0.00    -0.248 NA
ATOM     36  C   UNL A   1      42.448  31.419  29.282  1.00  0.00     0.031 C 
ATOM     37  C   UNL A   1      40.856  26.710  28.516  1.00  0.00     0.029 A 
ATOM     38  N   UNL A   1      42.999  27.157  28.061  1.00  0.00    -0.354 N 
ATOM     39  C   UNL A   1      44.606  31.127  28.574  1.00  0.00     0.074 A 
ATOM     40  C   UNL A   1      43.581  32.052  29.008  1.00  0.00     0.031 C 
ATOM     41  C   UNL A   1      41.416  25.576  28.065  1.00  0.00     0.029 A 
ATOM     42  C   UNL A   1      42.816  25.832  27.742  1.00  0.00     0.049 A 
ATOM     43  H   UNL A   1      43.857  27.625  27.948  1.00  0.00     0.167 HD
ATOM     44  C   UNL A   1      45.895  31.471  28.330  1.00  0.00     0.037 A 
ATOM     45  C   UNL A   1      43.675  24.921  27.245  1.00  0.00     0.037 A 
ATOM     46  C   UNL A   1      46.912  30.542  27.903  1.00  0.00     0.049 A 
ATOM     47  C   UNL A   1      45.103  25.319  26.996  1.00  0.00     0.074 A 
ATOM     48  C   UNL A   1      48.259  30.778  27.693  1.00  0.00     0.029 A 
ATOM     49  N   UNL A   1      46.692  29.204  27.605  1.00  0.00    -0.354 N 
ATOM     50  N   UNL A   1      45.673  26.489  27.163  1.00  0.00    -0.248 NA
ATOM     51  C   UNL A   1      46.008  24.272  26.505  1.00  0.00     0.031 C 
ATOM     52  C   UNL A   1      48.843  29.600  27.213  1.00  0.00     0.029 A 
ATOM     53  C   UNL A   1      47.873  28.610  27.186  1.00  0.00     0.049 A 
ATOM     54  H   UNL A   1      45.825  28.744  27.681  1.00  0.00     0.167 HD
ATOM     55  C   UNL A   1      47.009  26.313  26.819  1.00  0.00     0.074 A 
ATOM     56  C   UNL A   1      47.164  24.919  26.453  1.00  0.00     0.031 C 
ATOM     57  C   UNL A   1      48.016  27.223  26.811  1.00  0.00     0.037 A 
BRANCH  44  58
ATOM     58  C   UNL A   1      46.276  32.918  28.512  1.00  0.00     0.058 A 
ATOM     59  C   UNL A   1      46.209  33.842  27.454  1.00  0.00     0.135 A 
ATOM     60  C   UNL A   1      46.693  33.396  29.765  1.00  0.00     0.135 A 
ATOM     61  F   UNL A   1      45.827  33.443  26.231  1.00  0.00    -0.206 F 
ATOM     62  C   UNL A   1      46.583  35.172  27.622  1.00  0.00     0.059 A 
ATOM     63  C   UNL A   1      47.040  34.729  29.965  1.00  0.00     0.059 A 
ATOM     64  F   UNL A   1      46.772  32.562  30.814  1.00  0.00    -0.206 F 
ATOM     65  C   UNL A   1      47.001  35.606  28.881  1.00  0.00     0.060 A 
BRANCH  65  66
ATOM     66  S   UNL A   1      47.498  37.329  29.078  1.00  0.00     0.124 S 
ATOM     67  O   UNL A   1      46.371  37.874  29.830  1.00  0.00    -0.237 OA
ATOM     68  O   UNL A   1      48.752  37.211  29.814  1.00  0.00    -0.237 OA
ATOM     69  O   UNL A   1      47.624  37.807  27.704  1.00  0.00    -0.744 OA
ENDBRANCH  65  66
ENDBRANCH  44  58
BRANCH  45  70
ATOM     70  C   UNL A   1      43.204  23.533  26.986  1.00  0.00     0.058 A 
ATOM     71  C   UNL A   1      42.918  23.096  25.684  1.00  0.00     0.135 A 
ATOM     72  C   UNL A   1      43.074  22.605  28.030  1.00  0.00     0.135 A 
ATOM     73  F   UNL A   1      43.019  23.949  24.653  1.00  0.00    -0.206 F 
ATOM     74  C   UNL A   1      42.516  21.789  25.427  1.00  0.00     0.059 A 
ATOM     75  C   UNL A   1      42.701  21.285  27.795  1.00  0.00     0.059 A 
ATOM     76  F   UNL A   1      43.352  22.968  29.292  1.00  0.00    -0.206 F 
ATOM     77  C   UNL A   1      42.420  20.888  26.489  1.00  0.00     0.060 A 
BRANCH  77  78
ATOM     78  S   UNL A   1      41.977  19.174  26.132  1.00  0.00     0.124 S 
ATOM     79  O   UNL A   1      42.364  18.507  27.370  1.00  0.00    -0.237 OA
ATOM     80  O   UNL A   1      40.543  19.275  25.881  1.00  0.00    -0.237 OA
ATOM     81  O   UNL A   1      42.789  18.854  24.962  1.00  0.00    -0.744 OA
ENDBRANCH  77  78
ENDBRANCH  45  70
BRANCH  57  82
ATOM     82  C   UNL A   1      49.385  26.733  26.417  1.00  0.00     0.058 A 
ATOM     83  C   UNL A   1      50.238  26.094  27.332  1.00  0.00     0.135 A 
ATOM     84  C   UNL A   1      49.842  26.889  25.098  1.00  0.00     0.135 A 
ATOM     85  F   UNL A   1      49.854  25.922  28.606  1.00  0.00    -0.206 F 
ATOM     86  C   UNL A   1      51.509  25.665  26.964  1.00  0.00     0.059 A 
ATOM     87  C   UNL A   1      51.097  26.437  24.700  1.00  0.00     0.059 A 
ATOM     88  F   UNL A   1      49.065  27.480  24.176  1.00  0.00    -0.206 F 
ATOM     89  C   UNL A   1      51.932  25.844  25.645  1.00  0.00     0.060 A 
BRANCH  89  90
ATOM     90  S   UNL A   1      53.583  25.283  25.180  1.00  0.00     0.124 S 
ATOM     91  O   UNL A   1      53.663  25.722  23.791  1.00  0.00    -0.237 OA
ATOM     92  O   UNL A   1      54.434  26.004  26.122  1.00  0.00    -0.237 OA
ATOM     93  O   UNL A   1      53.521  23.839  25.380  1.00  0.00    -0.744 OA
ENDBRANCH  89  90
ENDBRANCH  57  82
ENDBRANCH  31  32
ENDBRANCH  23  26
ENDBRANCH  21  22
ENDBRANCH   1  21
TORSDOF 16
ENDMDL
MODEL 3
REMARK VINA RESULT:     -11.8      7.113     13.697
REMARK SMILES Cc1noc(C[N@@H+]2CCC[C@H]2C(=O)NCCCCNC(=O)c2ccc(-c3c4nc(c(-c5c(F)cc(S(=O)(=O)[O-])cc5F)c5ccc([nH]5)c(-c5c(F)cc(S(=O)(=O)[O-])cc5F)c5nc(c(-c6c(F)cc(S(=O)(=O)[O-])cc6F)c6ccc3[nH]6)C=C5)C=C4)cc2)n1
REMARK SMILES IDX 17 1 16 2 15 3 14 4 12 5 13 6 11 8 7 9 8 10 9 12 10 13 6 14
REMARK SMILES IDX 5 15 1 16 2 17 3 18 88 19 4 20 18 21 19 22 20 23 21 25 22 26
REMARK SMILES IDX 23 27 87 28 24 29 86 30 25 31 26 32 27 33 80 34 28 35 85 36
REMARK SMILES IDX 79 37 81 38 29 39 84 40 78 41 77 42 30 44 64 45 43 46 63 47
REMARK SMILES IDX 44 48 47 49 62 50 82 51 45 52 46 53 61 55 83 56 48 57 31 58
REMARK SMILES IDX 32 59 41 60 33 61 34 62 40 63 42 64 35 65 36 66 37 67 38 68
REMARK SMILES IDX 39 69 65 70 66 71 75 72 67 73 68 74 74 75 76 76 69 77 70 78
REMARK SMILES IDX 71 79 72 80 73 81 49 82 50 83 59 84 51 85 52 86 58 87 60 88
REMARK SMILES IDX 53 89 54 90 55 91 56 92 57 93
REMARK H PARENT 14 7 7 11 19 24 81 43 47 54
REMARK Flexibility Score: inf
ROOT
ATOM      1  C   UNL A   1      38.417  33.756  33.400  1.00  0.00     0.023 C 
ENDROOT
BRANCH   1   2
ATOM      2  C   UNL A   1      37.435  33.227  34.451  1.00  0.00     0.023 C 
BRANCH   2   3
ATOM      3  C   UNL A   1      36.242  34.140  34.727  1.00  0.00     0.116 C 
BRANCH   3   4
ATOM      4  N   UNL A   1      34.990  33.516  34.348  1.00  0.00    -0.351 N 
ATOM      5  C   UNL A   1      34.118  33.844  33.346  1.00  0.00     0.278 C 
ATOM      6  O   UNL A   1      33.089  33.174  33.234  1.00  0.00    -0.268 OA
ATOM      7  H   UNL A   1      34.728  32.739  34.893  1.00  0.00     0.163 HD
BRANCH   5   8
ATOM      8  C   UNL A   1      34.476  34.993  32.378  1.00  0.00     0.274 C 
ATOM      9  N   UNL A   1      33.583  34.879  31.200  1.00  0.00    -0.317 N 
ATOM     10  C   UNL A   1      32.501  35.849  31.394  1.00  0.00     0.263 C 
ATOM     11  H   UNL A   1      33.201  33.935  31.151  1.00  0.00     0.349 HD
ATOM     12  C   UNL A   1      33.064  36.978  32.236  1.00  0.00     0.068 C 
ATOM     13  C   UNL A   1      34.209  36.360  33.016  1.00  0.00     0.081 C 
BRANCH   9  14
ATOM     14  C   UNL A   1      34.262  34.975  29.896  1.00  0.00     0.364 C 
BRANCH  14  15
ATOM     15  C   UNL A   1      33.778  34.039  28.844  1.00  0.00     0.281 A 
ATOM     16  C   UNL A   1      33.210  30.981  27.252  1.00  0.00     0.093 C 
ATOM     17  C   UNL A   1      33.240  32.384  27.698  1.00  0.00     0.169 A 
ATOM     18  N   UNL A   1      32.235  33.241  27.475  1.00  0.00    -0.063 NA
ATOM     19  N   UNL A   1      34.247  32.863  28.490  1.00  0.00    -0.191 NA
ATOM     20  O   UNL A   1      32.595  34.355  28.237  1.00  0.00    -0.333 OA
ENDBRANCH  14  15
ENDBRANCH   9  14
ENDBRANCH   5   8
ENDBRANCH   3   4
ENDBRANCH   2   3
ENDBRANCH   1   2
BRANCH   1  21
ATOM     21  C   UNL A   1      37.986  33.578  31.945  1.00  0.00     0.116 C 
BRANCH  21  22
ATOM     22  N   UNL A   1      36.887  32.639  31.790  1.00  0.00    -0.352 N 
ATOM     23  C   UNL A   1      36.867  31.406  31.186  1.00  0.00     0.251 C 
ATOM     24  H   UNL A   1      36.029  32.932  32.174  1.00  0.00     0.163 HD
ATOM     25  O   UNL A   1      35.792  30.824  31.042  1.00  0.00    -0.269 OA
BRANCH  23  26
ATOM     26  C   UNL A   1      38.115  30.790  30.680  1.00  0.00     0.039 A 
ATOM     27  C   UNL A   1      38.314  30.724  29.298  1.00  0.00     0.014 A 
ATOM     28  C   UNL A   1      39.083  30.275  31.547  1.00  0.00     0.014 A 
ATOM     29  C   UNL A   1      39.509  30.205  28.792  1.00  0.00     0.010 A 
ATOM     30  C   UNL A   1      40.305  29.829  31.043  1.00  0.00     0.010 A 
ATOM     31  C   UNL A   1      40.534  29.792  29.659  1.00  0.00    -0.014 A 
BRANCH  31  32
ATOM     32  C   UNL A   1      41.855  29.366  29.122  1.00  0.00     0.031 A 
ATOM     33  C   UNL A   1      42.996  30.339  29.001  1.00  0.00     0.074 A 
ATOM     34  C   UNL A   1      42.011  28.094  28.700  1.00  0.00     0.049 A 
ATOM     35  N   UNL A   1      44.215  30.131  28.574  1.00  0.00    -0.248 NA
ATOM     36  C   UNL A   1      42.727  31.732  29.387  1.00  0.00     0.031 C 
ATOM     37  C   UNL A   1      40.962  27.073  28.697  1.00  0.00     0.029 A 
ATOM     38  N   UNL A   1      43.107  27.444  28.189  1.00  0.00    -0.354 N 
ATOM     39  C   UNL A   1      44.857  31.362  28.631  1.00  0.00     0.074 A 
ATOM     40  C   UNL A   1      43.873  32.325  29.081  1.00  0.00     0.031 C 
ATOM     41  C   UNL A   1      41.473  25.917  28.243  1.00  0.00     0.029 A 
ATOM     42  C   UNL A   1      42.873  26.124  27.886  1.00  0.00     0.049 A 
ATOM     43  H   UNL A   1      43.978  27.883  28.052  1.00  0.00     0.167 HD
ATOM     44  C   UNL A   1      46.150  31.661  28.355  1.00  0.00     0.037 A 
ATOM     45  C   UNL A   1      43.690  25.181  27.377  1.00  0.00     0.037 A 
ATOM     46  C   UNL A   1      47.126  30.696  27.912  1.00  0.00     0.049 A 
ATOM     47  C   UNL A   1      45.124  25.529  27.092  1.00  0.00     0.074 A 
ATOM     48  C   UNL A   1      48.475  30.885  27.670  1.00  0.00     0.029 A 
ATOM     49  N   UNL A   1      46.855  29.363  27.631  1.00  0.00    -0.354 N 
ATOM     50  N   UNL A   1      45.736  26.680  27.236  1.00  0.00    -0.248 NA
ATOM     51  C   UNL A   1      45.982  24.449  26.589  1.00  0.00     0.031 C 
ATOM     52  C   UNL A   1      49.008  29.684  27.187  1.00  0.00     0.029 A 
ATOM     53  C   UNL A   1      48.005  28.727  27.190  1.00  0.00     0.049 A 
ATOM     54  H   UNL A   1      45.975  28.933  27.730  1.00  0.00     0.167 HD
ATOM     55  C   UNL A   1      47.057  26.457  26.863  1.00  0.00     0.074 A 
ATOM     56  C   UNL A   1      47.157  25.056  26.505  1.00  0.00     0.031 C 
ATOM     57  C   UNL A   1      48.094  27.334  26.823  1.00  0.00     0.037 A 
BRANCH  44  58
ATOM     58  C   UNL A   1      46.584  33.096  28.515  1.00  0.00     0.058 A 
ATOM     59  C   UNL A   1      46.517  34.015  27.454  1.00  0.00     0.135 A 
ATOM     60  C   UNL A   1      47.052  33.567  29.753  1.00  0.00     0.135 A 
ATOM     61  F   UNL A   1      46.088  33.621  26.245  1.00  0.00    -0.206 F 
ATOM     62  C   UNL A   1      46.938  35.333  27.602  1.00  0.00     0.059 A 
ATOM     63  C   UNL A   1      47.447  34.890  29.933  1.00  0.00     0.059 A 
ATOM     64  F   UNL A   1      47.133  32.738  30.806  1.00  0.00    -0.206 F 
ATOM     65  C   UNL A   1      47.406  35.761  28.846  1.00  0.00     0.060 A 
BRANCH  65  66
ATOM     66  S   UNL A   1      47.964  37.468  29.016  1.00  0.00     0.124 S 
ATOM     67  O   UNL A   1      48.159  37.851  27.620  1.00  0.00    -0.237 OA
ATOM     68  O   UNL A   1      46.836  38.100  29.693  1.00  0.00    -0.237 OA
ATOM     69  O   UNL A   1      49.183  37.351  29.810  1.00  0.00    -0.744 OA
ENDBRANCH  65  66
ENDBRANCH  44  58
BRANCH  45  70
ATOM     70  C   UNL A   1      43.167  23.807  27.141  1.00  0.00     0.058 A 
ATOM     71  C   UNL A   1      42.759  23.397  25.863  1.00  0.00     0.135 A 
ATOM     72  C   UNL A   1      43.107  22.866  28.179  1.00  0.00     0.135 A 
ATOM     73  F   UNL A   1      42.790  24.264  24.839  1.00  0.00    -0.206 F 
ATOM     74  C   UNL A   1      42.308  22.103  25.623  1.00  0.00     0.059 A 
ATOM     75  C   UNL A   1      42.686  21.558  27.959  1.00  0.00     0.059 A 
ATOM     76  F   UNL A   1      43.501  23.203  29.417  1.00  0.00    -0.206 F 
ATOM     77  C   UNL A   1      42.284  21.188  26.676  1.00  0.00     0.060 A 
BRANCH  77  78
ATOM     78  S   UNL A   1      41.773  19.489  26.336  1.00  0.00     0.124 S 
ATOM     79  O   UNL A   1      42.176  18.810  27.562  1.00  0.00    -0.237 OA
ATOM     80  O   UNL A   1      40.337  19.638  26.130  1.00  0.00    -0.237 OA
ATOM     81  O   UNL A   1      42.537  19.142  25.141  1.00  0.00    -0.744 OA
ENDBRANCH  77  78
ENDBRANCH  45  70
BRANCH  57  82
ATOM     82  C   UNL A   1      49.436  26.795  26.402  1.00  0.00     0.058 A 
ATOM     83  C   UNL A   1      50.265  26.088  27.289  1.00  0.00     0.135 A 
ATOM     84  C   UNL A   1      49.891  26.973  25.085  1.00  0.00     0.135 A 
ATOM     85  F   UNL A   1      49.883  25.892  28.561  1.00  0.00    -0.206 F 
ATOM     86  C   UNL A   1      51.513  25.615  26.897  1.00  0.00     0.059 A 
ATOM     87  C   UNL A   1      51.120  26.478  24.662  1.00  0.00     0.059 A 
ATOM     88  F   UNL A   1      49.134  27.628  24.190  1.00  0.00    -0.206 F 
ATOM     89  C   UNL A   1      51.934  25.817  25.581  1.00  0.00     0.060 A 
BRANCH  89  90
ATOM     90  S   UNL A   1      53.555  25.197  25.084  1.00  0.00     0.124 S 
ATOM     91  O   UNL A   1      53.619  25.625  23.690  1.00  0.00    -0.237 OA
ATOM     92  O   UNL A   1      54.450  25.894  26.003  1.00  0.00    -0.237 OA
ATOM     93  O   UNL A   1      53.448  23.757  25.295  1.00  0.00    -0.744 OA
ENDBRANCH  89  90
ENDBRANCH  57  82
ENDBRANCH  31  32
ENDBRANCH  23  26
ENDBRANCH  21  22
ENDBRANCH   1  21
TORSDOF 16
ENDMDL
