MODEL 1
REMARK VINA RESULT:     -11.8      0.000      0.000
REMARK SMILES COc1ccc(C(=O)NCCCCNC(=O)c2ccc(-c3c4nc(c(-c5c(F)cc(S(=O)(=O)[O-])cc5F)c5ccc([nH]5)c(-c5c(F)cc(S(=O)(=O)[O-])cc5F)c5nc(c(-c6c(F)cc(S(=O)(=O)[O-])cc6F)c6ccc3[nH]6)C=C5)C=C4)cc2)cc1NC(=O)c1ccccc1[N+](=O)[O-]
REMARK SMILES IDX 11 1 10 2 9 3 7 4 8 5 6 7 3 8 4 9 84 10 5 11 83 12 2 13 1 14
REMARK SMILES IDX 85 15 86 16 87 18 88 19 89 20 93 21 90 22 92 23 91 24 94 25
REMARK SMILES IDX 95 26 96 27 12 28 13 29 14 30 15 31 16 33 17 34 18 35 82 36
REMARK SMILES IDX 19 37 81 38 20 39 21 40 22 41 75 42 23 43 80 44 74 45 76 46
REMARK SMILES IDX 24 47 79 48 73 49 72 50 25 52 59 53 38 54 58 55 39 56 42 57
REMARK SMILES IDX 57 58 77 59 40 60 41 61 56 63 78 64 43 65 26 66 27 67 36 68
REMARK SMILES IDX 28 69 29 70 35 71 37 72 30 73 31 74 32 75 33 76 34 77 60 78
REMARK SMILES IDX 61 79 70 80 62 81 63 82 69 83 71 84 64 85 65 86 66 87 67 88
REMARK SMILES IDX 68 89 44 90 45 91 54 92 46 93 47 94 53 95 55 96 48 97 49 98
REMARK SMILES IDX 50 99 51 100 52 101
REMARK H PARENT 9 6 85 17 14 32 76 51 42 62
REMARK Flexibility Score: inf
ROOT
ATOM      1  C   UNL A   1      36.928  22.299  25.731  1.00  0.00     0.023 C 
ENDROOT
BRANCH   1   2
ATOM      2  C   UNL A   1      36.840  23.638  24.996  1.00  0.00     0.116 C 
BRANCH   2   3
ATOM      3  N   UNL A   1      36.072  23.506  23.777  1.00  0.00    -0.352 N 
ATOM      4  C   UNL A   1      34.730  23.502  23.507  1.00  0.00     0.251 C 
ATOM      5  O   UNL A   1      34.405  23.445  22.319  1.00  0.00    -0.269 OA
ATOM      6  H   UNL A   1      36.632  23.396  22.974  1.00  0.00     0.163 HD
BRANCH   4   7
ATOM      7  C   UNL A   1      33.649  23.578  24.537  1.00  0.00     0.042 A 
ATOM      8  C   UNL A   1      31.724  23.407  26.571  1.00  0.00     0.142 A 
ATOM      9  C   UNL A   1      32.071  22.264  25.865  1.00  0.00     0.049 A 
ATOM     10  C   UNL A   1      32.305  24.648  26.259  1.00  0.00     0.084 A 
ATOM     11  C   UNL A   1      33.008  22.358  24.837  1.00  0.00     0.018 A 
ATOM     12  C   UNL A   1      33.303  24.719  25.277  1.00  0.00     0.044 A 
BRANCH   8  13
ATOM     13  O   UNL A   1      30.849  23.275  27.621  1.00  0.00    -0.495 OA
ATOM     14  C   UNL A   1      29.555  22.861  27.176  1.00  0.00     0.278 C 
ENDBRANCH   8  13
BRANCH  10  15
ATOM     15  N   UNL A   1      31.853  25.753  27.000  1.00  0.00    -0.319 N 
ATOM     16  C   UNL A   1      31.390  26.993  26.652  1.00  0.00     0.262 C 
ATOM     17  H   UNL A   1      31.874  25.604  27.972  1.00  0.00     0.170 HD
ATOM     18  O   UNL A   1      31.192  27.831  27.534  1.00  0.00    -0.269 OA
BRANCH  16  19
ATOM     19  C   UNL A   1      31.056  27.373  25.265  1.00  0.00     0.117 A 
ATOM     20  C   UNL A   1      29.940  26.731  24.706  1.00  0.00     0.021 A 
ATOM     21  C   UNL A   1      31.813  28.219  24.447  1.00  0.00     0.282 A 
ATOM     22  C   UNL A   1      29.572  26.969  23.381  1.00  0.00     0.001 A 
ATOM     23  C   UNL A   1      31.420  28.500  23.126  1.00  0.00     0.086 A 
ATOM     24  C   UNL A   1      30.292  27.872  22.600  1.00  0.00     0.007 A 
BRANCH  21  25
ATOM     25  N   UNL A   1      33.070  28.783  24.894  1.00  0.00     0.063 N 
ATOM     26  O   UNL A   1      33.009  29.741  25.677  1.00  0.00    -0.258 OA
ATOM     27  O   UNL A   1      34.113  28.300  24.436  1.00  0.00    -0.258 OA
ENDBRANCH  21  25
ENDBRANCH  16  19
ENDBRANCH  10  15
ENDBRANCH   4   7
ENDBRANCH   2   3
ENDBRANCH   1   2
BRANCH   1  28
ATOM     28  C   UNL A   1      38.041  21.375  25.219  1.00  0.00     0.023 C 
BRANCH  28  29
ATOM     29  C   UNL A   1      39.260  21.250  26.135  1.00  0.00     0.116 C 
BRANCH  29  30
ATOM     30  N   UNL A   1      39.991  20.005  25.955  1.00  0.00    -0.352 N 
ATOM     31  C   UNL A   1      41.336  19.758  26.105  1.00  0.00     0.251 C 
ATOM     32  H   UNL A   1      39.446  19.229  25.689  1.00  0.00     0.163 HD
ATOM     33  O   UNL A   1      41.779  18.631  25.905  1.00  0.00    -0.269 OA
BRANCH  31  34
ATOM     34  C   UNL A   1      42.244  20.875  26.431  1.00  0.00     0.039 A 
ATOM     35  C   UNL A   1      42.845  21.566  25.375  1.00  0.00     0.014 A 
ATOM     36  C   UNL A   1      42.426  21.298  27.749  1.00  0.00     0.014 A 
ATOM     37  C   UNL A   1      43.527  22.755  25.631  1.00  0.00     0.010 A 
ATOM     38  C   UNL A   1      43.057  22.513  27.997  1.00  0.00     0.010 A 
ATOM     39  C   UNL A   1      43.580  23.268  26.937  1.00  0.00    -0.014 A 
BRANCH  39  40
ATOM     40  C   UNL A   1      44.091  24.636  27.199  1.00  0.00     0.031 A 
ATOM     41  C   UNL A   1      43.152  25.737  27.592  1.00  0.00     0.074 A 
ATOM     42  C   UNL A   1      45.396  24.895  26.981  1.00  0.00     0.049 A 
ATOM     43  N   UNL A   1      43.404  27.007  27.773  1.00  0.00    -0.248 NA
ATOM     44  C   UNL A   1      41.741  25.368  27.781  1.00  0.00     0.031 C 
ATOM     45  C   UNL A   1      46.390  23.914  26.534  1.00  0.00     0.029 A 
ATOM     46  N   UNL A   1      46.111  26.061  27.090  1.00  0.00    -0.354 N 
ATOM     47  C   UNL A   1      42.184  27.594  28.082  1.00  0.00     0.074 A 
ATOM     48  C   UNL A   1      41.186  26.547  28.026  1.00  0.00     0.031 C 
ATOM     49  C   UNL A   1      47.585  24.516  26.424  1.00  0.00     0.029 A 
ATOM     50  C   UNL A   1      47.438  25.928  26.760  1.00  0.00     0.049 A 
ATOM     51  H   UNL A   1      45.709  26.913  27.378  1.00  0.00     0.167 HD
ATOM     52  C   UNL A   1      41.925  28.885  28.401  1.00  0.00     0.037 A 
ATOM     53  C   UNL A   1      48.427  26.842  26.727  1.00  0.00     0.037 A 
ATOM     54  C   UNL A   1      42.929  29.914  28.473  1.00  0.00     0.049 A 
ATOM     55  C   UNL A   1      48.121  28.261  27.113  1.00  0.00     0.074 A 
ATOM     56  C   UNL A   1      42.777  31.242  28.836  1.00  0.00     0.029 A 
ATOM     57  N   UNL A   1      44.272  29.731  28.180  1.00  0.00    -0.354 N 
ATOM     58  N   UNL A   1      46.971  28.787  27.463  1.00  0.00    -0.248 NA
ATOM     59  C   UNL A   1      49.242  29.211  27.107  1.00  0.00     0.031 C 
ATOM     60  C   UNL A   1      44.026  31.867  28.736  1.00  0.00     0.029 A 
ATOM     61  C   UNL A   1      44.961  30.921  28.343  1.00  0.00     0.049 A 
ATOM     62  H   UNL A   1      44.677  28.880  27.895  1.00  0.00     0.167 HD
ATOM     63  C   UNL A   1      47.233  30.123  27.739  1.00  0.00     0.074 A 
ATOM     64  C   UNL A   1      48.652  30.323  27.525  1.00  0.00     0.031 C 
ATOM     65  C   UNL A   1      46.376  31.096  28.133  1.00  0.00     0.037 A 
BRANCH  52  66
ATOM     66  C   UNL A   1      40.497  29.248  28.697  1.00  0.00     0.058 A 
ATOM     67  C   UNL A   1      40.044  29.414  30.016  1.00  0.00     0.135 A 
ATOM     68  C   UNL A   1      39.577  29.445  27.657  1.00  0.00     0.135 A 
ATOM     69  F   UNL A   1      40.881  29.221  31.047  1.00  0.00    -0.206 F 
ATOM     70  C   UNL A   1      38.718  29.724  30.294  1.00  0.00     0.059 A 
ATOM     71  C   UNL A   1      38.250  29.782  27.912  1.00  0.00     0.059 A 
ATOM     72  F   UNL A   1      39.958  29.301  26.379  1.00  0.00    -0.206 F 
ATOM     73  C   UNL A   1      37.826  29.900  29.236  1.00  0.00     0.060 A 
BRANCH  73  74
ATOM     74  S   UNL A   1      36.102  30.284  29.611  1.00  0.00     0.124 S 
ATOM     75  O   UNL A   1      36.129  31.743  29.626  1.00  0.00    -0.237 OA
ATOM     76  O   UNL A   1      35.393  29.676  28.489  1.00  0.00    -0.237 OA
ATOM     77  O   UNL A   1      35.887  29.646  30.905  1.00  0.00    -0.744 OA
ENDBRANCH  73  74
ENDBRANCH  52  66
BRANCH  53  78
ATOM     78  C   UNL A   1      49.803  26.432  26.342  1.00  0.00     0.058 A 
ATOM     79  C   UNL A   1      50.253  26.580  25.022  1.00  0.00     0.135 A 
ATOM     80  C   UNL A   1      50.701  25.912  27.286  1.00  0.00     0.135 A 
ATOM     81  F   UNL A   1      49.428  27.070  24.084  1.00  0.00    -0.206 F 
ATOM     82  C   UNL A   1      51.542  26.216  24.646  1.00  0.00     0.059 A 
ATOM     83  C   UNL A   1      52.002  25.560  26.940  1.00  0.00     0.059 A 
ATOM     84  F   UNL A   1      50.324  25.770  28.566  1.00  0.00    -0.206 F 
ATOM     85  C   UNL A   1      52.410  25.708  25.614  1.00  0.00     0.060 A 
BRANCH  85  86
ATOM     86  S   UNL A   1      54.101  25.294  25.131  1.00  0.00     0.124 S 
ATOM     87  O   UNL A   1      54.861  25.785  26.276  1.00  0.00    -0.237 OA
ATOM     88  O   UNL A   1      54.033  23.842  24.984  1.00  0.00    -0.237 OA
ATOM     89  O   UNL A   1      54.282  26.032  23.886  1.00  0.00    -0.744 OA
ENDBRANCH  85  86
ENDBRANCH  53  78
BRANCH  65  90
ATOM     90  C   UNL A   1      46.953  32.458  28.385  1.00  0.00     0.058 A 
ATOM     91  C   UNL A   1      47.475  32.813  29.638  1.00  0.00     0.135 A 
ATOM     92  C   UNL A   1      47.037  33.397  27.345  1.00  0.00     0.135 A 
ATOM     93  F   UNL A   1      47.409  31.951  30.665  1.00  0.00    -0.206 F 
ATOM     94  C   UNL A   1      48.053  34.059  29.856  1.00  0.00     0.059 A 
ATOM     95  C   UNL A   1      47.628  34.642  27.534  1.00  0.00     0.059 A 
ATOM     96  F   UNL A   1      46.557  33.102  26.127  1.00  0.00    -0.206 F 
ATOM     97  C   UNL A   1      48.126  34.966  28.796  1.00  0.00     0.060 A 
BRANCH  97  98
ATOM     98  S   UNL A   1      48.921  36.563  29.075  1.00  0.00     0.124 S 
ATOM     99  O   UNL A   1      48.883  36.659  30.530  1.00  0.00    -0.237 OA
ATOM    100  O   UNL A   1      50.243  36.364  28.487  1.00  0.00    -0.237 OA
ATOM    101  O   UNL A   1      48.059  37.499  28.359  1.00  0.00    -0.744 OA
ENDBRANCH  97  98
ENDBRANCH  65  90
ENDBRANCH  39  40
ENDBRANCH  31  34
ENDBRANCH  29  30
ENDBRANCH  28  29
ENDBRANCH   1  28
TORSDOF 18
ENDMDL
MODEL 2
REMARK VINA RESULT:     -11.8      2.321      8.589
REMARK SMILES COc1ccc(C(=O)NCCCCNC(=O)c2ccc(-c3c4nc(c(-c5c(F)cc(S(=O)(=O)[O-])cc5F)c5ccc([nH]5)c(-c5c(F)cc(S(=O)(=O)[O-])cc5F)c5nc(c(-c6c(F)cc(S(=O)(=O)[O-])cc6F)c6ccc3[nH]6)C=C5)C=C4)cc2)cc1NC(=O)c1ccccc1[N+](=O)[O-]
REMARK SMILES IDX 11 1 10 2 9 3 7 4 8 5 6 7 3 8 4 9 84 10 5 11 83 12 2 13 1 14
REMARK SMILES IDX 85 15 86 16 87 18 88 19 89 20 93 21 90 22 92 23 91 24 94 25
REMARK SMILES IDX 95 26 96 27 12 28 13 29 14 30 15 31 16 33 17 34 18 35 82 36
REMARK SMILES IDX 19 37 81 38 20 39 21 40 22 41 75 42 23 43 80 44 74 45 76 46
REMARK SMILES IDX 24 47 79 48 73 49 72 50 25 52 59 53 38 54 58 55 39 56 42 57
REMARK SMILES IDX 57 58 77 59 40 60 41 61 56 63 78 64 43 65 26 66 27 67 36 68
REMARK SMILES IDX 28 69 29 70 35 71 37 72 30 73 31 74 32 75 33 76 34 77 60 78
REMARK SMILES IDX 61 79 70 80 62 81 63 82 69 83 71 84 64 85 65 86 66 87 67 88
REMARK SMILES IDX 68 89 44 90 45 91 54 92 46 93 47 94 53 95 55 96 48 97 49 98
REMARK SMILES IDX 50 99 51 100 52 101
REMARK H PARENT 9 6 85 17 14 32 76 51 42 62
REMARK Flexibility Score: inf
ROOT
ATOM      1  C   UNL A   1      35.018  29.741  27.355  1.00  0.00     0.023 C 
ENDROOT
BRANCH   1   2
ATOM      2  C   UNL A   1      33.667  29.024  27.304  1.00  0.00     0.116 C 
BRANCH   2   3
ATOM      3  N   UNL A   1      32.676  29.842  26.638  1.00  0.00    -0.352 N 
ATOM      4  C   UNL A   1      32.025  29.738  25.438  1.00  0.00     0.251 C 
ATOM      5  O   UNL A   1      31.162  30.586  25.202  1.00  0.00    -0.269 OA
ATOM      6  H   UNL A   1      32.417  30.639  27.155  1.00  0.00     0.163 HD
BRANCH   4   7
ATOM      7  C   UNL A   1      32.272  28.673  24.418  1.00  0.00     0.042 A 
ATOM      8  C   UNL A   1      33.061  26.792  22.491  1.00  0.00     0.142 A 
ATOM      9  C   UNL A   1      33.589  28.075  22.445  1.00  0.00     0.049 A 
ATOM     10  C   UNL A   1      32.119  26.437  23.472  1.00  0.00     0.084 A 
ATOM     11  C   UNL A   1      33.174  29.014  23.389  1.00  0.00     0.018 A 
ATOM     12  C   UNL A   1      31.767  27.364  24.463  1.00  0.00     0.044 A 
BRANCH   8  13
ATOM     13  O   UNL A   1      33.536  25.868  21.592  1.00  0.00    -0.495 OA
ATOM     14  C   UNL A   1      32.641  25.701  20.490  1.00  0.00     0.278 C 
ENDBRANCH   8  13
BRANCH  10  15
ATOM     15  N   UNL A   1      31.611  25.129  23.405  1.00  0.00    -0.319 N 
ATOM     16  C   UNL A   1      32.092  23.911  23.804  1.00  0.00     0.262 C 
ATOM     17  H   UNL A   1      30.723  25.078  22.984  1.00  0.00     0.170 HD
ATOM     18  O   UNL A   1      31.481  22.889  23.486  1.00  0.00    -0.269 OA
BRANCH  16  19
ATOM     19  C   UNL A   1      33.287  23.753  24.655  1.00  0.00     0.117 A 
ATOM     20  C   UNL A   1      34.493  23.512  23.980  1.00  0.00     0.021 A 
ATOM     21  C   UNL A   1      33.292  23.714  26.054  1.00  0.00     0.282 A 
ATOM     22  C   UNL A   1      35.674  23.286  24.690  1.00  0.00     0.001 A 
ATOM     23  C   UNL A   1      34.486  23.534  26.775  1.00  0.00     0.086 A 
ATOM     24  C   UNL A   1      35.678  23.324  26.084  1.00  0.00     0.007 A 
BRANCH  21  25
ATOM     25  N   UNL A   1      32.064  23.782  26.821  1.00  0.00     0.063 N 
ATOM     26  O   UNL A   1      31.353  24.782  26.655  1.00  0.00    -0.258 OA
ATOM     27  O   UNL A   1      31.829  22.861  27.613  1.00  0.00    -0.258 OA
ENDBRANCH  21  25
ENDBRANCH  16  19
ENDBRANCH  10  15
ENDBRANCH   4   7
ENDBRANCH   2   3
ENDBRANCH   1   2
BRANCH   1  28
ATOM     28  C   UNL A   1      34.921  31.239  27.678  1.00  0.00     0.023 C 
BRANCH  28  29
ATOM     29  C   UNL A   1      35.787  31.712  28.847  1.00  0.00     0.116 C 
BRANCH  29  30
ATOM     30  N   UNL A   1      35.673  30.870  30.027  1.00  0.00    -0.352 N 
ATOM     31  C   UNL A   1      36.653  30.176  30.697  1.00  0.00     0.251 C 
ATOM     32  H   UNL A   1      34.766  30.785  30.400  1.00  0.00     0.163 HD
ATOM     33  O   UNL A   1      36.366  29.508  31.685  1.00  0.00    -0.269 OA
BRANCH  31  34
ATOM     34  C   UNL A   1      38.033  30.184  30.171  1.00  0.00     0.039 A 
ATOM     35  C   UNL A   1      39.084  30.334  31.080  1.00  0.00     0.014 A 
ATOM     36  C   UNL A   1      38.292  29.950  28.819  1.00  0.00     0.014 A 
ATOM     37  C   UNL A   1      40.396  30.126  30.655  1.00  0.00     0.010 A 
ATOM     38  C   UNL A   1      39.595  29.686  28.408  1.00  0.00     0.010 A 
ATOM     39  C   UNL A   1      40.651  29.736  29.330  1.00  0.00    -0.014 A 
BRANCH  39  40
ATOM     40  C   UNL A   1      42.003  29.283  28.916  1.00  0.00     0.031 A 
ATOM     41  C   UNL A   1      43.135  30.261  28.816  1.00  0.00     0.074 A 
ATOM     42  C   UNL A   1      42.170  28.001  28.536  1.00  0.00     0.049 A 
ATOM     43  N   UNL A   1      44.355  30.065  28.388  1.00  0.00    -0.248 NA
ATOM     44  C   UNL A   1      42.854  31.644  29.227  1.00  0.00     0.031 C 
ATOM     45  C   UNL A   1      41.121  26.976  28.530  1.00  0.00     0.029 A 
ATOM     46  N   UNL A   1      43.277  27.340  28.066  1.00  0.00    -0.354 N 
ATOM     47  C   UNL A   1      44.984  31.301  28.461  1.00  0.00     0.074 A 
ATOM     48  C   UNL A   1      43.999  32.248  28.939  1.00  0.00     0.031 C 
ATOM     49  C   UNL A   1      41.640  25.816  28.096  1.00  0.00     0.029 A 
ATOM     50  C   UNL A   1      43.045  26.020  27.763  1.00  0.00     0.049 A 
ATOM     51  H   UNL A   1      44.155  27.773  27.958  1.00  0.00     0.167 HD
ATOM     52  C   UNL A   1      46.271  31.611  28.174  1.00  0.00     0.037 A 
ATOM     53  C   UNL A   1      43.871  25.079  27.266  1.00  0.00     0.037 A 
ATOM     54  C   UNL A   1      47.247  30.657  27.718  1.00  0.00     0.049 A 
ATOM     55  C   UNL A   1      45.301  25.441  26.982  1.00  0.00     0.074 A 
ATOM     56  C   UNL A   1      48.590  30.860  27.447  1.00  0.00     0.029 A 
ATOM     57  N   UNL A   1      46.988  29.317  27.469  1.00  0.00    -0.354 N 
ATOM     58  N   UNL A   1      45.897  26.602  27.116  1.00  0.00    -0.248 NA
ATOM     59  C   UNL A   1      46.175  24.368  26.487  1.00  0.00     0.031 C 
ATOM     60  C   UNL A   1      49.136  29.647  27.008  1.00  0.00     0.029 A 
ATOM     61  C   UNL A   1      48.141  28.682  27.038  1.00  0.00     0.049 A 
ATOM     62  H   UNL A   1      46.113  28.881  27.580  1.00  0.00     0.167 HD
ATOM     63  C   UNL A   1      47.219  26.396  26.742  1.00  0.00     0.074 A 
ATOM     64  C   UNL A   1      47.339  24.996  26.386  1.00  0.00     0.031 C 
ATOM     65  C   UNL A   1      48.240  27.285  26.697  1.00  0.00     0.037 A 
BRANCH  52  66
ATOM     66  C   UNL A   1      46.690  33.044  28.348  1.00  0.00     0.058 A 
ATOM     67  C   UNL A   1      46.580  33.970  27.299  1.00  0.00     0.135 A 
ATOM     68  C   UNL A   1      47.194  33.499  29.576  1.00  0.00     0.135 A 
ATOM     69  F   UNL A   1      46.119  33.581  26.100  1.00  0.00    -0.206 F 
ATOM     70  C   UNL A   1      46.991  35.289  27.449  1.00  0.00     0.059 A 
ATOM     71  C   UNL A   1      47.589  34.822  29.756  1.00  0.00     0.059 A 
ATOM     72  F   UNL A   1      47.319  32.655  30.612  1.00  0.00    -0.206 F 
ATOM     73  C   UNL A   1      47.501  35.705  28.681  1.00  0.00     0.060 A 
BRANCH  73  74
ATOM     74  S   UNL A   1      48.050  37.416  28.857  1.00  0.00     0.124 S 
ATOM     75  O   UNL A   1      47.254  38.081  27.831  1.00  0.00    -0.237 OA
ATOM     76  O   UNL A   1      47.687  37.722  30.237  1.00  0.00    -0.237 OA
ATOM     77  O   UNL A   1      49.482  37.341  28.591  1.00  0.00    -0.744 OA
ENDBRANCH  73  74
ENDBRANCH  52  66
BRANCH  53  78
ATOM     78  C   UNL A   1      43.369  23.699  27.037  1.00  0.00     0.058 A 
ATOM     79  C   UNL A   1      43.139  23.226  25.737  1.00  0.00     0.135 A 
ATOM     80  C   UNL A   1      43.136  22.819  28.105  1.00  0.00     0.135 A 
ATOM     81  F   UNL A   1      43.344  24.033  24.684  1.00  0.00    -0.206 F 
ATOM     82  C   UNL A   1      42.683  21.933  25.502  1.00  0.00     0.059 A 
ATOM     83  C   UNL A   1      42.701  21.514  27.894  1.00  0.00     0.059 A 
ATOM     84  F   UNL A   1      43.362  23.218  29.366  1.00  0.00    -0.206 F 
ATOM     85  C   UNL A   1      42.469  21.083  26.588  1.00  0.00     0.060 A 
BRANCH  85  86
ATOM     86  S   UNL A   1      41.935  19.387  26.272  1.00  0.00     0.124 S 
ATOM     87  O   UNL A   1      40.484  19.527  26.299  1.00  0.00    -0.237 OA
ATOM     88  O   UNL A   1      42.527  19.116  24.964  1.00  0.00    -0.237 OA
ATOM     89  O   UNL A   1      42.521  18.641  27.381  1.00  0.00    -0.744 OA
ENDBRANCH  85  86
ENDBRANCH  53  78
BRANCH  65  90
ATOM     90  C   UNL A   1      49.583  26.767  26.273  1.00  0.00     0.058 A 
ATOM     91  C   UNL A   1      50.032  26.890  24.950  1.00  0.00     0.135 A 
ATOM     92  C   UNL A   1      50.454  26.196  27.216  1.00  0.00     0.135 A 
ATOM     93  F   UNL A   1      49.232  27.421  24.013  1.00  0.00    -0.206 F 
ATOM     94  C   UNL A   1      51.297  26.453  24.570  1.00  0.00     0.059 A 
ATOM     95  C   UNL A   1      51.730  25.771  26.863  1.00  0.00     0.059 A 
ATOM     96  F   UNL A   1      50.072  26.063  28.496  1.00  0.00    -0.206 F 
ATOM     97  C   UNL A   1      52.139  25.896  25.536  1.00  0.00     0.060 A 
BRANCH  97  98
ATOM     98  S   UNL A   1      53.797  25.377  25.044  1.00  0.00     0.124 S 
ATOM     99  O   UNL A   1      54.620  26.013  26.066  1.00  0.00    -0.237 OA
ATOM    100  O   UNL A   1      53.706  23.921  25.118  1.00  0.00    -0.237 OA
ATOM    101  O   UNL A   1      53.934  25.920  23.695  1.00  0.00    -0.744 OA
ENDBRANCH  97  98
ENDBRANCH  65  90
ENDBRANCH  39  40
ENDBRANCH  31  34
ENDBRANCH  29  30
ENDBRANCH  28  29
ENDBRANCH   1  28
TORSDOF 18
ENDMDL
MODEL 3
REMARK VINA RESULT:     -11.6      0.550      8.146
REMARK SMILES COc1ccc(C(=O)NCCCCNC(=O)c2ccc(-c3c4nc(c(-c5c(F)cc(S(=O)(=O)[O-])cc5F)c5ccc([nH]5)c(-c5c(F)cc(S(=O)(=O)[O-])cc5F)c5nc(c(-c6c(F)cc(S(=O)(=O)[O-])cc6F)c6ccc3[nH]6)C=C5)C=C4)cc2)cc1NC(=O)c1ccccc1[N+](=O)[O-]
REMARK SMILES IDX 11 1 10 2 9 3 7 4 8 5 6 7 3 8 4 9 84 10 5 11 83 12 2 13 1 14
REMARK SMILES IDX 85 15 86 16 87 18 88 19 89 20 93 21 90 22 92 23 91 24 94 25
REMARK SMILES IDX 95 26 96 27 12 28 13 29 14 30 15 31 16 33 17 34 18 35 82 36
REMARK SMILES IDX 19 37 81 38 20 39 21 40 22 41 75 42 23 43 80 44 74 45 76 46
REMARK SMILES IDX 24 47 79 48 73 49 72 50 25 52 59 53 38 54 58 55 39 56 42 57
REMARK SMILES IDX 57 58 77 59 40 60 41 61 56 63 78 64 43 65 26 66 27 67 36 68
REMARK SMILES IDX 28 69 29 70 35 71 37 72 30 73 31 74 32 75 33 76 34 77 60 78
REMARK SMILES IDX 61 79 70 80 62 81 63 82 69 83 71 84 64 85 65 86 66 87 67 88
REMARK SMILES IDX 68 89 44 90 45 91 54 92 46 93 47 94 53 95 55 96 48 97 49 98
REMARK SMILES IDX 50 99 51 100 52 101
REMARK H PARENT 9 6 85 17 14 32 76 51 42 62
REMARK Flexibility Score: inf
ROOT
ATOM      1  C   UNL A   1      36.895  22.236  25.761  1.00  0.00     0.023 C 
ENDROOT
BRANCH   1   2
ATOM      2  C   UNL A   1      36.885  23.621  25.111  1.00  0.00     0.116 C 
BRANCH   2   3
ATOM      3  N   UNL A   1      36.146  23.599  23.866  1.00  0.00    -0.352 N 
ATOM      4  C   UNL A   1      34.811  23.639  23.565  1.00  0.00     0.251 C 
ATOM      5  O   UNL A   1      34.516  23.683  22.369  1.00  0.00    -0.269 OA
ATOM      6  H   UNL A   1      36.724  23.542  23.071  1.00  0.00     0.163 HD
BRANCH   4   7
ATOM      7  C   UNL A   1      33.706  23.653  24.571  1.00  0.00     0.042 A 
ATOM      8  C   UNL A   1      31.748  23.371  26.562  1.00  0.00     0.142 A 
ATOM      9  C   UNL A   1      32.171  22.251  25.859  1.00  0.00     0.049 A 
ATOM     10  C   UNL A   1      32.269  24.642  26.267  1.00  0.00     0.084 A 
ATOM     11  C   UNL A   1      33.124  22.399  24.852  1.00  0.00     0.018 A 
ATOM     12  C   UNL A   1      33.284  24.771  25.307  1.00  0.00     0.044 A 
BRANCH   8  13
ATOM     13  O   UNL A   1      30.859  23.186  27.592  1.00  0.00    -0.495 OA
ATOM     14  C   UNL A   1      29.549  22.887  27.106  1.00  0.00     0.278 C 
ENDBRANCH   8  13
BRANCH  10  15
ATOM     15  N   UNL A   1      31.743  25.718  27.002  1.00  0.00    -0.319 N 
ATOM     16  C   UNL A   1      31.306  26.968  26.657  1.00  0.00     0.262 C 
ATOM     17  H   UNL A   1      31.675  25.534  27.966  1.00  0.00     0.170 HD
ATOM     18  O   UNL A   1      31.021  27.773  27.546  1.00  0.00    -0.269 OA
BRANCH  16  19
ATOM     19  C   UNL A   1      31.099  27.396  25.259  1.00  0.00     0.117 A 
ATOM     20  C   UNL A   1      30.080  26.732  24.559  1.00  0.00     0.021 A 
ATOM     21  C   UNL A   1      31.894  28.313  24.562  1.00  0.00     0.282 A 
ATOM     22  C   UNL A   1      29.840  27.015  23.213  1.00  0.00     0.001 A 
ATOM     23  C   UNL A   1      31.627  28.637  23.220  1.00  0.00     0.086 A 
ATOM     24  C   UNL A   1      30.592  27.985  22.551  1.00  0.00     0.007 A 
BRANCH  21  25
ATOM     25  N   UNL A   1      33.068  28.912  25.162  1.00  0.00     0.063 N 
ATOM     26  O   UNL A   1      34.100  28.228  25.181  1.00  0.00    -0.258 OA
ATOM     27  O   UNL A   1      32.952  30.045  25.647  1.00  0.00    -0.258 OA
ENDBRANCH  21  25
ENDBRANCH  16  19
ENDBRANCH  10  15
ENDBRANCH   4   7
ENDBRANCH   2   3
ENDBRANCH   1   2
BRANCH   1  28
ATOM     28  C   UNL A   1      38.034  21.326  25.281  1.00  0.00     0.023 C 
BRANCH  28  29
ATOM     29  C   UNL A   1      39.291  21.338  26.152  1.00  0.00     0.116 C 
BRANCH  29  30
ATOM     30  N   UNL A   1      40.063  20.108  26.067  1.00  0.00    -0.352 N 
ATOM     31  C   UNL A   1      41.416  19.918  26.227  1.00  0.00     0.251 C 
ATOM     32  H   UNL A   1      39.544  19.296  25.866  1.00  0.00     0.163 HD
ATOM     33  O   UNL A   1      41.896  18.795  26.116  1.00  0.00    -0.269 OA
BRANCH  31  34
ATOM     34  C   UNL A   1      42.287  21.088  26.459  1.00  0.00     0.039 A 
ATOM     35  C   UNL A   1      42.729  21.810  25.347  1.00  0.00     0.014 A 
ATOM     36  C   UNL A   1      42.585  21.523  27.751  1.00  0.00     0.014 A 
ATOM     37  C   UNL A   1      43.365  23.038  25.532  1.00  0.00     0.010 A 
ATOM     38  C   UNL A   1      43.168  22.773  27.934  1.00  0.00     0.010 A 
ATOM     39  C   UNL A   1      43.528  23.555  26.827  1.00  0.00    -0.014 A 
BRANCH  39  40
ATOM     40  C   UNL A   1      43.984  24.952  27.038  1.00  0.00     0.031 A 
ATOM     41  C   UNL A   1      45.423  25.321  26.836  1.00  0.00     0.074 A 
ATOM     42  C   UNL A   1      43.104  25.859  27.508  1.00  0.00     0.049 A 
ATOM     43  N   UNL A   1      46.017  26.465  27.059  1.00  0.00    -0.248 NA
ATOM     44  C   UNL A   1      46.316  24.261  26.346  1.00  0.00     0.031 C 
ATOM     45  C   UNL A   1      41.692  25.594  27.803  1.00  0.00     0.029 A 
ATOM     46  N   UNL A   1      43.265  27.180  27.838  1.00  0.00    -0.354 N 
ATOM     47  C   UNL A   1      47.356  26.260  26.752  1.00  0.00     0.074 A 
ATOM     48  C   UNL A   1      47.492  24.873  26.364  1.00  0.00     0.031 C 
ATOM     49  C   UNL A   1      41.116  26.720  28.251  1.00  0.00     0.029 A 
ATOM     50  C   UNL A   1      42.120  27.777  28.308  1.00  0.00     0.049 A 
ATOM     51  H   UNL A   1      44.122  27.657  27.744  1.00  0.00     0.167 HD
ATOM     52  C   UNL A   1      48.372  27.155  26.774  1.00  0.00     0.037 A 
ATOM     53  C   UNL A   1      41.903  29.034  28.741  1.00  0.00     0.037 A 
ATOM     54  C   UNL A   1      48.221  28.538  27.142  1.00  0.00     0.049 A 
ATOM     55  C   UNL A   1      43.041  30.015  28.729  1.00  0.00     0.074 A 
ATOM     56  C   UNL A   1      49.179  29.539  27.148  1.00  0.00     0.029 A 
ATOM     57  N   UNL A   1      47.035  29.118  27.565  1.00  0.00    -0.354 N 
ATOM     58  N   UNL A   1      44.289  29.821  28.376  1.00  0.00    -0.248 NA
ATOM     59  C   UNL A   1      42.743  31.386  29.166  1.00  0.00     0.031 C 
ATOM     60  C   UNL A   1      48.576  30.718  27.602  1.00  0.00     0.029 A 
ATOM     61  C   UNL A   1      47.235  30.460  27.846  1.00  0.00     0.049 A 
ATOM     62  H   UNL A   1      46.176  28.647  27.655  1.00  0.00     0.167 HD
ATOM     63  C   UNL A   1      44.922  31.048  28.528  1.00  0.00     0.074 A 
ATOM     64  C   UNL A   1      43.916  31.982  28.995  1.00  0.00     0.031 C 
ATOM     65  C   UNL A   1      46.217  31.373  28.301  1.00  0.00     0.037 A 
BRANCH  52  66
ATOM     66  C   UNL A   1      49.736  26.658  26.385  1.00  0.00     0.058 A 
ATOM     67  C   UNL A   1      50.267  26.902  25.108  1.00  0.00     0.135 A 
ATOM     68  C   UNL A   1      50.526  25.942  27.298  1.00  0.00     0.135 A 
ATOM     69  F   UNL A   1      49.546  27.568  24.193  1.00  0.00    -0.206 F 
ATOM     70  C   UNL A   1      51.517  26.421  24.737  1.00  0.00     0.059 A 
ATOM     71  C   UNL A   1      51.791  25.473  26.956  1.00  0.00     0.059 A 
ATOM     72  F   UNL A   1      50.067  25.682  28.532  1.00  0.00    -0.206 F 
ATOM     73  C   UNL A   1      52.270  25.701  25.666  1.00  0.00     0.060 A 
BRANCH  73  74
ATOM     74  S   UNL A   1      53.884  25.065  25.166  1.00  0.00     0.124 S 
ATOM     75  O   UNL A   1      53.886  25.374  23.740  1.00  0.00    -0.237 OA
ATOM     76  O   UNL A   1      54.800  25.852  25.985  1.00  0.00    -0.237 OA
ATOM     77  O   UNL A   1      53.808  23.648  25.502  1.00  0.00    -0.744 OA
ENDBRANCH  73  74
ENDBRANCH  52  66
BRANCH  53  78
ATOM     78  C   UNL A   1      40.546  29.438  29.193  1.00  0.00     0.058 A 
ATOM     79  C   UNL A   1      40.266  29.614  30.556  1.00  0.00     0.135 A 
ATOM     80  C   UNL A   1      39.514  29.683  28.275  1.00  0.00     0.135 A 
ATOM     81  F   UNL A   1      41.222  29.388  31.470  1.00  0.00    -0.206 F 
ATOM     82  C   UNL A   1      39.007  30.006  30.996  1.00  0.00     0.059 A 
ATOM     83  C   UNL A   1      38.251  30.097  28.689  1.00  0.00     0.059 A 
ATOM     84  F   UNL A   1      39.738  29.548  26.958  1.00  0.00    -0.206 F 
ATOM     85  C   UNL A   1      38.006  30.247  30.054  1.00  0.00     0.060 A 
BRANCH  85  86
ATOM     86  S   UNL A   1      36.390  30.814  30.630  1.00  0.00     0.124 S 
ATOM     87  O   UNL A   1      35.610  30.775  29.398  1.00  0.00    -0.237 OA
ATOM     88  O   UNL A   1      36.050  29.810  31.634  1.00  0.00    -0.237 OA
ATOM     89  O   UNL A   1      36.673  32.145  31.158  1.00  0.00    -0.744 OA
ENDBRANCH  85  86
ENDBRANCH  53  78
BRANCH  65  90
ATOM     90  C   UNL A   1      46.618  32.802  28.529  1.00  0.00     0.058 A 
ATOM     91  C   UNL A   1      46.516  33.763  27.513  1.00  0.00     0.135 A 
ATOM     92  C   UNL A   1      47.050  33.224  29.796  1.00  0.00     0.135 A 
ATOM     93  F   UNL A   1      46.115  33.404  26.283  1.00  0.00    -0.206 F 
ATOM     94  C   UNL A   1      46.841  35.095  27.741  1.00  0.00     0.059 A 
ATOM     95  C   UNL A   1      47.362  34.555  30.053  1.00  0.00     0.059 A 
ATOM     96  F   UNL A   1      47.158  32.343  30.804  1.00  0.00    -0.206 F 
ATOM     97  C   UNL A   1      47.262  35.482  29.015  1.00  0.00     0.060 A 
BRANCH  97  98
ATOM     98  S   UNL A   1      47.636  37.223  29.314  1.00  0.00     0.124 S 
ATOM     99  O   UNL A   1      48.867  37.130  30.091  1.00  0.00    -0.237 OA
ATOM    100  O   UNL A   1      47.778  37.752  27.961  1.00  0.00    -0.237 OA
ATOM    101  O   UNL A   1      46.464  37.699  30.045  1.00  0.00    -0.744 OA
ENDBRANCH  97  98
ENDBRANCH  65  90
ENDBRANCH  39  40
ENDBRANCH  31  34
ENDBRANCH  29  30
ENDBRANCH  28  29
ENDBRANCH   1  28
TORSDOF 18
ENDMDL
