MODEL 1
REMARK VINA RESULT:     -11.1      0.000      0.000
REMARK SMILES COC(=O)[C@H]1CCN(C(=O)N2C[C@@H](C)[C@@H](C(=O)NCCCCNC(=O)c3ccc(-c4c5nc(c(-c6c(F)cc(S(=O)(=O)[O-])cc6F)c6ccc([nH]6)c(-c6c(F)cc(S(=O)(=O)[O-])cc6F)c6nc(c(-c7c(F)cc(S(=O)(=O)[O-])cc7F)c7ccc4[nH]7)C=C6)C=C5)cc3)C2)C1
REMARK SMILES IDX 20 1 19 2 18 3 16 4 17 5 15 7 11 8 12 9 92 10 13 11 14 12
REMARK SMILES IDX 9 13 10 14 8 15 5 16 6 17 93 18 7 19 3 20 4 21 2 22 1 23
REMARK SMILES IDX 21 24 22 25 23 26 24 27 25 29 26 30 27 31 91 32 28 33 90 34
REMARK SMILES IDX 29 35 30 36 31 37 84 38 32 39 89 40 83 41 85 42 33 43 88 44
REMARK SMILES IDX 82 45 81 46 34 48 68 49 47 50 67 51 48 52 51 53 66 54 86 55
REMARK SMILES IDX 49 56 50 57 65 59 87 60 52 61 35 62 36 63 45 64 37 65 38 66
REMARK SMILES IDX 44 67 46 68 39 69 40 70 41 71 42 72 43 73 69 74 70 75 79 76
REMARK SMILES IDX 71 77 72 78 78 79 80 80 73 81 74 82 75 83 76 84 77 85 53 86
REMARK SMILES IDX 54 87 63 88 55 89 56 90 62 91 64 92 57 93 58 94 59 95 60 96
REMARK SMILES IDX 61 97
REMARK H PARENT 18 6 23 28 85 47 51 58
REMARK Flexibility Score: inf
ROOT
ATOM      1  C   UNL A   1      34.674  24.155  26.014  1.00  0.00     0.023 C 
ENDROOT
BRANCH   1   2
ATOM      2  C   UNL A   1      33.376  23.571  26.553  1.00  0.00     0.116 C 
BRANCH   2   3
ATOM      3  N   UNL A   1      33.061  22.265  26.017  1.00  0.00    -0.356 N 
ATOM      4  C   UNL A   1      32.265  21.893  24.982  1.00  0.00     0.225 C 
ATOM      5  O   UNL A   1      32.258  20.692  24.690  1.00  0.00    -0.275 OA
ATOM      6  H   UNL A   1      33.498  21.516  26.485  1.00  0.00     0.163 HD
BRANCH   4   7
ATOM      7  C   UNL A   1      31.423  22.860  24.154  1.00  0.00     0.102 C 
ATOM      8  N   UNL A   1      31.079  25.207  24.481  1.00  0.00    -0.324 N 
ATOM      9  C   UNL A   1      32.222  25.075  23.586  1.00  0.00     0.125 C 
ATOM     10  C   UNL A   1      30.654  23.895  24.967  1.00  0.00     0.135 C 
ATOM     11  C   UNL A   1      32.111  23.660  23.038  1.00  0.00     0.020 C 
ATOM     12  C   UNL A   1      33.417  23.108  22.493  1.00  0.00     0.010 C 
BRANCH   8  13
ATOM     13  C   UNL A   1      30.771  26.321  25.225  1.00  0.00     0.320 C 
ATOM     14  O   UNL A   1      30.768  26.275  26.457  1.00  0.00    -0.248 OA
BRANCH  13  15
ATOM     15  N   UNL A   1      30.444  27.479  24.570  1.00  0.00    -0.324 N 
ATOM     16  C   UNL A   1      29.502  28.804  22.836  1.00  0.00     0.120 C 
ATOM     17  C   UNL A   1      30.274  29.680  23.820  1.00  0.00     0.039 C 
ATOM     18  C   UNL A   1      29.405  27.455  23.544  1.00  0.00     0.136 C 
ATOM     19  C   UNL A   1      31.241  28.686  24.433  1.00  0.00     0.122 C 
BRANCH  16  20
ATOM     20  C   UNL A   1      28.151  29.339  22.444  1.00  0.00     0.310 C 
ATOM     21  O   UNL A   1      27.153  29.213  23.144  1.00  0.00    -0.252 OA
BRANCH  20  22
ATOM     22  O   UNL A   1      28.183  29.974  21.244  1.00  0.00    -0.469 OA
ATOM     23  C   UNL A   1      28.060  31.395  21.330  1.00  0.00     0.282 C 
ENDBRANCH  20  22
ENDBRANCH  16  20
ENDBRANCH  13  15
ENDBRANCH   8  13
ENDBRANCH   4   7
ENDBRANCH   2   3
ENDBRANCH   1   2
BRANCH   1  24
ATOM     24  C   UNL A   1      35.683  23.141  25.487  1.00  0.00     0.023 C 
BRANCH  24  25
ATOM     25  C   UNL A   1      37.036  23.710  25.074  1.00  0.00     0.116 C 
BRANCH  25  26
ATOM     26  N   UNL A   1      38.154  22.816  25.346  1.00  0.00    -0.352 N 
ATOM     27  C   UNL A   1      39.290  23.037  26.095  1.00  0.00     0.251 C 
ATOM     28  H   UNL A   1      38.088  21.924  24.935  1.00  0.00     0.163 HD
ATOM     29  O   UNL A   1      40.172  22.194  26.142  1.00  0.00    -0.269 OA
BRANCH  27  30
ATOM     30  C   UNL A   1      39.446  24.325  26.805  1.00  0.00     0.039 A 
ATOM     31  C   UNL A   1      38.903  24.462  28.085  1.00  0.00     0.014 A 
ATOM     32  C   UNL A   1      40.183  25.364  26.235  1.00  0.00     0.014 A 
ATOM     33  C   UNL A   1      39.184  25.607  28.832  1.00  0.00     0.010 A 
ATOM     34  C   UNL A   1      40.533  26.464  27.012  1.00  0.00     0.010 A 
ATOM     35  C   UNL A   1      40.044  26.594  28.321  1.00  0.00    -0.014 A 
BRANCH  35  36
ATOM     36  C   UNL A   1      40.462  27.761  29.139  1.00  0.00     0.031 A 
ATOM     37  C   UNL A   1      41.775  27.737  29.871  1.00  0.00     0.074 A 
ATOM     38  C   UNL A   1      39.623  28.806  29.292  1.00  0.00     0.049 A 
ATOM     39  N   UNL A   1      42.274  28.612  30.703  1.00  0.00    -0.248 NA
ATOM     40  C   UNL A   1      42.623  26.552  29.665  1.00  0.00     0.031 C 
ATOM     41  C   UNL A   1      38.296  28.925  28.683  1.00  0.00     0.029 A 
ATOM     42  N   UNL A   1      39.756  29.963  30.019  1.00  0.00    -0.354 N 
ATOM     43  C   UNL A   1      43.481  28.077  31.137  1.00  0.00     0.074 A 
ATOM     44  C   UNL A   1      43.609  26.774  30.520  1.00  0.00     0.031 C 
ATOM     45  C   UNL A   1      37.754  30.101  29.034  1.00  0.00     0.029 A 
ATOM     46  C   UNL A   1      38.673  30.805  29.923  1.00  0.00     0.049 A 
ATOM     47  H   UNL A   1      40.554  30.171  30.557  1.00  0.00     0.167 HD
ATOM     48  C   UNL A   1      44.409  28.628  31.955  1.00  0.00     0.037 A 
ATOM     49  C   UNL A   1      38.446  32.006  30.489  1.00  0.00     0.037 A 
ATOM     50  C   UNL A   1      44.291  29.937  32.541  1.00  0.00     0.049 A 
ATOM     51  C   UNL A   1      39.496  32.607  31.381  1.00  0.00     0.074 A 
ATOM     52  C   UNL A   1      45.204  30.614  33.330  1.00  0.00     0.029 A 
ATOM     53  N   UNL A   1      43.190  30.769  32.399  1.00  0.00    -0.354 N 
ATOM     54  N   UNL A   1      40.660  32.113  31.733  1.00  0.00    -0.248 NA
ATOM     55  C   UNL A   1      39.207  33.931  31.949  1.00  0.00     0.031 C 
ATOM     56  C   UNL A   1      44.640  31.842  33.693  1.00  0.00     0.029 A 
ATOM     57  C   UNL A   1      43.394  31.947  33.098  1.00  0.00     0.049 A 
ATOM     58  H   UNL A   1      42.382  30.554  31.877  1.00  0.00     0.167 HD
ATOM     59  C   UNL A   1      41.252  33.074  32.545  1.00  0.00     0.074 A 
ATOM     60  C   UNL A   1      40.321  34.183  32.624  1.00  0.00     0.031 C 
ATOM     61  C   UNL A   1      42.458  33.043  33.163  1.00  0.00     0.037 A 
BRANCH  48  62
ATOM     62  C   UNL A   1      45.634  27.807  32.255  1.00  0.00     0.058 A 
ATOM     63  C   UNL A   1      46.833  27.989  31.544  1.00  0.00     0.135 A 
ATOM     64  C   UNL A   1      45.607  26.819  33.251  1.00  0.00     0.135 A 
ATOM     65  F   UNL A   1      46.908  28.909  30.570  1.00  0.00    -0.206 F 
ATOM     66  C   UNL A   1      47.945  27.188  31.777  1.00  0.00     0.059 A 
ATOM     67  C   UNL A   1      46.718  26.025  33.521  1.00  0.00     0.059 A 
ATOM     68  F   UNL A   1      44.489  26.604  33.962  1.00  0.00    -0.206 F 
ATOM     69  C   UNL A   1      47.874  26.201  32.761  1.00  0.00     0.060 A 
BRANCH  69  70
ATOM     70  S   UNL A   1      49.313  25.144  33.030  1.00  0.00     0.124 S 
ATOM     71  O   UNL A   1      49.733  24.874  31.659  1.00  0.00    -0.237 OA
ATOM     72  O   UNL A   1      50.199  26.008  33.804  1.00  0.00    -0.237 OA
ATOM     73  O   UNL A   1      48.765  24.003  33.756  1.00  0.00    -0.744 OA
ENDBRANCH  69  70
ENDBRANCH  48  62
BRANCH  49  74
ATOM     74  C   UNL A   1      37.188  32.738  30.186  1.00  0.00     0.058 A 
ATOM     75  C   UNL A   1      37.116  33.612  29.092  1.00  0.00     0.135 A 
ATOM     76  C   UNL A   1      36.028  32.551  30.952  1.00  0.00     0.135 A 
ATOM     77  F   UNL A   1      38.203  33.827  28.334  1.00  0.00    -0.206 F 
ATOM     78  C   UNL A   1      35.940  34.278  28.768  1.00  0.00     0.059 A 
ATOM     79  C   UNL A   1      34.833  33.191  30.636  1.00  0.00     0.059 A 
ATOM     80  F   UNL A   1      36.041  31.712  32.000  1.00  0.00    -0.206 F 
ATOM     81  C   UNL A   1      34.801  34.057  29.543  1.00  0.00     0.060 A 
BRANCH  81  82
ATOM     82  S   UNL A   1      33.259  34.871  29.068  1.00  0.00     0.124 S 
ATOM     83  O   UNL A   1      32.718  33.930  28.095  1.00  0.00    -0.237 OA
ATOM     84  O   UNL A   1      32.550  34.953  30.341  1.00  0.00    -0.237 OA
ATOM     85  O   UNL A   1      33.709  36.151  28.527  1.00  0.00    -0.744 OA
ENDBRANCH  81  82
ENDBRANCH  49  74
BRANCH  61  86
ATOM     86  C   UNL A   1      42.856  34.253  33.960  1.00  0.00     0.058 A 
ATOM     87  C   UNL A   1      42.732  34.289  35.357  1.00  0.00     0.135 A 
ATOM     88  C   UNL A   1      43.420  35.369  33.321  1.00  0.00     0.135 A 
ATOM     89  F   UNL A   1      42.192  33.250  36.014  1.00  0.00    -0.206 F 
ATOM     90  C   UNL A   1      43.136  35.399  36.092  1.00  0.00     0.059 A 
ATOM     91  C   UNL A   1      43.853  36.480  34.039  1.00  0.00     0.059 A 
ATOM     92  F   UNL A   1      43.569  35.381  31.987  1.00  0.00    -0.206 F 
ATOM     93  C   UNL A   1      43.697  36.488  35.424  1.00  0.00     0.060 A 
BRANCH  93  94
ATOM     94  S   UNL A   1      44.254  37.907  36.392  1.00  0.00     0.124 S 
ATOM     95  O   UNL A   1      44.075  39.000  35.442  1.00  0.00    -0.237 OA
ATOM     96  O   UNL A   1      43.334  37.895  37.525  1.00  0.00    -0.237 OA
ATOM     97  O   UNL A   1      45.639  37.574  36.715  1.00  0.00    -0.744 OA
ENDBRANCH  93  94
ENDBRANCH  61  86
ENDBRANCH  35  36
ENDBRANCH  27  30
ENDBRANCH  25  26
ENDBRANCH  24  25
ENDBRANCH   1  24
TORSDOF 18
ENDMDL
MODEL 2
REMARK VINA RESULT:     -11.0      3.228      9.876
REMARK SMILES COC(=O)[C@H]1CCN(C(=O)N2C[C@@H](C)[C@@H](C(=O)NCCCCNC(=O)c3ccc(-c4c5nc(c(-c6c(F)cc(S(=O)(=O)[O-])cc6F)c6ccc([nH]6)c(-c6c(F)cc(S(=O)(=O)[O-])cc6F)c6nc(c(-c7c(F)cc(S(=O)(=O)[O-])cc7F)c7ccc4[nH]7)C=C6)C=C5)cc3)C2)C1
REMARK SMILES IDX 20 1 19 2 18 3 16 4 17 5 15 7 11 8 12 9 92 10 13 11 14 12
REMARK SMILES IDX 9 13 10 14 8 15 5 16 6 17 93 18 7 19 3 20 4 21 2 22 1 23
REMARK SMILES IDX 21 24 22 25 23 26 24 27 25 29 26 30 27 31 91 32 28 33 90 34
REMARK SMILES IDX 29 35 30 36 31 37 84 38 32 39 89 40 83 41 85 42 33 43 88 44
REMARK SMILES IDX 82 45 81 46 34 48 68 49 47 50 67 51 48 52 51 53 66 54 86 55
REMARK SMILES IDX 49 56 50 57 65 59 87 60 52 61 35 62 36 63 45 64 37 65 38 66
REMARK SMILES IDX 44 67 46 68 39 69 40 70 41 71 42 72 43 73 69 74 70 75 79 76
REMARK SMILES IDX 71 77 72 78 78 79 80 80 73 81 74 82 75 83 76 84 77 85 53 86
REMARK SMILES IDX 54 87 63 88 55 89 56 90 62 91 64 92 57 93 58 94 59 95 60 96
REMARK SMILES IDX 61 97
REMARK H PARENT 18 6 23 28 85 47 51 58
REMARK Flexibility Score: inf
ROOT
ATOM      1  C   UNL A   1      31.806  28.190  26.720  1.00  0.00     0.023 C 
ENDROOT
BRANCH   1   2
ATOM      2  C   UNL A   1      30.936  26.940  26.708  1.00  0.00     0.116 C 
BRANCH   2   3
ATOM      3  N   UNL A   1      30.538  26.523  25.380  1.00  0.00    -0.356 N 
ATOM      4  C   UNL A   1      30.952  25.485  24.610  1.00  0.00     0.225 C 
ATOM      5  O   UNL A   1      30.360  25.318  23.537  1.00  0.00    -0.275 OA
ATOM      6  H   UNL A   1      29.850  27.092  24.963  1.00  0.00     0.163 HD
BRANCH   4   7
ATOM      7  C   UNL A   1      32.060  24.512  25.002  1.00  0.00     0.102 C 
ATOM      8  N   UNL A   1      32.733  22.487  23.916  1.00  0.00    -0.324 N 
ATOM      9  C   UNL A   1      33.552  23.552  23.352  1.00  0.00     0.125 C 
ATOM     10  C   UNL A   1      31.717  23.039  24.811  1.00  0.00     0.135 C 
ATOM     11  C   UNL A   1      33.446  24.685  24.363  1.00  0.00     0.020 C 
ATOM     12  C   UNL A   1      33.780  26.052  23.791  1.00  0.00     0.010 C 
BRANCH   8  13
ATOM     13  C   UNL A   1      32.511  21.259  23.339  1.00  0.00     0.320 C 
ATOM     14  O   UNL A   1      31.714  21.135  22.406  1.00  0.00    -0.248 OA
BRANCH  13  15
ATOM     15  N   UNL A   1      33.176  20.169  23.836  1.00  0.00    -0.324 N 
ATOM     16  C   UNL A   1      33.434  17.911  24.531  1.00  0.00     0.120 C 
ATOM     17  C   UNL A   1      34.695  18.713  24.840  1.00  0.00     0.039 C 
ATOM     18  C   UNL A   1      32.626  18.833  23.622  1.00  0.00     0.136 C 
ATOM     19  C   UNL A   1      34.157  20.130  24.906  1.00  0.00     0.122 C 
BRANCH  16  20
ATOM     20  C   UNL A   1      33.683  16.567  23.901  1.00  0.00     0.310 C 
ATOM     21  O   UNL A   1      33.758  16.400  22.690  1.00  0.00    -0.252 OA
BRANCH  20  22
ATOM     22  O   UNL A   1      33.819  15.586  24.830  1.00  0.00    -0.469 OA
ATOM     23  C   UNL A   1      32.580  15.082  25.335  1.00  0.00     0.282 C 
ENDBRANCH  20  22
ENDBRANCH  16  20
ENDBRANCH  13  15
ENDBRANCH   8  13
ENDBRANCH   4   7
ENDBRANCH   2   3
ENDBRANCH   1   2
BRANCH   1  24
ATOM     24  C   UNL A   1      33.309  27.944  26.773  1.00  0.00     0.023 C 
BRANCH  24  25
ATOM     25  C   UNL A   1      34.186  29.126  26.376  1.00  0.00     0.116 C 
BRANCH  25  26
ATOM     26  N   UNL A   1      34.033  30.285  27.245  1.00  0.00    -0.352 N 
ATOM     27  C   UNL A   1      34.895  30.783  28.199  1.00  0.00     0.251 C 
ATOM     28  H   UNL A   1      33.193  30.785  27.135  1.00  0.00     0.163 HD
ATOM     29  O   UNL A   1      34.559  31.725  28.902  1.00  0.00    -0.269 OA
BRANCH  27  30
ATOM     30  C   UNL A   1      36.211  30.138  28.390  1.00  0.00     0.039 A 
ATOM     31  C   UNL A   1      37.141  30.175  27.349  1.00  0.00     0.014 A 
ATOM     32  C   UNL A   1      36.546  29.559  29.616  1.00  0.00     0.014 A 
ATOM     33  C   UNL A   1      38.441  29.718  27.570  1.00  0.00     0.010 A 
ATOM     34  C   UNL A   1      37.863  29.186  29.862  1.00  0.00     0.010 A 
ATOM     35  C   UNL A   1      38.827  29.269  28.845  1.00  0.00    -0.014 A 
BRANCH  35  36
ATOM     36  C   UNL A   1      40.233  28.896  29.145  1.00  0.00     0.031 A 
ATOM     37  C   UNL A   1      41.157  29.895  29.784  1.00  0.00     0.074 A 
ATOM     38  C   UNL A   1      40.701  27.690  28.765  1.00  0.00     0.049 A 
ATOM     39  N   UNL A   1      42.434  29.793  30.041  1.00  0.00    -0.248 NA
ATOM     40  C   UNL A   1      40.572  31.194  30.151  1.00  0.00     0.031 C 
ATOM     41  C   UNL A   1      39.922  26.653  28.083  1.00  0.00     0.029 A 
ATOM     42  N   UNL A   1      41.951  27.135  28.887  1.00  0.00    -0.354 N 
ATOM     43  C   UNL A   1      42.811  31.019  30.578  1.00  0.00     0.074 A 
ATOM     44  C   UNL A   1      41.639  31.866  30.554  1.00  0.00     0.031 C 
ATOM     45  C   UNL A   1      40.702  25.580  27.878  1.00  0.00     0.029 A 
ATOM     46  C   UNL A   1      42.044  25.862  28.376  1.00  0.00     0.049 A 
ATOM     47  H   UNL A   1      42.710  27.605  29.303  1.00  0.00     0.167 HD
ATOM     48  C   UNL A   1      44.016  31.397  31.068  1.00  0.00     0.037 A 
ATOM     49  C   UNL A   1      43.092  25.018  28.314  1.00  0.00     0.037 A 
ATOM     50  C   UNL A   1      45.170  30.539  31.118  1.00  0.00     0.049 A 
ATOM     51  C   UNL A   1      44.417  25.452  28.878  1.00  0.00     0.074 A 
ATOM     52  C   UNL A   1      46.418  30.803  31.653  1.00  0.00     0.029 A 
ATOM     53  N   UNL A   1      45.217  29.247  30.613  1.00  0.00    -0.354 N 
ATOM     54  N   UNL A   1      44.741  26.594  29.437  1.00  0.00    -0.248 NA
ATOM     55  C   UNL A   1      45.519  24.481  28.808  1.00  0.00     0.031 C 
ATOM     56  C   UNL A   1      47.230  29.683  31.442  1.00  0.00     0.029 A 
ATOM     57  C   UNL A   1      46.476  28.706  30.812  1.00  0.00     0.049 A 
ATOM     58  H   UNL A   1      44.465  28.782  30.179  1.00  0.00     0.167 HD
ATOM     59  C   UNL A   1      46.075  26.472  29.807  1.00  0.00     0.074 A 
ATOM     60  C   UNL A   1      46.496  25.141  29.416  1.00  0.00     0.031 C 
ATOM     61  C   UNL A   1      46.877  27.377  30.419  1.00  0.00     0.037 A 
BRANCH  48  62
ATOM     62  C   UNL A   1      44.134  32.802  31.591  1.00  0.00     0.058 A 
ATOM     63  C   UNL A   1      43.956  33.097  32.954  1.00  0.00     0.135 A 
ATOM     64  C   UNL A   1      44.413  33.868  30.722  1.00  0.00     0.135 A 
ATOM     65  F   UNL A   1      43.671  32.117  33.826  1.00  0.00    -0.206 F 
ATOM     66  C   UNL A   1      44.002  34.404  33.427  1.00  0.00     0.059 A 
ATOM     67  C   UNL A   1      44.492  35.180  31.179  1.00  0.00     0.059 A 
ATOM     68  F   UNL A   1      44.594  33.643  29.411  1.00  0.00    -0.206 F 
ATOM     69  C   UNL A   1      44.261  35.440  32.529  1.00  0.00     0.060 A 
BRANCH  69  70
ATOM     70  S   UNL A   1      44.283  37.135  33.150  1.00  0.00     0.124 S 
ATOM     71  O   UNL A   1      45.276  37.040  34.215  1.00  0.00    -0.237 OA
ATOM     72  O   UNL A   1      44.689  37.896  31.973  1.00  0.00    -0.237 OA
ATOM     73  O   UNL A   1      42.909  37.353  33.590  1.00  0.00    -0.744 OA
ENDBRANCH  69  70
ENDBRANCH  48  62
BRANCH  49  74
ATOM     74  C   UNL A   1      42.913  23.660  27.737  1.00  0.00     0.058 A 
ATOM     75  C   UNL A   1      42.648  22.560  28.565  1.00  0.00     0.135 A 
ATOM     76  C   UNL A   1      42.963  23.440  26.352  1.00  0.00     0.135 A 
ATOM     77  F   UNL A   1      42.598  22.723  29.896  1.00  0.00    -0.206 F 
ATOM     78  C   UNL A   1      42.440  21.289  28.044  1.00  0.00     0.059 A 
ATOM     79  C   UNL A   1      42.738  22.180  25.804  1.00  0.00     0.059 A 
ATOM     80  F   UNL A   1      43.198  24.462  25.515  1.00  0.00    -0.206 F 
ATOM     81  C   UNL A   1      42.482  21.109  26.661  1.00  0.00     0.060 A 
BRANCH  81  82
ATOM     82  S   UNL A   1      42.136  19.467  25.992  1.00  0.00     0.124 S 
ATOM     83  O   UNL A   1      40.693  19.525  25.800  1.00  0.00    -0.237 OA
ATOM     84  O   UNL A   1      42.943  19.455  24.774  1.00  0.00    -0.237 OA
ATOM     85  O   UNL A   1      42.599  18.570  27.048  1.00  0.00    -0.744 OA
ENDBRANCH  81  82
ENDBRANCH  49  74
BRANCH  61  86
ATOM     86  C   UNL A   1      48.285  26.954  30.730  1.00  0.00     0.058 A 
ATOM     87  C   UNL A   1      49.366  27.340  29.923  1.00  0.00     0.135 A 
ATOM     88  C   UNL A   1      48.561  26.197  31.881  1.00  0.00     0.135 A 
ATOM     89  F   UNL A   1      49.154  28.057  28.808  1.00  0.00    -0.206 F 
ATOM     90  C   UNL A   1      50.671  26.975  30.236  1.00  0.00     0.059 A 
ATOM     91  C   UNL A   1      49.861  25.842  32.226  1.00  0.00     0.059 A 
ATOM     92  F   UNL A   1      47.563  25.811  32.691  1.00  0.00    -0.206 F 
ATOM     93  C   UNL A   1      50.908  26.227  31.391  1.00  0.00     0.060 A 
BRANCH  93  94
ATOM     94  S   UNL A   1      52.611  25.792  31.809  1.00  0.00     0.124 S 
ATOM     95  O   UNL A   1      53.264  25.881  30.507  1.00  0.00    -0.237 OA
ATOM     96  O   UNL A   1      52.972  26.828  32.771  1.00  0.00    -0.237 OA
ATOM     97  O   UNL A   1      52.491  24.447  32.362  1.00  0.00    -0.744 OA
ENDBRANCH  93  94
ENDBRANCH  61  86
ENDBRANCH  35  36
ENDBRANCH  27  30
ENDBRANCH  25  26
ENDBRANCH  24  25
ENDBRANCH   1  24
TORSDOF 18
ENDMDL
MODEL 3
REMARK VINA RESULT:     -10.9      1.843      4.380
REMARK SMILES COC(=O)[C@H]1CCN(C(=O)N2C[C@@H](C)[C@@H](C(=O)NCCCCNC(=O)c3ccc(-c4c5nc(c(-c6c(F)cc(S(=O)(=O)[O-])cc6F)c6ccc([nH]6)c(-c6c(F)cc(S(=O)(=O)[O-])cc6F)c6nc(c(-c7c(F)cc(S(=O)(=O)[O-])cc7F)c7ccc4[nH]7)C=C6)C=C5)cc3)C2)C1
REMARK SMILES IDX 20 1 19 2 18 3 16 4 17 5 15 7 11 8 12 9 92 10 13 11 14 12
REMARK SMILES IDX 9 13 10 14 8 15 5 16 6 17 93 18 7 19 3 20 4 21 2 22 1 23
REMARK SMILES IDX 21 24 22 25 23 26 24 27 25 29 26 30 27 31 91 32 28 33 90 34
REMARK SMILES IDX 29 35 30 36 31 37 84 38 32 39 89 40 83 41 85 42 33 43 88 44
REMARK SMILES IDX 82 45 81 46 34 48 68 49 47 50 67 51 48 52 51 53 66 54 86 55
REMARK SMILES IDX 49 56 50 57 65 59 87 60 52 61 35 62 36 63 45 64 37 65 38 66
REMARK SMILES IDX 44 67 46 68 39 69 40 70 41 71 42 72 43 73 69 74 70 75 79 76
REMARK SMILES IDX 71 77 72 78 78 79 80 80 73 81 74 82 75 83 76 84 77 85 53 86
REMARK SMILES IDX 54 87 63 88 55 89 56 90 62 91 64 92 57 93 58 94 59 95 60 96
REMARK SMILES IDX 61 97
REMARK H PARENT 18 6 23 28 85 47 51 58
REMARK Flexibility Score: inf
ROOT
ATOM      1  C   UNL A   1      34.750  23.750  25.609  1.00  0.00     0.023 C 
ENDROOT
BRANCH   1   2
ATOM      2  C   UNL A   1      33.874  24.951  25.277  1.00  0.00     0.116 C 
BRANCH   2   3
ATOM      3  N   UNL A   1      34.102  25.487  23.952  1.00  0.00    -0.356 N 
ATOM      4  C   UNL A   1      33.545  25.172  22.755  1.00  0.00     0.225 C 
ATOM      5  O   UNL A   1      33.873  25.871  21.789  1.00  0.00    -0.275 OA
ATOM      6  H   UNL A   1      34.778  26.203  23.912  1.00  0.00     0.163 HD
BRANCH   4   7
ATOM      7  C   UNL A   1      32.535  24.048  22.545  1.00  0.00     0.102 C 
ATOM      8  N   UNL A   1      31.970  22.244  24.015  1.00  0.00    -0.324 N 
ATOM      9  C   UNL A   1      31.047  23.330  24.317  1.00  0.00     0.125 C 
ATOM     10  C   UNL A   1      32.982  22.683  23.053  1.00  0.00     0.135 C 
ATOM     11  C   UNL A   1      31.111  24.232  23.092  1.00  0.00     0.020 C 
ATOM     12  C   UNL A   1      30.646  25.654  23.352  1.00  0.00     0.010 C 
BRANCH   8  13
ATOM     13  C   UNL A   1      32.260  21.187  24.845  1.00  0.00     0.320 C 
ATOM     14  O   UNL A   1      32.347  21.348  26.064  1.00  0.00    -0.248 OA
BRANCH  13  15
ATOM     15  N   UNL A   1      32.472  19.953  24.288  1.00  0.00    -0.324 N 
ATOM     16  C   UNL A   1      33.638  17.922  23.885  1.00  0.00     0.120 C 
ATOM     17  C   UNL A   1      32.410  18.022  22.983  1.00  0.00     0.039 C 
ATOM     18  C   UNL A   1      33.444  19.048  24.896  1.00  0.00     0.136 C 
ATOM     19  C   UNL A   1      32.180  19.521  22.932  1.00  0.00     0.122 C 
BRANCH  16  20
ATOM     20  C   UNL A   1      33.821  16.585  24.551  1.00  0.00     0.310 C 
ATOM     21  O   UNL A   1      34.668  15.773  24.198  1.00  0.00    -0.252 OA
BRANCH  20  22
ATOM     22  O   UNL A   1      32.950  16.403  25.577  1.00  0.00    -0.469 OA
ATOM     23  C   UNL A   1      32.364  15.101  25.623  1.00  0.00     0.282 C 
ENDBRANCH  20  22
ENDBRANCH  16  20
ENDBRANCH  13  15
ENDBRANCH   8  13
ENDBRANCH   4   7
ENDBRANCH   2   3
ENDBRANCH   1   2
BRANCH   1  24
ATOM     24  C   UNL A   1      36.198  24.070  25.962  1.00  0.00     0.023 C 
BRANCH  24  25
ATOM     25  C   UNL A   1      37.233  23.686  24.911  1.00  0.00     0.116 C 
BRANCH  25  26
ATOM     26  N   UNL A   1      38.216  22.721  25.385  1.00  0.00    -0.352 N 
ATOM     27  C   UNL A   1      39.272  22.901  26.253  1.00  0.00     0.251 C 
ATOM     28  H   UNL A   1      38.111  21.807  25.034  1.00  0.00     0.163 HD
ATOM     29  O   UNL A   1      40.055  21.988  26.470  1.00  0.00    -0.269 OA
BRANCH  27  30
ATOM     30  C   UNL A   1      39.470  24.223  26.884  1.00  0.00     0.039 A 
ATOM     31  C   UNL A   1      38.971  24.442  28.169  1.00  0.00     0.014 A 
ATOM     32  C   UNL A   1      40.204  25.216  26.232  1.00  0.00     0.014 A 
ATOM     33  C   UNL A   1      39.292  25.623  28.841  1.00  0.00     0.010 A 
ATOM     34  C   UNL A   1      40.596  26.352  26.934  1.00  0.00     0.010 A 
ATOM     35  C   UNL A   1      40.151  26.564  28.248  1.00  0.00    -0.014 A 
BRANCH  35  36
ATOM     36  C   UNL A   1      40.611  27.769  28.984  1.00  0.00     0.031 A 
ATOM     37  C   UNL A   1      41.976  27.789  29.615  1.00  0.00     0.074 A 
ATOM     38  C   UNL A   1      39.771  28.809  29.159  1.00  0.00     0.049 A 
ATOM     39  N   UNL A   1      42.524  28.704  30.371  1.00  0.00    -0.248 NA
ATOM     40  C   UNL A   1      42.824  26.607  29.393  1.00  0.00     0.031 C 
ATOM     41  C   UNL A   1      38.400  28.888  28.648  1.00  0.00     0.029 A 
ATOM     42  N   UNL A   1      39.942  29.996  29.827  1.00  0.00    -0.354 N 
ATOM     43  C   UNL A   1      43.768  28.201  30.734  1.00  0.00     0.074 A 
ATOM     44  C   UNL A   1      43.868  26.876  30.161  1.00  0.00     0.031 C 
ATOM     45  C   UNL A   1      37.869  30.071  28.993  1.00  0.00     0.029 A 
ATOM     46  C   UNL A   1      38.842  30.821  29.780  1.00  0.00     0.049 A 
ATOM     47  H   UNL A   1      40.775  30.235  30.295  1.00  0.00     0.167 HD
ATOM     48  C   UNL A   1      44.747  28.796  31.456  1.00  0.00     0.037 A 
ATOM     49  C   UNL A   1      38.642  32.041  30.313  1.00  0.00     0.037 A 
ATOM     50  C   UNL A   1      44.654  30.126  31.996  1.00  0.00     0.049 A 
ATOM     51  C   UNL A   1      39.747  32.691  31.098  1.00  0.00     0.074 A 
ATOM     52  C   UNL A   1      45.613  30.845  32.686  1.00  0.00     0.029 A 
ATOM     53  N   UNL A   1      43.533  30.939  31.906  1.00  0.00    -0.354 N 
ATOM     54  N   UNL A   1      40.941  32.225  31.381  1.00  0.00    -0.248 NA
ATOM     55  C   UNL A   1      39.482  34.034  31.634  1.00  0.00     0.031 C 
ATOM     56  C   UNL A   1      45.061  32.081  33.042  1.00  0.00     0.029 A 
ATOM     57  C   UNL A   1      43.772  32.147  32.539  1.00  0.00     0.049 A 
ATOM     58  H   UNL A   1      42.692  30.694  31.456  1.00  0.00     0.167 HD
ATOM     59  C   UNL A   1      41.578  33.225  32.106  1.00  0.00     0.074 A 
ATOM     60  C   UNL A   1      40.640  34.325  32.211  1.00  0.00     0.031 C 
ATOM     61  C   UNL A   1      42.827  33.233  32.632  1.00  0.00     0.037 A 
BRANCH  48  62
ATOM     62  C   UNL A   1      46.003  28.002  31.694  1.00  0.00     0.058 A 
ATOM     63  C   UNL A   1      47.102  28.086  30.822  1.00  0.00     0.135 A 
ATOM     64  C   UNL A   1      46.105  27.138  32.795  1.00  0.00     0.135 A 
ATOM     65  F   UNL A   1      47.050  28.884  29.744  1.00  0.00    -0.206 F 
ATOM     66  C   UNL A   1      48.237  27.305  31.007  1.00  0.00     0.059 A 
ATOM     67  C   UNL A   1      47.244  26.369  33.015  1.00  0.00     0.059 A 
ATOM     68  F   UNL A   1      45.086  27.021  33.661  1.00  0.00    -0.206 F 
ATOM     69  C   UNL A   1      48.295  26.442  32.101  1.00  0.00     0.060 A 
BRANCH  69  70
ATOM     70  S   UNL A   1      49.760  25.408  32.310  1.00  0.00     0.124 S 
ATOM     71  O   UNL A   1      49.983  24.945  30.944  1.00  0.00    -0.237 OA
ATOM     72  O   UNL A   1      50.743  26.355  32.825  1.00  0.00    -0.237 OA
ATOM     73  O   UNL A   1      49.322  24.386  33.255  1.00  0.00    -0.744 OA
ENDBRANCH  69  70
ENDBRANCH  48  62
BRANCH  49  74
ATOM     74  C   UNL A   1      37.354  32.746  30.078  1.00  0.00     0.058 A 
ATOM     75  C   UNL A   1      37.250  33.734  29.089  1.00  0.00     0.135 A 
ATOM     76  C   UNL A   1      36.197  32.421  30.803  1.00  0.00     0.135 A 
ATOM     77  F   UNL A   1      38.332  34.082  28.375  1.00  0.00    -0.206 F 
ATOM     78  C   UNL A   1      36.047  34.379  28.826  1.00  0.00     0.059 A 
ATOM     79  C   UNL A   1      34.976  33.038  30.545  1.00  0.00     0.059 A 
ATOM     80  F   UNL A   1      36.240  31.470  31.749  1.00  0.00    -0.206 F 
ATOM     81  C   UNL A   1      34.913  34.020  29.556  1.00  0.00     0.060 A 
BRANCH  81  82
ATOM     82  S   UNL A   1      33.340  34.813  29.155  1.00  0.00     0.124 S 
ATOM     83  O   UNL A   1      33.786  36.055  28.537  1.00  0.00    -0.237 OA
ATOM     84  O   UNL A   1      32.725  33.838  28.258  1.00  0.00    -0.237 OA
ATOM     85  O   UNL A   1      32.692  34.950  30.456  1.00  0.00    -0.744 OA
ENDBRANCH  81  82
ENDBRANCH  49  74
BRANCH  61  86
ATOM     86  C   UNL A   1      43.267  34.480  33.347  1.00  0.00     0.058 A 
ATOM     87  C   UNL A   1      43.889  35.539  32.667  1.00  0.00     0.135 A 
ATOM     88  C   UNL A   1      43.012  34.639  34.718  1.00  0.00     0.135 A 
ATOM     89  F   UNL A   1      44.161  35.433  31.357  1.00  0.00    -0.206 F 
ATOM     90  C   UNL A   1      44.261  36.705  33.328  1.00  0.00     0.059 A 
ATOM     91  C   UNL A   1      43.353  35.806  35.394  1.00  0.00     0.059 A 
ATOM     92  F   UNL A   1      42.410  33.659  35.412  1.00  0.00    -0.206 F 
ATOM     93  C   UNL A   1      43.987  36.829  34.691  1.00  0.00     0.060 A 
BRANCH  93  94
ATOM     94  S   UNL A   1      44.438  38.364  35.530  1.00  0.00     0.124 S 
ATOM     95  O   UNL A   1      45.894  38.334  35.434  1.00  0.00    -0.237 OA
ATOM     96  O   UNL A   1      43.770  39.375  34.716  1.00  0.00    -0.237 OA
ATOM     97  O   UNL A   1      43.892  38.189  36.873  1.00  0.00    -0.744 OA
ENDBRANCH  93  94
ENDBRANCH  61  86
ENDBRANCH  35  36
ENDBRANCH  27  30
ENDBRANCH  25  26
ENDBRANCH  24  25
ENDBRANCH   1  24
TORSDOF 18
ENDMDL
