MODEL 1
REMARK VINA RESULT:     -12.6      0.000      0.000
REMARK SMILES O=C(NCCCCNC(=O)c1cccc(Nc2nc(-c3ccc(F)cc3F)cs2)c1)c1ccc(-c2c3nc(c(-c4c(F)cc(S(=O)(=O)[O-])cc4F)c4ccc([nH]4)c(-c4c(F)cc(S(=O)(=O)[O-])cc4F)c4nc(c(-c5c(F)cc(S(=O)(=O)[O-])cc5F)c5ccc2[nH]5)C=C4)C=C3)cc1
REMARK SMILES IDX 5 1 4 2 3 3 1 4 2 5 31 7 32 8 96 9 33 10 95 11 34 12 35 13
REMARK SMILES IDX 36 14 89 15 37 16 94 17 88 18 90 19 38 20 93 21 87 22 86 23
REMARK SMILES IDX 39 25 73 26 52 27 72 28 53 29 56 30 71 31 91 32 54 33 55 34
REMARK SMILES IDX 70 36 92 37 57 38 40 39 41 40 50 41 42 42 43 43 49 44 51 45
REMARK SMILES IDX 44 46 45 47 46 48 47 49 48 50 74 51 75 52 84 53 76 54 77 55
REMARK SMILES IDX 83 56 85 57 78 58 79 59 80 60 81 61 82 62 58 63 59 64 68 65
REMARK SMILES IDX 60 66 61 67 67 68 69 69 62 70 63 71 64 72 65 73 66 74 6 75
REMARK SMILES IDX 7 76 8 77 9 78 10 80 11 81 12 82 30 83 13 84 15 85 14 86
REMARK SMILES IDX 16 87 17 89 18 90 29 91 19 92 28 93 20 94 21 95 26 96 22 97
REMARK SMILES IDX 25 98 27 99 23 100 24 101
REMARK H PARENT 3 6 90 24 56 35 8 79 16 88
REMARK Flexibility Score: inf
ROOT
ATOM      1  C   UNL A   1      34.205  29.454  26.842  1.00  0.00     0.023 C 
ENDROOT
BRANCH   1   2
ATOM      2  C   UNL A   1      35.510  29.318  27.614  1.00  0.00     0.116 C 
BRANCH   2   3
ATOM      3  N   UNL A   1      35.381  29.638  29.029  1.00  0.00    -0.352 N 
ATOM      4  O   UNL A   1      36.038  29.913  31.169  1.00  0.00    -0.269 OA
ATOM      5  C   UNL A   1      36.355  29.745  29.996  1.00  0.00     0.251 C 
ATOM      6  H   UNL A   1      34.461  29.801  29.340  1.00  0.00     0.163 HD
BRANCH   5   7
ATOM      7  C   UNL A   1      37.780  29.619  29.620  1.00  0.00     0.039 A 
ATOM      8  C   UNL A   1      38.209  29.943  28.333  1.00  0.00     0.014 A 
ATOM      9  C   UNL A   1      38.694  29.132  30.560  1.00  0.00     0.014 A 
ATOM     10  C   UNL A   1      39.496  29.603  27.930  1.00  0.00     0.010 A 
ATOM     11  C   UNL A   1      40.017  28.883  30.179  1.00  0.00     0.010 A 
ATOM     12  C   UNL A   1      40.415  29.065  28.846  1.00  0.00    -0.014 A 
BRANCH  12  13
ATOM     13  C   UNL A   1      41.784  28.712  28.381  1.00  0.00     0.031 A 
ATOM     14  C   UNL A   1      42.896  29.730  28.391  1.00  0.00     0.074 A 
ATOM     15  C   UNL A   1      42.034  27.446  27.993  1.00  0.00     0.049 A 
ATOM     16  N   UNL A   1      44.156  29.577  28.064  1.00  0.00    -0.248 NA
ATOM     17  C   UNL A   1      42.552  31.098  28.809  1.00  0.00     0.031 C 
ATOM     18  C   UNL A   1      41.038  26.373  27.932  1.00  0.00     0.029 A 
ATOM     19  N   UNL A   1      43.199  26.838  27.604  1.00  0.00    -0.354 N 
ATOM     20  C   UNL A   1      44.745  30.828  28.210  1.00  0.00     0.074 A 
ATOM     21  C   UNL A   1      43.701  31.736  28.632  1.00  0.00     0.031 C 
ATOM     22  C   UNL A   1      41.645  25.228  27.588  1.00  0.00     0.029 A 
ATOM     23  C   UNL A   1      43.058  25.495  27.344  1.00  0.00     0.049 A 
ATOM     24  H   UNL A   1      44.055  27.317  27.519  1.00  0.00     0.167 HD
ATOM     25  C   UNL A   1      46.039  31.185  28.014  1.00  0.00     0.037 A 
ATOM     26  C   UNL A   1      43.961  24.578  26.948  1.00  0.00     0.037 A 
ATOM     27  C   UNL A   1      47.081  30.268  27.622  1.00  0.00     0.049 A 
ATOM     28  C   UNL A   1      45.388  24.999  26.744  1.00  0.00     0.074 A 
ATOM     29  C   UNL A   1      48.430  30.524  27.442  1.00  0.00     0.029 A 
ATOM     30  N   UNL A   1      46.892  28.922  27.347  1.00  0.00    -0.354 N 
ATOM     31  N   UNL A   1      45.932  26.180  26.916  1.00  0.00    -0.248 NA
ATOM     32  C   UNL A   1      46.325  23.963  26.293  1.00  0.00     0.031 C 
ATOM     33  C   UNL A   1      49.049  29.342  27.018  1.00  0.00     0.029 A 
ATOM     34  C   UNL A   1      48.095  28.338  26.982  1.00  0.00     0.049 A 
ATOM     35  H   UNL A   1      46.031  28.450  27.405  1.00  0.00     0.167 HD
ATOM     36  C   UNL A   1      47.280  26.023  26.620  1.00  0.00     0.074 A 
ATOM     37  C   UNL A   1      47.470  24.630  26.269  1.00  0.00     0.031 C 
ATOM     38  C   UNL A   1      48.271  26.948  26.642  1.00  0.00     0.037 A 
BRANCH  25  39
ATOM     39  C   UNL A   1      46.401  32.635  28.198  1.00  0.00     0.058 A 
ATOM     40  C   UNL A   1      46.917  33.127  29.408  1.00  0.00     0.135 A 
ATOM     41  C   UNL A   1      46.260  33.541  27.134  1.00  0.00     0.135 A 
ATOM     42  F   UNL A   1      47.063  32.309  30.462  1.00  0.00    -0.206 F 
ATOM     43  C   UNL A   1      47.248  34.470  29.567  1.00  0.00     0.059 A 
ATOM     44  C   UNL A   1      46.609  34.883  27.262  1.00  0.00     0.059 A 
ATOM     45  F   UNL A   1      45.776  33.125  25.953  1.00  0.00    -0.206 F 
ATOM     46  C   UNL A   1      47.086  35.342  28.488  1.00  0.00     0.060 A 
BRANCH  46  47
ATOM     47  S   UNL A   1      47.507  37.083  28.711  1.00  0.00     0.124 S 
ATOM     48  O   UNL A   1      48.965  37.027  28.741  1.00  0.00    -0.237 OA
ATOM     49  O   UNL A   1      46.922  37.702  27.525  1.00  0.00    -0.237 OA
ATOM     50  O   UNL A   1      46.866  37.430  29.976  1.00  0.00    -0.744 OA
ENDBRANCH  46  47
ENDBRANCH  25  39
BRANCH  26  51
ATOM     51  C   UNL A   1      43.537  23.169  26.742  1.00  0.00     0.058 A 
ATOM     52  C   UNL A   1      43.445  22.626  25.453  1.00  0.00     0.135 A 
ATOM     53  C   UNL A   1      43.250  22.330  27.830  1.00  0.00     0.135 A 
ATOM     54  F   UNL A   1      43.706  23.391  24.382  1.00  0.00    -0.206 F 
ATOM     55  C   UNL A   1      43.072  21.302  25.247  1.00  0.00     0.059 A 
ATOM     56  C   UNL A   1      42.902  20.996  27.650  1.00  0.00     0.059 A 
ATOM     57  F   UNL A   1      43.344  22.798  29.084  1.00  0.00    -0.206 F 
ATOM     58  C   UNL A   1      42.805  20.494  26.353  1.00  0.00     0.060 A 
BRANCH  58  59
ATOM     59  S   UNL A   1      42.379  18.762  26.079  1.00  0.00     0.124 S 
ATOM     60  O   UNL A   1      43.306  18.397  25.014  1.00  0.00    -0.237 OA
ATOM     61  O   UNL A   1      42.641  18.169  27.387  1.00  0.00    -0.237 OA
ATOM     62  O   UNL A   1      40.970  18.820  25.698  1.00  0.00    -0.744 OA
ENDBRANCH  58  59
ENDBRANCH  26  51
BRANCH  38  63
ATOM     63  C   UNL A   1      49.661  26.471  26.321  1.00  0.00     0.058 A 
ATOM     64  C   UNL A   1      50.189  26.546  25.023  1.00  0.00     0.135 A 
ATOM     65  C   UNL A   1      50.482  25.952  27.334  1.00  0.00     0.135 A 
ATOM     66  F   UNL A   1      49.442  27.028  24.016  1.00  0.00    -0.206 F 
ATOM     67  C   UNL A   1      51.473  26.093  24.734  1.00  0.00     0.059 A 
ATOM     68  C   UNL A   1      51.777  25.518  27.074  1.00  0.00     0.059 A 
ATOM     69  F   UNL A   1      50.029  25.868  28.595  1.00  0.00    -0.206 F 
ATOM     70  C   UNL A   1      52.258  25.578  25.767  1.00  0.00     0.060 A 
BRANCH  70  71
ATOM     71  S   UNL A   1      53.927  25.005  25.385  1.00  0.00     0.124 S 
ATOM     72  O   UNL A   1      54.339  25.961  24.362  1.00  0.00    -0.237 OA
ATOM     73  O   UNL A   1      54.603  25.124  26.673  1.00  0.00    -0.237 OA
ATOM     74  O   UNL A   1      53.717  23.637  24.919  1.00  0.00    -0.744 OA
ENDBRANCH  70  71
ENDBRANCH  38  63
ENDBRANCH  12  13
ENDBRANCH   5   7
ENDBRANCH   2   3
ENDBRANCH   1   2
BRANCH   1  75
ATOM     75  C   UNL A   1      33.017  28.690  27.422  1.00  0.00     0.023 C 
BRANCH  75  76
ATOM     76  C   UNL A   1      31.894  28.382  26.437  1.00  0.00     0.116 C 
BRANCH  76  77
ATOM     77  N   UNL A   1      31.052  27.276  26.867  1.00  0.00    -0.352 N 
ATOM     78  C   UNL A   1      30.460  26.301  26.104  1.00  0.00     0.251 C 
ATOM     79  H   UNL A   1      30.882  27.222  27.835  1.00  0.00     0.163 HD
ATOM     80  O   UNL A   1      29.680  25.494  26.600  1.00  0.00    -0.269 OA
BRANCH  78  81
ATOM     81  C   UNL A   1      30.758  26.236  24.661  1.00  0.00     0.041 A 
ATOM     82  C   UNL A   1      30.286  27.249  23.830  1.00  0.00     0.014 A 
ATOM     83  C   UNL A   1      31.510  25.175  24.141  1.00  0.00     0.040 A 
ATOM     84  C   UNL A   1      30.641  27.240  22.486  1.00  0.00     0.003 A 
ATOM     85  C   UNL A   1      31.865  25.148  22.786  1.00  0.00     0.041 A 
ATOM     86  C   UNL A   1      31.448  26.214  21.978  1.00  0.00     0.026 A 
BRANCH  85  87
ATOM     87  N   UNL A   1      32.648  24.078  22.321  1.00  0.00    -0.332 N 
ATOM     88  H   UNL A   1      32.606  23.906  21.353  1.00  0.00     0.169 HD
BRANCH  87  89
ATOM     89  C   UNL A   1      33.451  23.252  23.031  1.00  0.00     0.187 A 
ATOM     90  N   UNL A   1      34.696  23.466  23.401  1.00  0.00    -0.220 NA
ATOM     91  S   UNL A   1      32.798  21.739  23.564  1.00  0.00    -0.105 S 
ATOM     92  C   UNL A   1      35.160  22.412  24.163  1.00  0.00     0.086 A 
ATOM     93  C   UNL A   1      34.292  21.349  24.295  1.00  0.00     0.097 A 
BRANCH  92  94
ATOM     94  C   UNL A   1      36.458  22.431  24.801  1.00  0.00     0.037 A 
ATOM     95  C   UNL A   1      37.317  21.328  24.701  1.00  0.00     0.016 A 
ATOM     96  C   UNL A   1      36.845  23.531  25.576  1.00  0.00     0.135 A 
ATOM     97  C   UNL A   1      38.535  21.331  25.386  1.00  0.00     0.040 A 
ATOM     98  C   UNL A   1      38.057  23.539  26.258  1.00  0.00     0.079 A 
ATOM     99  F   UNL A   1      36.031  24.589  25.713  1.00  0.00    -0.206 F 
ATOM    100  C   UNL A   1      38.891  22.433  26.160  1.00  0.00     0.126 A 
ATOM    101  F   UNL A   1      40.050  22.419  26.829  1.00  0.00    -0.207 F 
ENDBRANCH  92  94
ENDBRANCH  87  89
ENDBRANCH  85  87
ENDBRANCH  78  81
ENDBRANCH  76  77
ENDBRANCH  75  76
ENDBRANCH   1  75
TORSDOF 17
ENDMDL
MODEL 2
REMARK VINA RESULT:     -12.5      6.707     12.231
REMARK SMILES O=C(NCCCCNC(=O)c1cccc(Nc2nc(-c3ccc(F)cc3F)cs2)c1)c1ccc(-c2c3nc(c(-c4c(F)cc(S(=O)(=O)[O-])cc4F)c4ccc([nH]4)c(-c4c(F)cc(S(=O)(=O)[O-])cc4F)c4nc(c(-c5c(F)cc(S(=O)(=O)[O-])cc5F)c5ccc2[nH]5)C=C4)C=C3)cc1
REMARK SMILES IDX 5 1 4 2 3 3 1 4 2 5 31 7 32 8 96 9 33 10 95 11 34 12 35 13
REMARK SMILES IDX 36 14 89 15 37 16 94 17 88 18 90 19 38 20 93 21 87 22 86 23
REMARK SMILES IDX 39 25 73 26 52 27 72 28 53 29 56 30 71 31 91 32 54 33 55 34
REMARK SMILES IDX 70 36 92 37 57 38 40 39 41 40 50 41 42 42 43 43 49 44 51 45
REMARK SMILES IDX 44 46 45 47 46 48 47 49 48 50 74 51 75 52 84 53 76 54 77 55
REMARK SMILES IDX 83 56 85 57 78 58 79 59 80 60 81 61 82 62 58 63 59 64 68 65
REMARK SMILES IDX 60 66 61 67 67 68 69 69 62 70 63 71 64 72 65 73 66 74 6 75
REMARK SMILES IDX 7 76 8 77 9 78 10 80 11 81 12 82 30 83 13 84 15 85 14 86
REMARK SMILES IDX 16 87 17 89 18 90 29 91 19 92 28 93 20 94 21 95 26 96 22 97
REMARK SMILES IDX 25 98 27 99 23 100 24 101
REMARK H PARENT 3 6 90 24 56 35 8 79 16 88
REMARK Flexibility Score: inf
ROOT
ATOM      1  C   UNL A   1      39.924  21.747  26.796  1.00  0.00     0.023 C 
ENDROOT
BRANCH   1   2
ATOM      2  C   UNL A   1      40.077  23.209  27.194  1.00  0.00     0.116 C 
BRANCH   2   3
ATOM      3  N   UNL A   1      40.628  24.041  26.133  1.00  0.00    -0.352 N 
ATOM      4  O   UNL A   1      41.341  25.931  25.128  1.00  0.00    -0.269 OA
ATOM      5  C   UNL A   1      41.000  25.367  26.163  1.00  0.00     0.251 C 
ATOM      6  H   UNL A   1      40.753  23.589  25.267  1.00  0.00     0.163 HD
BRANCH   5   7
ATOM      7  C   UNL A   1      40.949  26.115  27.438  1.00  0.00     0.039 A 
ATOM      8  C   UNL A   1      39.879  25.952  28.318  1.00  0.00     0.014 A 
ATOM      9  C   UNL A   1      41.970  27.022  27.738  1.00  0.00     0.014 A 
ATOM     10  C   UNL A   1      39.732  26.824  29.391  1.00  0.00     0.010 A 
ATOM     11  C   UNL A   1      41.868  27.832  28.875  1.00  0.00     0.010 A 
ATOM     12  C   UNL A   1      40.721  27.778  29.681  1.00  0.00    -0.014 A 
BRANCH  12  13
ATOM     13  C   UNL A   1      40.531  28.695  30.837  1.00  0.00     0.031 A 
ATOM     14  C   UNL A   1      41.432  28.626  32.044  1.00  0.00     0.074 A 
ATOM     15  C   UNL A   1      39.564  29.632  30.773  1.00  0.00     0.049 A 
ATOM     16  N   UNL A   1      41.434  29.380  33.115  1.00  0.00    -0.248 NA
ATOM     17  C   UNL A   1      42.455  27.569  32.057  1.00  0.00     0.031 C 
ATOM     18  C   UNL A   1      38.623  29.794  29.661  1.00  0.00     0.029 A 
ATOM     19  N   UNL A   1      39.228  30.639  31.640  1.00  0.00    -0.354 N 
ATOM     20  C   UNL A   1      42.433  28.874  33.939  1.00  0.00     0.074 A 
ATOM     21  C   UNL A   1      43.003  27.734  33.255  1.00  0.00     0.031 C 
ATOM     22  C   UNL A   1      37.857  30.872  29.887  1.00  0.00     0.029 A 
ATOM     23  C   UNL A   1      38.208  31.440  31.182  1.00  0.00     0.049 A 
ATOM     24  H   UNL A   1      39.673  30.775  32.507  1.00  0.00     0.167 HD
ATOM     25  C   UNL A   1      42.842  29.323  35.152  1.00  0.00     0.037 A 
ATOM     26  C   UNL A   1      37.616  32.512  31.743  1.00  0.00     0.037 A 
ATOM     27  C   UNL A   1      42.290  30.479  35.815  1.00  0.00     0.049 A 
ATOM     28  C   UNL A   1      38.091  32.992  33.084  1.00  0.00     0.074 A 
ATOM     29  C   UNL A   1      42.667  31.039  37.024  1.00  0.00     0.029 A 
ATOM     30  N   UNL A   1      41.245  31.249  35.328  1.00  0.00    -0.354 N 
ATOM     31  N   UNL A   1      39.058  32.518  33.834  1.00  0.00    -0.248 NA
ATOM     32  C   UNL A   1      37.397  34.151  33.656  1.00  0.00     0.031 C 
ATOM     33  C   UNL A   1      41.822  32.123  37.288  1.00  0.00     0.029 A 
ATOM     34  C   UNL A   1      40.951  32.269  36.220  1.00  0.00     0.049 A 
ATOM     35  H   UNL A   1      40.780  31.096  34.474  1.00  0.00     0.167 HD
ATOM     36  C   UNL A   1      39.105  33.338  34.954  1.00  0.00     0.074 A 
ATOM     37  C   UNL A   1      38.077  34.344  34.777  1.00  0.00     0.031 C 
ATOM     38  C   UNL A   1      39.929  33.268  36.028  1.00  0.00     0.037 A 
BRANCH  25  39
ATOM     39  C   UNL A   1      43.925  28.550  35.856  1.00  0.00     0.058 A 
ATOM     40  C   UNL A   1      45.286  28.845  35.682  1.00  0.00     0.135 A 
ATOM     41  C   UNL A   1      43.592  27.517  36.748  1.00  0.00     0.135 A 
ATOM     42  F   UNL A   1      45.664  29.815  34.833  1.00  0.00    -0.206 F 
ATOM     43  C   UNL A   1      46.280  28.123  36.338  1.00  0.00     0.059 A 
ATOM     44  C   UNL A   1      44.567  26.798  37.435  1.00  0.00     0.059 A 
ATOM     45  F   UNL A   1      42.306  27.193  36.958  1.00  0.00    -0.206 F 
ATOM     46  C   UNL A   1      45.910  27.098  37.210  1.00  0.00     0.060 A 
BRANCH  46  47
ATOM     47  S   UNL A   1      47.207  26.160  38.046  1.00  0.00     0.124 S 
ATOM     48  O   UNL A   1      47.733  25.353  36.949  1.00  0.00    -0.237 OA
ATOM     49  O   UNL A   1      48.092  27.214  38.534  1.00  0.00    -0.237 OA
ATOM     50  O   UNL A   1      46.485  25.424  39.078  1.00  0.00    -0.744 OA
ENDBRANCH  46  47
ENDBRANCH  25  39
BRANCH  26  51
ATOM     51  C   UNL A   1      36.523  33.211  31.019  1.00  0.00     0.058 A 
ATOM     52  C   UNL A   1      35.191  33.096  31.441  1.00  0.00     0.135 A 
ATOM     53  C   UNL A   1      36.793  34.033  29.914  1.00  0.00     0.135 A 
ATOM     54  F   UNL A   1      34.884  32.319  32.491  1.00  0.00    -0.206 F 
ATOM     55  C   UNL A   1      34.161  33.764  30.786  1.00  0.00     0.059 A 
ATOM     56  C   UNL A   1      35.784  34.731  29.260  1.00  0.00     0.059 A 
ATOM     57  F   UNL A   1      38.054  34.190  29.484  1.00  0.00    -0.206 F 
ATOM     58  C   UNL A   1      34.469  34.582  29.698  1.00  0.00     0.060 A 
BRANCH  58  59
ATOM     59  S   UNL A   1      33.134  35.490  28.891  1.00  0.00     0.124 S 
ATOM     60  O   UNL A   1      33.876  36.493  28.136  1.00  0.00    -0.237 OA
ATOM     61  O   UNL A   1      32.484  34.447  28.103  1.00  0.00    -0.237 OA
ATOM     62  O   UNL A   1      32.347  35.997  30.013  1.00  0.00    -0.744 OA
ENDBRANCH  58  59
ENDBRANCH  26  51
BRANCH  38  63
ATOM     63  C   UNL A   1      39.782  34.337  37.076  1.00  0.00     0.058 A 
ATOM     64  C   UNL A   1      40.449  35.568  36.976  1.00  0.00     0.135 A 
ATOM     65  C   UNL A   1      38.944  34.133  38.182  1.00  0.00     0.135 A 
ATOM     66  F   UNL A   1      41.269  35.812  35.941  1.00  0.00    -0.206 F 
ATOM     67  C   UNL A   1      40.315  36.548  37.956  1.00  0.00     0.059 A 
ATOM     68  C   UNL A   1      38.773  35.107  39.160  1.00  0.00     0.059 A 
ATOM     69  F   UNL A   1      38.275  32.977  38.320  1.00  0.00    -0.206 F 
ATOM     70  C   UNL A   1      39.476  36.306  39.046  1.00  0.00     0.060 A 
BRANCH  70  71
ATOM     71  S   UNL A   1      39.298  37.588  40.305  1.00  0.00     0.124 S 
ATOM     72  O   UNL A   1      38.952  36.797  41.482  1.00  0.00    -0.237 OA
ATOM     73  O   UNL A   1      40.622  38.200  40.319  1.00  0.00    -0.237 OA
ATOM     74  O   UNL A   1      38.229  38.433  39.778  1.00  0.00    -0.744 OA
ENDBRANCH  70  71
ENDBRANCH  38  63
ENDBRANCH  12  13
ENDBRANCH   5   7
ENDBRANCH   2   3
ENDBRANCH   1   2
BRANCH   1  75
ATOM     75  C   UNL A   1      38.811  21.453  25.793  1.00  0.00     0.023 C 
BRANCH  75  76
ATOM     76  C   UNL A   1      37.691  22.487  25.739  1.00  0.00     0.116 C 
BRANCH  76  77
ATOM     77  N   UNL A   1      37.397  22.933  24.386  1.00  0.00    -0.352 N 
ATOM     78  C   UNL A   1      36.222  22.826  23.683  1.00  0.00     0.251 C 
ATOM     79  H   UNL A   1      38.140  23.368  23.910  1.00  0.00     0.163 HD
ATOM     80  O   UNL A   1      36.160  23.150  22.502  1.00  0.00    -0.269 OA
BRANCH  78  81
ATOM     81  C   UNL A   1      35.024  22.297  24.360  1.00  0.00     0.041 A 
ATOM     82  C   UNL A   1      34.993  20.951  24.719  1.00  0.00     0.014 A 
ATOM     83  C   UNL A   1      33.941  23.138  24.642  1.00  0.00     0.040 A 
ATOM     84  C   UNL A   1      33.905  20.469  25.438  1.00  0.00     0.003 A 
ATOM     85  C   UNL A   1      32.834  22.663  25.356  1.00  0.00     0.041 A 
ATOM     86  C   UNL A   1      32.850  21.327  25.777  1.00  0.00     0.026 A 
BRANCH  85  87
ATOM     87  N   UNL A   1      31.787  23.557  25.640  1.00  0.00    -0.332 N 
ATOM     88  H   UNL A   1      30.974  23.156  26.021  1.00  0.00     0.169 HD
BRANCH  87  89
ATOM     89  C   UNL A   1      31.753  24.897  25.458  1.00  0.00     0.187 A 
ATOM     90  N   UNL A   1      32.233  25.828  26.256  1.00  0.00    -0.220 NA
ATOM     91  S   UNL A   1      31.031  25.505  24.006  1.00  0.00    -0.105 S 
ATOM     92  C   UNL A   1      32.057  27.078  25.698  1.00  0.00     0.086 A 
ATOM     93  C   UNL A   1      31.356  27.104  24.511  1.00  0.00     0.097 A 
BRANCH  92  94
ATOM     94  C   UNL A   1      32.592  28.278  26.303  1.00  0.00     0.037 A 
ATOM     95  C   UNL A   1      31.766  29.387  26.539  1.00  0.00     0.016 A 
ATOM     96  C   UNL A   1      33.956  28.365  26.605  1.00  0.00     0.135 A 
ATOM     97  C   UNL A   1      32.314  30.565  27.053  1.00  0.00     0.040 A 
ATOM     98  C   UNL A   1      34.505  29.535  27.119  1.00  0.00     0.079 A 
ATOM     99  F   UNL A   1      34.776  27.330  26.363  1.00  0.00    -0.206 F 
ATOM    100  C   UNL A   1      33.678  30.628  27.334  1.00  0.00     0.126 A 
ATOM    101  F   UNL A   1      34.198  31.768  27.806  1.00  0.00    -0.207 F 
ENDBRANCH  92  94
ENDBRANCH  87  89
ENDBRANCH  85  87
ENDBRANCH  78  81
ENDBRANCH  76  77
ENDBRANCH  75  76
ENDBRANCH   1  75
TORSDOF 17
ENDMDL
MODEL 3
REMARK VINA RESULT:     -12.3      3.353      4.370
REMARK SMILES O=C(NCCCCNC(=O)c1cccc(Nc2nc(-c3ccc(F)cc3F)cs2)c1)c1ccc(-c2c3nc(c(-c4c(F)cc(S(=O)(=O)[O-])cc4F)c4ccc([nH]4)c(-c4c(F)cc(S(=O)(=O)[O-])cc4F)c4nc(c(-c5c(F)cc(S(=O)(=O)[O-])cc5F)c5ccc2[nH]5)C=C4)C=C3)cc1
REMARK SMILES IDX 5 1 4 2 3 3 1 4 2 5 31 7 32 8 96 9 33 10 95 11 34 12 35 13
REMARK SMILES IDX 36 14 89 15 37 16 94 17 88 18 90 19 38 20 93 21 87 22 86 23
REMARK SMILES IDX 39 25 73 26 52 27 72 28 53 29 56 30 71 31 91 32 54 33 55 34
REMARK SMILES IDX 70 36 92 37 57 38 40 39 41 40 50 41 42 42 43 43 49 44 51 45
REMARK SMILES IDX 44 46 45 47 46 48 47 49 48 50 74 51 75 52 84 53 76 54 77 55
REMARK SMILES IDX 83 56 85 57 78 58 79 59 80 60 81 61 82 62 58 63 59 64 68 65
REMARK SMILES IDX 60 66 61 67 67 68 69 69 62 70 63 71 64 72 65 73 66 74 6 75
REMARK SMILES IDX 7 76 8 77 9 78 10 80 11 81 12 82 30 83 13 84 15 85 14 86
REMARK SMILES IDX 16 87 17 89 18 90 29 91 19 92 28 93 20 94 21 95 26 96 22 97
REMARK SMILES IDX 25 98 27 99 23 100 24 101
REMARK H PARENT 3 6 90 24 56 35 8 79 16 88
REMARK Flexibility Score: inf
ROOT
ATOM      1  C   UNL A   1      33.717  28.138  25.714  1.00  0.00     0.023 C 
ENDROOT
BRANCH   1   2
ATOM      2  C   UNL A   1      33.490  28.343  27.205  1.00  0.00     0.116 C 
BRANCH   2   3
ATOM      3  N   UNL A   1      33.415  29.746  27.591  1.00  0.00    -0.352 N 
ATOM      4  O   UNL A   1      34.094  31.693  28.506  1.00  0.00    -0.269 OA
ATOM      5  C   UNL A   1      34.382  30.558  28.141  1.00  0.00     0.251 C 
ATOM      6  H   UNL A   1      32.543  30.178  27.435  1.00  0.00     0.163 HD
BRANCH   5   7
ATOM      7  C   UNL A   1      35.756  30.041  28.324  1.00  0.00     0.039 A 
ATOM      8  C   UNL A   1      36.180  29.567  29.566  1.00  0.00     0.014 A 
ATOM      9  C   UNL A   1      36.645  30.068  27.245  1.00  0.00     0.014 A 
ATOM     10  C   UNL A   1      37.528  29.303  29.778  1.00  0.00     0.010 A 
ATOM     11  C   UNL A   1      37.983  29.706  27.438  1.00  0.00     0.010 A 
ATOM     12  C   UNL A   1      38.448  29.373  28.719  1.00  0.00    -0.014 A 
BRANCH  12  13
ATOM     13  C   UNL A   1      39.884  29.084  28.982  1.00  0.00     0.031 A 
ATOM     14  C   UNL A   1      40.765  30.087  29.684  1.00  0.00     0.074 A 
ATOM     15  C   UNL A   1      40.382  27.884  28.626  1.00  0.00     0.049 A 
ATOM     16  N   UNL A   1      42.022  29.976  30.032  1.00  0.00    -0.248 NA
ATOM     17  C   UNL A   1      40.162  31.384  30.029  1.00  0.00     0.031 C 
ATOM     18  C   UNL A   1      39.631  26.833  27.934  1.00  0.00     0.029 A 
ATOM     19  N   UNL A   1      41.622  27.332  28.819  1.00  0.00    -0.354 N 
ATOM     20  C   UNL A   1      42.369  31.193  30.610  1.00  0.00     0.074 A 
ATOM     21  C   UNL A   1      41.196  32.037  30.545  1.00  0.00     0.031 C 
ATOM     22  C   UNL A   1      40.407  25.745  27.813  1.00  0.00     0.029 A 
ATOM     23  C   UNL A   1      41.725  26.039  28.362  1.00  0.00     0.049 A 
ATOM     24  H   UNL A   1      42.368  27.815  29.243  1.00  0.00     0.167 HD
ATOM     25  C   UNL A   1      43.555  31.569  31.150  1.00  0.00     0.037 A 
ATOM     26  C   UNL A   1      42.764  25.183  28.376  1.00  0.00     0.037 A 
ATOM     27  C   UNL A   1      44.712  30.713  31.239  1.00  0.00     0.049 A 
ATOM     28  C   UNL A   1      44.065  25.623  28.985  1.00  0.00     0.074 A 
ATOM     29  C   UNL A   1      45.944  30.987  31.808  1.00  0.00     0.029 A 
ATOM     30  N   UNL A   1      44.781  29.419  30.745  1.00  0.00    -0.354 N 
ATOM     31  N   UNL A   1      44.364  26.768  29.553  1.00  0.00    -0.248 NA
ATOM     32  C   UNL A   1      45.169  24.657  28.955  1.00  0.00     0.031 C 
ATOM     33  C   UNL A   1      46.772  29.874  31.621  1.00  0.00     0.029 A 
ATOM     34  C   UNL A   1      46.040  28.888  30.980  1.00  0.00     0.049 A 
ATOM     35  H   UNL A   1      44.045  28.946  30.295  1.00  0.00     0.167 HD
ATOM     36  C   UNL A   1      45.683  26.649  29.973  1.00  0.00     0.074 A 
ATOM     37  C   UNL A   1      46.120  25.317  29.602  1.00  0.00     0.031 C 
ATOM     38  C   UNL A   1      46.459  27.558  30.612  1.00  0.00     0.037 A 
BRANCH  25  39
ATOM     39  C   UNL A   1      43.673  32.979  31.668  1.00  0.00     0.058 A 
ATOM     40  C   UNL A   1      43.482  33.293  33.023  1.00  0.00     0.135 A 
ATOM     41  C   UNL A   1      44.016  34.027  30.798  1.00  0.00     0.135 A 
ATOM     42  F   UNL A   1      43.142  32.333  33.898  1.00  0.00    -0.206 F 
ATOM     43  C   UNL A   1      43.593  34.600  33.491  1.00  0.00     0.059 A 
ATOM     44  C   UNL A   1      44.159  35.336  31.248  1.00  0.00     0.059 A 
ATOM     45  F   UNL A   1      44.215  33.784  29.493  1.00  0.00    -0.206 F 
ATOM     46  C   UNL A   1      43.928  35.616  32.594  1.00  0.00     0.060 A 
BRANCH  46  47
ATOM     47  S   UNL A   1      44.057  37.308  33.211  1.00  0.00     0.124 S 
ATOM     48  O   UNL A   1      42.837  37.421  34.004  1.00  0.00    -0.237 OA
ATOM     49  O   UNL A   1      45.303  37.272  33.970  1.00  0.00    -0.237 OA
ATOM     50  O   UNL A   1      44.091  38.113  31.994  1.00  0.00    -0.744 OA
ENDBRANCH  46  47
ENDBRANCH  25  39
BRANCH  26  51
ATOM     51  C   UNL A   1      42.602  23.818  27.813  1.00  0.00     0.058 A 
ATOM     52  C   UNL A   1      42.419  22.710  28.651  1.00  0.00     0.135 A 
ATOM     53  C   UNL A   1      42.594  23.601  26.426  1.00  0.00     0.135 A 
ATOM     54  F   UNL A   1      42.423  22.868  29.983  1.00  0.00    -0.206 F 
ATOM     55  C   UNL A   1      42.243  21.430  28.136  1.00  0.00     0.059 A 
ATOM     56  C   UNL A   1      42.392  22.336  25.887  1.00  0.00     0.059 A 
ATOM     57  F   UNL A   1      42.745  24.634  25.582  1.00  0.00    -0.206 F 
ATOM     58  C   UNL A   1      42.228  21.254  26.751  1.00  0.00     0.060 A 
BRANCH  58  59
ATOM     59  S   UNL A   1      41.941  19.599  26.091  1.00  0.00     0.124 S 
ATOM     60  O   UNL A   1      42.342  18.761  27.215  1.00  0.00    -0.237 OA
ATOM     61  O   UNL A   1      40.512  19.629  25.793  1.00  0.00    -0.237 OA
ATOM     62  O   UNL A   1      42.815  19.548  24.922  1.00  0.00    -0.744 OA
ENDBRANCH  58  59
ENDBRANCH  26  51
BRANCH  38  63
ATOM     63  C   UNL A   1      47.848  27.126  30.993  1.00  0.00     0.058 A 
ATOM     64  C   UNL A   1      48.951  27.354  30.155  1.00  0.00     0.135 A 
ATOM     65  C   UNL A   1      48.079  26.494  32.225  1.00  0.00     0.135 A 
ATOM     66  F   UNL A   1      48.784  27.948  28.963  1.00  0.00    -0.206 F 
ATOM     67  C   UNL A   1      50.232  26.941  30.513  1.00  0.00     0.059 A 
ATOM     68  C   UNL A   1      49.354  26.097  32.615  1.00  0.00     0.059 A 
ATOM     69  F   UNL A   1      47.060  26.261  33.067  1.00  0.00    -0.206 F 
ATOM     70  C   UNL A   1      50.422  26.311  31.744  1.00  0.00     0.060 A 
BRANCH  70  71
ATOM     71  S   UNL A   1      52.088  25.791  32.205  1.00  0.00     0.124 S 
ATOM     72  O   UNL A   1      51.988  24.341  32.081  1.00  0.00    -0.237 OA
ATOM     73  O   UNL A   1      52.914  26.458  31.203  1.00  0.00    -0.237 OA
ATOM     74  O   UNL A   1      52.237  26.298  33.567  1.00  0.00    -0.744 OA
ENDBRANCH  70  71
ENDBRANCH  38  63
ENDBRANCH  12  13
ENDBRANCH   5   7
ENDBRANCH   2   3
ENDBRANCH   1   2
BRANCH   1  75
ATOM     75  C   UNL A   1      33.182  29.246  24.811  1.00  0.00     0.023 C 
BRANCH  75  76
ATOM     76  C   UNL A   1      33.267  28.967  23.313  1.00  0.00     0.116 C 
BRANCH  76  77
ATOM     77  N   UNL A   1      32.049  29.321  22.602  1.00  0.00    -0.352 N 
ATOM     78  C   UNL A   1      30.905  28.580  22.438  1.00  0.00     0.251 C 
ATOM     79  H   UNL A   1      32.045  30.210  22.179  1.00  0.00     0.163 HD
ATOM     80  O   UNL A   1      29.996  28.969  21.711  1.00  0.00    -0.269 OA
BRANCH  78  81
ATOM     81  C   UNL A   1      30.778  27.287  23.136  1.00  0.00     0.041 A 
ATOM     82  C   UNL A   1      30.074  27.237  24.336  1.00  0.00     0.014 A 
ATOM     83  C   UNL A   1      31.352  26.130  22.592  1.00  0.00     0.040 A 
ATOM     84  C   UNL A   1      29.874  26.006  24.951  1.00  0.00     0.003 A 
ATOM     85  C   UNL A   1      31.166  24.885  23.207  1.00  0.00     0.041 A 
ATOM     86  C   UNL A   1      30.392  24.839  24.373  1.00  0.00     0.026 A 
BRANCH  85  87
ATOM     87  N   UNL A   1      31.736  23.751  22.604  1.00  0.00    -0.332 N 
ATOM     88  H   UNL A   1      31.578  23.656  21.637  1.00  0.00     0.169 HD
BRANCH  87  89
ATOM     89  C   UNL A   1      32.472  22.772  23.178  1.00  0.00     0.187 A 
ATOM     90  N   UNL A   1      32.118  21.522  23.393  1.00  0.00    -0.220 NA
ATOM     91  S   UNL A   1      34.086  23.153  23.679  1.00  0.00    -0.105 S 
ATOM     92  C   UNL A   1      33.165  20.814  23.949  1.00  0.00     0.086 A 
ATOM     93  C   UNL A   1      34.290  21.554  24.244  1.00  0.00     0.097 A 
BRANCH  92  94
ATOM     94  C   UNL A   1      33.096  19.389  24.183  1.00  0.00     0.037 A 
ATOM     95  C   UNL A   1      33.110  18.487  23.109  1.00  0.00     0.016 A 
ATOM     96  C   UNL A   1      32.952  18.897  25.487  1.00  0.00     0.135 A 
ATOM     97  C   UNL A   1      32.965  17.118  23.348  1.00  0.00     0.040 A 
ATOM     98  C   UNL A   1      32.809  17.535  25.729  1.00  0.00     0.079 A 
ATOM     99  F   UNL A   1      32.906  19.737  26.532  1.00  0.00    -0.206 F 
ATOM    100  C   UNL A   1      32.811  16.657  24.654  1.00  0.00     0.126 A 
ATOM    101  F   UNL A   1      32.651  15.346  24.871  1.00  0.00    -0.207 F 
ENDBRANCH  92  94
ENDBRANCH  87  89
ENDBRANCH  85  87
ENDBRANCH  78  81
ENDBRANCH  76  77
ENDBRANCH  75  76
ENDBRANCH   1  75
TORSDOF 17
ENDMDL
