MODEL 1
REMARK VINA RESULT:     -12.0      0.000      0.000
REMARK SMILES O=C(NCCCCNC(=O)[C@@H]1CCCC[C@@H]1C(=O)Nc1cccc(C(F)(F)F)c1)c1ccc(-c2c3nc(c(-c4c(F)cc(S(=O)(=O)[O-])cc4F)c4ccc([nH]4)c(-c4c(F)cc(S(=O)(=O)[O-])cc4F)c4nc(c(-c5c(F)cc(S(=O)(=O)[O-])cc5F)c5ccc2[nH]5)C=C4)C=C3)cc1
REMARK SMILES IDX 5 1 4 2 3 3 1 4 2 5 30 7 31 8 95 9 32 10 94 11 33 12 34 13
REMARK SMILES IDX 35 14 88 15 36 16 93 17 87 18 89 19 37 20 92 21 86 22 85 23
REMARK SMILES IDX 38 25 72 26 51 27 71 28 52 29 55 30 70 31 90 32 53 33 54 34
REMARK SMILES IDX 69 36 91 37 56 38 39 39 40 40 49 41 41 42 42 43 48 44 50 45
REMARK SMILES IDX 43 46 44 47 45 48 46 49 47 50 73 51 74 52 83 53 75 54 76 55
REMARK SMILES IDX 82 56 84 57 77 58 78 59 79 60 80 61 81 62 57 63 58 64 67 65
REMARK SMILES IDX 59 66 60 67 66 68 68 69 61 70 62 71 63 72 64 73 65 74 6 75
REMARK SMILES IDX 7 76 8 77 9 78 10 80 11 81 12 82 16 83 13 84 15 85 14 86
REMARK SMILES IDX 17 87 18 88 19 89 20 91 21 92 29 93 22 94 24 95 23 96 25 97
REMARK SMILES IDX 26 98 27 99 28 100
REMARK H PARENT 3 6 89 24 55 35 8 79 19 90
REMARK Flexibility Score: inf
ROOT
ATOM      1  C   UNL A   1      40.152  22.140  26.951  1.00  0.00     0.023 C 
ENDROOT
BRANCH   1   2
ATOM      2  C   UNL A   1      41.375  22.949  27.372  1.00  0.00     0.116 C 
BRANCH   2   3
ATOM      3  N   UNL A   1      41.937  23.687  26.259  1.00  0.00    -0.352 N 
ATOM      4  O   UNL A   1      42.281  25.462  24.922  1.00  0.00    -0.269 OA
ATOM      5  C   UNL A   1      41.984  25.042  26.046  1.00  0.00     0.251 C 
ATOM      6  H   UNL A   1      42.345  23.135  25.552  1.00  0.00     0.163 HD
BRANCH   5   7
ATOM      7  C   UNL A   1      41.686  25.996  27.136  1.00  0.00     0.039 A 
ATOM      8  C   UNL A   1      40.627  25.770  28.021  1.00  0.00     0.014 A 
ATOM      9  C   UNL A   1      42.529  27.094  27.326  1.00  0.00     0.014 A 
ATOM     10  C   UNL A   1      40.364  26.684  29.039  1.00  0.00     0.010 A 
ATOM     11  C   UNL A   1      42.304  27.977  28.389  1.00  0.00     0.010 A 
ATOM     12  C   UNL A   1      41.214  27.782  29.250  1.00  0.00    -0.014 A 
BRANCH  12  13
ATOM     13  C   UNL A   1      41.006  28.653  30.436  1.00  0.00     0.031 A 
ATOM     14  C   UNL A   1      41.862  28.520  31.665  1.00  0.00     0.074 A 
ATOM     15  C   UNL A   1      40.026  29.578  30.389  1.00  0.00     0.049 A 
ATOM     16  N   UNL A   1      41.811  29.208  32.777  1.00  0.00    -0.248 NA
ATOM     17  C   UNL A   1      42.902  27.480  31.649  1.00  0.00     0.031 C 
ATOM     18  C   UNL A   1      39.108  29.777  29.264  1.00  0.00     0.029 A 
ATOM     19  N   UNL A   1      39.638  30.526  31.301  1.00  0.00    -0.354 N 
ATOM     20  C   UNL A   1      42.795  28.676  33.601  1.00  0.00     0.074 A 
ATOM     21  C   UNL A   1      43.419  27.595  32.866  1.00  0.00     0.031 C 
ATOM     22  C   UNL A   1      38.289  30.803  29.537  1.00  0.00     0.029 A 
ATOM     23  C   UNL A   1      38.588  31.304  30.874  1.00  0.00     0.049 A 
ATOM     24  H   UNL A   1      40.071  30.639  32.178  1.00  0.00     0.167 HD
ATOM     25  C   UNL A   1      43.147  29.059  34.852  1.00  0.00     0.037 A 
ATOM     26  C   UNL A   1      37.927  32.301  31.492  1.00  0.00     0.037 A 
ATOM     27  C   UNL A   1      42.537  30.151  35.569  1.00  0.00     0.049 A 
ATOM     28  C   UNL A   1      38.346  32.709  32.874  1.00  0.00     0.074 A 
ATOM     29  C   UNL A   1      42.864  30.648  36.820  1.00  0.00     0.029 A 
ATOM     30  N   UNL A   1      41.475  30.912  35.105  1.00  0.00    -0.354 N 
ATOM     31  N   UNL A   1      39.311  32.224  33.617  1.00  0.00    -0.248 NA
ATOM     32  C   UNL A   1      37.585  33.795  33.505  1.00  0.00     0.031 C 
ATOM     33  C   UNL A   1      41.979  31.687  37.125  1.00  0.00     0.029 A 
ATOM     34  C   UNL A   1      41.122  31.861  36.051  1.00  0.00     0.049 A 
ATOM     35  H   UNL A   1      41.035  30.794  34.232  1.00  0.00     0.167 HD
ATOM     36  C   UNL A   1      39.278  32.950  34.800  1.00  0.00     0.074 A 
ATOM     37  C   UNL A   1      38.212  33.922  34.666  1.00  0.00     0.031 C 
ATOM     38  C   UNL A   1      40.057  32.819  35.902  1.00  0.00     0.037 A 
BRANCH  25  39
ATOM     39  C   UNL A   1      44.243  28.299  35.541  1.00  0.00     0.058 A 
ATOM     40  C   UNL A   1      45.593  28.646  35.381  1.00  0.00     0.135 A 
ATOM     41  C   UNL A   1      43.936  27.262  36.438  1.00  0.00     0.135 A 
ATOM     42  F   UNL A   1      45.942  29.620  34.525  1.00  0.00    -0.206 F 
ATOM     43  C   UNL A   1      46.601  27.990  36.080  1.00  0.00     0.059 A 
ATOM     44  C   UNL A   1      44.925  26.603  37.161  1.00  0.00     0.059 A 
ATOM     45  F   UNL A   1      42.659  26.890  36.627  1.00  0.00    -0.206 F 
ATOM     46  C   UNL A   1      46.257  26.972  36.971  1.00  0.00     0.060 A 
BRANCH  46  47
ATOM     47  S   UNL A   1      47.572  26.152  37.900  1.00  0.00     0.124 S 
ATOM     48  O   UNL A   1      48.316  27.295  38.418  1.00  0.00    -0.237 OA
ATOM     49  O   UNL A   1      46.824  25.382  38.889  1.00  0.00    -0.237 OA
ATOM     50  O   UNL A   1      48.262  25.361  36.886  1.00  0.00    -0.744 OA
ENDBRANCH  46  47
ENDBRANCH  25  39
BRANCH  26  51
ATOM     51  C   UNL A   1      36.794  32.974  30.807  1.00  0.00     0.058 A 
ATOM     52  C   UNL A   1      37.016  34.008  29.887  1.00  0.00     0.135 A 
ATOM     53  C   UNL A   1      35.468  32.583  31.050  1.00  0.00     0.135 A 
ATOM     54  F   UNL A   1      38.267  34.415  29.625  1.00  0.00    -0.206 F 
ATOM     55  C   UNL A   1      35.962  34.644  29.241  1.00  0.00     0.059 A 
ATOM     56  C   UNL A   1      34.399  33.188  30.399  1.00  0.00     0.059 A 
ATOM     57  F   UNL A   1      35.207  31.585  31.908  1.00  0.00    -0.206 F 
ATOM     58  C   UNL A   1      34.656  34.227  29.505  1.00  0.00     0.060 A 
BRANCH  58  59
ATOM     59  S   UNL A   1      33.292  35.022  28.629  1.00  0.00     0.124 S 
ATOM     60  O   UNL A   1      34.000  35.994  27.806  1.00  0.00    -0.237 OA
ATOM     61  O   UNL A   1      32.684  33.903  27.917  1.00  0.00    -0.237 OA
ATOM     62  O   UNL A   1      32.482  35.577  29.711  1.00  0.00    -0.744 OA
ENDBRANCH  58  59
ENDBRANCH  26  51
BRANCH  38  63
ATOM     63  C   UNL A   1      39.789  33.760  37.041  1.00  0.00     0.058 A 
ATOM     64  C   UNL A   1      38.962  33.393  38.112  1.00  0.00     0.135 A 
ATOM     65  C   UNL A   1      40.390  35.028  37.074  1.00  0.00     0.135 A 
ATOM     66  F   UNL A   1      38.358  32.194  38.120  1.00  0.00    -0.206 F 
ATOM     67  C   UNL A   1      38.718  34.262  39.169  1.00  0.00     0.059 A 
ATOM     68  C   UNL A   1      40.177  35.906  38.132  1.00  0.00     0.059 A 
ATOM     69  F   UNL A   1      41.196  35.422  36.075  1.00  0.00    -0.206 F 
ATOM     70  C   UNL A   1      39.328  35.518  39.169  1.00  0.00     0.060 A 
BRANCH  70  71
ATOM     71  S   UNL A   1      39.023  36.634  40.556  1.00  0.00     0.124 S 
ATOM     72  O   UNL A   1      38.543  37.828  39.870  1.00  0.00    -0.237 OA
ATOM     73  O   UNL A   1      38.026  35.905  41.335  1.00  0.00    -0.237 OA
ATOM     74  O   UNL A   1      40.334  36.753  41.186  1.00  0.00    -0.744 OA
ENDBRANCH  70  71
ENDBRANCH  38  63
ENDBRANCH  12  13
ENDBRANCH   5   7
ENDBRANCH   2   3
ENDBRANCH   1   2
BRANCH   1  75
ATOM     75  C   UNL A   1      38.937  22.977  26.514  1.00  0.00     0.023 C 
BRANCH  75  76
ATOM     76  C   UNL A   1      38.027  22.304  25.478  1.00  0.00     0.116 C 
BRANCH  76  77
ATOM     77  N   UNL A   1      37.528  23.289  24.538  1.00  0.00    -0.356 N 
ATOM     78  C   UNL A   1      36.393  23.112  23.793  1.00  0.00     0.223 C 
ATOM     79  H   UNL A   1      38.030  24.129  24.431  1.00  0.00     0.163 HD
ATOM     80  O   UNL A   1      36.476  23.009  22.574  1.00  0.00    -0.275 OA
BRANCH  78  81
ATOM     81  C   UNL A   1      35.083  23.068  24.541  1.00  0.00     0.091 C 
ATOM     82  C   UNL A   1      33.985  22.311  23.793  1.00  0.00     0.014 C 
ATOM     83  C   UNL A   1      34.564  24.436  25.023  1.00  0.00     0.091 C 
ATOM     84  C   UNL A   1      32.844  21.981  24.753  1.00  0.00     0.001 C 
ATOM     85  C   UNL A   1      33.456  24.110  26.070  1.00  0.00     0.014 C 
ATOM     86  C   UNL A   1      32.339  23.197  25.528  1.00  0.00     0.001 C 
BRANCH  83  87
ATOM     87  C   UNL A   1      33.976  25.443  23.994  1.00  0.00     0.228 C 
ATOM     88  O   UNL A   1      34.116  25.276  22.777  1.00  0.00    -0.274 OA
ATOM     89  N   UNL A   1      33.106  26.431  24.348  1.00  0.00    -0.326 N 
ATOM     90  H   UNL A   1      32.417  26.624  23.672  1.00  0.00     0.169 HD
BRANCH  89  91
ATOM     91  C   UNL A   1      33.015  27.216  25.494  1.00  0.00     0.041 A 
ATOM     92  C   UNL A   1      31.768  27.394  26.089  1.00  0.00     0.026 A 
ATOM     93  C   UNL A   1      34.096  27.994  25.910  1.00  0.00     0.039 A 
ATOM     94  C   UNL A   1      31.630  28.252  27.182  1.00  0.00     0.003 A 
ATOM     95  C   UNL A   1      33.981  28.842  27.025  1.00  0.00     0.058 A 
ATOM     96  C   UNL A   1      32.735  28.957  27.661  1.00  0.00     0.013 A 
BRANCH  95  97
ATOM     97  C   UNL A   1      35.176  29.593  27.569  1.00  0.00     0.416 C 
ATOM     98  F   UNL A   1      35.142  30.914  27.240  1.00  0.00    -0.166 F 
ATOM     99  F   UNL A   1      35.225  29.553  28.931  1.00  0.00    -0.166 F 
ATOM    100  F   UNL A   1      36.377  29.136  27.125  1.00  0.00    -0.166 F 
ENDBRANCH  95  97
ENDBRANCH  89  91
ENDBRANCH  83  87
ENDBRANCH  78  81
ENDBRANCH  76  77
ENDBRANCH  75  76
ENDBRANCH   1  75
TORSDOF 17
ENDMDL
MODEL 2
REMARK VINA RESULT:     -11.9      6.362     11.863
REMARK SMILES O=C(NCCCCNC(=O)[C@@H]1CCCC[C@@H]1C(=O)Nc1cccc(C(F)(F)F)c1)c1ccc(-c2c3nc(c(-c4c(F)cc(S(=O)(=O)[O-])cc4F)c4ccc([nH]4)c(-c4c(F)cc(S(=O)(=O)[O-])cc4F)c4nc(c(-c5c(F)cc(S(=O)(=O)[O-])cc5F)c5ccc2[nH]5)C=C4)C=C3)cc1
REMARK SMILES IDX 5 1 4 2 3 3 1 4 2 5 30 7 31 8 95 9 32 10 94 11 33 12 34 13
REMARK SMILES IDX 35 14 88 15 36 16 93 17 87 18 89 19 37 20 92 21 86 22 85 23
REMARK SMILES IDX 38 25 72 26 51 27 71 28 52 29 55 30 70 31 90 32 53 33 54 34
REMARK SMILES IDX 69 36 91 37 56 38 39 39 40 40 49 41 41 42 42 43 48 44 50 45
REMARK SMILES IDX 43 46 44 47 45 48 46 49 47 50 73 51 74 52 83 53 75 54 76 55
REMARK SMILES IDX 82 56 84 57 77 58 78 59 79 60 80 61 81 62 57 63 58 64 67 65
REMARK SMILES IDX 59 66 60 67 66 68 68 69 61 70 62 71 63 72 64 73 65 74 6 75
REMARK SMILES IDX 7 76 8 77 9 78 10 80 11 81 12 82 16 83 13 84 15 85 14 86
REMARK SMILES IDX 17 87 18 88 19 89 20 91 21 92 29 93 22 94 24 95 23 96 25 97
REMARK SMILES IDX 26 98 27 99 28 100
REMARK H PARENT 3 6 89 24 55 35 8 79 19 90
REMARK Flexibility Score: inf
ROOT
ATOM      1  C   UNL A   1      34.486  32.331  28.028  1.00  0.00     0.023 C 
ENDROOT
BRANCH   1   2
ATOM      2  C   UNL A   1      35.830  31.919  28.622  1.00  0.00     0.116 C 
BRANCH   2   3
ATOM      3  N   UNL A   1      35.673  31.310  29.928  1.00  0.00    -0.352 N 
ATOM      4  O   UNL A   1      36.068  29.835  31.579  1.00  0.00    -0.269 OA
ATOM      5  C   UNL A   1      36.497  30.431  30.584  1.00  0.00     0.251 C 
ATOM      6  H   UNL A   1      34.856  31.565  30.414  1.00  0.00     0.163 HD
BRANCH   5   7
ATOM      7  C   UNL A   1      37.880  30.189  30.119  1.00  0.00     0.039 A 
ATOM      8  C   UNL A   1      38.945  30.142  31.023  1.00  0.00     0.014 A 
ATOM      9  C   UNL A   1      38.105  29.926  28.765  1.00  0.00     0.014 A 
ATOM     10  C   UNL A   1      40.240  29.915  30.563  1.00  0.00     0.010 A 
ATOM     11  C   UNL A   1      39.396  29.634  28.312  1.00  0.00     0.010 A 
ATOM     12  C   UNL A   1      40.476  29.634  29.207  1.00  0.00    -0.014 A 
BRANCH  12  13
ATOM     13  C   UNL A   1      41.840  29.240  28.767  1.00  0.00     0.031 A 
ATOM     14  C   UNL A   1      42.966  30.234  28.723  1.00  0.00     0.074 A 
ATOM     15  C   UNL A   1      42.052  27.958  28.404  1.00  0.00     0.049 A 
ATOM     16  N   UNL A   1      44.212  30.045  28.369  1.00  0.00    -0.248 NA
ATOM     17  C   UNL A   1      42.657  31.616  29.118  1.00  0.00     0.031 C 
ATOM     18  C   UNL A   1      41.026  26.911  28.372  1.00  0.00     0.029 A 
ATOM     19  N   UNL A   1      43.192  27.313  28.000  1.00  0.00    -0.354 N 
ATOM     20  C   UNL A   1      44.833  31.282  28.480  1.00  0.00     0.074 A 
ATOM     21  C   UNL A   1      43.823  32.222  28.920  1.00  0.00     0.031 C 
ATOM     22  C   UNL A   1      41.590  25.751  28.003  1.00  0.00     0.029 A 
ATOM     23  C   UNL A   1      43.003  25.980  27.726  1.00  0.00     0.049 A 
ATOM     24  H   UNL A   1      44.064  27.764  27.914  1.00  0.00     0.167 HD
ATOM     25  C   UNL A   1      46.128  31.603  28.242  1.00  0.00     0.037 A 
ATOM     26  C   UNL A   1      43.866  25.044  27.288  1.00  0.00     0.037 A 
ATOM     27  C   UNL A   1      47.135  30.658  27.826  1.00  0.00     0.049 A 
ATOM     28  C   UNL A   1      45.297  25.426  27.041  1.00  0.00     0.074 A 
ATOM     29  C   UNL A   1      48.486  30.879  27.613  1.00  0.00     0.029 A 
ATOM     30  N   UNL A   1      46.904  29.318  27.556  1.00  0.00    -0.354 N 
ATOM     31  N   UNL A   1      45.874  26.593  27.198  1.00  0.00    -0.248 NA
ATOM     32  C   UNL A   1      46.192  24.369  26.553  1.00  0.00     0.031 C 
ATOM     33  C   UNL A   1      49.064  29.680  27.184  1.00  0.00     0.029 A 
ATOM     34  C   UNL A   1      48.082  28.704  27.161  1.00  0.00     0.049 A 
ATOM     35  H   UNL A   1      46.032  28.869  27.633  1.00  0.00     0.167 HD
ATOM     36  C   UNL A   1      47.201  26.408  26.835  1.00  0.00     0.074 A 
ATOM     37  C   UNL A   1      47.348  25.014  26.472  1.00  0.00     0.031 C 
ATOM     38  C   UNL A   1      48.208  27.315  26.801  1.00  0.00     0.037 A 
BRANCH  25  39
ATOM     39  C   UNL A   1      46.547  33.034  28.420  1.00  0.00     0.058 A 
ATOM     40  C   UNL A   1      47.034  33.511  29.646  1.00  0.00     0.135 A 
ATOM     41  C   UNL A   1      46.538  33.919  27.329  1.00  0.00     0.135 A 
ATOM     42  F   UNL A   1      47.049  32.709  30.723  1.00  0.00    -0.206 F 
ATOM     43  C   UNL A   1      47.492  34.816  29.788  1.00  0.00     0.059 A 
ATOM     44  C   UNL A   1      47.009  35.224  27.443  1.00  0.00     0.059 A 
ATOM     45  F   UNL A   1      46.081  33.513  26.133  1.00  0.00    -0.206 F 
ATOM     46  C   UNL A   1      47.480  35.665  28.679  1.00  0.00     0.060 A 
BRANCH  46  47
ATOM     47  S   UNL A   1      48.112  37.346  28.868  1.00  0.00     0.124 S 
ATOM     48  O   UNL A   1      46.982  38.011  29.509  1.00  0.00    -0.237 OA
ATOM     49  O   UNL A   1      49.288  37.147  29.708  1.00  0.00    -0.237 OA
ATOM     50  O   UNL A   1      48.389  37.762  27.496  1.00  0.00    -0.744 OA
ENDBRANCH  46  47
ENDBRANCH  25  39
BRANCH  26  51
ATOM     51  C   UNL A   1      43.394  23.657  27.045  1.00  0.00     0.058 A 
ATOM     52  C   UNL A   1      43.146  22.780  28.110  1.00  0.00     0.135 A 
ATOM     53  C   UNL A   1      43.166  23.189  25.742  1.00  0.00     0.135 A 
ATOM     54  F   UNL A   1      43.353  23.184  29.373  1.00  0.00    -0.206 F 
ATOM     55  C   UNL A   1      42.705  21.480  27.894  1.00  0.00     0.059 A 
ATOM     56  C   UNL A   1      42.701  21.900  25.501  1.00  0.00     0.059 A 
ATOM     57  F   UNL A   1      43.369  23.998  24.690  1.00  0.00    -0.206 F 
ATOM     58  C   UNL A   1      42.485  21.049  26.584  1.00  0.00     0.060 A 
BRANCH  58  59
ATOM     59  S   UNL A   1      41.865  19.376  26.307  1.00  0.00     0.124 S 
ATOM     60  O   UNL A   1      42.329  18.691  27.507  1.00  0.00    -0.237 OA
ATOM     61  O   UNL A   1      40.425  19.589  26.208  1.00  0.00    -0.237 OA
ATOM     62  O   UNL A   1      42.517  18.983  25.060  1.00  0.00    -0.744 OA
ENDBRANCH  58  59
ENDBRANCH  26  51
BRANCH  38  63
ATOM     63  C   UNL A   1      49.557  26.818  26.367  1.00  0.00     0.058 A 
ATOM     64  C   UNL A   1      50.473  26.293  27.290  1.00  0.00     0.135 A 
ATOM     65  C   UNL A   1      49.923  26.842  25.013  1.00  0.00     0.135 A 
ATOM     66  F   UNL A   1      50.171  26.257  28.597  1.00  0.00    -0.206 F 
ATOM     67  C   UNL A   1      51.721  25.828  26.887  1.00  0.00     0.059 A 
ATOM     68  C   UNL A   1      51.158  26.363  24.585  1.00  0.00     0.059 A 
ATOM     69  F   UNL A   1      49.078  27.329  24.090  1.00  0.00    -0.206 F 
ATOM     70  C   UNL A   1      52.055  25.870  25.533  1.00  0.00     0.060 A 
BRANCH  70  71
ATOM     71  S   UNL A   1      53.668  25.245  25.015  1.00  0.00     0.124 S 
ATOM     72  O   UNL A   1      53.861  25.947  23.751  1.00  0.00    -0.237 OA
ATOM     73  O   UNL A   1      54.536  25.662  26.112  1.00  0.00    -0.237 OA
ATOM     74  O   UNL A   1      53.453  23.805  24.909  1.00  0.00    -0.744 OA
ENDBRANCH  70  71
ENDBRANCH  38  63
ENDBRANCH  12  13
ENDBRANCH   5   7
ENDBRANCH   2   3
ENDBRANCH   1   2
BRANCH   1  75
ATOM     75  C   UNL A   1      33.591  31.165  27.572  1.00  0.00     0.023 C 
BRANCH  75  76
ATOM     76  C   UNL A   1      34.346  29.914  27.105  1.00  0.00     0.116 C 
BRANCH  76  77
ATOM     77  N   UNL A   1      33.716  28.721  27.638  1.00  0.00    -0.356 N 
ATOM     78  C   UNL A   1      32.510  28.247  27.198  1.00  0.00     0.223 C 
ATOM     79  H   UNL A   1      34.181  28.228  28.351  1.00  0.00     0.163 HD
ATOM     80  O   UNL A   1      31.543  28.253  27.953  1.00  0.00    -0.275 OA
BRANCH  78  81
ATOM     81  C   UNL A   1      32.455  27.721  25.785  1.00  0.00     0.091 C 
ATOM     82  C   UNL A   1      31.033  27.433  25.301  1.00  0.00     0.014 C 
ATOM     83  C   UNL A   1      33.375  26.518  25.502  1.00  0.00     0.091 C 
ATOM     84  C   UNL A   1      31.028  27.285  23.781  1.00  0.00     0.001 C 
ATOM     85  C   UNL A   1      33.446  26.410  23.949  1.00  0.00     0.014 C 
ATOM     86  C   UNL A   1      32.068  26.288  23.271  1.00  0.00     0.001 C 
BRANCH  83  87
ATOM     87  C   UNL A   1      33.007  25.117  26.068  1.00  0.00     0.228 C 
ATOM     88  O   UNL A   1      32.036  24.959  26.818  1.00  0.00    -0.274 OA
ATOM     89  N   UNL A   1      33.582  23.967  25.615  1.00  0.00    -0.326 N 
ATOM     90  H   UNL A   1      32.974  23.192  25.592  1.00  0.00     0.169 HD
BRANCH  89  91
ATOM     91  C   UNL A   1      34.874  23.690  25.177  1.00  0.00     0.041 A 
ATOM     92  C   UNL A   1      35.044  23.023  23.966  1.00  0.00     0.026 A 
ATOM     93  C   UNL A   1      35.965  23.864  26.029  1.00  0.00     0.039 A 
ATOM     94  C   UNL A   1      36.323  22.648  23.548  1.00  0.00     0.003 A 
ATOM     95  C   UNL A   1      37.261  23.515  25.613  1.00  0.00     0.058 A 
ATOM     96  C   UNL A   1      37.428  22.910  24.358  1.00  0.00     0.013 A 
BRANCH  95  97
ATOM     97  C   UNL A   1      38.471  23.816  26.470  1.00  0.00     0.416 C 
ATOM     98  F   UNL A   1      39.324  24.688  25.862  1.00  0.00    -0.166 F 
ATOM     99  F   UNL A   1      38.126  24.401  27.651  1.00  0.00    -0.166 F 
ATOM    100  F   UNL A   1      39.224  22.727  26.782  1.00  0.00    -0.166 F 
ENDBRANCH  95  97
ENDBRANCH  89  91
ENDBRANCH  83  87
ENDBRANCH  78  81
ENDBRANCH  76  77
ENDBRANCH  75  76
ENDBRANCH   1  75
TORSDOF 17
ENDMDL
MODEL 3
REMARK VINA RESULT:     -11.7      5.039      9.794
REMARK SMILES O=C(NCCCCNC(=O)[C@@H]1CCCC[C@@H]1C(=O)Nc1cccc(C(F)(F)F)c1)c1ccc(-c2c3nc(c(-c4c(F)cc(S(=O)(=O)[O-])cc4F)c4ccc([nH]4)c(-c4c(F)cc(S(=O)(=O)[O-])cc4F)c4nc(c(-c5c(F)cc(S(=O)(=O)[O-])cc5F)c5ccc2[nH]5)C=C4)C=C3)cc1
REMARK SMILES IDX 5 1 4 2 3 3 1 4 2 5 30 7 31 8 95 9 32 10 94 11 33 12 34 13
REMARK SMILES IDX 35 14 88 15 36 16 93 17 87 18 89 19 37 20 92 21 86 22 85 23
REMARK SMILES IDX 38 25 72 26 51 27 71 28 52 29 55 30 70 31 90 32 53 33 54 34
REMARK SMILES IDX 69 36 91 37 56 38 39 39 40 40 49 41 41 42 42 43 48 44 50 45
REMARK SMILES IDX 43 46 44 47 45 48 46 49 47 50 73 51 74 52 83 53 75 54 76 55
REMARK SMILES IDX 82 56 84 57 77 58 78 59 79 60 80 61 81 62 57 63 58 64 67 65
REMARK SMILES IDX 59 66 60 67 66 68 68 69 61 70 62 71 63 72 64 73 65 74 6 75
REMARK SMILES IDX 7 76 8 77 9 78 10 80 11 81 12 82 16 83 13 84 15 85 14 86
REMARK SMILES IDX 17 87 18 88 19 89 20 91 21 92 29 93 22 94 24 95 23 96 25 97
REMARK SMILES IDX 26 98 27 99 28 100
REMARK H PARENT 3 6 89 24 55 35 8 79 19 90
REMARK Flexibility Score: inf
ROOT
ATOM      1  C   UNL A   1      32.786  28.389  26.158  1.00  0.00     0.023 C 
ENDROOT
BRANCH   1   2
ATOM      2  C   UNL A   1      33.781  28.622  27.292  1.00  0.00     0.116 C 
BRANCH   2   3
ATOM      3  N   UNL A   1      33.724  29.984  27.782  1.00  0.00    -0.352 N 
ATOM      4  O   UNL A   1      34.330  31.759  29.024  1.00  0.00    -0.269 OA
ATOM      5  C   UNL A   1      34.664  30.699  28.481  1.00  0.00     0.251 C 
ATOM      6  H   UNL A   1      32.888  30.467  27.585  1.00  0.00     0.163 HD
BRANCH   5   7
ATOM      7  C   UNL A   1      36.059  30.221  28.592  1.00  0.00     0.039 A 
ATOM      8  C   UNL A   1      36.965  30.396  27.542  1.00  0.00     0.014 A 
ATOM      9  C   UNL A   1      36.490  29.660  29.797  1.00  0.00     0.014 A 
ATOM     10  C   UNL A   1      38.274  29.936  27.667  1.00  0.00     0.010 A 
ATOM     11  C   UNL A   1      37.822  29.256  29.946  1.00  0.00     0.010 A 
ATOM     12  C   UNL A   1      38.723  29.385  28.879  1.00  0.00    -0.014 A 
BRANCH  12  13
ATOM     13  C   UNL A   1      40.161  29.047  29.042  1.00  0.00     0.031 A 
ATOM     14  C   UNL A   1      40.699  27.700  28.648  1.00  0.00     0.074 A 
ATOM     15  C   UNL A   1      40.986  29.982  29.555  1.00  0.00     0.049 A 
ATOM     16  N   UNL A   1      41.927  27.254  28.721  1.00  0.00    -0.248 NA
ATOM     17  C   UNL A   1      39.738  26.725  28.109  1.00  0.00     0.031 C 
ATOM     18  C   UNL A   1      40.572  31.314  30.007  1.00  0.00     0.029 A 
ATOM     19  N   UNL A   1      42.339  29.965  29.779  1.00  0.00    -0.354 N 
ATOM     20  C   UNL A   1      41.888  25.945  28.258  1.00  0.00     0.074 A 
ATOM     21  C   UNL A   1      40.509  25.660  27.919  1.00  0.00     0.031 C 
ATOM     22  C   UNL A   1      41.650  31.995  30.422  1.00  0.00     0.029 A 
ATOM     23  C   UNL A   1      42.823  31.136  30.312  1.00  0.00     0.049 A 
ATOM     24  H   UNL A   1      42.908  29.188  29.578  1.00  0.00     0.167 HD
ATOM     25  C   UNL A   1      42.910  25.066  28.123  1.00  0.00     0.037 A 
ATOM     26  C   UNL A   1      44.071  31.480  30.684  1.00  0.00     0.037 A 
ATOM     27  C   UNL A   1      44.285  25.363  28.441  1.00  0.00     0.049 A 
ATOM     28  C   UNL A   1      45.184  30.487  30.515  1.00  0.00     0.074 A 
ATOM     29  C   UNL A   1      45.398  24.553  28.285  1.00  0.00     0.029 A 
ATOM     30  N   UNL A   1      44.735  26.558  28.981  1.00  0.00    -0.354 N 
ATOM     31  N   UNL A   1      45.132  29.271  30.030  1.00  0.00    -0.248 NA
ATOM     32  C   UNL A   1      46.522  30.911  30.947  1.00  0.00     0.031 C 
ATOM     33  C   UNL A   1      46.515  25.247  28.762  1.00  0.00     0.029 A 
ATOM     34  C   UNL A   1      46.105  26.501  29.182  1.00  0.00     0.049 A 
ATOM     35  H   UNL A   1      44.165  27.333  29.191  1.00  0.00     0.167 HD
ATOM     36  C   UNL A   1      46.432  28.785  30.092  1.00  0.00     0.074 A 
ATOM     37  C   UNL A   1      47.251  29.846  30.641  1.00  0.00     0.031 C 
ATOM     38  C   UNL A   1      46.904  27.566  29.731  1.00  0.00     0.037 A 
BRANCH  25  39
ATOM     39  C   UNL A   1      42.595  23.690  27.611  1.00  0.00     0.058 A 
ATOM     40  C   UNL A   1      42.539  23.411  26.237  1.00  0.00     0.135 A 
ATOM     41  C   UNL A   1      42.428  22.618  28.505  1.00  0.00     0.135 A 
ATOM     42  F   UNL A   1      42.677  24.402  25.342  1.00  0.00    -0.206 F 
ATOM     43  C   UNL A   1      42.323  22.120  25.766  1.00  0.00     0.059 A 
ATOM     44  C   UNL A   1      42.229  21.317  28.056  1.00  0.00     0.059 A 
ATOM     45  F   UNL A   1      42.472  22.831  29.830  1.00  0.00    -0.206 F 
ATOM     46  C   UNL A   1      42.173  21.078  26.683  1.00  0.00     0.060 A 
BRANCH  46  47
ATOM     47  S   UNL A   1      41.929  19.402  26.057  1.00  0.00     0.124 S 
ATOM     48  O   UNL A   1      42.775  19.410  24.868  1.00  0.00    -0.237 OA
ATOM     49  O   UNL A   1      42.404  18.580  27.166  1.00  0.00    -0.237 OA
ATOM     50  O   UNL A   1      40.493  19.338  25.805  1.00  0.00    -0.744 OA
ENDBRANCH  46  47
ENDBRANCH  25  39
BRANCH  26  51
ATOM     51  C   UNL A   1      44.327  32.823  31.263  1.00  0.00     0.058 A 
ATOM     52  C   UNL A   1      44.662  33.911  30.446  1.00  0.00     0.135 A 
ATOM     53  C   UNL A   1      44.225  33.046  32.645  1.00  0.00     0.135 A 
ATOM     54  F   UNL A   1      44.773  33.744  29.119  1.00  0.00    -0.206 F 
ATOM     55  C   UNL A   1      44.905  35.173  30.978  1.00  0.00     0.059 A 
ATOM     56  C   UNL A   1      44.438  34.304  33.199  1.00  0.00     0.059 A 
ATOM     57  F   UNL A   1      43.886  32.039  33.466  1.00  0.00    -0.206 F 
ATOM     58  C   UNL A   1      44.790  35.359  32.357  1.00  0.00     0.060 A 
BRANCH  58  59
ATOM     59  S   UNL A   1      45.058  37.007  33.042  1.00  0.00     0.124 S 
ATOM     60  O   UNL A   1      46.422  37.286  32.607  1.00  0.00    -0.237 OA
ATOM     61  O   UNL A   1      44.009  37.788  32.395  1.00  0.00    -0.237 OA
ATOM     62  O   UNL A   1      44.879  36.804  34.477  1.00  0.00    -0.744 OA
ENDBRANCH  58  59
ENDBRANCH  26  51
BRANCH  38  63
ATOM     63  C   UNL A   1      48.375  27.326  29.910  1.00  0.00     0.058 A 
ATOM     64  C   UNL A   1      49.299  27.689  28.919  1.00  0.00     0.135 A 
ATOM     65  C   UNL A   1      48.866  26.755  31.093  1.00  0.00     0.135 A 
ATOM     66  F   UNL A   1      48.877  28.230  27.765  1.00  0.00    -0.206 F 
ATOM     67  C   UNL A   1      50.662  27.471  29.085  1.00  0.00     0.059 A 
ATOM     68  C   UNL A   1      50.227  26.547  31.291  1.00  0.00     0.059 A 
ATOM     69  F   UNL A   1      48.021  26.397  32.074  1.00  0.00    -0.206 F 
ATOM     70  C   UNL A   1      51.116  26.897  30.274  1.00  0.00     0.060 A 
BRANCH  70  71
ATOM     71  S   UNL A   1      52.890  26.636  30.492  1.00  0.00     0.124 S 
ATOM     72  O   UNL A   1      53.320  27.943  30.978  1.00  0.00    -0.237 OA
ATOM     73  O   UNL A   1      52.932  25.552  31.469  1.00  0.00    -0.237 OA
ATOM     74  O   UNL A   1      53.346  26.281  29.152  1.00  0.00    -0.744 OA
ENDBRANCH  70  71
ENDBRANCH  38  63
ENDBRANCH  12  13
ENDBRANCH   5   7
ENDBRANCH   2   3
ENDBRANCH   1   2
BRANCH   1  75
ATOM     75  C   UNL A   1      31.891  27.149  26.322  1.00  0.00     0.023 C 
BRANCH  75  76
ATOM     76  C   UNL A   1      32.644  25.815  26.416  1.00  0.00     0.116 C 
BRANCH  76  77
ATOM     77  N   UNL A   1      33.589  25.696  25.323  1.00  0.00    -0.356 N 
ATOM     78  C   UNL A   1      34.290  24.552  25.054  1.00  0.00     0.223 C 
ATOM     79  H   UNL A   1      33.733  26.479  24.743  1.00  0.00     0.163 HD
ATOM     80  O   UNL A   1      35.509  24.539  25.190  1.00  0.00    -0.275 OA
BRANCH  78  81
ATOM     81  C   UNL A   1      33.496  23.358  24.582  1.00  0.00     0.091 C 
ATOM     82  C   UNL A   1      34.371  22.163  24.199  1.00  0.00     0.014 C 
ATOM     83  C   UNL A   1      32.473  23.657  23.468  1.00  0.00     0.091 C 
ATOM     84  C   UNL A   1      33.510  20.905  24.111  1.00  0.00     0.001 C 
ATOM     85  C   UNL A   1      31.535  22.413  23.428  1.00  0.00     0.014 C 
ATOM     86  C   UNL A   1      32.279  21.080  23.222  1.00  0.00     0.001 C 
BRANCH  83  87
ATOM     87  C   UNL A   1      32.969  23.936  22.022  1.00  0.00     0.228 C 
ATOM     88  O   UNL A   1      33.508  23.054  21.343  1.00  0.00    -0.274 OA
ATOM     89  N   UNL A   1      32.655  25.078  21.345  1.00  0.00    -0.326 N 
ATOM     90  H   UNL A   1      32.518  24.950  20.378  1.00  0.00     0.169 HD
BRANCH  89  91
ATOM     91  C   UNL A   1      32.492  26.392  21.775  1.00  0.00     0.041 A 
ATOM     92  C   UNL A   1      33.624  27.171  22.000  1.00  0.00     0.026 A 
ATOM     93  C   UNL A   1      31.242  26.851  22.193  1.00  0.00     0.039 A 
ATOM     94  C   UNL A   1      33.494  28.459  22.523  1.00  0.00     0.003 A 
ATOM     95  C   UNL A   1      31.090  28.154  22.696  1.00  0.00     0.058 A 
ATOM     96  C   UNL A   1      32.232  28.956  22.851  1.00  0.00     0.013 A 
BRANCH  95  97
ATOM     97  C   UNL A   1      29.726  28.715  23.032  1.00  0.00     0.416 C 
ATOM     98  F   UNL A   1      29.053  29.122  21.920  1.00  0.00    -0.166 F 
ATOM     99  F   UNL A   1      28.927  27.787  23.630  1.00  0.00    -0.166 F 
ATOM    100  F   UNL A   1      29.751  29.795  23.860  1.00  0.00    -0.166 F 
ENDBRANCH  95  97
ENDBRANCH  89  91
ENDBRANCH  83  87
ENDBRANCH  78  81
ENDBRANCH  76  77
ENDBRANCH  75  76
ENDBRANCH   1  75
TORSDOF 17
ENDMDL
