MODEL 1
REMARK VINA RESULT:     -11.1      0.000      0.000
REMARK SMILES Cc1cc(N[C@@H]2C=C[C@@H](C(=O)NCCCCNC(=O)c3ccc(-c4c5nc(c(-c6c(F)cc(S(=O)(=O)[O-])cc6F)c6ccc([nH]6)c(-c6c(F)cc(S(=O)(=O)[O-])cc6F)c6nc(c(-c7c(F)cc(S(=O)(=O)[O-])cc7F)c7ccc4[nH]7)C=C6)C=C5)cc3)C2)nc(C)n1
REMARK SMILES IDX 15 1 14 2 13 3 12 4 10 5 11 6 9 8 6 9 7 10 86 11 8 12 5 13
REMARK SMILES IDX 4 15 1 16 2 17 3 18 90 19 88 20 87 21 89 22 16 23 17 24
REMARK SMILES IDX 18 25 19 27 20 28 21 29 85 30 22 31 84 32 23 33 24 34 25 35
REMARK SMILES IDX 78 36 26 37 83 38 77 39 79 40 27 41 82 42 76 43 75 44 28 46
REMARK SMILES IDX 62 47 41 48 61 49 42 50 45 51 60 52 80 53 43 54 44 55 59 57
REMARK SMILES IDX 81 58 46 59 29 60 30 61 39 62 31 63 32 64 38 65 40 66 33 67
REMARK SMILES IDX 34 68 35 69 36 70 37 71 63 72 64 73 73 74 65 75 66 76 72 77
REMARK SMILES IDX 74 78 67 79 68 80 69 81 70 82 71 83 47 84 48 85 57 86 49 87
REMARK SMILES IDX 50 88 56 89 58 90 51 91 52 92 53 93 54 94 55 95
REMARK H PARENT 12 7 5 14 17 26 79 45 45 56
REMARK Flexibility Score: inf
ROOT
ATOM      1  C   UNL A   1      35.287  33.292  28.106  1.00  0.00     0.023 C 
ENDROOT
BRANCH   1   2
ATOM      2  C   UNL A   1      34.563  34.621  27.893  1.00  0.00     0.023 C 
BRANCH   2   3
ATOM      3  C   UNL A   1      33.297  34.788  28.727  1.00  0.00     0.116 C 
BRANCH   3   4
ATOM      4  N   UNL A   1      33.126  36.156  29.170  1.00  0.00    -0.356 N 
ATOM      5  C   UNL A   1      33.096  36.684  30.420  1.00  0.00     0.227 C 
ATOM      6  O   UNL A   1      32.966  37.908  30.521  1.00  0.00    -0.274 OA
ATOM      7  H   UNL A   1      33.010  36.811  28.444  1.00  0.00     0.163 HD
BRANCH   5   8
ATOM      8  C   UNL A   1      33.233  35.826  31.673  1.00  0.00     0.103 C 
ATOM      9  C   UNL A   1      35.008  35.293  33.281  1.00  0.00     0.104 C 
ATOM     10  C   UNL A   1      34.040  36.287  33.833  1.00  0.00    -0.006 C 
ATOM     11  C   UNL A   1      34.568  35.082  31.824  1.00  0.00     0.046 C 
ATOM     12  C   UNL A   1      33.082  36.601  32.951  1.00  0.00    -0.016 C 
BRANCH   9  13
ATOM     13  N   UNL A   1      35.045  34.088  34.075  1.00  0.00    -0.364 N 
ATOM     14  H   UNL A   1      34.178  33.834  34.468  1.00  0.00     0.162 HD
BRANCH  13  15
ATOM     15  C   UNL A   1      36.072  33.242  34.378  1.00  0.00     0.130 A 
ATOM     16  C   UNL A   1      38.243  30.497  33.060  1.00  0.00     0.067 C 
ATOM     17  C   UNL A   1      37.648  31.528  33.971  1.00  0.00     0.043 A 
ATOM     18  C   UNL A   1      36.562  32.264  33.545  1.00  0.00     0.070 A 
ATOM     19  N   UNL A   1      38.204  31.707  35.180  1.00  0.00    -0.238 NA
ATOM     20  C   UNL A   1      37.644  32.654  35.951  1.00  0.00     0.127 A 
ATOM     21  N   UNL A   1      36.603  33.430  35.596  1.00  0.00    -0.216 NA
ATOM     22  C   UNL A   1      38.212  32.859  37.319  1.00  0.00     0.090 C 
ENDBRANCH  13  15
ENDBRANCH   9  13
ENDBRANCH   5   8
ENDBRANCH   3   4
ENDBRANCH   2   3
ENDBRANCH   1   2
BRANCH   1  23
ATOM     23  C   UNL A   1      34.630  32.364  29.122  1.00  0.00     0.116 C 
BRANCH  23  24
ATOM     24  N   UNL A   1      33.980  31.225  28.491  1.00  0.00    -0.352 N 
ATOM     25  C   UNL A   1      34.556  30.065  28.039  1.00  0.00     0.251 C 
ATOM     26  H   UNL A   1      33.004  31.296  28.376  1.00  0.00     0.163 HD
ATOM     27  O   UNL A   1      33.907  29.251  27.391  1.00  0.00    -0.269 OA
BRANCH  25  28
ATOM     28  C   UNL A   1      35.980  29.834  28.332  1.00  0.00     0.039 A 
ATOM     29  C   UNL A   1      36.342  29.308  29.573  1.00  0.00     0.014 A 
ATOM     30  C   UNL A   1      36.940  30.077  27.343  1.00  0.00     0.014 A 
ATOM     31  C   UNL A   1      37.675  28.976  29.810  1.00  0.00     0.010 A 
ATOM     32  C   UNL A   1      38.257  29.698  27.563  1.00  0.00     0.010 A 
ATOM     33  C   UNL A   1      38.635  29.152  28.800  1.00  0.00    -0.014 A 
BRANCH  33  34
ATOM     34  C   UNL A   1      40.058  28.822  29.035  1.00  0.00     0.031 A 
ATOM     35  C   UNL A   1      40.957  29.856  29.647  1.00  0.00     0.074 A 
ATOM     36  C   UNL A   1      40.543  27.624  28.659  1.00  0.00     0.049 A 
ATOM     37  N   UNL A   1      42.240  29.798  29.884  1.00  0.00    -0.248 NA
ATOM     38  C   UNL A   1      40.330  31.133  30.026  1.00  0.00     0.031 C 
ATOM     39  C   UNL A   1      39.767  26.554  28.030  1.00  0.00     0.029 A 
ATOM     40  N   UNL A   1      41.811  27.109  28.746  1.00  0.00    -0.354 N 
ATOM     41  C   UNL A   1      42.576  31.027  30.435  1.00  0.00     0.074 A 
ATOM     42  C   UNL A   1      41.373  31.831  30.449  1.00  0.00     0.031 C 
ATOM     43  C   UNL A   1      40.573  25.503  27.802  1.00  0.00     0.029 A 
ATOM     44  C   UNL A   1      41.924  25.835  28.245  1.00  0.00     0.049 A 
ATOM     45  H   UNL A   1      42.569  27.606  29.131  1.00  0.00     0.167 HD
ATOM     46  C   UNL A   1      43.773  31.438  30.913  1.00  0.00     0.037 A 
ATOM     47  C   UNL A   1      43.000  25.028  28.156  1.00  0.00     0.037 A 
ATOM     48  C   UNL A   1      44.960  30.628  30.914  1.00  0.00     0.049 A 
ATOM     49  C   UNL A   1      44.326  25.517  28.669  1.00  0.00     0.074 A 
ATOM     50  C   UNL A   1      46.213  30.935  31.411  1.00  0.00     0.029 A 
ATOM     51  N   UNL A   1      45.038  29.346  30.391  1.00  0.00    -0.354 N 
ATOM     52  N   UNL A   1      44.620  26.668  29.225  1.00  0.00    -0.248 NA
ATOM     53  C   UNL A   1      45.466  24.599  28.545  1.00  0.00     0.031 C 
ATOM     54  C   UNL A   1      47.058  29.848  31.164  1.00  0.00     0.029 A 
ATOM     55  C   UNL A   1      46.322  28.852  30.539  1.00  0.00     0.049 A 
ATOM     56  H   UNL A   1      44.290  28.859  29.975  1.00  0.00     0.167 HD
ATOM     57  C   UNL A   1      45.974  26.609  29.529  1.00  0.00     0.074 A 
ATOM     58  C   UNL A   1      46.440  25.303  29.108  1.00  0.00     0.031 C 
ATOM     59  C   UNL A   1      46.763  27.550  30.106  1.00  0.00     0.037 A 
BRANCH  46  60
ATOM     60  C   UNL A   1      43.842  32.824  31.487  1.00  0.00     0.058 A 
ATOM     61  C   UNL A   1      44.168  33.929  30.684  1.00  0.00     0.135 A 
ATOM     62  C   UNL A   1      43.580  33.053  32.846  1.00  0.00     0.135 A 
ATOM     63  F   UNL A   1      44.450  33.759  29.382  1.00  0.00    -0.206 F 
ATOM     64  C   UNL A   1      44.257  35.211  31.214  1.00  0.00     0.059 A 
ATOM     65  C   UNL A   1      43.641  34.331  33.394  1.00  0.00     0.059 A 
ATOM     66  F   UNL A   1      43.272  32.028  33.657  1.00  0.00    -0.206 F 
ATOM     67  C   UNL A   1      43.995  35.401  32.572  1.00  0.00     0.060 A 
BRANCH  67  68
ATOM     68  S   UNL A   1      44.122  37.070  33.247  1.00  0.00     0.124 S 
ATOM     69  O   UNL A   1      43.954  37.883  32.046  1.00  0.00    -0.237 OA
ATOM     70  O   UNL A   1      43.015  37.107  34.198  1.00  0.00    -0.237 OA
ATOM     71  O   UNL A   1      45.455  37.096  33.840  1.00  0.00    -0.744 OA
ENDBRANCH  67  68
ENDBRANCH  46  60
BRANCH  47  72
ATOM     72  C   UNL A   1      42.858  23.666  27.582  1.00  0.00     0.058 A 
ATOM     73  C   UNL A   1      43.089  23.437  26.217  1.00  0.00     0.135 A 
ATOM     74  C   UNL A   1      42.515  22.566  28.382  1.00  0.00     0.135 A 
ATOM     75  F   UNL A   1      43.413  24.461  25.412  1.00  0.00    -0.206 F 
ATOM     76  C   UNL A   1      42.982  22.165  25.664  1.00  0.00     0.059 A 
ATOM     77  C   UNL A   1      42.417  21.281  27.855  1.00  0.00     0.059 A 
ATOM     78  F   UNL A   1      42.296  22.734  29.696  1.00  0.00    -0.206 F 
ATOM     79  C   UNL A   1      42.649  21.093  26.493  1.00  0.00     0.060 A 
BRANCH  79  80
ATOM     80  S   UNL A   1      42.576  19.437  25.774  1.00  0.00     0.124 S 
ATOM     81  O   UNL A   1      42.999  18.610  26.898  1.00  0.00    -0.237 OA
ATOM     82  O   UNL A   1      41.170  19.330  25.395  1.00  0.00    -0.237 OA
ATOM     83  O   UNL A   1      43.513  19.515  24.658  1.00  0.00    -0.744 OA
ENDBRANCH  79  80
ENDBRANCH  47  72
BRANCH  59  84
ATOM     84  C   UNL A   1      48.208  27.202  30.318  1.00  0.00     0.058 A 
ATOM     85  C   UNL A   1      49.204  27.664  29.444  1.00  0.00     0.135 A 
ATOM     86  C   UNL A   1      48.605  26.461  31.441  1.00  0.00     0.135 A 
ATOM     87  F   UNL A   1      48.871  28.371  28.353  1.00  0.00    -0.206 F 
ATOM     88  C   UNL A   1      50.548  27.392  29.672  1.00  0.00     0.059 A 
ATOM     89  C   UNL A   1      49.947  26.195  31.699  1.00  0.00     0.059 A 
ATOM     90  F   UNL A   1      47.690  26.005  32.311  1.00  0.00    -0.206 F 
ATOM     91  C   UNL A   1      50.910  26.658  30.803  1.00  0.00     0.060 A 
BRANCH  91  92
ATOM     92  S   UNL A   1      52.663  26.353  31.112  1.00  0.00     0.124 S 
ATOM     93  O   UNL A   1      52.606  25.233  32.045  1.00  0.00    -0.237 OA
ATOM     94  O   UNL A   1      53.167  26.043  29.778  1.00  0.00    -0.237 OA
ATOM     95  O   UNL A   1      53.133  27.617  31.673  1.00  0.00    -0.744 OA
ENDBRANCH  91  92
ENDBRANCH  59  84
ENDBRANCH  33  34
ENDBRANCH  25  28
ENDBRANCH  23  24
ENDBRANCH   1  23
TORSDOF 16
ENDMDL
MODEL 2
REMARK VINA RESULT:     -10.9      3.635      6.477
REMARK SMILES Cc1cc(N[C@@H]2C=C[C@@H](C(=O)NCCCCNC(=O)c3ccc(-c4c5nc(c(-c6c(F)cc(S(=O)(=O)[O-])cc6F)c6ccc([nH]6)c(-c6c(F)cc(S(=O)(=O)[O-])cc6F)c6nc(c(-c7c(F)cc(S(=O)(=O)[O-])cc7F)c7ccc4[nH]7)C=C6)C=C5)cc3)C2)nc(C)n1
REMARK SMILES IDX 15 1 14 2 13 3 12 4 10 5 11 6 9 8 6 9 7 10 86 11 8 12 5 13
REMARK SMILES IDX 4 15 1 16 2 17 3 18 90 19 88 20 87 21 89 22 16 23 17 24
REMARK SMILES IDX 18 25 19 27 20 28 21 29 85 30 22 31 84 32 23 33 24 34 25 35
REMARK SMILES IDX 78 36 26 37 83 38 77 39 79 40 27 41 82 42 76 43 75 44 28 46
REMARK SMILES IDX 62 47 41 48 61 49 42 50 45 51 60 52 80 53 43 54 44 55 59 57
REMARK SMILES IDX 81 58 46 59 29 60 30 61 39 62 31 63 32 64 38 65 40 66 33 67
REMARK SMILES IDX 34 68 35 69 36 70 37 71 63 72 64 73 73 74 65 75 66 76 72 77
REMARK SMILES IDX 74 78 67 79 68 80 69 81 70 82 71 83 47 84 48 85 57 86 49 87
REMARK SMILES IDX 50 88 56 89 58 90 51 91 52 92 53 93 54 94 55 95
REMARK H PARENT 12 7 5 14 17 26 79 45 45 56
REMARK Flexibility Score: inf
ROOT
ATOM      1  C   UNL A   1      33.975  28.222  25.409  1.00  0.00     0.023 C 
ENDROOT
BRANCH   1   2
ATOM      2  C   UNL A   1      33.125  29.214  24.615  1.00  0.00     0.023 C 
BRANCH   2   3
ATOM      3  C   UNL A   1      33.093  28.953  23.114  1.00  0.00     0.116 C 
BRANCH   3   4
ATOM      4  N   UNL A   1      31.810  29.301  22.539  1.00  0.00    -0.356 N 
ATOM      5  C   UNL A   1      30.696  28.550  22.343  1.00  0.00     0.227 C 
ATOM      6  O   UNL A   1      29.709  29.107  21.855  1.00  0.00    -0.274 OA
ATOM      7  H   UNL A   1      31.734  30.235  22.240  1.00  0.00     0.163 HD
BRANCH   5   8
ATOM      8  C   UNL A   1      30.629  27.073  22.720  1.00  0.00     0.103 C 
ATOM      9  C   UNL A   1      32.192  25.376  23.553  1.00  0.00     0.104 C 
ATOM     10  C   UNL A   1      31.303  25.891  24.637  1.00  0.00    -0.006 C 
ATOM     11  C   UNL A   1      31.852  26.232  22.325  1.00  0.00     0.046 C 
ATOM     12  C   UNL A   1      30.464  26.836  24.194  1.00  0.00    -0.016 C 
BRANCH   9  13
ATOM     13  N   UNL A   1      32.023  23.955  23.358  1.00  0.00    -0.364 N 
ATOM     14  H   UNL A   1      31.239  23.710  22.816  1.00  0.00     0.162 HD
BRANCH  13  15
ATOM     15  C   UNL A   1      32.761  22.894  23.795  1.00  0.00     0.130 A 
ATOM     16  C   UNL A   1      32.619  19.290  24.786  1.00  0.00     0.067 C 
ATOM     17  C   UNL A   1      33.137  20.664  24.486  1.00  0.00     0.043 A 
ATOM     18  C   UNL A   1      32.253  21.658  24.119  1.00  0.00     0.070 A 
ATOM     19  N   UNL A   1      34.458  20.882  24.580  1.00  0.00    -0.238 NA
ATOM     20  C   UNL A   1      34.874  22.125  24.286  1.00  0.00     0.127 A 
ATOM     21  N   UNL A   1      34.077  23.138  23.894  1.00  0.00    -0.216 NA
ATOM     22  C   UNL A   1      36.335  22.417  24.413  1.00  0.00     0.090 C 
ENDBRANCH  13  15
ENDBRANCH   9  13
ENDBRANCH   5   8
ENDBRANCH   3   4
ENDBRANCH   2   3
ENDBRANCH   1   2
BRANCH   1  23
ATOM     23  C   UNL A   1      33.802  28.302  26.921  1.00  0.00     0.116 C 
BRANCH  23  24
ATOM     24  N   UNL A   1      33.585  29.665  27.383  1.00  0.00    -0.352 N 
ATOM     25  C   UNL A   1      34.451  30.471  28.077  1.00  0.00     0.251 C 
ATOM     26  H   UNL A   1      32.708  30.058  27.169  1.00  0.00     0.163 HD
ATOM     27  O   UNL A   1      34.080  31.547  28.533  1.00  0.00    -0.269 OA
BRANCH  25  28
ATOM     28  C   UNL A   1      35.831  30.000  28.281  1.00  0.00     0.039 A 
ATOM     29  C   UNL A   1      36.738  30.074  27.223  1.00  0.00     0.014 A 
ATOM     30  C   UNL A   1      36.231  29.552  29.544  1.00  0.00     0.014 A 
ATOM     31  C   UNL A   1      38.073  29.743  27.445  1.00  0.00     0.010 A 
ATOM     32  C   UNL A   1      37.571  29.270  29.776  1.00  0.00     0.010 A 
ATOM     33  C   UNL A   1      38.500  29.357  28.727  1.00  0.00    -0.014 A 
BRANCH  33  34
ATOM     34  C   UNL A   1      39.909  28.985  28.981  1.00  0.00     0.031 A 
ATOM     35  C   UNL A   1      40.839  30.004  29.571  1.00  0.00     0.074 A 
ATOM     36  C   UNL A   1      40.355  27.762  28.641  1.00  0.00     0.049 A 
ATOM     37  N   UNL A   1      42.118  29.910  29.817  1.00  0.00    -0.248 NA
ATOM     38  C   UNL A   1      40.254  31.313  29.911  1.00  0.00     0.031 C 
ATOM     39  C   UNL A   1      39.546  26.702  28.036  1.00  0.00     0.029 A 
ATOM     40  N   UNL A   1      41.604  27.206  28.750  1.00  0.00    -0.354 N 
ATOM     41  C   UNL A   1      42.492  31.141  30.338  1.00  0.00     0.074 A 
ATOM     42  C   UNL A   1      41.318  31.986  30.321  1.00  0.00     0.031 C 
ATOM     43  C   UNL A   1      40.317  25.618  27.842  1.00  0.00     0.029 A 
ATOM     44  C   UNL A   1      41.676  25.916  28.286  1.00  0.00     0.049 A 
ATOM     45  H   UNL A   1      42.376  27.688  29.128  1.00  0.00     0.167 HD
ATOM     46  C   UNL A   1      43.700  31.525  30.812  1.00  0.00     0.037 A 
ATOM     47  C   UNL A   1      42.725  25.071  28.225  1.00  0.00     0.037 A 
ATOM     48  C   UNL A   1      44.858  30.674  30.843  1.00  0.00     0.049 A 
ATOM     49  C   UNL A   1      44.063  25.529  28.734  1.00  0.00     0.074 A 
ATOM     50  C   UNL A   1      46.119  30.953  31.341  1.00  0.00     0.029 A 
ATOM     51  N   UNL A   1      44.896  29.377  30.356  1.00  0.00    -0.354 N 
ATOM     52  N   UNL A   1      44.394  26.684  29.261  1.00  0.00    -0.248 NA
ATOM     53  C   UNL A   1      45.173  24.569  28.643  1.00  0.00     0.031 C 
ATOM     54  C   UNL A   1      46.927  29.831  31.129  1.00  0.00     0.029 A 
ATOM     55  C   UNL A   1      46.162  28.844  30.526  1.00  0.00     0.049 A 
ATOM     56  H   UNL A   1      44.134  28.904  29.948  1.00  0.00     0.167 HD
ATOM     57  C   UNL A   1      45.743  26.587  29.575  1.00  0.00     0.074 A 
ATOM     58  C   UNL A   1      46.167  25.255  29.193  1.00  0.00     0.031 C 
ATOM     59  C   UNL A   1      46.560  27.517  30.131  1.00  0.00     0.037 A 
BRANCH  46  60
ATOM     60  C   UNL A   1      43.813  32.922  31.348  1.00  0.00     0.058 A 
ATOM     61  C   UNL A   1      43.439  33.228  32.667  1.00  0.00     0.135 A 
ATOM     62  C   UNL A   1      44.300  33.963  30.544  1.00  0.00     0.135 A 
ATOM     63  F   UNL A   1      42.946  32.271  33.470  1.00  0.00    -0.206 F 
ATOM     64  C   UNL A   1      43.519  34.524  33.162  1.00  0.00     0.059 A 
ATOM     65  C   UNL A   1      44.410  35.264  31.026  1.00  0.00     0.059 A 
ATOM     66  F   UNL A   1      44.662  33.724  29.274  1.00  0.00    -0.206 F 
ATOM     67  C   UNL A   1      44.003  35.537  32.333  1.00  0.00     0.060 A 
BRANCH  67  68
ATOM     68  S   UNL A   1      44.095  37.216  32.987  1.00  0.00     0.124 S 
ATOM     69  O   UNL A   1      43.808  38.009  31.795  1.00  0.00    -0.237 OA
ATOM     70  O   UNL A   1      43.053  37.210  34.010  1.00  0.00    -0.237 OA
ATOM     71  O   UNL A   1      45.461  37.311  33.490  1.00  0.00    -0.744 OA
ENDBRANCH  67  68
ENDBRANCH  46  60
BRANCH  47  72
ATOM     72  C   UNL A   1      42.539  23.699  27.688  1.00  0.00     0.058 A 
ATOM     73  C   UNL A   1      42.608  23.457  26.308  1.00  0.00     0.135 A 
ATOM     74  C   UNL A   1      42.316  22.604  28.536  1.00  0.00     0.135 A 
ATOM     75  F   UNL A   1      42.813  24.475  25.458  1.00  0.00    -0.206 F 
ATOM     76  C   UNL A   1      42.458  22.176  25.785  1.00  0.00     0.059 A 
ATOM     77  C   UNL A   1      42.179  21.311  28.038  1.00  0.00     0.059 A 
ATOM     78  F   UNL A   1      42.254  22.785  29.864  1.00  0.00    -0.206 F 
ATOM     79  C   UNL A   1      42.248  21.109  26.661  1.00  0.00     0.060 A 
BRANCH  79  80
ATOM     80  S   UNL A   1      42.119  19.443  25.974  1.00  0.00     0.124 S 
ATOM     81  O   UNL A   1      40.690  19.346  25.703  1.00  0.00    -0.237 OA
ATOM     82  O   UNL A   1      42.987  19.526  24.804  1.00  0.00    -0.237 OA
ATOM     83  O   UNL A   1      42.617  18.597  27.055  1.00  0.00    -0.744 OA
ENDBRANCH  79  80
ENDBRANCH  47  72
BRANCH  59  84
ATOM     84  C   UNL A   1      47.991  27.126  30.362  1.00  0.00     0.058 A 
ATOM     85  C   UNL A   1      48.980  27.381  29.401  1.00  0.00     0.135 A 
ATOM     86  C   UNL A   1      48.386  26.556  31.583  1.00  0.00     0.135 A 
ATOM     87  F   UNL A   1      48.648  27.918  28.216  1.00  0.00    -0.206 F 
ATOM     88  C   UNL A   1      50.315  27.073  29.637  1.00  0.00     0.059 A 
ATOM     89  C   UNL A   1      49.720  26.259  31.848  1.00  0.00     0.059 A 
ATOM     90  F   UNL A   1      47.478  26.301  32.538  1.00  0.00    -0.206 F 
ATOM     91  C   UNL A   1      50.676  26.514  30.865  1.00  0.00     0.060 A 
BRANCH  91  92
ATOM     92  S   UNL A   1      52.419  26.164  31.177  1.00  0.00     0.124 S 
ATOM     93  O   UNL A   1      52.782  27.257  32.072  1.00  0.00    -0.237 OA
ATOM     94  O   UNL A   1      52.369  24.837  31.783  1.00  0.00    -0.237 OA
ATOM     95  O   UNL A   1      53.019  26.214  29.846  1.00  0.00    -0.744 OA
ENDBRANCH  91  92
ENDBRANCH  59  84
ENDBRANCH  33  34
ENDBRANCH  25  28
ENDBRANCH  23  24
ENDBRANCH   1  23
TORSDOF 16
ENDMDL
MODEL 3
REMARK VINA RESULT:     -10.7      5.392     12.347
REMARK SMILES Cc1cc(N[C@@H]2C=C[C@@H](C(=O)NCCCCNC(=O)c3ccc(-c4c5nc(c(-c6c(F)cc(S(=O)(=O)[O-])cc6F)c6ccc([nH]6)c(-c6c(F)cc(S(=O)(=O)[O-])cc6F)c6nc(c(-c7c(F)cc(S(=O)(=O)[O-])cc7F)c7ccc4[nH]7)C=C6)C=C5)cc3)C2)nc(C)n1
REMARK SMILES IDX 15 1 14 2 13 3 12 4 10 5 11 6 9 8 6 9 7 10 86 11 8 12 5 13
REMARK SMILES IDX 4 15 1 16 2 17 3 18 90 19 88 20 87 21 89 22 16 23 17 24
REMARK SMILES IDX 18 25 19 27 20 28 21 29 85 30 22 31 84 32 23 33 24 34 25 35
REMARK SMILES IDX 78 36 26 37 83 38 77 39 79 40 27 41 82 42 76 43 75 44 28 46
REMARK SMILES IDX 62 47 41 48 61 49 42 50 45 51 60 52 80 53 43 54 44 55 59 57
REMARK SMILES IDX 81 58 46 59 29 60 30 61 39 62 31 63 32 64 38 65 40 66 33 67
REMARK SMILES IDX 34 68 35 69 36 70 37 71 63 72 64 73 73 74 65 75 66 76 72 77
REMARK SMILES IDX 74 78 67 79 68 80 69 81 70 82 71 83 47 84 48 85 57 86 49 87
REMARK SMILES IDX 50 88 56 89 58 90 51 91 52 92 53 93 54 94 55 95
REMARK H PARENT 12 7 5 14 17 26 79 45 45 56
REMARK Flexibility Score: inf
ROOT
ATOM      1  C   UNL A   1      37.247  23.355  26.319  1.00  0.00     0.023 C 
ENDROOT
BRANCH   1   2
ATOM      2  C   UNL A   1      37.302  22.698  24.940  1.00  0.00     0.023 C 
BRANCH   2   3
ATOM      3  C   UNL A   1      36.147  21.746  24.652  1.00  0.00     0.116 C 
BRANCH   3   4
ATOM      4  N   UNL A   1      35.455  21.363  25.865  1.00  0.00    -0.356 N 
ATOM      5  C   UNL A   1      34.250  21.748  26.356  1.00  0.00     0.227 C 
ATOM      6  O   UNL A   1      33.873  21.237  27.414  1.00  0.00    -0.274 OA
ATOM      7  H   UNL A   1      35.940  20.716  26.428  1.00  0.00     0.163 HD
BRANCH   5   8
ATOM      8  C   UNL A   1      33.362  22.761  25.639  1.00  0.00     0.103 C 
ATOM      9  C   UNL A   1      31.110  23.686  25.946  1.00  0.00     0.104 C 
ATOM     10  C   UNL A   1      32.168  24.640  26.394  1.00  0.00    -0.006 C 
ATOM     11  C   UNL A   1      31.870  22.404  25.573  1.00  0.00     0.046 C 
ATOM     12  C   UNL A   1      33.399  24.132  26.253  1.00  0.00    -0.016 C 
BRANCH   9  13
ATOM     13  N   UNL A   1      30.311  24.240  24.879  1.00  0.00    -0.364 N 
ATOM     14  H   UNL A   1      29.384  23.911  24.853  1.00  0.00     0.162 HD
BRANCH  13  15
ATOM     15  C   UNL A   1      30.619  25.139  23.900  1.00  0.00     0.130 A 
ATOM     16  C   UNL A   1      32.538  25.646  20.729  1.00  0.00     0.067 C 
ATOM     17  C   UNL A   1      31.647  25.894  21.909  1.00  0.00     0.043 A 
ATOM     18  C   UNL A   1      31.486  24.906  22.858  1.00  0.00     0.070 A 
ATOM     19  N   UNL A   1      31.023  27.079  21.998  1.00  0.00    -0.238 NA
ATOM     20  C   UNL A   1      30.224  27.246  23.065  1.00  0.00     0.127 A 
ATOM     21  N   UNL A   1      29.995  26.321  24.016  1.00  0.00    -0.216 NA
ATOM     22  C   UNL A   1      29.539  28.566  23.219  1.00  0.00     0.090 C 
ENDBRANCH  13  15
ENDBRANCH   9  13
ENDBRANCH   5   8
ENDBRANCH   3   4
ENDBRANCH   2   3
ENDBRANCH   1   2
BRANCH   1  23
ATOM     23  C   UNL A   1      38.218  24.514  26.512  1.00  0.00     0.116 C 
BRANCH  23  24
ATOM     24  N   UNL A   1      39.574  24.173  26.107  1.00  0.00    -0.352 N 
ATOM     25  C   UNL A   1      40.752  24.723  26.545  1.00  0.00     0.251 C 
ATOM     26  H   UNL A   1      39.656  23.457  25.434  1.00  0.00     0.163 HD
ATOM     27  O   UNL A   1      41.817  24.442  26.005  1.00  0.00    -0.269 OA
BRANCH  25  28
ATOM     28  C   UNL A   1      40.701  25.678  27.665  1.00  0.00     0.039 A 
ATOM     29  C   UNL A   1      41.630  26.718  27.714  1.00  0.00     0.014 A 
ATOM     30  C   UNL A   1      39.686  25.571  28.621  1.00  0.00     0.014 A 
ATOM     31  C   UNL A   1      41.511  27.691  28.704  1.00  0.00     0.010 A 
ATOM     32  C   UNL A   1      39.539  26.569  29.575  1.00  0.00     0.010 A 
ATOM     33  C   UNL A   1      40.455  27.631  29.628  1.00  0.00    -0.014 A 
BRANCH  33  34
ATOM     34  C   UNL A   1      40.319  28.645  30.697  1.00  0.00     0.031 A 
ATOM     35  C   UNL A   1      41.183  28.538  31.920  1.00  0.00     0.074 A 
ATOM     36  C   UNL A   1      39.398  29.620  30.589  1.00  0.00     0.049 A 
ATOM     37  N   UNL A   1      41.187  29.278  32.996  1.00  0.00    -0.248 NA
ATOM     38  C   UNL A   1      42.162  27.437  31.941  1.00  0.00     0.031 C 
ATOM     39  C   UNL A   1      38.486  29.804  29.459  1.00  0.00     0.029 A 
ATOM     40  N   UNL A   1      39.072  30.638  31.449  1.00  0.00    -0.354 N 
ATOM     41  C   UNL A   1      42.161  28.734  33.822  1.00  0.00     0.074 A 
ATOM     42  C   UNL A   1      42.692  27.569  33.147  1.00  0.00     0.031 C 
ATOM     43  C   UNL A   1      37.714  30.880  29.689  1.00  0.00     0.029 A 
ATOM     44  C   UNL A   1      38.060  31.445  30.990  1.00  0.00     0.049 A 
ATOM     45  H   UNL A   1      39.523  30.777  32.314  1.00  0.00     0.167 HD
ATOM     46  C   UNL A   1      42.594  29.182  35.023  1.00  0.00     0.037 A 
ATOM     47  C   UNL A   1      37.479  32.519  31.559  1.00  0.00     0.037 A 
ATOM     48  C   UNL A   1      42.076  30.351  35.679  1.00  0.00     0.049 A 
ATOM     49  C   UNL A   1      37.959  32.982  32.907  1.00  0.00     0.074 A 
ATOM     50  C   UNL A   1      42.474  30.914  36.879  1.00  0.00     0.029 A 
ATOM     51  N   UNL A   1      41.045  31.138  35.188  1.00  0.00    -0.354 N 
ATOM     52  N   UNL A   1      38.910  32.482  33.660  1.00  0.00    -0.248 NA
ATOM     53  C   UNL A   1      37.290  34.157  33.483  1.00  0.00     0.031 C 
ATOM     54  C   UNL A   1      41.663  32.027  37.127  1.00  0.00     0.029 A 
ATOM     55  C   UNL A   1      40.781  32.174  36.067  1.00  0.00     0.049 A 
ATOM     56  H   UNL A   1      40.571  30.983  34.339  1.00  0.00     0.167 HD
ATOM     57  C   UNL A   1      38.963  33.286  34.791  1.00  0.00     0.074 A 
ATOM     58  C   UNL A   1      37.957  34.315  34.620  1.00  0.00     0.031 C 
ATOM     59  C   UNL A   1      39.770  33.183  35.876  1.00  0.00     0.037 A 
BRANCH  46  60
ATOM     60  C   UNL A   1      43.694  28.406  35.688  1.00  0.00     0.058 A 
ATOM     61  C   UNL A   1      45.044  28.668  35.404  1.00  0.00     0.135 A 
ATOM     62  C   UNL A   1      43.401  27.396  36.616  1.00  0.00     0.135 A 
ATOM     63  F   UNL A   1      45.376  29.609  34.505  1.00  0.00    -0.206 F 
ATOM     64  C   UNL A   1      46.066  27.938  35.998  1.00  0.00     0.059 A 
ATOM     65  C   UNL A   1      44.408  26.667  37.241  1.00  0.00     0.059 A 
ATOM     66  F   UNL A   1      42.126  27.102  36.915  1.00  0.00    -0.206 F 
ATOM     67  C   UNL A   1      45.738  26.936  36.913  1.00  0.00     0.060 A 
BRANCH  67  68
ATOM     68  S   UNL A   1      47.076  25.991  37.671  1.00  0.00     0.124 S 
ATOM     69  O   UNL A   1      46.704  26.043  39.082  1.00  0.00    -0.237 OA
ATOM     70  O   UNL A   1      46.941  24.688  37.028  1.00  0.00    -0.237 OA
ATOM     71  O   UNL A   1      48.272  26.745  37.309  1.00  0.00    -0.744 OA
ENDBRANCH  67  68
ENDBRANCH  46  60
BRANCH  47  72
ATOM     72  C   UNL A   1      36.400  33.244  30.842  1.00  0.00     0.058 A 
ATOM     73  C   UNL A   1      35.064  33.124  31.251  1.00  0.00     0.135 A 
ATOM     74  C   UNL A   1      36.680  34.085  29.755  1.00  0.00     0.135 A 
ATOM     75  F   UNL A   1      34.748  32.325  32.282  1.00  0.00    -0.206 F 
ATOM     76  C   UNL A   1      34.040  33.811  30.606  1.00  0.00     0.059 A 
ATOM     77  C   UNL A   1      35.675  34.795  29.103  1.00  0.00     0.059 A 
ATOM     78  F   UNL A   1      37.945  34.241  29.335  1.00  0.00    -0.206 F 
ATOM     79  C   UNL A   1      34.358  34.647  29.535  1.00  0.00     0.060 A 
BRANCH  79  80
ATOM     80  S   UNL A   1      33.028  35.582  28.746  1.00  0.00     0.124 S 
ATOM     81  O   UNL A   1      33.776  36.592  28.008  1.00  0.00    -0.237 OA
ATOM     82  O   UNL A   1      32.370  34.559  27.941  1.00  0.00    -0.237 OA
ATOM     83  O   UNL A   1      32.248  36.074  29.879  1.00  0.00    -0.744 OA
ENDBRANCH  79  80
ENDBRANCH  47  72
BRANCH  59  84
ATOM     84  C   UNL A   1      39.603  34.210  36.959  1.00  0.00     0.058 A 
ATOM     85  C   UNL A   1      38.899  33.918  38.136  1.00  0.00     0.135 A 
ATOM     86  C   UNL A   1      40.212  35.470  36.847  1.00  0.00     0.135 A 
ATOM     87  F   UNL A   1      38.294  32.729  38.285  1.00  0.00    -0.206 F 
ATOM     88  C   UNL A   1      38.793  34.847  39.165  1.00  0.00     0.059 A 
ATOM     89  C   UNL A   1      40.136  36.407  37.873  1.00  0.00     0.059 A 
ATOM     90  F   UNL A   1      40.905  35.792  35.743  1.00  0.00    -0.206 F 
ATOM     91  C   UNL A   1      39.417  36.089  39.025  1.00  0.00     0.060 A 
BRANCH  91  92
ATOM     92  S   UNL A   1      39.313  37.268  40.388  1.00  0.00     0.124 S 
ATOM     93  O   UNL A   1      40.719  37.591  40.605  1.00  0.00    -0.237 OA
ATOM     94  O   UNL A   1      38.498  38.335  39.817  1.00  0.00    -0.237 OA
ATOM     95  O   UNL A   1      38.672  36.501  41.452  1.00  0.00    -0.744 OA
ENDBRANCH  91  92
ENDBRANCH  59  84
ENDBRANCH  33  34
ENDBRANCH  25  28
ENDBRANCH  23  24
ENDBRANCH   1  23
TORSDOF 16
ENDMDL
