MODEL 1
REMARK VINA RESULT:     -10.8      0.000      0.000
REMARK SMILES CC(=O)N(C)n1cnn(CC(=O)NCCCCNC(=O)c2ccc(-c3c4nc(c(-c5c(F)cc(S(=O)(=O)[O-])cc5F)c5ccc([nH]5)c(-c5c(F)cc(S(=O)(=O)[O-])cc5F)c5nc(c(-c6c(F)cc(S(=O)(=O)[O-])cc6F)c6ccc3[nH]6)C=C5)C=C4)cc2)c1=S
REMARK SMILES IDX 15 1 14 2 13 3 11 4 12 5 10 7 9 8 6 9 7 10 87 11 8 12 88 13
REMARK SMILES IDX 4 14 5 15 2 16 1 17 3 18 16 19 17 20 18 21 19 22 20 24 21 25
REMARK SMILES IDX 22 26 86 27 23 28 85 29 24 30 25 31 26 32 79 33 27 34 84 35
REMARK SMILES IDX 78 36 80 37 28 38 83 39 77 40 76 41 29 43 63 44 42 45 62 46
REMARK SMILES IDX 43 47 46 48 61 49 81 50 44 51 45 52 60 54 82 55 47 56 30 57
REMARK SMILES IDX 31 58 40 59 32 60 33 61 39 62 41 63 34 64 35 65 36 66 37 67
REMARK SMILES IDX 38 68 64 69 65 70 74 71 66 72 67 73 73 74 75 75 68 76 69 77
REMARK SMILES IDX 70 78 71 79 72 80 48 81 49 82 58 83 50 84 51 85 57 86 59 87
REMARK SMILES IDX 52 88 53 89 54 90 55 91 56 92
REMARK H PARENT 13 6 18 23 80 42 46 53
REMARK Flexibility Score: inf
ROOT
ATOM      1  C   UNL A   1      41.323  21.330  27.197  1.00  0.00     0.023 C 
ENDROOT
BRANCH   1   2
ATOM      2  C   UNL A   1      40.022  22.016  26.770  1.00  0.00     0.116 C 
BRANCH   2   3
ATOM      3  N   UNL A   1      39.192  21.185  25.925  1.00  0.00    -0.354 N 
ATOM      4  C   UNL A   1      37.963  21.438  25.382  1.00  0.00     0.241 C 
ATOM      5  O   UNL A   1      37.520  20.605  24.585  1.00  0.00    -0.273 OA
ATOM      6  H   UNL A   1      39.570  20.302  25.709  1.00  0.00     0.163 HD
BRANCH   4   7
ATOM      7  C   UNL A   1      37.234  22.768  25.604  1.00  0.00     0.247 C 
BRANCH   7   8
ATOM      8  N   UNL A   1      35.899  22.831  25.020  1.00  0.00    -0.227 N 
ATOM      9  N   UNL A   1      33.758  22.628  24.505  1.00  0.00    -0.211 N 
ATOM     10  C   UNL A   1      34.466  23.189  23.498  1.00  0.00     0.247 A 
ATOM     11  C   UNL A   1      34.657  22.403  25.538  1.00  0.00     0.217 A 
ATOM     12  N   UNL A   1      35.725  23.353  23.747  1.00  0.00    -0.158 NA
ATOM     13  S   UNL A   1      34.361  21.798  27.065  1.00  0.00    -0.037 S 
BRANCH   9  14
ATOM     14  N   UNL A   1      32.417  22.226  24.391  1.00  0.00    -0.250 N 
ATOM     15  C   UNL A   1      31.435  23.274  24.607  1.00  0.00     0.176 C 
BRANCH  14  16
ATOM     16  C   UNL A   1      32.158  20.894  24.106  1.00  0.00     0.238 C 
ATOM     17  C   UNL A   1      32.161  20.502  22.651  1.00  0.00     0.116 C 
ATOM     18  O   UNL A   1      31.962  20.039  24.973  1.00  0.00    -0.273 OA
ENDBRANCH  14  16
ENDBRANCH   9  14
ENDBRANCH   7   8
ENDBRANCH   4   7
ENDBRANCH   2   3
ENDBRANCH   1   2
BRANCH   1  19
ATOM     19  C   UNL A   1      41.767  20.131  26.346  1.00  0.00     0.023 C 
BRANCH  19  20
ATOM     20  C   UNL A   1      43.118  19.535  26.719  1.00  0.00     0.116 C 
BRANCH  20  21
ATOM     21  N   UNL A   1      44.064  19.473  25.597  1.00  0.00    -0.352 N 
ATOM     22  C   UNL A   1      44.432  20.493  24.737  1.00  0.00     0.251 C 
ATOM     23  H   UNL A   1      44.488  18.600  25.437  1.00  0.00     0.163 HD
ATOM     24  O   UNL A   1      44.890  20.239  23.616  1.00  0.00    -0.269 OA
BRANCH  22  25
ATOM     25  C   UNL A   1      44.289  21.887  25.184  1.00  0.00     0.039 A 
ATOM     26  C   UNL A   1      43.385  22.790  24.619  1.00  0.00     0.014 A 
ATOM     27  C   UNL A   1      45.087  22.268  26.254  1.00  0.00     0.014 A 
ATOM     28  C   UNL A   1      43.246  24.051  25.203  1.00  0.00     0.010 A 
ATOM     29  C   UNL A   1      44.776  23.389  26.963  1.00  0.00     0.010 A 
ATOM     30  C   UNL A   1      43.941  24.334  26.390  1.00  0.00    -0.014 A 
BRANCH  30  31
ATOM     31  C   UNL A   1      43.778  25.580  27.123  1.00  0.00     0.031 A 
ATOM     32  C   UNL A   1      44.790  26.618  26.805  1.00  0.00     0.074 A 
ATOM     33  C   UNL A   1      42.655  25.854  27.828  1.00  0.00     0.049 A 
ATOM     34  N   UNL A   1      45.742  27.041  27.567  1.00  0.00    -0.248 NA
ATOM     35  C   UNL A   1      44.867  27.128  25.426  1.00  0.00     0.031 C 
ATOM     36  C   UNL A   1      41.436  25.045  27.964  1.00  0.00     0.029 A 
ATOM     37  N   UNL A   1      42.318  26.991  28.490  1.00  0.00    -0.354 N 
ATOM     38  C   UNL A   1      46.379  28.052  26.855  1.00  0.00     0.074 A 
ATOM     39  C   UNL A   1      45.954  27.901  25.489  1.00  0.00     0.031 C 
ATOM     40  C   UNL A   1      40.431  25.807  28.445  1.00  0.00     0.029 A 
ATOM     41  C   UNL A   1      40.969  27.101  28.816  1.00  0.00     0.049 A 
ATOM     42  H   UNL A   1      42.978  27.684  28.723  1.00  0.00     0.167 HD
ATOM     43  C   UNL A   1      46.998  29.081  27.500  1.00  0.00     0.037 A 
ATOM     44  C   UNL A   1      40.343  28.192  29.330  1.00  0.00     0.037 A 
ATOM     45  C   UNL A   1      47.147  28.788  28.906  1.00  0.00     0.049 A 
ATOM     46  C   UNL A   1      41.407  29.035  29.944  1.00  0.00     0.074 A 
ATOM     47  C   UNL A   1      47.765  27.780  29.623  1.00  0.00     0.029 A 
ATOM     48  N   UNL A   1      46.256  29.373  29.776  1.00  0.00    -0.354 N 
ATOM     49  N   UNL A   1      42.105  28.665  30.985  1.00  0.00    -0.248 NA
ATOM     50  C   UNL A   1      42.035  30.045  29.105  1.00  0.00     0.031 C 
ATOM     51  C   UNL A   1      46.870  27.492  30.695  1.00  0.00     0.029 A 
ATOM     52  C   UNL A   1      45.807  28.396  30.627  1.00  0.00     0.049 A 
ATOM     53  H   UNL A   1      45.990  30.322  29.786  1.00  0.00     0.167 HD
ATOM     54  C   UNL A   1      43.407  29.053  30.700  1.00  0.00     0.074 A 
ATOM     55  C   UNL A   1      43.288  29.969  29.564  1.00  0.00     0.031 C 
ATOM     56  C   UNL A   1      44.480  28.373  31.205  1.00  0.00     0.037 A 
BRANCH  43  57
ATOM     57  C   UNL A   1      47.131  30.488  26.964  1.00  0.00     0.058 A 
ATOM     58  C   UNL A   1      48.392  31.119  27.011  1.00  0.00     0.135 A 
ATOM     59  C   UNL A   1      46.040  31.335  26.669  1.00  0.00     0.135 A 
ATOM     60  F   UNL A   1      49.502  30.413  27.279  1.00  0.00    -0.206 F 
ATOM     61  C   UNL A   1      48.545  32.498  26.866  1.00  0.00     0.059 A 
ATOM     62  C   UNL A   1      46.178  32.703  26.463  1.00  0.00     0.059 A 
ATOM     63  F   UNL A   1      44.775  30.901  26.661  1.00  0.00    -0.206 F 
ATOM     64  C   UNL A   1      47.426  33.283  26.609  1.00  0.00     0.060 A 
BRANCH  64  65
ATOM     65  S   UNL A   1      47.604  35.073  26.531  1.00  0.00     0.124 S 
ATOM     66  O   UNL A   1      48.765  35.212  25.660  1.00  0.00    -0.237 OA
ATOM     67  O   UNL A   1      46.323  35.478  25.961  1.00  0.00    -0.237 OA
ATOM     68  O   UNL A   1      47.811  35.450  27.926  1.00  0.00    -0.744 OA
ENDBRANCH  64  65
ENDBRANCH  43  57
BRANCH  44  69
ATOM     69  C   UNL A   1      38.974  28.698  29.031  1.00  0.00     0.058 A 
ATOM     70  C   UNL A   1      38.013  28.855  30.046  1.00  0.00     0.135 A 
ATOM     71  C   UNL A   1      38.665  29.303  27.794  1.00  0.00     0.135 A 
ATOM     72  F   UNL A   1      38.222  28.328  31.261  1.00  0.00    -0.206 F 
ATOM     73  C   UNL A   1      36.847  29.614  29.866  1.00  0.00     0.059 A 
ATOM     74  C   UNL A   1      37.508  30.054  27.588  1.00  0.00     0.059 A 
ATOM     75  F   UNL A   1      39.528  29.260  26.768  1.00  0.00    -0.206 F 
ATOM     76  C   UNL A   1      36.616  30.231  28.637  1.00  0.00     0.060 A 
BRANCH  76  77
ATOM     77  S   UNL A   1      35.218  31.367  28.455  1.00  0.00     0.124 S 
ATOM     78  O   UNL A   1      35.782  32.407  27.602  1.00  0.00    -0.237 OA
ATOM     79  O   UNL A   1      34.206  30.516  27.838  1.00  0.00    -0.237 OA
ATOM     80  O   UNL A   1      34.930  31.775  29.827  1.00  0.00    -0.744 OA
ENDBRANCH  76  77
ENDBRANCH  44  69
BRANCH  56  81
ATOM     81  C   UNL A   1      44.241  27.357  32.298  1.00  0.00     0.058 A 
ATOM     82  C   UNL A   1      44.097  25.973  32.088  1.00  0.00     0.135 A 
ATOM     83  C   UNL A   1      44.333  27.789  33.629  1.00  0.00     0.135 A 
ATOM     84  F   UNL A   1      44.107  25.458  30.853  1.00  0.00    -0.206 F 
ATOM     85  C   UNL A   1      44.008  25.069  33.149  1.00  0.00     0.059 A 
ATOM     86  C   UNL A   1      44.279  26.904  34.702  1.00  0.00     0.059 A 
ATOM     87  F   UNL A   1      44.536  29.089  33.900  1.00  0.00    -0.206 F 
ATOM     88  C   UNL A   1      44.101  25.545  34.456  1.00  0.00     0.060 A 
BRANCH  88  89
ATOM     89  S   UNL A   1      44.054  24.371  35.828  1.00  0.00     0.124 S 
ATOM     90  O   UNL A   1      43.816  25.245  36.971  1.00  0.00    -0.237 OA
ATOM     91  O   UNL A   1      42.947  23.494  35.459  1.00  0.00    -0.237 OA
ATOM     92  O   UNL A   1      45.373  23.745  35.785  1.00  0.00    -0.744 OA
ENDBRANCH  88  89
ENDBRANCH  56  81
ENDBRANCH  30  31
ENDBRANCH  22  25
ENDBRANCH  20  21
ENDBRANCH  19  20
ENDBRANCH   1  19
TORSDOF 17
ENDMDL
MODEL 2
REMARK VINA RESULT:     -10.7      2.948      4.352
REMARK SMILES CC(=O)N(C)n1cnn(CC(=O)NCCCCNC(=O)c2ccc(-c3c4nc(c(-c5c(F)cc(S(=O)(=O)[O-])cc5F)c5ccc([nH]5)c(-c5c(F)cc(S(=O)(=O)[O-])cc5F)c5nc(c(-c6c(F)cc(S(=O)(=O)[O-])cc6F)c6ccc3[nH]6)C=C5)C=C4)cc2)c1=S
REMARK SMILES IDX 15 1 14 2 13 3 11 4 12 5 10 7 9 8 6 9 7 10 87 11 8 12 88 13
REMARK SMILES IDX 4 14 5 15 2 16 1 17 3 18 16 19 17 20 18 21 19 22 20 24 21 25
REMARK SMILES IDX 22 26 86 27 23 28 85 29 24 30 25 31 26 32 79 33 27 34 84 35
REMARK SMILES IDX 78 36 80 37 28 38 83 39 77 40 76 41 29 43 63 44 42 45 62 46
REMARK SMILES IDX 43 47 46 48 61 49 81 50 44 51 45 52 60 54 82 55 47 56 30 57
REMARK SMILES IDX 31 58 40 59 32 60 33 61 39 62 41 63 34 64 35 65 36 66 37 67
REMARK SMILES IDX 38 68 64 69 65 70 74 71 66 72 67 73 73 74 75 75 68 76 69 77
REMARK SMILES IDX 70 78 71 79 72 80 48 81 49 82 58 83 50 84 51 85 57 86 59 87
REMARK SMILES IDX 52 88 53 89 54 90 55 91 56 92
REMARK H PARENT 13 6 18 23 80 42 46 53
REMARK Flexibility Score: inf
ROOT
ATOM      1  C   UNL A   1      36.652  22.737  23.484  1.00  0.00     0.023 C 
ENDROOT
BRANCH   1   2
ATOM      2  C   UNL A   1      35.215  23.260  23.559  1.00  0.00     0.116 C 
BRANCH   2   3
ATOM      3  N   UNL A   1      34.518  22.839  24.755  1.00  0.00    -0.354 N 
ATOM      4  C   UNL A   1      33.920  23.588  25.731  1.00  0.00     0.241 C 
ATOM      5  O   UNL A   1      33.276  22.977  26.590  1.00  0.00    -0.273 OA
ATOM      6  H   UNL A   1      34.467  21.865  24.887  1.00  0.00     0.163 HD
BRANCH   4   7
ATOM      7  C   UNL A   1      33.892  25.120  25.678  1.00  0.00     0.247 C 
BRANCH   7   8
ATOM      8  N   UNL A   1      32.568  25.693  25.462  1.00  0.00    -0.227 N 
ATOM      9  N   UNL A   1      30.704  26.580  24.667  1.00  0.00    -0.211 N 
ATOM     10  C   UNL A   1      30.756  26.646  26.016  1.00  0.00     0.247 A 
ATOM     11  C   UNL A   1      31.864  25.934  24.261  1.00  0.00     0.217 A 
ATOM     12  N   UNL A   1      31.816  26.124  26.545  1.00  0.00    -0.158 NA
ATOM     13  S   UNL A   1      32.331  25.498  22.720  1.00  0.00    -0.037 S 
BRANCH   9  14
ATOM     14  N   UNL A   1      29.723  27.214  23.888  1.00  0.00    -0.250 N 
ATOM     15  C   UNL A   1      28.433  26.546  23.853  1.00  0.00     0.176 C 
BRANCH  14  16
ATOM     16  C   UNL A   1      30.070  28.381  23.225  1.00  0.00     0.238 C 
ATOM     17  C   UNL A   1      30.641  29.492  24.069  1.00  0.00     0.116 C 
ATOM     18  O   UNL A   1      29.961  28.528  22.007  1.00  0.00    -0.273 OA
ENDBRANCH  14  16
ENDBRANCH   9  14
ENDBRANCH   7   8
ENDBRANCH   4   7
ENDBRANCH   2   3
ENDBRANCH   1   2
BRANCH   1  19
ATOM     19  C   UNL A   1      37.116  21.862  24.659  1.00  0.00     0.023 C 
BRANCH  19  20
ATOM     20  C   UNL A   1      37.916  22.589  25.733  1.00  0.00     0.116 C 
BRANCH  20  21
ATOM     21  N   UNL A   1      39.063  21.820  26.232  1.00  0.00    -0.352 N 
ATOM     22  C   UNL A   1      40.301  22.296  26.624  1.00  0.00     0.251 C 
ATOM     23  H   UNL A   1      38.936  20.846  26.296  1.00  0.00     0.163 HD
ATOM     24  O   UNL A   1      41.292  21.554  26.624  1.00  0.00    -0.269 OA
BRANCH  22  25
ATOM     25  C   UNL A   1      40.420  23.695  27.061  1.00  0.00     0.039 A 
ATOM     26  C   UNL A   1      39.390  24.633  26.938  1.00  0.00     0.014 A 
ATOM     27  C   UNL A   1      41.621  24.047  27.660  1.00  0.00     0.014 A 
ATOM     28  C   UNL A   1      39.568  25.898  27.499  1.00  0.00     0.010 A 
ATOM     29  C   UNL A   1      41.695  25.180  28.413  1.00  0.00     0.010 A 
ATOM     30  C   UNL A   1      40.726  26.156  28.251  1.00  0.00    -0.014 A 
BRANCH  30  31
ATOM     31  C   UNL A   1      40.947  27.409  28.956  1.00  0.00     0.031 A 
ATOM     32  C   UNL A   1      41.998  28.273  28.362  1.00  0.00     0.074 A 
ATOM     33  C   UNL A   1      40.093  27.856  29.907  1.00  0.00     0.049 A 
ATOM     34  N   UNL A   1      43.163  28.535  28.850  1.00  0.00    -0.248 NA
ATOM     35  C   UNL A   1      41.806  28.771  26.989  1.00  0.00     0.031 C 
ATOM     36  C   UNL A   1      38.835  27.251  30.368  1.00  0.00     0.029 A 
ATOM     37  N   UNL A   1      40.113  29.029  30.591  1.00  0.00    -0.354 N 
ATOM     38  C   UNL A   1      43.752  29.434  27.967  1.00  0.00     0.074 A 
ATOM     39  C   UNL A   1      42.981  29.360  26.754  1.00  0.00     0.031 C 
ATOM     40  C   UNL A   1      38.114  28.162  31.056  1.00  0.00     0.029 A 
ATOM     41  C   UNL A   1      38.923  29.352  31.236  1.00  0.00     0.049 A 
ATOM     42  H   UNL A   1      40.910  29.606  30.629  1.00  0.00     0.167 HD
ATOM     43  C   UNL A   1      44.665  30.348  28.402  1.00  0.00     0.037 A 
ATOM     44  C   UNL A   1      38.623  30.526  31.850  1.00  0.00     0.037 A 
ATOM     45  C   UNL A   1      45.113  30.028  29.737  1.00  0.00     0.049 A 
ATOM     46  C   UNL A   1      39.924  31.185  32.152  1.00  0.00     0.074 A 
ATOM     47  C   UNL A   1      45.724  28.931  30.315  1.00  0.00     0.029 A 
ATOM     48  N   UNL A   1      44.570  30.745  30.779  1.00  0.00    -0.354 N 
ATOM     49  N   UNL A   1      40.794  30.703  33.001  1.00  0.00    -0.248 NA
ATOM     50  C   UNL A   1      40.472  32.086  31.149  1.00  0.00     0.031 C 
ATOM     51  C   UNL A   1      45.092  28.785  31.584  1.00  0.00     0.029 A 
ATOM     52  C   UNL A   1      44.201  29.847  31.749  1.00  0.00     0.049 A 
ATOM     53  H   UNL A   1      44.465  31.723  30.821  1.00  0.00     0.167 HD
ATOM     54  C   UNL A   1      42.027  30.880  32.389  1.00  0.00     0.074 A 
ATOM     55  C   UNL A   1      41.773  31.808  31.286  1.00  0.00     0.031 C 
ATOM     56  C   UNL A   1      43.073  30.034  32.637  1.00  0.00     0.037 A 
BRANCH  43  57
ATOM     57  C   UNL A   1      44.878  31.718  27.801  1.00  0.00     0.058 A 
ATOM     58  C   UNL A   1      46.086  31.985  27.122  1.00  0.00     0.135 A 
ATOM     59  C   UNL A   1      44.086  32.850  28.095  1.00  0.00     0.135 A 
ATOM     60  F   UNL A   1      46.917  30.985  26.785  1.00  0.00    -0.206 F 
ATOM     61  C   UNL A   1      46.516  33.281  26.838  1.00  0.00     0.059 A 
ATOM     62  C   UNL A   1      44.469  34.147  27.771  1.00  0.00     0.059 A 
ATOM     63  F   UNL A   1      42.951  32.769  28.798  1.00  0.00    -0.206 F 
ATOM     64  C   UNL A   1      45.705  34.356  27.184  1.00  0.00     0.060 A 
BRANCH  64  65
ATOM     65  S   UNL A   1      46.304  36.034  26.921  1.00  0.00     0.124 S 
ATOM     66  O   UNL A   1      45.054  36.781  26.854  1.00  0.00    -0.237 OA
ATOM     67  O   UNL A   1      47.119  36.253  28.111  1.00  0.00    -0.237 OA
ATOM     68  O   UNL A   1      47.048  35.932  25.668  1.00  0.00    -0.744 OA
ENDBRANCH  64  65
ENDBRANCH  43  57
BRANCH  44  69
ATOM     69  C   UNL A   1      37.319  31.245  31.881  1.00  0.00     0.058 A 
ATOM     70  C   UNL A   1      36.759  31.697  33.090  1.00  0.00     0.135 A 
ATOM     71  C   UNL A   1      36.729  31.754  30.703  1.00  0.00     0.135 A 
ATOM     72  F   UNL A   1      37.260  31.281  34.262  1.00  0.00    -0.206 F 
ATOM     73  C   UNL A   1      35.719  32.639  33.131  1.00  0.00     0.059 A 
ATOM     74  C   UNL A   1      35.688  32.683  30.719  1.00  0.00     0.059 A 
ATOM     75  F   UNL A   1      37.209  31.431  29.494  1.00  0.00    -0.206 F 
ATOM     76  C   UNL A   1      35.207  33.145  31.937  1.00  0.00     0.060 A 
BRANCH  76  77
ATOM     77  S   UNL A   1      34.004  34.497  31.982  1.00  0.00     0.124 S 
ATOM     78  O   UNL A   1      34.812  35.604  32.483  1.00  0.00    -0.237 OA
ATOM     79  O   UNL A   1      33.592  34.590  30.586  1.00  0.00    -0.237 OA
ATOM     80  O   UNL A   1      32.978  34.009  32.899  1.00  0.00    -0.744 OA
ENDBRANCH  76  77
ENDBRANCH  44  69
BRANCH  56  81
ATOM     81  C   UNL A   1      42.958  29.065  33.790  1.00  0.00     0.058 A 
ATOM     82  C   UNL A   1      43.141  29.404  35.143  1.00  0.00     0.135 A 
ATOM     83  C   UNL A   1      42.472  27.777  33.521  1.00  0.00     0.135 A 
ATOM     84  F   UNL A   1      43.499  30.643  35.503  1.00  0.00    -0.206 F 
ATOM     85  C   UNL A   1      42.894  28.494  36.175  1.00  0.00     0.059 A 
ATOM     86  C   UNL A   1      42.188  26.864  34.533  1.00  0.00     0.059 A 
ATOM     87  F   UNL A   1      42.213  27.409  32.255  1.00  0.00    -0.206 F 
ATOM     88  C   UNL A   1      42.416  27.224  35.858  1.00  0.00     0.060 A 
BRANCH  88  89
ATOM     89  S   UNL A   1      42.031  26.069  37.192  1.00  0.00     0.124 S 
ATOM     90  O   UNL A   1      42.254  24.777  36.554  1.00  0.00    -0.237 OA
ATOM     91  O   UNL A   1      42.995  26.440  38.224  1.00  0.00    -0.237 OA
ATOM     92  O   UNL A   1      40.639  26.373  37.515  1.00  0.00    -0.744 OA
ENDBRANCH  88  89
ENDBRANCH  56  81
ENDBRANCH  30  31
ENDBRANCH  22  25
ENDBRANCH  20  21
ENDBRANCH  19  20
ENDBRANCH   1  19
TORSDOF 17
ENDMDL
MODEL 3
REMARK VINA RESULT:     -10.2      2.321      3.348
REMARK SMILES CC(=O)N(C)n1cnn(CC(=O)NCCCCNC(=O)c2ccc(-c3c4nc(c(-c5c(F)cc(S(=O)(=O)[O-])cc5F)c5ccc([nH]5)c(-c5c(F)cc(S(=O)(=O)[O-])cc5F)c5nc(c(-c6c(F)cc(S(=O)(=O)[O-])cc6F)c6ccc3[nH]6)C=C5)C=C4)cc2)c1=S
REMARK SMILES IDX 15 1 14 2 13 3 11 4 12 5 10 7 9 8 6 9 7 10 87 11 8 12 88 13
REMARK SMILES IDX 4 14 5 15 2 16 1 17 3 18 16 19 17 20 18 21 19 22 20 24 21 25
REMARK SMILES IDX 22 26 86 27 23 28 85 29 24 30 25 31 26 32 79 33 27 34 84 35
REMARK SMILES IDX 78 36 80 37 28 38 83 39 77 40 76 41 29 43 63 44 42 45 62 46
REMARK SMILES IDX 43 47 46 48 61 49 81 50 44 51 45 52 60 54 82 55 47 56 30 57
REMARK SMILES IDX 31 58 40 59 32 60 33 61 39 62 41 63 34 64 35 65 36 66 37 67
REMARK SMILES IDX 38 68 64 69 65 70 74 71 66 72 67 73 73 74 75 75 68 76 69 77
REMARK SMILES IDX 70 78 71 79 72 80 48 81 49 82 58 83 50 84 51 85 57 86 59 87
REMARK SMILES IDX 52 88 53 89 54 90 55 91 56 92
REMARK H PARENT 13 6 18 23 80 42 46 53
REMARK Flexibility Score: inf
ROOT
ATOM      1  C   UNL A   1      38.065  20.846  25.243  1.00  0.00     0.023 C 
ENDROOT
BRANCH   1   2
ATOM      2  C   UNL A   1      36.663  21.417  25.014  1.00  0.00     0.116 C 
BRANCH   2   3
ATOM      3  N   UNL A   1      35.608  20.484  25.342  1.00  0.00    -0.354 N 
ATOM      4  C   UNL A   1      34.292  20.481  24.970  1.00  0.00     0.241 C 
ATOM      5  O   UNL A   1      33.623  19.492  25.284  1.00  0.00    -0.273 OA
ATOM      6  H   UNL A   1      35.879  19.735  25.921  1.00  0.00     0.163 HD
BRANCH   4   7
ATOM      7  C   UNL A   1      33.703  21.564  24.058  1.00  0.00     0.247 C 
BRANCH   7   8
ATOM      8  N   UNL A   1      33.306  22.786  24.749  1.00  0.00    -0.227 N 
ATOM      9  N   UNL A   1      32.764  24.843  25.353  1.00  0.00    -0.211 N 
ATOM     10  C   UNL A   1      32.971  24.043  26.423  1.00  0.00     0.247 A 
ATOM     11  C   UNL A   1      32.946  24.049  24.229  1.00  0.00     0.217 A 
ATOM     12  N   UNL A   1      33.272  22.818  26.135  1.00  0.00    -0.158 NA
ATOM     13  S   UNL A   1      32.756  24.457  22.623  1.00  0.00    -0.037 S 
BRANCH   9  14
ATOM     14  N   UNL A   1      32.576  26.232  25.438  1.00  0.00    -0.250 N 
ATOM     15  C   UNL A   1      33.785  27.009  25.653  1.00  0.00     0.176 C 
BRANCH  14  16
ATOM     16  C   UNL A   1      31.284  26.723  25.328  1.00  0.00     0.238 C 
ATOM     17  C   UNL A   1      30.187  25.704  25.161  1.00  0.00     0.116 C 
ATOM     18  O   UNL A   1      31.005  27.922  25.392  1.00  0.00    -0.273 OA
ENDBRANCH  14  16
ENDBRANCH   9  14
ENDBRANCH   7   8
ENDBRANCH   4   7
ENDBRANCH   2   3
ENDBRANCH   1   2
BRANCH   1  19
ATOM     19  C   UNL A   1      39.090  21.801  25.872  1.00  0.00     0.023 C 
BRANCH  19  20
ATOM     20  C   UNL A   1      40.276  21.127  26.551  1.00  0.00     0.116 C 
BRANCH  20  21
ATOM     21  N   UNL A   1      41.533  21.258  25.803  1.00  0.00    -0.352 N 
ATOM     22  C   UNL A   1      42.287  22.399  25.599  1.00  0.00     0.251 C 
ATOM     23  H   UNL A   1      41.883  20.432  25.398  1.00  0.00     0.163 HD
ATOM     24  O   UNL A   1      43.067  22.478  24.641  1.00  0.00    -0.269 OA
BRANCH  22  25
ATOM     25  C   UNL A   1      42.162  23.514  26.550  1.00  0.00     0.039 A 
ATOM     26  C   UNL A   1      42.798  23.542  27.795  1.00  0.00     0.014 A 
ATOM     27  C   UNL A   1      41.396  24.592  26.129  1.00  0.00     0.014 A 
ATOM     28  C   UNL A   1      42.710  24.703  28.564  1.00  0.00     0.010 A 
ATOM     29  C   UNL A   1      41.517  25.794  26.758  1.00  0.00     0.010 A 
ATOM     30  C   UNL A   1      42.076  25.833  28.025  1.00  0.00    -0.014 A 
BRANCH  30  31
ATOM     31  C   UNL A   1      42.028  27.115  28.712  1.00  0.00     0.031 A 
ATOM     32  C   UNL A   1      43.169  28.016  28.413  1.00  0.00     0.074 A 
ATOM     33  C   UNL A   1      40.915  27.542  29.354  1.00  0.00     0.049 A 
ATOM     34  N   UNL A   1      44.129  28.352  29.208  1.00  0.00    -0.248 NA
ATOM     35  C   UNL A   1      43.365  28.465  27.025  1.00  0.00     0.031 C 
ATOM     36  C   UNL A   1      39.604  26.885  29.456  1.00  0.00     0.029 A 
ATOM     37  N   UNL A   1      40.685  28.733  29.966  1.00  0.00    -0.354 N 
ATOM     38  C   UNL A   1      44.912  29.257  28.497  1.00  0.00     0.074 A 
ATOM     39  C   UNL A   1      44.532  29.109  27.117  1.00  0.00     0.031 C 
ATOM     40  C   UNL A   1      38.676  27.775  29.865  1.00  0.00     0.029 A 
ATOM     41  C   UNL A   1      39.345  29.010  30.223  1.00  0.00     0.049 A 
ATOM     42  H   UNL A   1      41.411  29.352  30.210  1.00  0.00     0.167 HD
ATOM     43  C   UNL A   1      45.618  30.229  29.141  1.00  0.00     0.037 A 
ATOM     44  C   UNL A   1      38.830  30.184  30.674  1.00  0.00     0.037 A 
ATOM     45  C   UNL A   1      45.669  29.970  30.560  1.00  0.00     0.049 A 
ATOM     46  C   UNL A   1      39.957  30.918  31.313  1.00  0.00     0.074 A 
ATOM     47  C   UNL A   1      46.131  28.923  31.336  1.00  0.00     0.029 A 
ATOM     48  N   UNL A   1      44.815  30.685  31.369  1.00  0.00    -0.354 N 
ATOM     49  N   UNL A   1      40.560  30.506  32.397  1.00  0.00    -0.248 NA
ATOM     50  C   UNL A   1      40.736  31.819  30.476  1.00  0.00     0.031 C 
ATOM     51  C   UNL A   1      45.162  28.778  32.371  1.00  0.00     0.029 A 
ATOM     52  C   UNL A   1      44.217  29.797  32.226  1.00  0.00     0.049 A 
ATOM     53  H   UNL A   1      44.662  31.658  31.337  1.00  0.00     0.167 HD
ATOM     54  C   UNL A   1      41.910  30.731  32.163  1.00  0.00     0.074 A 
ATOM     55  C   UNL A   1      41.950  31.614  30.997  1.00  0.00     0.031 C 
ATOM     56  C   UNL A   1      42.872  29.948  32.740  1.00  0.00     0.037 A 
BRANCH  43  57
ATOM     57  C   UNL A   1      45.939  31.591  28.570  1.00  0.00     0.058 A 
ATOM     58  C   UNL A   1      44.879  32.425  28.155  1.00  0.00     0.135 A 
ATOM     59  C   UNL A   1      47.228  31.999  28.159  1.00  0.00     0.135 A 
ATOM     60  F   UNL A   1      43.611  32.138  28.491  1.00  0.00    -0.206 F 
ATOM     61  C   UNL A   1      45.074  33.526  27.321  1.00  0.00     0.059 A 
ATOM     62  C   UNL A   1      47.450  33.126  27.375  1.00  0.00     0.059 A 
ATOM     63  F   UNL A   1      48.324  31.277  28.410  1.00  0.00    -0.206 F 
ATOM     64  C   UNL A   1      46.365  33.857  26.923  1.00  0.00     0.060 A 
BRANCH  64  65
ATOM     65  S   UNL A   1      46.610  35.209  25.759  1.00  0.00     0.124 S 
ATOM     66  O   UNL A   1      46.037  34.649  24.541  1.00  0.00    -0.237 OA
ATOM     67  O   UNL A   1      45.855  36.287  26.387  1.00  0.00    -0.237 OA
ATOM     68  O   UNL A   1      48.060  35.386  25.752  1.00  0.00    -0.744 OA
ENDBRANCH  64  65
ENDBRANCH  43  57
BRANCH  44  69
ATOM     69  C   UNL A   1      37.545  30.834  30.295  1.00  0.00     0.058 A 
ATOM     70  C   UNL A   1      36.725  31.455  31.255  1.00  0.00     0.135 A 
ATOM     71  C   UNL A   1      37.226  31.108  28.947  1.00  0.00     0.135 A 
ATOM     72  F   UNL A   1      36.958  31.267  32.563  1.00  0.00    -0.206 F 
ATOM     73  C   UNL A   1      35.693  32.338  30.905  1.00  0.00     0.059 A 
ATOM     74  C   UNL A   1      36.198  31.975  28.574  1.00  0.00     0.059 A 
ATOM     75  F   UNL A   1      37.967  30.610  27.946  1.00  0.00    -0.206 F 
ATOM     76  C   UNL A   1      35.454  32.611  29.559  1.00  0.00     0.060 A 
BRANCH  76  77
ATOM     77  S   UNL A   1      34.258  33.892  29.104  1.00  0.00     0.124 S 
ATOM     78  O   UNL A   1      35.125  34.946  28.587  1.00  0.00    -0.237 OA
ATOM     79  O   UNL A   1      33.430  33.207  28.118  1.00  0.00    -0.237 OA
ATOM     80  O   UNL A   1      33.592  34.198  30.367  1.00  0.00    -0.744 OA
ENDBRANCH  76  77
ENDBRANCH  44  69
BRANCH  56  81
ATOM     81  C   UNL A   1      42.467  29.006  33.849  1.00  0.00     0.058 A 
ATOM     82  C   UNL A   1      41.802  27.781  33.657  1.00  0.00     0.135 A 
ATOM     83  C   UNL A   1      42.927  29.280  35.145  1.00  0.00     0.135 A 
ATOM     84  F   UNL A   1      41.422  27.386  32.435  1.00  0.00    -0.206 F 
ATOM     85  C   UNL A   1      41.569  26.892  34.709  1.00  0.00     0.059 A 
ATOM     86  C   UNL A   1      42.736  28.395  36.203  1.00  0.00     0.059 A 
ATOM     87  F   UNL A   1      43.626  30.401  35.386  1.00  0.00    -0.206 F 
ATOM     88  C   UNL A   1      42.042  27.209  35.982  1.00  0.00     0.060 A 
BRANCH  88  89
ATOM     89  S   UNL A   1      41.802  26.031  37.330  1.00  0.00     0.124 S 
ATOM     90  O   UNL A   1      42.074  24.756  36.675  1.00  0.00    -0.237 OA
ATOM     91  O   UNL A   1      42.793  26.463  38.311  1.00  0.00    -0.237 OA
ATOM     92  O   UNL A   1      40.412  26.245  37.725  1.00  0.00    -0.744 OA
ENDBRANCH  88  89
ENDBRANCH  56  81
ENDBRANCH  30  31
ENDBRANCH  22  25
ENDBRANCH  20  21
ENDBRANCH  19  20
ENDBRANCH   1  19
TORSDOF 17
ENDMDL
