MODEL 1
REMARK VINA RESULT:     -13.5      0.000      0.000
REMARK SMILES Cc1ccc2[nH]c(C(=O)NCCCCNC(=O)c3ccc(-c4c5nc(c(-c6c(F)cc(S(=O)(=O)[O-])cc6F)c6ccc([nH]6)c(-c6c(F)cc(S(=O)(=O)[O-])cc6F)c6nc(c(-c7c(F)cc(S(=O)(=O)[O-])cc7F)c7ccc4[nH]7)C=C6)C=C5)cc3)c(NC(=O)[C@H]3C[C@H]3c3ccccc3)c2c1
REMARK SMILES IDX 12 1 11 2 10 3 8 4 9 5 7 7 1 8 2 9 3 10 98 11 4 12 97 13
REMARK SMILES IDX 5 14 84 15 6 16 85 18 86 19 87 21 88 22 89 23 90 24 91 25
REMARK SMILES IDX 92 26 96 27 93 28 95 29 94 30 13 31 14 32 15 33 16 34 17 36
REMARK SMILES IDX 18 37 19 38 83 39 20 40 82 41 21 42 22 43 23 44 76 45 24 46
REMARK SMILES IDX 81 47 75 48 77 49 25 50 80 51 74 52 73 53 26 55 60 56 39 57
REMARK SMILES IDX 59 58 40 59 43 60 58 61 78 62 41 63 42 64 57 66 79 67 44 68
REMARK SMILES IDX 27 69 28 70 37 71 29 72 30 73 36 74 38 75 31 76 32 77 33 78
REMARK SMILES IDX 34 79 35 80 61 81 62 82 71 83 63 84 64 85 70 86 72 87 65 88
REMARK SMILES IDX 66 89 67 90 68 91 69 92 45 93 46 94 55 95 47 96 48 97 54 98
REMARK SMILES IDX 56 99 49 100 50 101 51 102 52 103 53 104
REMARK H PARENT 10 6 6 17 85 20 15 35 77 54 43 65
REMARK Flexibility Score: inf
ROOT
ATOM      1  C   UNL A   1      38.013  22.405  25.600  1.00  0.00     0.023 C 
ENDROOT
BRANCH   1   2
ATOM      2  C   UNL A   1      36.598  21.855  25.831  1.00  0.00     0.116 C 
BRANCH   2   3
ATOM      3  N   UNL A   1      35.586  22.624  26.554  1.00  0.00    -0.351 N 
ATOM      4  C   UNL A   1      34.347  22.305  27.074  1.00  0.00     0.269 C 
ATOM      5  O   UNL A   1      34.067  22.809  28.167  1.00  0.00    -0.268 OA
ATOM      6  H   UNL A   1      35.841  23.564  26.701  1.00  0.00     0.163 HD
BRANCH   4   7
ATOM      7  C   UNL A   1      33.396  21.449  26.423  1.00  0.00     0.129 A 
ATOM      8  C   UNL A   1      32.365  18.068  21.686  1.00  0.00     0.044 C 
ATOM      9  C   UNL A   1      32.306  18.539  23.117  1.00  0.00    -0.050 A 
ATOM     10  C   UNL A   1      32.563  17.609  24.129  1.00  0.00     0.005 A 
ATOM     11  C   UNL A   1      32.134  19.910  23.443  1.00  0.00     0.016 A 
ATOM     12  C   UNL A   1      32.813  18.021  25.437  1.00  0.00     0.027 A 
ATOM     13  C   UNL A   1      32.410  20.361  24.763  1.00  0.00     0.024 A 
ATOM     14  C   UNL A   1      32.840  19.399  25.677  1.00  0.00     0.048 A 
ATOM     15  C   UNL A   1      32.366  21.602  25.521  1.00  0.00     0.080 A 
ATOM     16  N   UNL A   1      33.312  20.104  26.757  1.00  0.00    -0.349 N 
ATOM     17  H   UNL A   1      33.551  19.718  27.629  1.00  0.00     0.167 HD
BRANCH  15  18
ATOM     18  N   UNL A   1      31.609  22.731  25.263  1.00  0.00    -0.323 N 
ATOM     19  C   UNL A   1      31.829  23.892  24.519  1.00  0.00     0.228 C 
ATOM     20  H   UNL A   1      30.726  22.710  25.697  1.00  0.00     0.170 HD
ATOM     21  O   UNL A   1      30.837  24.605  24.341  1.00  0.00    -0.274 OA
BRANCH  19  22
ATOM     22  C   UNL A   1      33.151  24.530  24.262  1.00  0.00     0.087 C 
ATOM     23  C   UNL A   1      33.648  25.801  23.696  1.00  0.00     0.023 C 
ATOM     24  C   UNL A   1      33.803  25.592  25.186  1.00  0.00     0.032 C 
BRANCH  24  25
ATOM     25  C   UNL A   1      33.305  26.748  26.089  1.00  0.00    -0.044 A 
ATOM     26  C   UNL A   1      31.997  26.853  26.616  1.00  0.00     0.004 A 
ATOM     27  C   UNL A   1      34.092  27.912  26.239  1.00  0.00     0.004 A 
ATOM     28  C   UNL A   1      31.514  28.006  27.262  1.00  0.00     0.000 A 
ATOM     29  C   UNL A   1      33.606  29.087  26.847  1.00  0.00     0.000 A 
ATOM     30  C   UNL A   1      32.314  29.133  27.358  1.00  0.00     0.000 A 
ENDBRANCH  24  25
ENDBRANCH  19  22
ENDBRANCH  15  18
ENDBRANCH   4   7
ENDBRANCH   2   3
ENDBRANCH   1   2
BRANCH   1  31
ATOM     31  C   UNL A   1      38.584  23.532  26.469  1.00  0.00     0.023 C 
BRANCH  31  32
ATOM     32  C   UNL A   1      40.016  23.389  26.971  1.00  0.00     0.116 C 
BRANCH  32  33
ATOM     33  N   UNL A   1      40.991  23.969  26.053  1.00  0.00    -0.352 N 
ATOM     34  C   UNL A   1      41.547  25.233  26.055  1.00  0.00     0.251 C 
ATOM     35  H   UNL A   1      41.297  23.374  25.330  1.00  0.00     0.163 HD
ATOM     36  O   UNL A   1      42.184  25.613  25.075  1.00  0.00    -0.269 OA
BRANCH  34  37
ATOM     37  C   UNL A   1      41.381  26.143  27.222  1.00  0.00     0.039 A 
ATOM     38  C   UNL A   1      42.174  27.291  27.327  1.00  0.00     0.014 A 
ATOM     39  C   UNL A   1      40.471  25.853  28.239  1.00  0.00     0.014 A 
ATOM     40  C   UNL A   1      42.016  28.163  28.416  1.00  0.00     0.010 A 
ATOM     41  C   UNL A   1      40.251  26.770  29.268  1.00  0.00     0.010 A 
ATOM     42  C   UNL A   1      41.027  27.932  29.388  1.00  0.00    -0.014 A 
BRANCH  42  43
ATOM     43  C   UNL A   1      40.808  28.865  30.539  1.00  0.00     0.031 A 
ATOM     44  C   UNL A   1      41.660  28.762  31.787  1.00  0.00     0.074 A 
ATOM     45  C   UNL A   1      39.800  29.763  30.513  1.00  0.00     0.049 A 
ATOM     46  N   UNL A   1      41.564  29.421  32.915  1.00  0.00    -0.248 NA
ATOM     47  C   UNL A   1      42.725  27.746  31.787  1.00  0.00     0.031 C 
ATOM     48  C   UNL A   1      38.834  29.927  29.425  1.00  0.00     0.029 A 
ATOM     49  N   UNL A   1      39.416  30.710  31.434  1.00  0.00    -0.354 N 
ATOM     50  C   UNL A   1      42.522  28.874  33.763  1.00  0.00     0.074 A 
ATOM     51  C   UNL A   1      43.135  27.778  33.046  1.00  0.00     0.031 C 
ATOM     52  C   UNL A   1      38.003  30.940  29.719  1.00  0.00     0.029 A 
ATOM     53  C   UNL A   1      38.349  31.480  31.031  1.00  0.00     0.049 A 
ATOM     54  H   UNL A   1      39.865  30.827  32.303  1.00  0.00     0.167 HD
ATOM     55  C   UNL A   1      42.895  29.267  35.006  1.00  0.00     0.037 A 
ATOM     56  C   UNL A   1      37.723  32.509  31.640  1.00  0.00     0.037 A 
ATOM     57  C   UNL A   1      42.350  30.409  35.692  1.00  0.00     0.049 A 
ATOM     58  C   UNL A   1      38.199  32.978  32.990  1.00  0.00     0.074 A 
ATOM     59  C   UNL A   1      42.737  30.947  36.907  1.00  0.00     0.029 A 
ATOM     60  N   UNL A   1      41.315  31.199  35.218  1.00  0.00    -0.354 N 
ATOM     61  N   UNL A   1      39.166  32.498  33.736  1.00  0.00    -0.248 NA
ATOM     62  C   UNL A   1      37.509  34.137  33.575  1.00  0.00     0.031 C 
ATOM     63  C   UNL A   1      41.914  32.043  37.184  1.00  0.00     0.029 A 
ATOM     64  C   UNL A   1      41.044  32.215  36.120  1.00  0.00     0.049 A 
ATOM     65  H   UNL A   1      40.842  31.058  34.366  1.00  0.00     0.167 HD
ATOM     66  C   UNL A   1      39.217  33.315  34.862  1.00  0.00     0.074 A 
ATOM     67  C   UNL A   1      38.195  34.326  34.694  1.00  0.00     0.031 C 
ATOM     68  C   UNL A   1      40.038  33.231  35.937  1.00  0.00     0.037 A 
BRANCH  55  69
ATOM     69  C   UNL A   1      43.978  28.476  35.695  1.00  0.00     0.058 A 
ATOM     70  C   UNL A   1      45.338  28.770  35.506  1.00  0.00     0.135 A 
ATOM     71  C   UNL A   1      43.653  27.433  36.578  1.00  0.00     0.135 A 
ATOM     72  F   UNL A   1      45.709  29.751  34.667  1.00  0.00    -0.206 F 
ATOM     73  C   UNL A   1      46.338  28.030  36.128  1.00  0.00     0.059 A 
ATOM     74  C   UNL A   1      44.638  26.702  37.241  1.00  0.00     0.059 A 
ATOM     75  F   UNL A   1      42.370  27.113  36.807  1.00  0.00    -0.206 F 
ATOM     76  C   UNL A   1      45.977  26.996  36.992  1.00  0.00     0.060 A 
BRANCH  76  77
ATOM     77  S   UNL A   1      47.288  26.043  37.786  1.00  0.00     0.124 S 
ATOM     78  O   UNL A   1      48.298  26.007  36.733  1.00  0.00    -0.237 OA
ATOM     79  O   UNL A   1      47.613  26.865  38.947  1.00  0.00    -0.237 OA
ATOM     80  O   UNL A   1      46.647  24.766  38.086  1.00  0.00    -0.744 OA
ENDBRANCH  76  77
ENDBRANCH  55  69
BRANCH  56  81
ATOM     81  C   UNL A   1      36.601  33.208  30.954  1.00  0.00     0.058 A 
ATOM     82  C   UNL A   1      36.848  34.087  29.889  1.00  0.00     0.135 A 
ATOM     83  C   UNL A   1      35.268  33.018  31.347  1.00  0.00     0.135 A 
ATOM     84  F   UNL A   1      38.108  34.309  29.481  1.00  0.00    -0.206 F 
ATOM     85  C   UNL A   1      35.819  34.771  29.251  1.00  0.00     0.059 A 
ATOM     86  C   UNL A   1      34.217  33.671  30.707  1.00  0.00     0.059 A 
ATOM     87  F   UNL A   1      34.976  32.174  32.349  1.00  0.00    -0.206 F 
ATOM     88  C   UNL A   1      34.504  34.554  29.668  1.00  0.00     0.060 A 
BRANCH  88  89
ATOM     89  S   UNL A   1      33.173  35.419  28.807  1.00  0.00     0.124 S 
ATOM     90  O   UNL A   1      32.426  35.992  29.919  1.00  0.00    -0.237 OA
ATOM     91  O   UNL A   1      33.908  36.365  27.975  1.00  0.00    -0.237 OA
ATOM     92  O   UNL A   1      32.496  34.348  28.076  1.00  0.00    -0.744 OA
ENDBRANCH  88  89
ENDBRANCH  56  81
BRANCH  68  93
ATOM     93  C   UNL A   1      39.906  34.283  37.006  1.00  0.00     0.058 A 
ATOM     94  C   UNL A   1      40.573  35.515  36.918  1.00  0.00     0.135 A 
ATOM     95  C   UNL A   1      39.050  34.078  38.101  1.00  0.00     0.135 A 
ATOM     96  F   UNL A   1      41.407  35.761  35.895  1.00  0.00    -0.206 F 
ATOM     97  C   UNL A   1      40.410  36.500  37.888  1.00  0.00     0.059 A 
ATOM     98  C   UNL A   1      38.851  35.059  39.067  1.00  0.00     0.059 A 
ATOM     99  F   UNL A   1      38.380  32.922  38.228  1.00  0.00    -0.206 F 
ATOM    100  C   UNL A   1      39.543  36.264  38.957  1.00  0.00     0.060 A 
BRANCH 100 101
ATOM    101  S   UNL A   1      39.307  37.568  40.183  1.00  0.00     0.124 S 
ATOM    102  O   UNL A   1      40.628  38.189  40.210  1.00  0.00    -0.237 OA
ATOM    103  O   UNL A   1      38.242  38.368  39.589  1.00  0.00    -0.237 OA
ATOM    104  O   UNL A   1      38.935  36.836  41.390  1.00  0.00    -0.744 OA
ENDBRANCH 100 101
ENDBRANCH  68  93
ENDBRANCH  42  43
ENDBRANCH  34  37
ENDBRANCH  32  33
ENDBRANCH  31  32
ENDBRANCH   1  31
TORSDOF 17
ENDMDL
MODEL 2
REMARK VINA RESULT:     -13.3      1.092      4.077
REMARK SMILES Cc1ccc2[nH]c(C(=O)NCCCCNC(=O)c3ccc(-c4c5nc(c(-c6c(F)cc(S(=O)(=O)[O-])cc6F)c6ccc([nH]6)c(-c6c(F)cc(S(=O)(=O)[O-])cc6F)c6nc(c(-c7c(F)cc(S(=O)(=O)[O-])cc7F)c7ccc4[nH]7)C=C6)C=C5)cc3)c(NC(=O)[C@H]3C[C@H]3c3ccccc3)c2c1
REMARK SMILES IDX 12 1 11 2 10 3 8 4 9 5 7 7 1 8 2 9 3 10 98 11 4 12 97 13
REMARK SMILES IDX 5 14 84 15 6 16 85 18 86 19 87 21 88 22 89 23 90 24 91 25
REMARK SMILES IDX 92 26 96 27 93 28 95 29 94 30 13 31 14 32 15 33 16 34 17 36
REMARK SMILES IDX 18 37 19 38 83 39 20 40 82 41 21 42 22 43 23 44 76 45 24 46
REMARK SMILES IDX 81 47 75 48 77 49 25 50 80 51 74 52 73 53 26 55 60 56 39 57
REMARK SMILES IDX 59 58 40 59 43 60 58 61 78 62 41 63 42 64 57 66 79 67 44 68
REMARK SMILES IDX 27 69 28 70 37 71 29 72 30 73 36 74 38 75 31 76 32 77 33 78
REMARK SMILES IDX 34 79 35 80 61 81 62 82 71 83 63 84 64 85 70 86 72 87 65 88
REMARK SMILES IDX 66 89 67 90 68 91 69 92 45 93 46 94 55 95 47 96 48 97 54 98
REMARK SMILES IDX 56 99 49 100 50 101 51 102 52 103 53 104
REMARK H PARENT 10 6 6 17 85 20 15 35 77 54 43 65
REMARK Flexibility Score: inf
ROOT
ATOM      1  C   UNL A   1      37.134  23.028  24.936  1.00  0.00     0.023 C 
ENDROOT
BRANCH   1   2
ATOM      2  C   UNL A   1      36.544  23.493  23.597  1.00  0.00     0.116 C 
BRANCH   2   3
ATOM      3  N   UNL A   1      35.271  22.972  23.099  1.00  0.00    -0.351 N 
ATOM      4  C   UNL A   1      34.094  23.573  22.700  1.00  0.00     0.269 C 
ATOM      5  O   UNL A   1      33.533  23.076  21.717  1.00  0.00    -0.268 OA
ATOM      6  H   UNL A   1      35.249  21.990  23.037  1.00  0.00     0.163 HD
BRANCH   4   7
ATOM      7  C   UNL A   1      33.505  24.708  23.354  1.00  0.00     0.129 A 
ATOM      8  C   UNL A   1      34.320  28.922  27.417  1.00  0.00     0.044 C 
ATOM      9  C   UNL A   1      33.818  28.261  26.158  1.00  0.00    -0.050 A 
ATOM     10  C   UNL A   1      33.970  28.944  24.947  1.00  0.00     0.005 A 
ATOM     11  C   UNL A   1      33.330  26.927  26.162  1.00  0.00     0.016 A 
ATOM     12  C   UNL A   1      33.804  28.290  23.728  1.00  0.00     0.027 A 
ATOM     13  C   UNL A   1      33.179  26.228  24.933  1.00  0.00     0.024 A 
ATOM     14  C   UNL A   1      33.526  26.920  23.772  1.00  0.00     0.048 A 
ATOM     15  C   UNL A   1      32.727  24.925  24.470  1.00  0.00     0.080 A 
ATOM     16  N   UNL A   1      33.577  25.970  22.781  1.00  0.00    -0.349 N 
ATOM     17  H   UNL A   1      33.651  26.155  21.818  1.00  0.00     0.167 HD
BRANCH  15  18
ATOM     18  N   UNL A   1      31.874  24.044  25.109  1.00  0.00    -0.323 N 
ATOM     19  C   UNL A   1      32.012  23.186  26.202  1.00  0.00     0.228 C 
ATOM     20  H   UNL A   1      30.975  24.017  24.707  1.00  0.00     0.170 HD
ATOM     21  O   UNL A   1      30.964  22.692  26.628  1.00  0.00    -0.274 OA
BRANCH  19  22
ATOM     22  C   UNL A   1      33.274  22.527  26.643  1.00  0.00     0.087 C 
ATOM     23  C   UNL A   1      33.669  21.236  27.243  1.00  0.00     0.023 C 
ATOM     24  C   UNL A   1      34.055  21.484  25.802  1.00  0.00     0.032 C 
BRANCH  24  25
ATOM     25  C   UNL A   1      33.697  20.358  24.800  1.00  0.00    -0.044 A 
ATOM     26  C   UNL A   1      32.593  20.387  23.916  1.00  0.00     0.004 A 
ATOM     27  C   UNL A   1      34.339  19.103  24.892  1.00  0.00     0.004 A 
ATOM     28  C   UNL A   1      32.175  19.273  23.164  1.00  0.00     0.000 A 
ATOM     29  C   UNL A   1      33.904  17.970  24.177  1.00  0.00     0.000 A 
ATOM     30  C   UNL A   1      32.819  18.056  23.312  1.00  0.00     0.000 A 
ENDBRANCH  24  25
ENDBRANCH  19  22
ENDBRANCH  15  18
ENDBRANCH   4   7
ENDBRANCH   2   3
ENDBRANCH   1   2
BRANCH   1  31
ATOM     31  C   UNL A   1      37.703  24.027  25.950  1.00  0.00     0.023 C 
BRANCH  31  32
ATOM     32  C   UNL A   1      38.911  23.598  26.773  1.00  0.00     0.116 C 
BRANCH  32  33
ATOM     33  N   UNL A   1      40.176  23.884  26.103  1.00  0.00    -0.352 N 
ATOM     34  C   UNL A   1      41.008  24.978  26.242  1.00  0.00     0.251 C 
ATOM     35  H   UNL A   1      40.479  23.201  25.462  1.00  0.00     0.163 HD
ATOM     36  O   UNL A   1      41.918  25.149  25.433  1.00  0.00    -0.269 OA
BRANCH  34  37
ATOM     37  C   UNL A   1      40.815  25.954  27.350  1.00  0.00     0.039 A 
ATOM     38  C   UNL A   1      39.894  25.678  28.366  1.00  0.00     0.014 A 
ATOM     39  C   UNL A   1      41.510  27.163  27.375  1.00  0.00     0.014 A 
ATOM     40  C   UNL A   1      39.714  26.586  29.423  1.00  0.00     0.010 A 
ATOM     41  C   UNL A   1      41.399  28.015  28.475  1.00  0.00     0.010 A 
ATOM     42  C   UNL A   1      40.490  27.755  29.510  1.00  0.00    -0.014 A 
BRANCH  42  43
ATOM     43  C   UNL A   1      40.349  28.721  30.645  1.00  0.00     0.031 A 
ATOM     44  C   UNL A   1      41.218  28.590  31.880  1.00  0.00     0.074 A 
ATOM     45  C   UNL A   1      39.397  29.678  30.620  1.00  0.00     0.049 A 
ATOM     46  N   UNL A   1      41.183  29.276  32.996  1.00  0.00    -0.248 NA
ATOM     47  C   UNL A   1      42.220  27.513  31.882  1.00  0.00     0.031 C 
ATOM     48  C   UNL A   1      38.422  29.879  29.547  1.00  0.00     0.029 A 
ATOM     49  N   UNL A   1      39.089  30.664  31.529  1.00  0.00    -0.354 N 
ATOM     50  C   UNL A   1      42.123  28.688  33.838  1.00  0.00     0.074 A 
ATOM     51  C   UNL A   1      42.656  27.544  33.132  1.00  0.00     0.031 C 
ATOM     52  C   UNL A   1      37.659  30.946  29.836  1.00  0.00     0.029 A 
ATOM     53  C   UNL A   1      38.062  31.489  31.130  1.00  0.00     0.049 A 
ATOM     54  H   UNL A   1      39.560  30.770  32.387  1.00  0.00     0.167 HD
ATOM     55  C   UNL A   1      42.544  29.082  35.065  1.00  0.00     0.037 A 
ATOM     56  C   UNL A   1      37.511  32.565  31.729  1.00  0.00     0.037 A 
ATOM     57  C   UNL A   1      42.082  30.267  35.738  1.00  0.00     0.049 A 
ATOM     58  C   UNL A   1      38.041  33.030  33.060  1.00  0.00     0.074 A 
ATOM     59  C   UNL A   1      42.524  30.804  36.935  1.00  0.00     0.029 A 
ATOM     60  N   UNL A   1      41.086  31.109  35.267  1.00  0.00    -0.354 N 
ATOM     61  N   UNL A   1      38.990  32.507  33.799  1.00  0.00    -0.248 NA
ATOM     62  C   UNL A   1      37.432  34.239  33.635  1.00  0.00     0.031 C 
ATOM     63  C   UNL A   1      41.773  31.953  37.204  1.00  0.00     0.029 A 
ATOM     64  C   UNL A   1      40.894  32.157  36.153  1.00  0.00     0.049 A 
ATOM     65  H   UNL A   1      40.589  30.981  34.426  1.00  0.00     0.167 HD
ATOM     66  C   UNL A   1      39.113  33.341  34.906  1.00  0.00     0.074 A 
ATOM     67  C   UNL A   1      38.150  34.408  34.737  1.00  0.00     0.031 C 
ATOM     68  C   UNL A   1      39.948  33.228  35.968  1.00  0.00     0.037 A 
BRANCH  55  69
ATOM     69  C   UNL A   1      43.590  28.240  35.750  1.00  0.00     0.058 A 
ATOM     70  C   UNL A   1      43.240  27.198  36.625  1.00  0.00     0.135 A 
ATOM     71  C   UNL A   1      44.956  28.453  35.504  1.00  0.00     0.135 A 
ATOM     72  F   UNL A   1      41.950  26.953  36.904  1.00  0.00    -0.206 F 
ATOM     73  C   UNL A   1      44.205  26.431  37.269  1.00  0.00     0.059 A 
ATOM     74  C   UNL A   1      45.939  27.673  36.110  1.00  0.00     0.059 A 
ATOM     75  F   UNL A   1      45.351  29.427  34.669  1.00  0.00    -0.206 F 
ATOM     76  C   UNL A   1      45.552  26.679  37.008  1.00  0.00     0.060 A 
BRANCH  76  77
ATOM     77  S   UNL A   1      46.791  25.678  37.857  1.00  0.00     0.124 S 
ATOM     78  O   UNL A   1      46.950  24.564  36.927  1.00  0.00    -0.237 OA
ATOM     79  O   UNL A   1      47.924  26.593  37.949  1.00  0.00    -0.237 OA
ATOM     80  O   UNL A   1      46.150  25.349  39.127  1.00  0.00    -0.744 OA
ENDBRANCH  76  77
ENDBRANCH  55  69
BRANCH  56  81
ATOM     81  C   UNL A   1      36.420  33.317  31.050  1.00  0.00     0.058 A 
ATOM     82  C   UNL A   1      35.086  33.174  31.461  1.00  0.00     0.135 A 
ATOM     83  C   UNL A   1      36.683  34.187  29.981  1.00  0.00     0.135 A 
ATOM     84  F   UNL A   1      34.782  32.348  32.474  1.00  0.00    -0.206 F 
ATOM     85  C   UNL A   1      34.048  33.847  30.824  1.00  0.00     0.059 A 
ATOM     86  C   UNL A   1      35.665  34.892  29.344  1.00  0.00     0.059 A 
ATOM     87  F   UNL A   1      37.944  34.373  29.560  1.00  0.00    -0.206 F 
ATOM     88  C   UNL A   1      34.349  34.705  29.766  1.00  0.00     0.060 A 
BRANCH  88  89
ATOM     89  S   UNL A   1      32.997  35.602  28.972  1.00  0.00     0.124 S 
ATOM     90  O   UNL A   1      33.718  36.634  28.239  1.00  0.00    -0.237 OA
ATOM     91  O   UNL A   1      32.371  34.563  28.164  1.00  0.00    -0.237 OA
ATOM     92  O   UNL A   1      32.197  36.072  30.104  1.00  0.00    -0.744 OA
ENDBRANCH  88  89
ENDBRANCH  56  81
BRANCH  68  93
ATOM     93  C   UNL A   1      39.901  34.306  37.017  1.00  0.00     0.058 A 
ATOM     94  C   UNL A   1      40.559  35.533  36.848  1.00  0.00     0.135 A 
ATOM     95  C   UNL A   1      39.131  34.130  38.180  1.00  0.00     0.135 A 
ATOM     96  F   UNL A   1      41.311  35.753  35.758  1.00  0.00    -0.206 F 
ATOM     97  C   UNL A   1      40.473  36.543  37.803  1.00  0.00     0.059 A 
ATOM     98  C   UNL A   1      39.009  35.135  39.134  1.00  0.00     0.059 A 
ATOM     99  F   UNL A   1      38.473  32.979  38.388  1.00  0.00    -0.206 F 
ATOM    100  C   UNL A   1      39.691  36.335  38.942  1.00  0.00     0.060 A 
BRANCH 100 101
ATOM    101  S   UNL A   1      39.552  37.669  40.150  1.00  0.00     0.124 S 
ATOM    102  O   UNL A   1      40.913  38.196  40.164  1.00  0.00    -0.237 OA
ATOM    103  O   UNL A   1      38.544  38.535  39.547  1.00  0.00    -0.237 OA
ATOM    104  O   UNL A   1      39.133  36.982  41.368  1.00  0.00    -0.744 OA
ENDBRANCH 100 101
ENDBRANCH  68  93
ENDBRANCH  42  43
ENDBRANCH  34  37
ENDBRANCH  32  33
ENDBRANCH  31  32
ENDBRANCH   1  31
TORSDOF 17
ENDMDL
MODEL 3
REMARK VINA RESULT:     -13.0      6.365     11.950
REMARK SMILES Cc1ccc2[nH]c(C(=O)NCCCCNC(=O)c3ccc(-c4c5nc(c(-c6c(F)cc(S(=O)(=O)[O-])cc6F)c6ccc([nH]6)c(-c6c(F)cc(S(=O)(=O)[O-])cc6F)c6nc(c(-c7c(F)cc(S(=O)(=O)[O-])cc7F)c7ccc4[nH]7)C=C6)C=C5)cc3)c(NC(=O)[C@H]3C[C@H]3c3ccccc3)c2c1
REMARK SMILES IDX 12 1 11 2 10 3 8 4 9 5 7 7 1 8 2 9 3 10 98 11 4 12 97 13
REMARK SMILES IDX 5 14 84 15 6 16 85 18 86 19 87 21 88 22 89 23 90 24 91 25
REMARK SMILES IDX 92 26 96 27 93 28 95 29 94 30 13 31 14 32 15 33 16 34 17 36
REMARK SMILES IDX 18 37 19 38 83 39 20 40 82 41 21 42 22 43 23 44 76 45 24 46
REMARK SMILES IDX 81 47 75 48 77 49 25 50 80 51 74 52 73 53 26 55 60 56 39 57
REMARK SMILES IDX 59 58 40 59 43 60 58 61 78 62 41 63 42 64 57 66 79 67 44 68
REMARK SMILES IDX 27 69 28 70 37 71 29 72 30 73 36 74 38 75 31 76 32 77 33 78
REMARK SMILES IDX 34 79 35 80 61 81 62 82 71 83 63 84 64 85 70 86 72 87 65 88
REMARK SMILES IDX 66 89 67 90 68 91 69 92 45 93 46 94 55 95 47 96 48 97 54 98
REMARK SMILES IDX 56 99 49 100 50 101 51 102 52 103 53 104
REMARK H PARENT 10 6 6 17 85 20 15 35 77 54 43 65
REMARK Flexibility Score: inf
ROOT
ATOM      1  C   UNL A   1      34.861  29.953  27.396  1.00  0.00     0.023 C 
ENDROOT
BRANCH   1   2
ATOM      2  C   UNL A   1      33.742  29.222  26.640  1.00  0.00     0.116 C 
BRANCH   2   3
ATOM      3  N   UNL A   1      33.517  27.787  26.806  1.00  0.00    -0.351 N 
ATOM      4  C   UNL A   1      33.219  26.767  25.924  1.00  0.00     0.269 C 
ATOM      5  O   UNL A   1      33.779  25.685  26.131  1.00  0.00    -0.268 OA
ATOM      6  H   UNL A   1      33.594  27.485  27.740  1.00  0.00     0.163 HD
BRANCH   4   7
ATOM      7  C   UNL A   1      32.313  26.898  24.818  1.00  0.00     0.129 A 
ATOM      8  C   UNL A   1      27.370  29.493  22.879  1.00  0.00     0.044 C 
ATOM      9  C   UNL A   1      28.748  28.884  22.835  1.00  0.00    -0.050 A 
ATOM     10  C   UNL A   1      29.763  29.592  22.185  1.00  0.00     0.005 A 
ATOM     11  C   UNL A   1      29.060  27.694  23.546  1.00  0.00     0.016 A 
ATOM     12  C   UNL A   1      31.103  29.245  22.351  1.00  0.00     0.027 A 
ATOM     13  C   UNL A   1      30.419  27.332  23.754  1.00  0.00     0.024 A 
ATOM     14  C   UNL A   1      31.384  28.192  23.227  1.00  0.00     0.048 A 
ATOM     15  C   UNL A   1      31.177  26.257  24.376  1.00  0.00     0.080 A 
ATOM     16  N   UNL A   1      32.571  27.801  23.796  1.00  0.00    -0.349 N 
ATOM     17  H   UNL A   1      33.464  28.112  23.522  1.00  0.00     0.167 HD
BRANCH  15  18
ATOM     18  N   UNL A   1      30.763  24.963  24.633  1.00  0.00    -0.323 N 
ATOM     19  C   UNL A   1      31.234  23.704  24.254  1.00  0.00     0.228 C 
ATOM     20  H   UNL A   1      29.964  24.920  25.208  1.00  0.00     0.170 HD
ATOM     21  O   UNL A   1      30.730  22.746  24.847  1.00  0.00    -0.274 OA
BRANCH  19  22
ATOM     22  C   UNL A   1      31.965  23.386  22.994  1.00  0.00     0.087 C 
ATOM     23  C   UNL A   1      33.110  23.936  22.238  1.00  0.00     0.023 C 
ATOM     24  C   UNL A   1      33.305  22.608  22.935  1.00  0.00     0.032 C 
BRANCH  24  25
ATOM     25  C   UNL A   1      34.570  22.487  23.822  1.00  0.00    -0.044 A 
ATOM     26  C   UNL A   1      34.581  22.003  25.150  1.00  0.00     0.004 A 
ATOM     27  C   UNL A   1      35.777  23.098  23.413  1.00  0.00     0.004 A 
ATOM     28  C   UNL A   1      35.701  22.091  25.998  1.00  0.00     0.000 A 
ATOM     29  C   UNL A   1      36.891  23.230  24.265  1.00  0.00     0.000 A 
ATOM     30  C   UNL A   1      36.851  22.726  25.560  1.00  0.00     0.000 A 
ENDBRANCH  24  25
ENDBRANCH  19  22
ENDBRANCH  15  18
ENDBRANCH   4   7
ENDBRANCH   2   3
ENDBRANCH   1   2
BRANCH   1  31
ATOM     31  C   UNL A   1      34.738  31.435  27.768  1.00  0.00     0.023 C 
BRANCH  31  32
ATOM     32  C   UNL A   1      35.775  32.019  28.721  1.00  0.00     0.116 C 
BRANCH  32  33
ATOM     33  N   UNL A   1      35.621  31.526  30.086  1.00  0.00    -0.352 N 
ATOM     34  C   UNL A   1      36.437  30.673  30.802  1.00  0.00     0.251 C 
ATOM     35  H   UNL A   1      34.822  31.848  30.565  1.00  0.00     0.163 HD
ATOM     36  O   UNL A   1      36.031  30.197  31.861  1.00  0.00    -0.269 OA
BRANCH  34  37
ATOM     37  C   UNL A   1      37.796  30.317  30.310  1.00  0.00     0.039 A 
ATOM     38  C   UNL A   1      38.869  30.268  31.206  1.00  0.00     0.014 A 
ATOM     39  C   UNL A   1      38.031  30.067  28.958  1.00  0.00     0.014 A 
ATOM     40  C   UNL A   1      40.153  29.920  30.754  1.00  0.00     0.010 A 
ATOM     41  C   UNL A   1      39.286  29.629  28.531  1.00  0.00     0.010 A 
ATOM     42  C   UNL A   1      40.374  29.563  29.413  1.00  0.00    -0.014 A 
BRANCH  42  43
ATOM     43  C   UNL A   1      41.722  29.148  28.911  1.00  0.00     0.031 A 
ATOM     44  C   UNL A   1      42.857  30.149  28.838  1.00  0.00     0.074 A 
ATOM     45  C   UNL A   1      41.928  27.898  28.446  1.00  0.00     0.049 A 
ATOM     46  N   UNL A   1      44.066  30.000  28.353  1.00  0.00    -0.248 NA
ATOM     47  C   UNL A   1      42.581  31.510  29.323  1.00  0.00     0.031 C 
ATOM     48  C   UNL A   1      40.916  26.843  28.362  1.00  0.00     0.029 A 
ATOM     49  N   UNL A   1      43.063  27.299  27.949  1.00  0.00    -0.354 N 
ATOM     50  C   UNL A   1      44.671  31.250  28.439  1.00  0.00     0.074 A 
ATOM     51  C   UNL A   1      43.672  32.162  28.949  1.00  0.00     0.031 C 
ATOM     52  C   UNL A   1      41.483  25.720  27.892  1.00  0.00     0.029 A 
ATOM     53  C   UNL A   1      42.891  25.977  27.606  1.00  0.00     0.049 A 
ATOM     54  H   UNL A   1      43.920  27.773  27.849  1.00  0.00     0.167 HD
ATOM     55  C   UNL A   1      45.950  31.607  28.163  1.00  0.00     0.037 A 
ATOM     56  C   UNL A   1      43.766  25.070  27.123  1.00  0.00     0.037 A 
ATOM     57  C   UNL A   1      46.973  30.689  27.737  1.00  0.00     0.049 A 
ATOM     58  C   UNL A   1      45.200  25.466  26.893  1.00  0.00     0.074 A 
ATOM     59  C   UNL A   1      48.320  30.936  27.535  1.00  0.00     0.029 A 
ATOM     60  N   UNL A   1      46.769  29.345  27.464  1.00  0.00    -0.354 N 
ATOM     61  N   UNL A   1      45.771  26.635  27.062  1.00  0.00    -0.248 NA
ATOM     62  C   UNL A   1      46.114  24.417  26.416  1.00  0.00     0.031 C 
ATOM     63  C   UNL A   1      48.925  29.749  27.108  1.00  0.00     0.029 A 
ATOM     64  C   UNL A   1      47.963  28.752  27.087  1.00  0.00     0.049 A 
ATOM     65  H   UNL A   1      45.903  28.881  27.529  1.00  0.00     0.167 HD
ATOM     66  C   UNL A   1      47.113  26.453  26.744  1.00  0.00     0.074 A 
ATOM     67  C   UNL A   1      47.273  25.060  26.383  1.00  0.00     0.031 C 
ATOM     68  C   UNL A   1      48.120  27.360  26.749  1.00  0.00     0.037 A 
BRANCH  55  69
ATOM     69  C   UNL A   1      46.329  33.053  28.353  1.00  0.00     0.058 A 
ATOM     70  C   UNL A   1      46.231  33.984  27.306  1.00  0.00     0.135 A 
ATOM     71  C   UNL A   1      46.765  33.523  29.604  1.00  0.00     0.135 A 
ATOM     72  F   UNL A   1      45.828  33.591  26.087  1.00  0.00    -0.206 F 
ATOM     73  C   UNL A   1      46.595  35.316  27.476  1.00  0.00     0.059 A 
ATOM     74  C   UNL A   1      47.101  34.860  29.806  1.00  0.00     0.059 A 
ATOM     75  F   UNL A   1      46.869  32.682  30.645  1.00  0.00    -0.206 F 
ATOM     76  C   UNL A   1      47.032  35.743  28.730  1.00  0.00     0.060 A 
BRANCH  76  77
ATOM     77  S   UNL A   1      47.507  37.473  28.930  1.00  0.00     0.124 S 
ATOM     78  O   UNL A   1      48.929  37.423  28.604  1.00  0.00    -0.237 OA
ATOM     79  O   UNL A   1      46.657  38.146  27.954  1.00  0.00    -0.237 OA
ATOM     80  O   UNL A   1      47.192  37.752  30.328  1.00  0.00    -0.744 OA
ENDBRANCH  76  77
ENDBRANCH  55  69
BRANCH  56  81
ATOM     81  C   UNL A   1      43.323  23.670  26.872  1.00  0.00     0.058 A 
ATOM     82  C   UNL A   1      43.117  22.781  27.937  1.00  0.00     0.135 A 
ATOM     83  C   UNL A   1      43.101  23.193  25.572  1.00  0.00     0.135 A 
ATOM     84  F   UNL A   1      43.324  23.187  29.200  1.00  0.00    -0.206 F 
ATOM     85  C   UNL A   1      42.729  21.462  27.724  1.00  0.00     0.059 A 
ATOM     86  C   UNL A   1      42.686  21.884  25.334  1.00  0.00     0.059 A 
ATOM     87  F   UNL A   1      43.266  24.008  24.518  1.00  0.00    -0.206 F 
ATOM     88  C   UNL A   1      42.515  21.023  26.417  1.00  0.00     0.060 A 
BRANCH  88  89
ATOM     89  S   UNL A   1      41.975  19.320  26.156  1.00  0.00     0.124 S 
ATOM     90  O   UNL A   1      42.780  18.928  25.006  1.00  0.00    -0.237 OA
ATOM     91  O   UNL A   1      42.323  18.689  27.424  1.00  0.00    -0.237 OA
ATOM     92  O   UNL A   1      40.540  19.458  25.906  1.00  0.00    -0.744 OA
ENDBRANCH  88  89
ENDBRANCH  56  81
BRANCH  68  93
ATOM     93  C   UNL A   1      49.502  26.879  26.398  1.00  0.00     0.058 A 
ATOM     94  C   UNL A   1      50.309  26.204  27.326  1.00  0.00     0.135 A 
ATOM     95  C   UNL A   1      49.999  27.041  25.094  1.00  0.00     0.135 A 
ATOM     96  F   UNL A   1      49.884  26.025  28.587  1.00  0.00    -0.206 F 
ATOM     97  C   UNL A   1      51.568  25.721  26.980  1.00  0.00     0.059 A 
ATOM     98  C   UNL A   1      51.243  26.542  24.718  1.00  0.00     0.059 A 
ATOM     99  F   UNL A   1      49.265  27.670  24.163  1.00  0.00    -0.206 F 
ATOM    100  C   UNL A   1      52.025  25.892  25.671  1.00  0.00     0.060 A 
BRANCH 100 101
ATOM    101  S   UNL A   1      53.641  25.222  25.225  1.00  0.00     0.124 S 
ATOM    102  O   UNL A   1      54.518  25.922  26.159  1.00  0.00    -0.237 OA
ATOM    103  O   UNL A   1      53.466  23.794  25.468  1.00  0.00    -0.237 OA
ATOM    104  O   UNL A   1      53.790  25.600  23.823  1.00  0.00    -0.744 OA
ENDBRANCH 100 101
ENDBRANCH  68  93
ENDBRANCH  42  43
ENDBRANCH  34  37
ENDBRANCH  32  33
ENDBRANCH  31  32
ENDBRANCH   1  31
TORSDOF 17
ENDMDL
