MODEL 1
REMARK VINA RESULT:     -12.4      0.000      0.000
REMARK SMILES Cc1nsc(NC(=O)C2([NH3+])CCCCC2)c1C(=O)NCCCCNC(=O)c1ccc(-c2c3nc(c(-c4c(F)cc(S(=O)(=O)[O-])cc4F)c4ccc([nH]4)c(-c4c(F)cc(S(=O)(=O)[O-])cc4F)c4nc(c(-c5c(F)cc(S(=O)(=O)[O-])cc5F)c5ccc2[nH]5)C=C4)C=C3)cc1
REMARK SMILES IDX 21 1 20 2 19 3 17 4 18 5 16 7 1 8 2 9 3 10 4 11 5 12 6 13
REMARK SMILES IDX 7 14 8 16 9 17 11 18 15 19 12 20 14 21 13 22 10 23 22 27
REMARK SMILES IDX 23 28 24 29 25 30 26 32 27 33 28 34 92 35 29 36 91 37 30 38
REMARK SMILES IDX 31 39 32 40 85 41 33 42 90 43 84 44 86 45 34 46 89 47 83 48
REMARK SMILES IDX 82 49 35 51 69 52 48 53 68 54 49 55 52 56 67 57 87 58 50 59
REMARK SMILES IDX 51 60 66 62 88 63 53 64 36 65 37 66 46 67 38 68 39 69 45 70
REMARK SMILES IDX 47 71 40 72 41 73 42 74 43 75 44 76 70 77 71 78 80 79 72 80
REMARK SMILES IDX 73 81 79 82 81 83 74 84 75 85 76 86 77 87 78 88 54 89 55 90
REMARK SMILES IDX 64 91 56 92 57 93 63 94 65 95 58 96 59 97 60 98 61 99 62 100
REMARK H PARENT 19 6 6 15 10 24 10 25 10 26 24 31 86 50 52 61
REMARK Flexibility Score: inf
ROOT
ATOM      1  C   UNL A   1      38.840  23.203  26.326  1.00  0.00     0.023 C 
ENDROOT
BRANCH   1   2
ATOM      2  C   UNL A   1      37.408  23.489  25.866  1.00  0.00     0.116 C 
BRANCH   2   3
ATOM      3  N   UNL A   1      37.302  23.404  24.430  1.00  0.00    -0.352 N 
ATOM      4  C   UNL A   1      36.336  23.006  23.552  1.00  0.00     0.256 C 
ATOM      5  O   UNL A   1      36.698  23.071  22.371  1.00  0.00    -0.269 OA
ATOM      6  H   UNL A   1      38.122  23.705  23.975  1.00  0.00     0.163 HD
BRANCH   4   7
ATOM      7  C   UNL A   1      34.963  22.558  23.868  1.00  0.00     0.097 A 
ATOM      8  C   UNL A   1      34.989  20.221  25.240  1.00  0.00     0.069 C 
ATOM      9  C   UNL A   1      34.388  21.414  24.590  1.00  0.00     0.066 A 
ATOM     10  N   UNL A   1      33.059  21.380  24.666  1.00  0.00    -0.195 NA
ATOM     11  S   UNL A   1      32.436  22.632  23.863  1.00  0.00    -0.017 S 
ATOM     12  C   UNL A   1      33.886  23.327  23.364  1.00  0.00     0.129 A 
BRANCH  12  13
ATOM     13  N   UNL A   1      33.957  24.460  22.556  1.00  0.00    -0.310 N 
ATOM     14  C   UNL A   1      33.611  25.783  22.639  1.00  0.00     0.286 C 
ATOM     15  H   UNL A   1      34.368  24.252  21.687  1.00  0.00     0.171 HD
ATOM     16  O   UNL A   1      33.772  26.438  21.598  1.00  0.00    -0.267 OA
BRANCH  14  17
ATOM     17  C   UNL A   1      33.029  26.501  23.905  1.00  0.00     0.174 C 
ATOM     18  C   UNL A   1      33.478  27.987  23.999  1.00  0.00     0.079 C 
ATOM     19  C   UNL A   1      31.486  26.383  23.913  1.00  0.00     0.079 C 
ATOM     20  C   UNL A   1      32.676  28.982  23.165  1.00  0.00     0.007 C 
ATOM     21  C   UNL A   1      30.764  27.409  23.041  1.00  0.00     0.007 C 
ATOM     22  C   UNL A   1      31.183  28.821  23.397  1.00  0.00     0.001 C 
BRANCH  17  23
ATOM     23  N   UNL A   1      33.659  25.919  25.118  1.00  0.00    -0.345 N 
ATOM     24  H   UNL A   1      32.933  25.646  25.782  1.00  0.00     0.345 HD
ATOM     25  H   UNL A   1      34.271  26.613  25.549  1.00  0.00     0.345 HD
ATOM     26  H   UNL A   1      34.207  25.098  24.857  1.00  0.00     0.345 HD
ENDBRANCH  17  23
ENDBRANCH  14  17
ENDBRANCH  12  13
ENDBRANCH   4   7
ENDBRANCH   2   3
ENDBRANCH   1   2
BRANCH   1  27
ATOM     27  C   UNL A   1      39.335  21.773  26.092  1.00  0.00     0.023 C 
BRANCH  27  28
ATOM     28  C   UNL A   1      40.363  21.297  27.112  1.00  0.00     0.116 C 
BRANCH  28  29
ATOM     29  N   UNL A   1      41.580  20.782  26.486  1.00  0.00    -0.352 N 
ATOM     30  C   UNL A   1      42.651  21.507  25.991  1.00  0.00     0.251 C 
ATOM     31  H   UNL A   1      41.645  19.803  26.406  1.00  0.00     0.163 HD
ATOM     32  O   UNL A   1      43.407  21.033  25.163  1.00  0.00    -0.269 OA
BRANCH  30  33
ATOM     33  C   UNL A   1      42.861  22.866  26.519  1.00  0.00     0.039 A 
ATOM     34  C   UNL A   1      42.452  23.994  25.804  1.00  0.00     0.014 A 
ATOM     35  C   UNL A   1      43.422  22.975  27.789  1.00  0.00     0.014 A 
ATOM     36  C   UNL A   1      42.530  25.241  26.419  1.00  0.00     0.010 A 
ATOM     37  C   UNL A   1      43.384  24.185  28.437  1.00  0.00     0.010 A 
ATOM     38  C   UNL A   1      42.975  25.328  27.747  1.00  0.00    -0.014 A 
BRANCH  38  39
ATOM     39  C   UNL A   1      42.839  26.573  28.506  1.00  0.00     0.031 A 
ATOM     40  C   UNL A   1      43.981  27.517  28.306  1.00  0.00     0.074 A 
ATOM     41  C   UNL A   1      41.661  26.932  29.070  1.00  0.00     0.049 A 
ATOM     42  N   UNL A   1      44.833  27.946  29.179  1.00  0.00    -0.248 NA
ATOM     43  C   UNL A   1      44.330  27.901  26.923  1.00  0.00     0.031 C 
ATOM     44  C   UNL A   1      40.396  26.182  29.012  1.00  0.00     0.029 A 
ATOM     45  N   UNL A   1      41.283  28.090  29.685  1.00  0.00    -0.354 N 
ATOM     46  C   UNL A   1      45.630  28.875  28.504  1.00  0.00     0.074 A 
ATOM     47  C   UNL A   1      45.445  28.611  27.106  1.00  0.00     0.031 C 
ATOM     48  C   UNL A   1      39.366  26.998  29.317  1.00  0.00     0.029 A 
ATOM     49  C   UNL A   1      39.900  28.269  29.769  1.00  0.00     0.049 A 
ATOM     50  H   UNL A   1      41.929  28.744  30.038  1.00  0.00     0.167 HD
ATOM     51  C   UNL A   1      46.087  29.990  29.144  1.00  0.00     0.037 A 
ATOM     52  C   UNL A   1      39.235  29.383  30.167  1.00  0.00     0.037 A 
ATOM     53  C   UNL A   1      45.935  29.836  30.568  1.00  0.00     0.049 A 
ATOM     54  C   UNL A   1      40.191  30.196  30.951  1.00  0.00     0.074 A 
ATOM     55  C   UNL A   1      46.524  29.093  31.567  1.00  0.00     0.029 A 
ATOM     56  N   UNL A   1      44.728  30.279  31.038  1.00  0.00    -0.354 N 
ATOM     57  N   UNL A   1      40.702  29.804  32.087  1.00  0.00    -0.248 NA
ATOM     58  C   UNL A   1      40.887  31.301  30.303  1.00  0.00     0.031 C 
ATOM     59  C   UNL A   1      45.527  28.935  32.575  1.00  0.00     0.029 A 
ATOM     60  C   UNL A   1      44.383  29.634  32.192  1.00  0.00     0.049 A 
ATOM     61  H   UNL A   1      44.179  30.970  30.601  1.00  0.00     0.167 HD
ATOM     62  C   UNL A   1      41.991  30.301  32.075  1.00  0.00     0.074 A 
ATOM     63  C   UNL A   1      41.990  31.343  31.055  1.00  0.00     0.031 C 
ATOM     64  C   UNL A   1      43.009  29.598  32.649  1.00  0.00     0.037 A 
BRANCH  51  65
ATOM     65  C   UNL A   1      46.151  31.389  28.531  1.00  0.00     0.058 A 
ATOM     66  C   UNL A   1      44.982  31.920  27.931  1.00  0.00     0.135 A 
ATOM     67  C   UNL A   1      47.343  32.079  28.217  1.00  0.00     0.135 A 
ATOM     68  F   UNL A   1      43.782  31.364  28.163  1.00  0.00    -0.206 F 
ATOM     69  C   UNL A   1      45.014  32.978  27.019  1.00  0.00     0.059 A 
ATOM     70  C   UNL A   1      47.390  33.163  27.344  1.00  0.00     0.059 A 
ATOM     71  F   UNL A   1      48.542  31.694  28.661  1.00  0.00    -0.206 F 
ATOM     72  C   UNL A   1      46.230  33.579  26.716  1.00  0.00     0.060 A 
BRANCH  72  73
ATOM     73  S   UNL A   1      46.301  34.877  25.469  1.00  0.00     0.124 S 
ATOM     74  O   UNL A   1      47.686  34.781  25.026  1.00  0.00    -0.237 OA
ATOM     75  O   UNL A   1      45.289  34.434  24.515  1.00  0.00    -0.237 OA
ATOM     76  O   UNL A   1      45.958  36.082  26.221  1.00  0.00    -0.744 OA
ENDBRANCH  72  73
ENDBRANCH  51  65
BRANCH  52  77
ATOM     77  C   UNL A   1      37.925  29.919  29.710  1.00  0.00     0.058 A 
ATOM     78  C   UNL A   1      36.973  30.406  30.626  1.00  0.00     0.135 A 
ATOM     79  C   UNL A   1      37.701  30.242  28.356  1.00  0.00     0.135 A 
ATOM     80  F   UNL A   1      37.109  30.152  31.936  1.00  0.00    -0.206 F 
ATOM     81  C   UNL A   1      35.903  31.220  30.234  1.00  0.00     0.059 A 
ATOM     82  C   UNL A   1      36.639  31.046  27.941  1.00  0.00     0.059 A 
ATOM     83  F   UNL A   1      38.569  29.861  27.406  1.00  0.00    -0.206 F 
ATOM     84  C   UNL A   1      35.760  31.558  28.889  1.00  0.00     0.060 A 
BRANCH  84  85
ATOM     85  S   UNL A   1      34.501  32.764  28.402  1.00  0.00     0.124 S 
ATOM     86  O   UNL A   1      34.057  33.276  29.695  1.00  0.00    -0.237 OA
ATOM     87  O   UNL A   1      35.265  33.692  27.577  1.00  0.00    -0.237 OA
ATOM     88  O   UNL A   1      33.519  31.956  27.682  1.00  0.00    -0.744 OA
ENDBRANCH  84  85
ENDBRANCH  52  77
BRANCH  64  89
ATOM     89  C   UNL A   1      42.661  28.621  33.733  1.00  0.00     0.058 A 
ATOM     90  C   UNL A   1      42.606  27.226  33.584  1.00  0.00     0.135 A 
ATOM     91  C   UNL A   1      42.469  29.142  35.020  1.00  0.00     0.135 A 
ATOM     92  F   UNL A   1      42.857  26.646  32.402  1.00  0.00    -0.206 F 
ATOM     93  C   UNL A   1      42.340  26.387  34.668  1.00  0.00     0.059 A 
ATOM     94  C   UNL A   1      42.235  28.326  36.119  1.00  0.00     0.059 A 
ATOM     95  F   UNL A   1      42.559  30.467  35.229  1.00  0.00    -0.206 F 
ATOM     96  C   UNL A   1      42.157  26.949  35.934  1.00  0.00     0.060 A 
BRANCH  96  97
ATOM     97  S   UNL A   1      41.879  25.867  37.351  1.00  0.00     0.124 S 
ATOM     98  O   UNL A   1      42.813  26.403  38.334  1.00  0.00    -0.237 OA
ATOM     99  O   UNL A   1      40.463  26.080  37.638  1.00  0.00    -0.237 OA
ATOM    100  O   UNL A   1      42.208  24.540  36.837  1.00  0.00    -0.744 OA
ENDBRANCH  96  97
ENDBRANCH  64  89
ENDBRANCH  38  39
ENDBRANCH  30  33
ENDBRANCH  28  29
ENDBRANCH  27  28
ENDBRANCH   1  27
TORSDOF 17
ENDMDL
MODEL 2
REMARK VINA RESULT:     -12.1      1.099      1.860
REMARK SMILES Cc1nsc(NC(=O)C2([NH3+])CCCCC2)c1C(=O)NCCCCNC(=O)c1ccc(-c2c3nc(c(-c4c(F)cc(S(=O)(=O)[O-])cc4F)c4ccc([nH]4)c(-c4c(F)cc(S(=O)(=O)[O-])cc4F)c4nc(c(-c5c(F)cc(S(=O)(=O)[O-])cc5F)c5ccc2[nH]5)C=C4)C=C3)cc1
REMARK SMILES IDX 21 1 20 2 19 3 17 4 18 5 16 7 1 8 2 9 3 10 4 11 5 12 6 13
REMARK SMILES IDX 7 14 8 16 9 17 11 18 15 19 12 20 14 21 13 22 10 23 22 27
REMARK SMILES IDX 23 28 24 29 25 30 26 32 27 33 28 34 92 35 29 36 91 37 30 38
REMARK SMILES IDX 31 39 32 40 85 41 33 42 90 43 84 44 86 45 34 46 89 47 83 48
REMARK SMILES IDX 82 49 35 51 69 52 48 53 68 54 49 55 52 56 67 57 87 58 50 59
REMARK SMILES IDX 51 60 66 62 88 63 53 64 36 65 37 66 46 67 38 68 39 69 45 70
REMARK SMILES IDX 47 71 40 72 41 73 42 74 43 75 44 76 70 77 71 78 80 79 72 80
REMARK SMILES IDX 73 81 79 82 81 83 74 84 75 85 76 86 77 87 78 88 54 89 55 90
REMARK SMILES IDX 64 91 56 92 57 93 63 94 65 95 58 96 59 97 60 98 61 99 62 100
REMARK H PARENT 19 6 6 15 10 24 10 25 10 26 24 31 86 50 52 61
REMARK Flexibility Score: inf
ROOT
ATOM      1  C   UNL A   1      39.122  22.020  26.096  1.00  0.00     0.023 C 
ENDROOT
BRANCH   1   2
ATOM      2  C   UNL A   1      37.626  22.140  25.797  1.00  0.00     0.116 C 
BRANCH   2   3
ATOM      3  N   UNL A   1      37.405  22.635  24.461  1.00  0.00    -0.352 N 
ATOM      4  C   UNL A   1      36.343  22.668  23.603  1.00  0.00     0.256 C 
ATOM      5  O   UNL A   1      36.621  23.175  22.509  1.00  0.00    -0.269 OA
ATOM      6  H   UNL A   1      38.212  23.046  24.076  1.00  0.00     0.163 HD
BRANCH   4   7
ATOM      7  C   UNL A   1      34.963  22.206  23.862  1.00  0.00     0.097 A 
ATOM      8  C   UNL A   1      34.954  19.747  25.000  1.00  0.00     0.069 C 
ATOM      9  C   UNL A   1      34.371  21.003  24.464  1.00  0.00     0.066 A 
ATOM     10  N   UNL A   1      33.041  20.976  24.524  1.00  0.00    -0.195 NA
ATOM     11  S   UNL A   1      32.437  22.307  23.841  1.00  0.00    -0.017 S 
ATOM     12  C   UNL A   1      33.899  23.031  23.425  1.00  0.00     0.129 A 
BRANCH  12  13
ATOM     13  N   UNL A   1      33.989  24.237  22.732  1.00  0.00    -0.310 N 
ATOM     14  C   UNL A   1      33.754  25.564  22.979  1.00  0.00     0.286 C 
ATOM     15  H   UNL A   1      34.309  24.096  21.812  1.00  0.00     0.171 HD
ATOM     16  O   UNL A   1      33.876  26.314  21.998  1.00  0.00    -0.267 OA
BRANCH  14  17
ATOM     17  C   UNL A   1      33.335  26.180  24.357  1.00  0.00     0.174 C 
ATOM     18  C   UNL A   1      33.655  27.700  24.445  1.00  0.00     0.079 C 
ATOM     19  C   UNL A   1      31.835  25.909  24.622  1.00  0.00     0.079 C 
ATOM     20  C   UNL A   1      32.631  28.636  23.808  1.00  0.00     0.007 C 
ATOM     21  C   UNL A   1      30.881  26.885  23.936  1.00  0.00     0.007 C 
ATOM     22  C   UNL A   1      31.223  28.320  24.282  1.00  0.00     0.001 C 
BRANCH  17  23
ATOM     23  N   UNL A   1      34.218  25.626  25.417  1.00  0.00    -0.345 N 
ATOM     24  H   UNL A   1      33.919  24.679  25.648  1.00  0.00     0.345 HD
ATOM     25  H   UNL A   1      34.160  26.214  26.249  1.00  0.00     0.345 HD
ATOM     26  H   UNL A   1      35.182  25.607  25.082  1.00  0.00     0.345 HD
ENDBRANCH  17  23
ENDBRANCH  14  17
ENDBRANCH  12  13
ENDBRANCH   4   7
ENDBRANCH   2   3
ENDBRANCH   1   2
BRANCH   1  27
ATOM     27  C   UNL A   1      39.715  20.615  25.941  1.00  0.00     0.023 C 
BRANCH  27  28
ATOM     28  C   UNL A   1      40.862  20.317  26.899  1.00  0.00     0.116 C 
BRANCH  28  29
ATOM     29  N   UNL A   1      42.041  19.786  26.217  1.00  0.00    -0.352 N 
ATOM     30  C   UNL A   1      43.041  20.497  25.576  1.00  0.00     0.251 C 
ATOM     31  H   UNL A   1      42.135  18.806  26.211  1.00  0.00     0.163 HD
ATOM     32  O   UNL A   1      43.744  19.977  24.728  1.00  0.00    -0.269 OA
BRANCH  30  33
ATOM     33  C   UNL A   1      43.246  21.901  25.972  1.00  0.00     0.039 A 
ATOM     34  C   UNL A   1      42.610  22.946  25.296  1.00  0.00     0.014 A 
ATOM     35  C   UNL A   1      44.043  22.138  27.089  1.00  0.00     0.014 A 
ATOM     36  C   UNL A   1      42.712  24.236  25.811  1.00  0.00     0.010 A 
ATOM     37  C   UNL A   1      44.041  23.386  27.662  1.00  0.00     0.010 A 
ATOM     38  C   UNL A   1      43.410  24.446  27.009  1.00  0.00    -0.014 A 
BRANCH  38  39
ATOM     39  C   UNL A   1      43.332  25.731  27.709  1.00  0.00     0.031 A 
ATOM     40  C   UNL A   1      44.431  26.675  27.340  1.00  0.00     0.074 A 
ATOM     41  C   UNL A   1      42.213  26.108  28.373  1.00  0.00     0.049 A 
ATOM     42  N   UNL A   1      45.361  27.162  28.094  1.00  0.00    -0.248 NA
ATOM     43  C   UNL A   1      44.628  26.984  25.909  1.00  0.00     0.031 C 
ATOM     44  C   UNL A   1      40.962  25.342  28.489  1.00  0.00     0.029 A 
ATOM     45  N   UNL A   1      41.881  27.294  28.960  1.00  0.00    -0.354 N 
ATOM     46  C   UNL A   1      46.068  28.060  27.290  1.00  0.00     0.074 A 
ATOM     47  C   UNL A   1      45.744  27.717  25.935  1.00  0.00     0.031 C 
ATOM     48  C   UNL A   1      39.955  26.162  28.854  1.00  0.00     0.029 A 
ATOM     49  C   UNL A   1      40.512  27.462  29.178  1.00  0.00     0.049 A 
ATOM     50  H   UNL A   1      42.549  27.973  29.207  1.00  0.00     0.167 HD
ATOM     51  C   UNL A   1      46.570  29.215  27.816  1.00  0.00     0.037 A 
ATOM     52  C   UNL A   1      39.873  28.589  29.582  1.00  0.00     0.037 A 
ATOM     53  C   UNL A   1      46.569  29.139  29.255  1.00  0.00     0.049 A 
ATOM     54  C   UNL A   1      40.891  29.455  30.216  1.00  0.00     0.074 A 
ATOM     55  C   UNL A   1      47.271  28.460  30.226  1.00  0.00     0.029 A 
ATOM     56  N   UNL A   1      45.410  29.594  29.823  1.00  0.00    -0.354 N 
ATOM     57  N   UNL A   1      41.523  29.133  31.313  1.00  0.00    -0.248 NA
ATOM     58  C   UNL A   1      41.497  30.529  29.439  1.00  0.00     0.031 C 
ATOM     59  C   UNL A   1      46.387  28.348  31.340  1.00  0.00     0.029 A 
ATOM     60  C   UNL A   1      45.198  29.011  31.041  1.00  0.00     0.049 A 
ATOM     61  H   UNL A   1      44.807  30.253  29.410  1.00  0.00     0.167 HD
ATOM     62  C   UNL A   1      42.795  29.643  31.138  1.00  0.00     0.074 A 
ATOM     63  C   UNL A   1      42.671  30.626  30.069  1.00  0.00     0.031 C 
ATOM     64  C   UNL A   1      43.880  28.985  31.640  1.00  0.00     0.037 A 
BRANCH  51  65
ATOM     65  C   UNL A   1      46.546  30.578  27.125  1.00  0.00     0.058 A 
ATOM     66  C   UNL A   1      47.729  31.357  27.122  1.00  0.00     0.135 A 
ATOM     67  C   UNL A   1      45.374  31.282  26.767  1.00  0.00     0.135 A 
ATOM     68  F   UNL A   1      48.913  30.801  27.428  1.00  0.00    -0.206 F 
ATOM     69  C   UNL A   1      47.728  32.734  26.885  1.00  0.00     0.059 A 
ATOM     70  C   UNL A   1      45.358  32.645  26.486  1.00  0.00     0.059 A 
ATOM     71  F   UNL A   1      44.164  30.716  26.757  1.00  0.00    -0.206 F 
ATOM     72  C   UNL A   1      46.530  33.372  26.589  1.00  0.00     0.060 A 
BRANCH  72  73
ATOM     73  S   UNL A   1      46.497  35.161  26.379  1.00  0.00     0.124 S 
ATOM     74  O   UNL A   1      45.126  35.377  25.932  1.00  0.00    -0.237 OA
ATOM     75  O   UNL A   1      46.816  35.628  27.725  1.00  0.00    -0.237 OA
ATOM     76  O   UNL A   1      47.534  35.399  25.379  1.00  0.00    -0.744 OA
ENDBRANCH  72  73
ENDBRANCH  51  65
BRANCH  52  77
ATOM     77  C   UNL A   1      38.513  29.083  29.236  1.00  0.00     0.058 A 
ATOM     78  C   UNL A   1      37.551  29.338  30.232  1.00  0.00     0.135 A 
ATOM     79  C   UNL A   1      38.229  29.601  27.955  1.00  0.00     0.135 A 
ATOM     80  F   UNL A   1      37.741  28.889  31.481  1.00  0.00    -0.206 F 
ATOM     81  C   UNL A   1      36.411  30.115  29.992  1.00  0.00     0.059 A 
ATOM     82  C   UNL A   1      37.098  30.372  27.691  1.00  0.00     0.059 A 
ATOM     83  F   UNL A   1      39.099  29.449  26.945  1.00  0.00    -0.206 F 
ATOM     84  C   UNL A   1      36.207  30.652  28.722  1.00  0.00     0.060 A 
BRANCH  84  85
ATOM     85  S   UNL A   1      34.845  31.815  28.455  1.00  0.00     0.124 S 
ATOM     86  O   UNL A   1      34.515  32.212  29.819  1.00  0.00    -0.237 OA
ATOM     87  O   UNL A   1      35.472  32.839  27.626  1.00  0.00    -0.237 OA
ATOM     88  O   UNL A   1      33.835  31.003  27.780  1.00  0.00    -0.744 OA
ENDBRANCH  84  85
ENDBRANCH  52  77
BRANCH  64  89
ATOM     89  C   UNL A   1      43.663  28.066  32.806  1.00  0.00     0.058 A 
ATOM     90  C   UNL A   1      43.398  28.471  34.124  1.00  0.00     0.135 A 
ATOM     91  C   UNL A   1      43.629  26.691  32.534  1.00  0.00     0.135 A 
ATOM     92  F   UNL A   1      43.333  29.771  34.447  1.00  0.00    -0.206 F 
ATOM     93  C   UNL A   1      43.140  27.543  35.134  1.00  0.00     0.059 A 
ATOM     94  C   UNL A   1      43.343  25.751  33.515  1.00  0.00     0.059 A 
ATOM     95  F   UNL A   1      43.828  26.249  31.280  1.00  0.00    -0.206 F 
ATOM     96  C   UNL A   1      43.113  26.184  34.818  1.00  0.00     0.060 A 
BRANCH  96  97
ATOM     97  S   UNL A   1      42.715  24.982  36.105  1.00  0.00     0.124 S 
ATOM     98  O   UNL A   1      41.828  24.063  35.402  1.00  0.00    -0.237 OA
ATOM     99  O   UNL A   1      44.029  24.452  36.459  1.00  0.00    -0.237 OA
ATOM    100  O   UNL A   1      42.081  25.792  37.142  1.00  0.00    -0.744 OA
ENDBRANCH  96  97
ENDBRANCH  64  89
ENDBRANCH  38  39
ENDBRANCH  30  33
ENDBRANCH  28  29
ENDBRANCH  27  28
ENDBRANCH   1  27
TORSDOF 17
ENDMDL
MODEL 3
REMARK VINA RESULT:     -11.9      2.720      7.705
REMARK SMILES Cc1nsc(NC(=O)C2([NH3+])CCCCC2)c1C(=O)NCCCCNC(=O)c1ccc(-c2c3nc(c(-c4c(F)cc(S(=O)(=O)[O-])cc4F)c4ccc([nH]4)c(-c4c(F)cc(S(=O)(=O)[O-])cc4F)c4nc(c(-c5c(F)cc(S(=O)(=O)[O-])cc5F)c5ccc2[nH]5)C=C4)C=C3)cc1
REMARK SMILES IDX 21 1 20 2 19 3 17 4 18 5 16 7 1 8 2 9 3 10 4 11 5 12 6 13
REMARK SMILES IDX 7 14 8 16 9 17 11 18 15 19 12 20 14 21 13 22 10 23 22 27
REMARK SMILES IDX 23 28 24 29 25 30 26 32 27 33 28 34 92 35 29 36 91 37 30 38
REMARK SMILES IDX 31 39 32 40 85 41 33 42 90 43 84 44 86 45 34 46 89 47 83 48
REMARK SMILES IDX 82 49 35 51 69 52 48 53 68 54 49 55 52 56 67 57 87 58 50 59
REMARK SMILES IDX 51 60 66 62 88 63 53 64 36 65 37 66 46 67 38 68 39 69 45 70
REMARK SMILES IDX 47 71 40 72 41 73 42 74 43 75 44 76 70 77 71 78 80 79 72 80
REMARK SMILES IDX 73 81 79 82 81 83 74 84 75 85 76 86 77 87 78 88 54 89 55 90
REMARK SMILES IDX 64 91 56 92 57 93 63 94 65 95 58 96 59 97 60 98 61 99 62 100
REMARK H PARENT 19 6 6 15 10 24 10 25 10 26 24 31 86 50 52 61
REMARK Flexibility Score: inf
ROOT
ATOM      1  C   UNL A   1      36.815  21.003  24.663  1.00  0.00     0.023 C 
ENDROOT
BRANCH   1   2
ATOM      2  C   UNL A   1      36.757  22.087  25.742  1.00  0.00     0.116 C 
BRANCH   2   3
ATOM      3  N   UNL A   1      35.671  21.845  26.659  1.00  0.00    -0.352 N 
ATOM      4  C   UNL A   1      34.338  21.575  26.533  1.00  0.00     0.256 C 
ATOM      5  O   UNL A   1      33.761  21.469  27.622  1.00  0.00    -0.269 OA
ATOM      6  H   UNL A   1      35.959  21.884  27.600  1.00  0.00     0.163 HD
BRANCH   4   7
ATOM      7  C   UNL A   1      33.575  21.380  25.282  1.00  0.00     0.097 A 
ATOM      8  C   UNL A   1      33.035  18.757  24.866  1.00  0.00     0.069 C 
ATOM      9  C   UNL A   1      33.006  20.216  24.588  1.00  0.00     0.066 A 
ATOM     10  N   UNL A   1      32.357  20.473  23.454  1.00  0.00    -0.195 NA
ATOM     11  S   UNL A   1      32.433  22.051  23.129  1.00  0.00    -0.017 S 
ATOM     12  C   UNL A   1      33.321  22.518  24.480  1.00  0.00     0.129 A 
BRANCH  12  13
ATOM     13  N   UNL A   1      33.743  23.827  24.707  1.00  0.00    -0.310 N 
ATOM     14  C   UNL A   1      33.195  25.003  25.150  1.00  0.00     0.286 C 
ATOM     15  H   UNL A   1      34.696  23.938  24.488  1.00  0.00     0.171 HD
ATOM     16  O   UNL A   1      33.944  25.989  25.094  1.00  0.00    -0.267 OA
BRANCH  14  17
ATOM     17  C   UNL A   1      31.734  25.188  25.685  1.00  0.00     0.174 C 
ATOM     18  C   UNL A   1      31.469  26.637  26.186  1.00  0.00     0.079 C 
ATOM     19  C   UNL A   1      30.717  24.781  24.593  1.00  0.00     0.079 C 
ATOM     20  C   UNL A   1      31.120  27.663  25.111  1.00  0.00     0.007 C 
ATOM     21  C   UNL A   1      30.436  25.862  23.550  1.00  0.00     0.007 C 
ATOM     22  C   UNL A   1      30.007  27.159  24.207  1.00  0.00     0.001 C 
BRANCH  17  23
ATOM     23  N   UNL A   1      31.579  24.405  26.939  1.00  0.00    -0.345 N 
ATOM     24  H   UNL A   1      31.906  23.450  26.786  1.00  0.00     0.345 HD
ATOM     25  H   UNL A   1      30.596  24.388  27.211  1.00  0.00     0.345 HD
ATOM     26  H   UNL A   1      32.130  24.838  27.681  1.00  0.00     0.345 HD
ENDBRANCH  17  23
ENDBRANCH  14  17
ENDBRANCH  12  13
ENDBRANCH   4   7
ENDBRANCH   2   3
ENDBRANCH   1   2
BRANCH   1  27
ATOM     27  C   UNL A   1      37.828  19.881  24.910  1.00  0.00     0.023 C 
BRANCH  27  28
ATOM     28  C   UNL A   1      39.061  20.320  25.691  1.00  0.00     0.116 C 
BRANCH  28  29
ATOM     29  N   UNL A   1      40.051  19.251  25.826  1.00  0.00    -0.352 N 
ATOM     30  C   UNL A   1      41.416  19.379  26.017  1.00  0.00     0.251 C 
ATOM     31  H   UNL A   1      39.705  18.331  25.773  1.00  0.00     0.163 HD
ATOM     32  O   UNL A   1      42.182  18.478  25.730  1.00  0.00    -0.269 OA
BRANCH  30  33
ATOM     33  C   UNL A   1      41.911  20.637  26.603  1.00  0.00     0.039 A 
ATOM     34  C   UNL A   1      42.453  21.647  25.803  1.00  0.00     0.014 A 
ATOM     35  C   UNL A   1      41.753  20.804  27.976  1.00  0.00     0.014 A 
ATOM     36  C   UNL A   1      42.756  22.873  26.389  1.00  0.00     0.010 A 
ATOM     37  C   UNL A   1      41.937  22.049  28.525  1.00  0.00     0.010 A 
ATOM     38  C   UNL A   1      42.473  23.077  27.748  1.00  0.00    -0.014 A 
BRANCH  38  39
ATOM     39  C   UNL A   1      42.545  24.416  28.338  1.00  0.00     0.031 A 
ATOM     40  C   UNL A   1      41.350  25.262  28.037  1.00  0.00     0.074 A 
ATOM     41  C   UNL A   1      43.454  24.718  29.296  1.00  0.00     0.049 A 
ATOM     42  N   UNL A   1      41.295  26.368  27.369  1.00  0.00    -0.248 NA
ATOM     43  C   UNL A   1      40.016  24.723  28.372  1.00  0.00     0.031 C 
ATOM     44  C   UNL A   1      44.454  23.806  29.875  1.00  0.00     0.029 A 
ATOM     45  N   UNL A   1      43.600  25.834  30.067  1.00  0.00    -0.354 N 
ATOM     46  C   UNL A   1      39.968  26.799  27.462  1.00  0.00     0.074 A 
ATOM     47  C   UNL A   1      39.206  25.648  27.853  1.00  0.00     0.031 C 
ATOM     48  C   UNL A   1      44.900  24.301  31.049  1.00  0.00     0.029 A 
ATOM     49  C   UNL A   1      44.365  25.639  31.219  1.00  0.00     0.049 A 
ATOM     50  H   UNL A   1      43.199  26.702  29.832  1.00  0.00     0.167 HD
ATOM     51  C   UNL A   1      39.677  28.128  27.553  1.00  0.00     0.037 A 
ATOM     52  C   UNL A   1      44.541  26.504  32.249  1.00  0.00     0.037 A 
ATOM     53  C   UNL A   1      40.828  28.910  27.181  1.00  0.00     0.049 A 
ATOM     54  C   UNL A   1      44.198  27.852  31.741  1.00  0.00     0.074 A 
ATOM     55  C   UNL A   1      41.517  29.199  26.024  1.00  0.00     0.029 A 
ATOM     56  N   UNL A   1      41.652  29.201  28.236  1.00  0.00    -0.354 N 
ATOM     57  N   UNL A   1      44.875  28.457  30.803  1.00  0.00    -0.248 NA
ATOM     58  C   UNL A   1      42.872  28.396  32.004  1.00  0.00     0.031 C 
ATOM     59  C   UNL A   1      42.857  29.476  26.425  1.00  0.00     0.029 A 
ATOM     60  C   UNL A   1      42.936  29.408  27.816  1.00  0.00     0.049 A 
ATOM     61  H   UNL A   1      41.358  29.254  29.174  1.00  0.00     0.167 HD
ATOM     62  C   UNL A   1      43.921  29.150  30.083  1.00  0.00     0.074 A 
ATOM     63  C   UNL A   1      42.756  29.219  30.957  1.00  0.00     0.031 C 
ATOM     64  C   UNL A   1      44.050  29.306  28.734  1.00  0.00     0.037 A 
BRANCH  51  65
ATOM     65  C   UNL A   1      38.607  28.733  28.462  1.00  0.00     0.058 A 
ATOM     66  C   UNL A   1      37.795  29.776  27.953  1.00  0.00     0.135 A 
ATOM     67  C   UNL A   1      38.559  28.578  29.866  1.00  0.00     0.135 A 
ATOM     68  F   UNL A   1      37.740  30.015  26.632  1.00  0.00    -0.206 F 
ATOM     69  C   UNL A   1      37.082  30.651  28.776  1.00  0.00     0.059 A 
ATOM     70  C   UNL A   1      37.820  29.412  30.700  1.00  0.00     0.059 A 
ATOM     71  F   UNL A   1      39.291  27.672  30.520  1.00  0.00    -0.206 F 
ATOM     72  C   UNL A   1      37.119  30.471  30.154  1.00  0.00     0.060 A 
BRANCH  72  73
ATOM     73  S   UNL A   1      36.286  31.649  31.232  1.00  0.00     0.124 S 
ATOM     74  O   UNL A   1      37.248  32.744  31.267  1.00  0.00    -0.237 OA
ATOM     75  O   UNL A   1      35.048  31.904  30.501  1.00  0.00    -0.237 OA
ATOM     76  O   UNL A   1      36.128  30.905  32.479  1.00  0.00    -0.744 OA
ENDBRANCH  72  73
ENDBRANCH  51  65
BRANCH  52  77
ATOM     77  C   UNL A   1      44.732  26.227  33.699  1.00  0.00     0.058 A 
ATOM     78  C   UNL A   1      45.881  26.667  34.383  1.00  0.00     0.135 A 
ATOM     79  C   UNL A   1      43.661  25.791  34.505  1.00  0.00     0.135 A 
ATOM     80  F   UNL A   1      46.947  27.105  33.697  1.00  0.00    -0.206 F 
ATOM     81  C   UNL A   1      45.941  26.736  35.781  1.00  0.00     0.059 A 
ATOM     82  C   UNL A   1      43.700  25.845  35.898  1.00  0.00     0.059 A 
ATOM     83  F   UNL A   1      42.505  25.389  33.954  1.00  0.00    -0.206 F 
ATOM     84  C   UNL A   1      44.832  26.347  36.531  1.00  0.00     0.060 A 
BRANCH  84  85
ATOM     85  S   UNL A   1      44.829  26.616  38.321  1.00  0.00     0.124 S 
ATOM     86  O   UNL A   1      43.413  26.476  38.645  1.00  0.00    -0.237 OA
ATOM     87  O   UNL A   1      45.700  25.547  38.796  1.00  0.00    -0.237 OA
ATOM     88  O   UNL A   1      45.369  27.966  38.460  1.00  0.00    -0.744 OA
ENDBRANCH  84  85
ENDBRANCH  52  77
BRANCH  64  89
ATOM     89  C   UNL A   1      45.430  29.231  28.149  1.00  0.00     0.058 A 
ATOM     90  C   UNL A   1      46.398  30.245  28.214  1.00  0.00     0.135 A 
ATOM     91  C   UNL A   1      45.810  28.009  27.575  1.00  0.00     0.135 A 
ATOM     92  F   UNL A   1      46.137  31.412  28.819  1.00  0.00    -0.206 F 
ATOM     93  C   UNL A   1      47.683  30.060  27.701  1.00  0.00     0.059 A 
ATOM     94  C   UNL A   1      47.091  27.791  27.086  1.00  0.00     0.059 A 
ATOM     95  F   UNL A   1      44.938  26.988  27.529  1.00  0.00    -0.206 F 
ATOM     96  C   UNL A   1      48.020  28.827  27.139  1.00  0.00     0.060 A 
BRANCH  96  97
ATOM     97  S   UNL A   1      49.699  28.558  26.533  1.00  0.00     0.124 S 
ATOM     98  O   UNL A   1      49.500  27.516  25.533  1.00  0.00    -0.237 OA
ATOM     99  O   UNL A   1      50.062  29.875  26.017  1.00  0.00    -0.237 OA
ATOM    100  O   UNL A   1      50.430  28.144  27.728  1.00  0.00    -0.744 OA
ENDBRANCH  96  97
ENDBRANCH  64  89
ENDBRANCH  38  39
ENDBRANCH  30  33
ENDBRANCH  28  29
ENDBRANCH  27  28
ENDBRANCH   1  27
TORSDOF 17
ENDMDL
