MODEL 1
REMARK VINA RESULT:     -12.3      0.000      0.000
REMARK SMILES CCOC(=O)c1c(NC(=O)[C@@H]2[C@@H]3CC[C@@H](C3)[C@@H]2C(=O)NCCCCNC(=O)c2ccc(-c3c4nc(c(-c5c(F)cc(S(=O)(=O)[O-])cc5F)c5ccc([nH]5)c(-c5c(F)cc(S(=O)(=O)[O-])cc5F)c5nc(c(-c6c(F)cc(S(=O)(=O)[O-])cc6F)c6ccc3[nH]6)C=C5)C=C4)cc2)sc2c1CCCC2
REMARK SMILES IDX 21 1 20 2 18 3 19 4 17 6 11 7 12 8 13 9 16 10 15 11 14 12
REMARK SMILES IDX 9 13 8 14 10 16 7 17 6 18 96 19 94 20 95 21 97 22 100 23
REMARK SMILES IDX 98 24 99 25 4 26 5 27 3 28 2 29 1 30 22 31 23 32 24 33 25 34
REMARK SMILES IDX 26 35 27 37 28 38 29 39 93 40 30 41 92 42 31 43 32 44 33 45
REMARK SMILES IDX 86 46 34 47 91 48 85 49 87 50 35 51 90 52 84 53 83 54 36 56
REMARK SMILES IDX 70 57 49 58 69 59 50 60 53 61 68 62 88 63 51 64 52 65 67 67
REMARK SMILES IDX 89 68 54 69 37 70 38 71 47 72 39 73 40 74 46 75 48 76 41 77
REMARK SMILES IDX 42 78 43 79 44 80 45 81 71 82 72 83 81 84 73 85 74 86 80 87
REMARK SMILES IDX 82 88 75 89 76 90 77 91 78 92 79 93 55 94 56 95 65 96 57 97
REMARK SMILES IDX 58 98 64 99 66 100 59 101 60 102 61 103 62 104 63 105
REMARK H PARENT 20 5 8 15 25 36 87 55 53 66
REMARK Flexibility Score: inf
ROOT
ATOM      1  C   UNL A   1      35.452  23.360  26.116  1.00  0.00     0.116 C 
ENDROOT
BRANCH   1   2
ATOM      2  N   UNL A   1      35.077  24.195  25.004  1.00  0.00    -0.356 N 
ATOM      3  C   UNL A   1      33.938  24.227  24.274  1.00  0.00     0.224 C 
ATOM      4  O   UNL A   1      33.810  25.191  23.506  1.00  0.00    -0.275 OA
ATOM      5  H   UNL A   1      35.761  24.850  24.731  1.00  0.00     0.163 HD
BRANCH   3   6
ATOM      6  C   UNL A   1      32.869  23.126  24.236  1.00  0.00     0.094 C 
ATOM      7  C   UNL A   1      32.025  22.619  25.430  1.00  0.00     0.094 C 
ATOM      8  C   UNL A   1      32.239  21.081  25.362  1.00  0.00     0.002 C 
ATOM      9  C   UNL A   1      33.687  20.588  25.534  1.00  0.00     0.005 C 
ATOM     10  C   UNL A   1      32.093  20.882  23.843  1.00  0.00     0.009 C 
ATOM     11  C   UNL A   1      33.275  21.809  23.516  1.00  0.00     0.002 C 
ATOM     12  C   UNL A   1      34.388  21.068  24.254  1.00  0.00     0.005 C 
BRANCH   7  13
ATOM     13  C   UNL A   1      32.044  23.353  26.750  1.00  0.00     0.229 C 
ATOM     14  N   UNL A   1      31.571  24.607  26.919  1.00  0.00    -0.317 N 
ATOM     15  H   UNL A   1      31.279  24.777  27.845  1.00  0.00     0.170 HD
ATOM     16  O   UNL A   1      32.571  22.861  27.751  1.00  0.00    -0.274 OA
BRANCH  14  17
ATOM     17  C   UNL A   1      31.401  25.701  26.108  1.00  0.00     0.110 A 
ATOM     18  C   UNL A   1      31.972  26.928  25.822  1.00  0.00     0.098 A 
ATOM     19  C   UNL A   1      31.150  27.667  24.881  1.00  0.00    -0.017 A 
ATOM     20  S   UNL A   1      29.953  25.443  25.208  1.00  0.00    -0.122 S 
ATOM     21  C   UNL A   1      30.049  26.954  24.464  1.00  0.00     0.011 A 
ATOM     22  C   UNL A   1      31.428  29.056  24.379  1.00  0.00     0.038 C 
ATOM     23  C   UNL A   1      29.006  27.443  23.508  1.00  0.00     0.047 C 
ATOM     24  C   UNL A   1      30.189  29.682  23.724  1.00  0.00     0.005 C 
ATOM     25  C   UNL A   1      29.505  28.695  22.769  1.00  0.00     0.006 C 
BRANCH  18  26
ATOM     26  C   UNL A   1      33.202  27.523  26.320  1.00  0.00     0.341 C 
ATOM     27  O   UNL A   1      34.283  27.301  25.795  1.00  0.00    -0.246 OA
BRANCH  26  28
ATOM     28  O   UNL A   1      32.986  28.462  27.287  1.00  0.00    -0.462 OA
BRANCH  28  29
ATOM     29  C   UNL A   1      33.853  29.607  27.229  1.00  0.00     0.230 C 
ATOM     30  C   UNL A   1      33.024  30.876  27.249  1.00  0.00     0.049 C 
ENDBRANCH  28  29
ENDBRANCH  26  28
ENDBRANCH  18  26
ENDBRANCH  14  17
ENDBRANCH   7  13
ENDBRANCH   3   6
ENDBRANCH   1   2
BRANCH   1  31
ATOM     31  C   UNL A   1      36.785  22.655  25.918  1.00  0.00     0.023 C 
BRANCH  31  32
ATOM     32  C   UNL A   1      37.951  23.613  25.753  1.00  0.00     0.023 C 
BRANCH  32  33
ATOM     33  C   UNL A   1      39.012  23.498  26.839  1.00  0.00     0.116 C 
BRANCH  33  34
ATOM     34  N   UNL A   1      40.376  23.672  26.338  1.00  0.00    -0.352 N 
ATOM     35  C   UNL A   1      41.177  24.786  26.449  1.00  0.00     0.251 C 
ATOM     36  H   UNL A   1      40.767  22.902  25.866  1.00  0.00     0.163 HD
ATOM     37  O   UNL A   1      42.269  24.858  25.900  1.00  0.00    -0.269 OA
BRANCH  35  38
ATOM     38  C   UNL A   1      40.637  25.907  27.235  1.00  0.00     0.039 A 
ATOM     39  C   UNL A   1      39.816  25.629  28.327  1.00  0.00     0.014 A 
ATOM     40  C   UNL A   1      41.186  27.177  27.035  1.00  0.00     0.014 A 
ATOM     41  C   UNL A   1      39.631  26.614  29.295  1.00  0.00     0.010 A 
ATOM     42  C   UNL A   1      41.081  28.114  28.050  1.00  0.00     0.010 A 
ATOM     43  C   UNL A   1      40.318  27.835  29.198  1.00  0.00    -0.014 A 
BRANCH  43  44
ATOM     44  C   UNL A   1      40.288  28.834  30.295  1.00  0.00     0.031 A 
ATOM     45  C   UNL A   1      41.211  28.666  31.468  1.00  0.00     0.074 A 
ATOM     46  C   UNL A   1      39.366  29.820  30.284  1.00  0.00     0.049 A 
ATOM     47  N   UNL A   1      41.262  29.348  32.581  1.00  0.00    -0.248 NA
ATOM     48  C   UNL A   1      42.177  27.557  31.397  1.00  0.00     0.031 C 
ATOM     49  C   UNL A   1      38.367  30.042  29.233  1.00  0.00     0.029 A 
ATOM     50  N   UNL A   1      39.108  30.815  31.194  1.00  0.00    -0.354 N 
ATOM     51  C   UNL A   1      42.245  28.736  33.349  1.00  0.00     0.074 A 
ATOM     52  C   UNL A   1      42.721  27.593  32.604  1.00  0.00     0.031 C 
ATOM     53  C   UNL A   1      37.625  31.116  29.548  1.00  0.00     0.029 A 
ATOM     54  C   UNL A   1      38.064  31.637  30.838  1.00  0.00     0.049 A 
ATOM     55  H   UNL A   1      39.622  30.929  32.026  1.00  0.00     0.167 HD
ATOM     56  C   UNL A   1      42.729  29.113  34.555  1.00  0.00     0.037 A 
ATOM     57  C   UNL A   1      37.516  32.685  31.484  1.00  0.00     0.037 A 
ATOM     58  C   UNL A   1      42.282  30.278  35.269  1.00  0.00     0.049 A 
ATOM     59  C   UNL A   1      38.080  33.092  32.820  1.00  0.00     0.074 A 
ATOM     60  C   UNL A   1      42.770  30.801  36.452  1.00  0.00     0.029 A 
ATOM     61  N   UNL A   1      41.242  31.101  34.863  1.00  0.00    -0.354 N 
ATOM     62  N   UNL A   1      39.068  32.552  33.494  1.00  0.00    -0.248 NA
ATOM     63  C   UNL A   1      37.457  34.244  33.484  1.00  0.00     0.031 C 
ATOM     64  C   UNL A   1      41.998  31.919  36.783  1.00  0.00     0.029 A 
ATOM     65  C   UNL A   1      41.054  32.114  35.786  1.00  0.00     0.049 A 
ATOM     66  H   UNL A   1      40.715  30.982  34.040  1.00  0.00     0.167 HD
ATOM     67  C   UNL A   1      39.191  33.305  34.656  1.00  0.00     0.074 A 
ATOM     68  C   UNL A   1      38.191  34.352  34.583  1.00  0.00     0.031 C 
ATOM     69  C   UNL A   1      40.050  33.143  35.693  1.00  0.00     0.037 A 
BRANCH  56  70
ATOM     70  C   UNL A   1      43.810  28.265  35.163  1.00  0.00     0.058 A 
ATOM     71  C   UNL A   1      45.166  28.485  34.872  1.00  0.00     0.135 A 
ATOM     72  C   UNL A   1      43.490  27.234  36.061  1.00  0.00     0.135 A 
ATOM     73  F   UNL A   1      45.525  29.443  34.003  1.00  0.00    -0.206 F 
ATOM     74  C   UNL A   1      46.165  27.696  35.428  1.00  0.00     0.059 A 
ATOM     75  C   UNL A   1      44.477  26.450  36.651  1.00  0.00     0.059 A 
ATOM     76  F   UNL A   1      42.209  26.979  36.368  1.00  0.00    -0.206 F 
ATOM     77  C   UNL A   1      45.811  26.680  36.318  1.00  0.00     0.060 A 
BRANCH  77  78
ATOM     78  S   UNL A   1      47.123  25.674  37.041  1.00  0.00     0.124 S 
ATOM     79  O   UNL A   1      47.196  26.220  38.393  1.00  0.00    -0.237 OA
ATOM     80  O   UNL A   1      46.577  24.324  36.931  1.00  0.00    -0.237 OA
ATOM     81  O   UNL A   1      48.274  25.952  36.188  1.00  0.00    -0.744 OA
ENDBRANCH  77  78
ENDBRANCH  56  70
BRANCH  57  82
ATOM     82  C   UNL A   1      36.381  33.430  30.878  1.00  0.00     0.058 A 
ATOM     83  C   UNL A   1      36.573  34.243  29.751  1.00  0.00     0.135 A 
ATOM     84  C   UNL A   1      35.082  33.342  31.404  1.00  0.00     0.135 A 
ATOM     85  F   UNL A   1      37.797  34.367  29.215  1.00  0.00    -0.206 F 
ATOM     86  C   UNL A   1      35.525  34.954  29.175  1.00  0.00     0.059 A 
ATOM     87  C   UNL A   1      34.013  34.026  30.831  1.00  0.00     0.059 A 
ATOM     88  F   UNL A   1      34.841  32.568  32.473  1.00  0.00    -0.206 F 
ATOM     89  C   UNL A   1      34.246  34.837  29.722  1.00  0.00     0.060 A 
BRANCH  89  90
ATOM     90  S   UNL A   1      32.882  35.723  28.936  1.00  0.00     0.124 S 
ATOM     91  O   UNL A   1      32.046  36.054  30.084  1.00  0.00    -0.237 OA
ATOM     92  O   UNL A   1      33.569  36.844  28.302  1.00  0.00    -0.237 OA
ATOM     93  O   UNL A   1      32.329  34.736  28.014  1.00  0.00    -0.744 OA
ENDBRANCH  89  90
ENDBRANCH  57  82
BRANCH  69  94
ATOM     94  C   UNL A   1      39.950  34.119  36.831  1.00  0.00     0.058 A 
ATOM     95  C   UNL A   1      40.496  35.408  36.735  1.00  0.00     0.135 A 
ATOM     96  C   UNL A   1      39.242  33.787  37.997  1.00  0.00     0.135 A 
ATOM     97  F   UNL A   1      41.187  35.769  35.642  1.00  0.00    -0.206 F 
ATOM     98  C   UNL A   1      40.355  36.332  37.763  1.00  0.00     0.059 A 
ATOM     99  C   UNL A   1      39.068  34.704  39.028  1.00  0.00     0.059 A 
ATOM    100  F   UNL A   1      38.693  32.569  38.132  1.00  0.00    -0.206 F 
ATOM    101  C   UNL A   1      39.635  35.972  38.905  1.00  0.00     0.060 A 
BRANCH 101 102
ATOM    102  S   UNL A   1      39.416  37.199  40.211  1.00  0.00     0.124 S 
ATOM    103  O   UNL A   1      38.524  36.495  41.128  1.00  0.00    -0.237 OA
ATOM    104  O   UNL A   1      40.782  37.400  40.684  1.00  0.00    -0.237 OA
ATOM    105  O   UNL A   1      38.827  38.337  39.512  1.00  0.00    -0.744 OA
ENDBRANCH 101 102
ENDBRANCH  69  94
ENDBRANCH  43  44
ENDBRANCH  35  38
ENDBRANCH  33  34
ENDBRANCH  32  33
ENDBRANCH  31  32
ENDBRANCH   1  31
TORSDOF 19
ENDMDL
MODEL 2
REMARK VINA RESULT:     -12.1      6.413     11.357
REMARK SMILES CCOC(=O)c1c(NC(=O)[C@@H]2[C@@H]3CC[C@@H](C3)[C@@H]2C(=O)NCCCCNC(=O)c2ccc(-c3c4nc(c(-c5c(F)cc(S(=O)(=O)[O-])cc5F)c5ccc([nH]5)c(-c5c(F)cc(S(=O)(=O)[O-])cc5F)c5nc(c(-c6c(F)cc(S(=O)(=O)[O-])cc6F)c6ccc3[nH]6)C=C5)C=C4)cc2)sc2c1CCCC2
REMARK SMILES IDX 21 1 20 2 18 3 19 4 17 6 11 7 12 8 13 9 16 10 15 11 14 12
REMARK SMILES IDX 9 13 8 14 10 16 7 17 6 18 96 19 94 20 95 21 97 22 100 23
REMARK SMILES IDX 98 24 99 25 4 26 5 27 3 28 2 29 1 30 22 31 23 32 24 33 25 34
REMARK SMILES IDX 26 35 27 37 28 38 29 39 93 40 30 41 92 42 31 43 32 44 33 45
REMARK SMILES IDX 86 46 34 47 91 48 85 49 87 50 35 51 90 52 84 53 83 54 36 56
REMARK SMILES IDX 70 57 49 58 69 59 50 60 53 61 68 62 88 63 51 64 52 65 67 67
REMARK SMILES IDX 89 68 54 69 37 70 38 71 47 72 39 73 40 74 46 75 48 76 41 77
REMARK SMILES IDX 42 78 43 79 44 80 45 81 71 82 72 83 81 84 73 85 74 86 80 87
REMARK SMILES IDX 82 88 75 89 76 90 77 91 78 92 79 93 55 94 56 95 65 96 57 97
REMARK SMILES IDX 58 98 64 99 66 100 59 101 60 102 61 103 62 104 63 105
REMARK H PARENT 20 5 8 15 25 36 87 55 53 66
REMARK Flexibility Score: inf
ROOT
ATOM      1  C   UNL A   1      34.373  28.732  26.625  1.00  0.00     0.116 C 
ENDROOT
BRANCH   1   2
ATOM      2  N   UNL A   1      34.384  28.995  25.208  1.00  0.00    -0.356 N 
ATOM      3  C   UNL A   1      33.470  28.703  24.254  1.00  0.00     0.224 C 
ATOM      4  O   UNL A   1      33.650  29.233  23.149  1.00  0.00    -0.275 OA
ATOM      5  H   UNL A   1      35.186  29.465  24.882  1.00  0.00     0.163 HD
BRANCH   3   6
ATOM      6  C   UNL A   1      32.320  27.696  24.395  1.00  0.00     0.094 C 
ATOM      7  C   UNL A   1      32.025  26.498  23.462  1.00  0.00     0.094 C 
ATOM      8  C   UNL A   1      30.524  26.705  23.116  1.00  0.00     0.002 C 
ATOM      9  C   UNL A   1      30.171  28.008  22.376  1.00  0.00     0.005 C 
ATOM     10  C   UNL A   1      30.000  27.071  24.515  1.00  0.00     0.009 C 
ATOM     11  C   UNL A   1      30.909  28.304  24.633  1.00  0.00     0.002 C 
ATOM     12  C   UNL A   1      30.413  29.100  23.429  1.00  0.00     0.005 C 
BRANCH   7  13
ATOM     13  C   UNL A   1      33.021  26.084  22.405  1.00  0.00     0.229 C 
ATOM     14  N   UNL A   1      33.397  24.805  22.186  1.00  0.00    -0.317 N 
ATOM     15  H   UNL A   1      33.698  24.655  21.259  1.00  0.00     0.170 HD
ATOM     16  O   UNL A   1      33.613  26.921  21.717  1.00  0.00    -0.274 OA
BRANCH  14  17
ATOM     17  C   UNL A   1      33.460  23.665  22.947  1.00  0.00     0.110 A 
ATOM     18  C   UNL A   1      34.080  23.157  24.075  1.00  0.00     0.098 A 
ATOM     19  C   UNL A   1      33.755  21.753  24.246  1.00  0.00    -0.017 A 
ATOM     20  S   UNL A   1      32.471  22.484  22.173  1.00  0.00    -0.122 S 
ATOM     21  C   UNL A   1      32.876  21.290  23.293  1.00  0.00     0.011 A 
ATOM     22  C   UNL A   1      34.285  20.858  25.332  1.00  0.00     0.038 C 
ATOM     23  C   UNL A   1      32.360  19.889  23.192  1.00  0.00     0.047 C 
ATOM     24  C   UNL A   1      34.067  19.375  25.003  1.00  0.00     0.005 C 
ATOM     25  C   UNL A   1      32.642  19.121  24.493  1.00  0.00     0.006 C 
BRANCH  18  26
ATOM     26  C   UNL A   1      34.956  23.812  25.032  1.00  0.00     0.341 C 
ATOM     27  O   UNL A   1      34.533  24.274  26.082  1.00  0.00    -0.246 OA
BRANCH  26  28
ATOM     28  O   UNL A   1      36.278  23.690  24.714  1.00  0.00    -0.462 OA
BRANCH  28  29
ATOM     29  C   UNL A   1      37.100  23.103  25.737  1.00  0.00     0.230 C 
ATOM     30  C   UNL A   1      37.782  21.862  25.195  1.00  0.00     0.049 C 
ENDBRANCH  28  29
ENDBRANCH  26  28
ENDBRANCH  18  26
ENDBRANCH  14  17
ENDBRANCH   7  13
ENDBRANCH   3   6
ENDBRANCH   1   2
BRANCH   1  31
ATOM     31  C   UNL A   1      33.652  29.803  27.431  1.00  0.00     0.023 C 
BRANCH  31  32
ATOM     32  C   UNL A   1      34.343  31.154  27.385  1.00  0.00     0.023 C 
BRANCH  32  33
ATOM     33  C   UNL A   1      35.595  31.246  28.246  1.00  0.00     0.116 C 
BRANCH  33  34
ATOM     34  N   UNL A   1      35.545  30.394  29.435  1.00  0.00    -0.352 N 
ATOM     35  C   UNL A   1      36.590  29.730  30.038  1.00  0.00     0.251 C 
ATOM     36  H   UNL A   1      34.662  30.283  29.853  1.00  0.00     0.163 HD
ATOM     37  O   UNL A   1      36.416  28.959  30.973  1.00  0.00    -0.269 OA
BRANCH  35  38
ATOM     38  C   UNL A   1      37.930  29.967  29.477  1.00  0.00     0.039 A 
ATOM     39  C   UNL A   1      38.976  30.279  30.344  1.00  0.00     0.014 A 
ATOM     40  C   UNL A   1      38.162  29.600  28.149  1.00  0.00     0.014 A 
ATOM     41  C   UNL A   1      40.287  30.113  29.900  1.00  0.00     0.010 A 
ATOM     42  C   UNL A   1      39.464  29.339  27.750  1.00  0.00     0.010 A 
ATOM     43  C   UNL A   1      40.536  29.576  28.627  1.00  0.00    -0.014 A 
BRANCH  43  44
ATOM     44  C   UNL A   1      41.909  29.218  28.189  1.00  0.00     0.031 A 
ATOM     45  C   UNL A   1      42.217  27.791  27.832  1.00  0.00     0.074 A 
ATOM     46  C   UNL A   1      42.889  30.144  28.216  1.00  0.00     0.049 A 
ATOM     47  N   UNL A   1      43.368  27.244  27.545  1.00  0.00    -0.248 NA
ATOM     48  C   UNL A   1      41.087  26.847  27.839  1.00  0.00     0.031 C 
ATOM     49  C   UNL A   1      42.726  31.546  28.616  1.00  0.00     0.029 A 
ATOM     50  N   UNL A   1      44.224  30.045  27.914  1.00  0.00    -0.354 N 
ATOM     51  C   UNL A   1      43.104  25.892  27.363  1.00  0.00     0.074 A 
ATOM     52  C   UNL A   1      41.699  25.691  27.632  1.00  0.00     0.031 C 
ATOM     53  C   UNL A   1      43.907  32.177  28.510  1.00  0.00     0.029 A 
ATOM     54  C   UNL A   1      44.920  31.221  28.077  1.00  0.00     0.049 A 
ATOM     55  H   UNL A   1      44.646  29.209  27.611  1.00  0.00     0.167 HD
ATOM     56  C   UNL A   1      43.953  24.912  26.976  1.00  0.00     0.037 A 
ATOM     57  C   UNL A   1      46.229  31.494  27.906  1.00  0.00     0.037 A 
ATOM     58  C   UNL A   1      45.339  25.129  26.667  1.00  0.00     0.049 A 
ATOM     59  C   UNL A   1      47.151  30.388  27.464  1.00  0.00     0.074 A 
ATOM     60  C   UNL A   1      46.263  24.224  26.177  1.00  0.00     0.029 A 
ATOM     61  N   UNL A   1      46.001  26.339  26.817  1.00  0.00    -0.354 N 
ATOM     62  N   UNL A   1      46.867  29.131  27.214  1.00  0.00    -0.248 NA
ATOM     63  C   UNL A   1      48.567  30.733  27.283  1.00  0.00     0.031 C 
ATOM     64  C   UNL A   1      47.494  24.878  26.068  1.00  0.00     0.029 A 
ATOM     65  C   UNL A   1      47.329  26.199  26.454  1.00  0.00     0.049 A 
ATOM     66  H   UNL A   1      45.587  27.175  27.134  1.00  0.00     0.167 HD
ATOM     67  C   UNL A   1      48.067  28.539  26.837  1.00  0.00     0.074 A 
ATOM     68  C   UNL A   1      49.075  29.580  26.870  1.00  0.00     0.031 C 
ATOM     69  C   UNL A   1      48.314  27.249  26.499  1.00  0.00     0.037 A 
BRANCH  56  70
ATOM     70  C   UNL A   1      43.394  23.523  26.849  1.00  0.00     0.058 A 
ATOM     71  C   UNL A   1      43.183  22.711  27.975  1.00  0.00     0.135 A 
ATOM     72  C   UNL A   1      43.046  23.005  25.592  1.00  0.00     0.135 A 
ATOM     73  F   UNL A   1      43.519  23.150  29.198  1.00  0.00    -0.206 F 
ATOM     74  C   UNL A   1      42.673  21.424  27.857  1.00  0.00     0.059 A 
ATOM     75  C   UNL A   1      42.507  21.729  25.453  1.00  0.00     0.059 A 
ATOM     76  F   UNL A   1      43.233  23.738  24.483  1.00  0.00    -0.206 F 
ATOM     77  C   UNL A   1      42.337  20.941  26.591  1.00  0.00     0.060 A 
BRANCH  77  78
ATOM     78  S   UNL A   1      41.664  19.272  26.457  1.00  0.00     0.124 S 
ATOM     79  O   UNL A   1      42.501  18.706  25.404  1.00  0.00    -0.237 OA
ATOM     80  O   UNL A   1      41.884  18.738  27.797  1.00  0.00    -0.237 OA
ATOM     81  O   UNL A   1      40.268  19.497  26.097  1.00  0.00    -0.744 OA
ENDBRANCH  77  78
ENDBRANCH  56  70
BRANCH  57  82
ATOM     82  C   UNL A   1      46.746  32.868  28.141  1.00  0.00     0.058 A 
ATOM     83  C   UNL A   1      46.675  33.845  27.137  1.00  0.00     0.135 A 
ATOM     84  C   UNL A   1      47.313  33.238  29.371  1.00  0.00     0.135 A 
ATOM     85  F   UNL A   1      46.150  33.540  25.940  1.00  0.00    -0.206 F 
ATOM     86  C   UNL A   1      47.160  35.134  27.335  1.00  0.00     0.059 A 
ATOM     87  C   UNL A   1      47.784  34.528  29.601  1.00  0.00     0.059 A 
ATOM     88  F   UNL A   1      47.391  32.346  30.370  1.00  0.00    -0.206 F 
ATOM     89  C   UNL A   1      47.712  35.467  28.573  1.00  0.00     0.060 A 
BRANCH  89  90
ATOM     90  S   UNL A   1      48.293  37.157  28.839  1.00  0.00     0.124 S 
ATOM     91  O   UNL A   1      47.208  37.936  28.253  1.00  0.00    -0.237 OA
ATOM     92  O   UNL A   1      48.408  37.217  30.292  1.00  0.00    -0.237 OA
ATOM     93  O   UNL A   1      49.560  37.193  28.116  1.00  0.00    -0.744 OA
ENDBRANCH  89  90
ENDBRANCH  57  82
BRANCH  69  94
ATOM     94  C   UNL A   1      49.727  26.891  26.134  1.00  0.00     0.058 A 
ATOM     95  C   UNL A   1      50.609  26.352  27.083  1.00  0.00     0.135 A 
ATOM     96  C   UNL A   1      50.178  27.021  24.811  1.00  0.00     0.135 A 
ATOM     97  F   UNL A   1      50.226  26.216  28.362  1.00  0.00    -0.206 F 
ATOM     98  C   UNL A   1      51.899  25.966  26.735  1.00  0.00     0.059 A 
ATOM     99  C   UNL A   1      51.455  26.618  24.436  1.00  0.00     0.059 A 
ATOM    100  F   UNL A   1      49.367  27.522  23.866  1.00  0.00    -0.206 F 
ATOM    101  C   UNL A   1      52.311  26.099  25.407  1.00  0.00     0.060 A 
BRANCH 101 102
ATOM    102  S   UNL A   1      53.970  25.547  24.958  1.00  0.00     0.124 S 
ATOM    103  O   UNL A   1      54.749  25.992  26.109  1.00  0.00    -0.237 OA
ATOM    104  O   UNL A   1      53.796  24.104  24.830  1.00  0.00    -0.237 OA
ATOM    105  O   UNL A   1      54.236  26.253  23.708  1.00  0.00    -0.744 OA
ENDBRANCH 101 102
ENDBRANCH  69  94
ENDBRANCH  43  44
ENDBRANCH  35  38
ENDBRANCH  33  34
ENDBRANCH  32  33
ENDBRANCH  31  32
ENDBRANCH   1  31
TORSDOF 19
ENDMDL
MODEL 3
REMARK VINA RESULT:     -12.1      2.373      8.769
REMARK SMILES CCOC(=O)c1c(NC(=O)[C@@H]2[C@@H]3CC[C@@H](C3)[C@@H]2C(=O)NCCCCNC(=O)c2ccc(-c3c4nc(c(-c5c(F)cc(S(=O)(=O)[O-])cc5F)c5ccc([nH]5)c(-c5c(F)cc(S(=O)(=O)[O-])cc5F)c5nc(c(-c6c(F)cc(S(=O)(=O)[O-])cc6F)c6ccc3[nH]6)C=C5)C=C4)cc2)sc2c1CCCC2
REMARK SMILES IDX 21 1 20 2 18 3 19 4 17 6 11 7 12 8 13 9 16 10 15 11 14 12
REMARK SMILES IDX 9 13 8 14 10 16 7 17 6 18 96 19 94 20 95 21 97 22 100 23
REMARK SMILES IDX 98 24 99 25 4 26 5 27 3 28 2 29 1 30 22 31 23 32 24 33 25 34
REMARK SMILES IDX 26 35 27 37 28 38 29 39 93 40 30 41 92 42 31 43 32 44 33 45
REMARK SMILES IDX 86 46 34 47 91 48 85 49 87 50 35 51 90 52 84 53 83 54 36 56
REMARK SMILES IDX 70 57 49 58 69 59 50 60 53 61 68 62 88 63 51 64 52 65 67 67
REMARK SMILES IDX 89 68 54 69 37 70 38 71 47 72 39 73 40 74 46 75 48 76 41 77
REMARK SMILES IDX 42 78 43 79 44 80 45 81 71 82 72 83 81 84 73 85 74 86 80 87
REMARK SMILES IDX 82 88 75 89 76 90 77 91 78 92 79 93 55 94 56 95 65 96 57 97
REMARK SMILES IDX 58 98 64 99 66 100 59 101 60 102 61 103 62 104 63 105
REMARK H PARENT 20 5 8 15 25 36 87 55 53 66
REMARK Flexibility Score: inf
ROOT
ATOM      1  C   UNL A   1      34.461  28.612  26.620  1.00  0.00     0.116 C 
ENDROOT
BRANCH   1   2
ATOM      2  N   UNL A   1      34.415  28.894  25.208  1.00  0.00    -0.356 N 
ATOM      3  C   UNL A   1      33.485  28.574  24.278  1.00  0.00     0.224 C 
ATOM      4  O   UNL A   1      33.606  29.127  23.175  1.00  0.00    -0.275 OA
ATOM      5  H   UNL A   1      35.185  29.404  24.864  1.00  0.00     0.163 HD
BRANCH   3   6
ATOM      6  C   UNL A   1      32.386  27.515  24.440  1.00  0.00     0.094 C 
ATOM      7  C   UNL A   1      32.100  26.331  23.485  1.00  0.00     0.094 C 
ATOM      8  C   UNL A   1      30.578  26.483  23.212  1.00  0.00     0.002 C 
ATOM      9  C   UNL A   1      30.137  27.789  22.526  1.00  0.00     0.005 C 
ATOM     10  C   UNL A   1      30.101  26.787  24.643  1.00  0.00     0.009 C 
ATOM     11  C   UNL A   1      30.963  28.055  24.757  1.00  0.00     0.002 C 
ATOM     12  C   UNL A   1      30.380  28.862  23.599  1.00  0.00     0.005 C 
BRANCH   7  13
ATOM     13  C   UNL A   1      33.064  25.991  22.374  1.00  0.00     0.229 C 
ATOM     14  N   UNL A   1      33.534  24.745  22.142  1.00  0.00    -0.317 N 
ATOM     15  H   UNL A   1      33.791  24.610  21.201  1.00  0.00     0.170 HD
ATOM     16  O   UNL A   1      33.540  26.865  21.646  1.00  0.00    -0.274 OA
BRANCH  14  17
ATOM     17  C   UNL A   1      33.738  23.624  22.907  1.00  0.00     0.110 A 
ATOM     18  C   UNL A   1      34.739  22.953  23.586  1.00  0.00     0.098 A 
ATOM     19  C   UNL A   1      34.244  21.691  24.107  1.00  0.00    -0.017 A 
ATOM     20  S   UNL A   1      32.241  22.771  22.965  1.00  0.00    -0.122 S 
ATOM     21  C   UNL A   1      32.905  21.500  23.852  1.00  0.00     0.011 A 
ATOM     22  C   UNL A   1      35.058  20.673  24.855  1.00  0.00     0.038 C 
ATOM     23  C   UNL A   1      32.107  20.297  24.248  1.00  0.00     0.047 C 
ATOM     24  C   UNL A   1      34.353  19.312  24.914  1.00  0.00     0.005 C 
ATOM     25  C   UNL A   1      32.873  19.467  25.290  1.00  0.00     0.006 C 
BRANCH  18  26
ATOM     26  C   UNL A   1      36.124  23.330  23.818  1.00  0.00     0.341 C 
ATOM     27  O   UNL A   1      36.918  23.463  22.899  1.00  0.00    -0.246 OA
BRANCH  26  28
ATOM     28  O   UNL A   1      36.369  23.683  25.114  1.00  0.00    -0.462 OA
BRANCH  28  29
ATOM     29  C   UNL A   1      37.758  23.733  25.480  1.00  0.00     0.230 C 
ATOM     30  C   UNL A   1      38.217  22.361  25.932  1.00  0.00     0.049 C 
ENDBRANCH  28  29
ENDBRANCH  26  28
ENDBRANCH  18  26
ENDBRANCH  14  17
ENDBRANCH   7  13
ENDBRANCH   3   6
ENDBRANCH   1   2
BRANCH   1  31
ATOM     31  C   UNL A   1      33.383  29.335  27.414  1.00  0.00     0.023 C 
BRANCH  31  32
ATOM     32  C   UNL A   1      33.185  30.776  26.980  1.00  0.00     0.023 C 
BRANCH  32  33
ATOM     33  C   UNL A   1      33.869  31.799  27.876  1.00  0.00     0.116 C 
BRANCH  33  34
ATOM     34  N   UNL A   1      33.257  33.127  27.815  1.00  0.00    -0.352 N 
ATOM     35  C   UNL A   1      33.502  34.204  28.637  1.00  0.00     0.251 C 
ATOM     36  H   UNL A   1      32.593  33.266  27.103  1.00  0.00     0.163 HD
ATOM     37  O   UNL A   1      32.854  35.240  28.559  1.00  0.00    -0.269 OA
BRANCH  35  38
ATOM     38  C   UNL A   1      34.562  34.035  29.643  1.00  0.00     0.039 A 
ATOM     39  C   UNL A   1      34.268  33.354  30.824  1.00  0.00     0.014 A 
ATOM     40  C   UNL A   1      35.879  34.310  29.264  1.00  0.00     0.014 A 
ATOM     41  C   UNL A   1      35.318  32.844  31.584  1.00  0.00     0.010 A 
ATOM     42  C   UNL A   1      36.912  33.713  29.970  1.00  0.00     0.010 A 
ATOM     43  C   UNL A   1      36.640  32.959  31.125  1.00  0.00    -0.014 A 
BRANCH  43  44
ATOM     44  C   UNL A   1      37.764  32.275  31.812  1.00  0.00     0.031 A 
ATOM     45  C   UNL A   1      38.201  32.759  33.166  1.00  0.00     0.074 A 
ATOM     46  C   UNL A   1      38.451  31.302  31.178  1.00  0.00     0.049 A 
ATOM     47  N   UNL A   1      39.228  32.388  33.882  1.00  0.00    -0.248 NA
ATOM     48  C   UNL A   1      37.397  33.832  33.777  1.00  0.00     0.031 C 
ATOM     49  C   UNL A   1      38.167  30.797  29.831  1.00  0.00     0.029 A 
ATOM     50  N   UNL A   1      39.542  30.570  31.577  1.00  0.00    -0.354 N 
ATOM     51  C   UNL A   1      39.209  33.196  35.012  1.00  0.00     0.074 A 
ATOM     52  C   UNL A   1      38.107  34.118  34.858  1.00  0.00     0.031 C 
ATOM     53  C   UNL A   1      39.043  29.825  29.529  1.00  0.00     0.029 A 
ATOM     54  C   UNL A   1      39.976  29.663  30.638  1.00  0.00     0.049 A 
ATOM     55  H   UNL A   1      39.974  30.684  32.454  1.00  0.00     0.167 HD
ATOM     56  C   UNL A   1      40.019  33.152  36.094  1.00  0.00     0.037 A 
ATOM     57  C   UNL A   1      41.015  28.806  30.665  1.00  0.00     0.037 A 
ATOM     58  C   UNL A   1      41.084  32.202  36.259  1.00  0.00     0.049 A 
ATOM     59  C   UNL A   1      41.896  28.768  31.886  1.00  0.00     0.074 A 
ATOM     60  C   UNL A   1      41.904  32.011  37.356  1.00  0.00     0.029 A 
ATOM     61  N   UNL A   1      41.476  31.282  35.298  1.00  0.00    -0.354 N 
ATOM     62  N   UNL A   1      41.811  29.483  32.983  1.00  0.00    -0.248 NA
ATOM     63  C   UNL A   1      43.012  27.813  31.875  1.00  0.00     0.031 C 
ATOM     64  C   UNL A   1      42.818  31.001  37.043  1.00  0.00     0.029 A 
ATOM     65  C   UNL A   1      42.544  30.536  35.766  1.00  0.00     0.049 A 
ATOM     66  H   UNL A   1      41.056  31.173  34.414  1.00  0.00     0.167 HD
ATOM     67  C   UNL A   1      42.855  29.057  33.796  1.00  0.00     0.074 A 
ATOM     68  C   UNL A   1      43.545  28.007  33.074  1.00  0.00     0.031 C 
ATOM     69  C   UNL A   1      43.216  29.498  35.027  1.00  0.00     0.037 A 
BRANCH  56  70
ATOM     70  C   UNL A   1      39.766  34.150  37.188  1.00  0.00     0.058 A 
ATOM     71  C   UNL A   1      40.237  35.470  37.101  1.00  0.00     0.135 A 
ATOM     72  C   UNL A   1      39.027  33.791  38.327  1.00  0.00     0.135 A 
ATOM     73  F   UNL A   1      40.968  35.859  36.045  1.00  0.00    -0.206 F 
ATOM     74  C   UNL A   1      40.010  36.391  38.117  1.00  0.00     0.059 A 
ATOM     75  C   UNL A   1      38.763  34.705  39.342  1.00  0.00     0.059 A 
ATOM     76  F   UNL A   1      38.559  32.541  38.462  1.00  0.00    -0.206 F 
ATOM     77  C   UNL A   1      39.271  35.999  39.234  1.00  0.00     0.060 A 
BRANCH  77  78
ATOM     78  S   UNL A   1      38.974  37.212  40.537  1.00  0.00     0.124 S 
ATOM     79  O   UNL A   1      40.337  37.613  40.875  1.00  0.00    -0.237 OA
ATOM     80  O   UNL A   1      38.169  38.218  39.851  1.00  0.00    -0.237 OA
ATOM     81  O   UNL A   1      38.273  36.445  41.562  1.00  0.00    -0.744 OA
ENDBRANCH  77  78
ENDBRANCH  56  70
BRANCH  57  82
ATOM     82  C   UNL A   1      41.277  27.907  29.510  1.00  0.00     0.058 A 
ATOM     83  C   UNL A   1      42.347  28.151  28.636  1.00  0.00     0.135 A 
ATOM     84  C   UNL A   1      40.474  26.783  29.258  1.00  0.00     0.135 A 
ATOM     85  F   UNL A   1      43.140  29.216  28.828  1.00  0.00    -0.206 F 
ATOM     86  C   UNL A   1      42.604  27.325  27.546  1.00  0.00     0.059 A 
ATOM     87  C   UNL A   1      40.725  25.929  28.188  1.00  0.00     0.059 A 
ATOM     88  F   UNL A   1      39.446  26.496  30.072  1.00  0.00    -0.206 F 
ATOM     89  C   UNL A   1      41.787  26.214  27.331  1.00  0.00     0.060 A 
BRANCH  89  90
ATOM     90  S   UNL A   1      42.159  25.119  25.943  1.00  0.00     0.124 S 
ATOM     91  O   UNL A   1      41.805  25.958  24.804  1.00  0.00    -0.237 OA
ATOM     92  O   UNL A   1      43.583  24.862  26.128  1.00  0.00    -0.237 OA
ATOM     93  O   UNL A   1      41.288  23.971  26.179  1.00  0.00    -0.744 OA
ENDBRANCH  89  90
ENDBRANCH  57  82
BRANCH  69  94
ATOM     94  C   UNL A   1      44.405  28.846  35.672  1.00  0.00     0.058 A 
ATOM     95  C   UNL A   1      44.262  27.707  36.479  1.00  0.00     0.135 A 
ATOM     96  C   UNL A   1      45.702  29.322  35.425  1.00  0.00     0.135 A 
ATOM     97  F   UNL A   1      43.041  27.219  36.750  1.00  0.00    -0.206 F 
ATOM     98  C   UNL A   1      45.367  27.068  37.031  1.00  0.00     0.059 A 
ATOM     99  C   UNL A   1      46.823  28.684  35.947  1.00  0.00     0.059 A 
ATOM    100  F   UNL A   1      45.891  30.403  34.652  1.00  0.00    -0.206 F 
ATOM    101  C   UNL A   1      46.644  27.562  36.755  1.00  0.00     0.060 A 
BRANCH 101 102
ATOM    102  S   UNL A   1      48.072  26.693  37.436  1.00  0.00     0.124 S 
ATOM    103  O   UNL A   1      47.482  26.016  38.587  1.00  0.00    -0.237 OA
ATOM    104  O   UNL A   1      48.471  25.830  36.329  1.00  0.00    -0.237 OA
ATOM    105  O   UNL A   1      49.006  27.769  37.752  1.00  0.00    -0.744 OA
ENDBRANCH 101 102
ENDBRANCH  69  94
ENDBRANCH  43  44
ENDBRANCH  35  38
ENDBRANCH  33  34
ENDBRANCH  32  33
ENDBRANCH  31  32
ENDBRANCH   1  31
TORSDOF 19
ENDMDL
