MODEL 1
REMARK VINA RESULT:     -13.5      0.000      0.000
REMARK SMILES O=C(NCCCCNC(=O)c1ccc(-c2c3nc(c(-c4c(F)cc(S(=O)(=O)[O-])cc4F)c4ccc([nH]4)c(-c4c(F)cc(S(=O)(=O)[O-])cc4F)c4nc(c(-c5c(F)cc(S(=O)(=O)[O-])cc5F)c5ccc2[nH]5)C=C4)C=C3)cc1)C1=CN(c2ccccc2)C[NH2+][C@H]1c1ccc(NC(=S)NC(=O)c2cc3ccccc3o2)cc1
REMARK SMILES IDX 4 1 3 2 1 3 2 4 77 6 78 7 88 8 79 9 87 10 86 11 89 14 90 15
REMARK SMILES IDX 109 16 91 17 108 18 92 19 93 20 94 22 95 23 96 24 97 25
REMARK SMILES IDX 98 27 99 28 100 29 107 30 101 31 106 32 102 33 105 34 103 35
REMARK SMILES IDX 104 36 80 37 81 38 85 39 82 40 84 41 83 42 5 43 6 44 7 45
REMARK SMILES IDX 8 46 9 47 10 49 11 50 12 51 76 52 13 53 75 54 14 55 15 56
REMARK SMILES IDX 16 57 69 58 17 59 74 60 68 61 70 62 18 63 73 64 67 65 66 66
REMARK SMILES IDX 19 68 53 69 32 70 52 71 33 72 36 73 51 74 71 75 34 76 35 77
REMARK SMILES IDX 50 79 72 80 37 81 20 82 21 83 30 84 22 85 23 86 29 87 31 88
REMARK SMILES IDX 24 89 25 90 26 91 27 92 28 93 54 94 55 95 64 96 56 97 57 98
REMARK SMILES IDX 63 99 65 100 58 101 59 102 60 103 61 104 62 105 38 106
REMARK SMILES IDX 39 107 48 108 40 109 41 110 47 111 49 112 42 113 43 114
REMARK SMILES IDX 44 115 45 116 46 117
REMARK H PARENT 3 5 87 12 87 13 93 21 96 26 8 48 70 67 36 78
REMARK Flexibility Score: inf
ROOT
ATOM      1  C   UNL A   1      37.391  22.274  25.411  1.00  0.00     0.116 C 
ENDROOT
BRANCH   1   2
ATOM      2  N   UNL A   1      36.586  22.695  26.549  1.00  0.00    -0.352 N 
ATOM      3  O   UNL A   1      34.724  23.158  27.711  1.00  0.00    -0.269 OA
ATOM      4  C   UNL A   1      35.234  22.675  26.705  1.00  0.00     0.255 C 
ATOM      5  H   UNL A   1      37.093  23.044  27.317  1.00  0.00     0.163 HD
BRANCH   4   6
ATOM      6  C   UNL A   1      34.419  22.087  25.626  1.00  0.00     0.095 C 
ATOM      7  C   UNL A   1      34.167  20.773  25.677  1.00  0.00     0.107 C 
ATOM      8  C   UNL A   1      34.028  22.964  24.479  1.00  0.00     0.253 C 
ATOM      9  N   UNL A   1      33.649  20.049  24.624  1.00  0.00    -0.300 N 
ATOM     10  N   UNL A   1      33.681  22.223  23.240  1.00  0.00    -0.319 N 
ATOM     11  C   UNL A   1      33.297  20.812  23.415  1.00  0.00     0.393 C 
ATOM     12  H   UNL A   1      32.900  22.707  22.796  1.00  0.00     0.348 HD
ATOM     13  H   UNL A   1      34.535  22.208  22.681  1.00  0.00     0.348 HD
BRANCH   8  14
ATOM     14  C   UNL A   1      32.964  24.031  24.792  1.00  0.00     0.014 A 
ATOM     15  C   UNL A   1      31.585  23.849  24.572  1.00  0.00     0.012 A 
ATOM     16  C   UNL A   1      33.388  25.288  25.264  1.00  0.00     0.012 A 
ATOM     17  C   UNL A   1      30.692  24.930  24.631  1.00  0.00     0.026 A 
ATOM     18  C   UNL A   1      32.501  26.364  25.328  1.00  0.00     0.026 A 
ATOM     19  C   UNL A   1      31.182  26.207  24.896  1.00  0.00     0.040 A 
BRANCH  19  20
ATOM     20  N   UNL A   1      30.432  27.376  24.718  1.00  0.00    -0.332 N 
ATOM     21  H   UNL A   1      29.619  27.442  25.271  1.00  0.00     0.169 HD
BRANCH  20  22
ATOM     22  C   UNL A   1      30.654  28.421  23.908  1.00  0.00     0.177 C 
ATOM     23  S   UNL A   1      30.624  28.153  22.251  1.00  0.00    -0.040 S 
BRANCH  22  24
ATOM     24  N   UNL A   1      30.766  29.729  24.311  1.00  0.00    -0.296 N 
ATOM     25  C   UNL A   1      30.958  30.648  25.365  1.00  0.00     0.293 C 
ATOM     26  H   UNL A   1      30.670  30.272  23.494  1.00  0.00     0.172 HD
ATOM     27  O   UNL A   1      30.606  31.795  25.050  1.00  0.00    -0.265 OA
BRANCH  25  28
ATOM     28  C   UNL A   1      31.509  30.397  26.684  1.00  0.00     0.193 A 
ATOM     29  C   UNL A   1      32.054  29.265  27.244  1.00  0.00     0.065 A 
ATOM     30  O   UNL A   1      32.233  31.450  27.254  1.00  0.00    -0.451 OA
ATOM     31  C   UNL A   1      33.434  29.567  27.242  1.00  0.00     0.021 A 
ATOM     32  C   UNL A   1      33.479  30.928  27.479  1.00  0.00     0.135 A 
ATOM     33  C   UNL A   1      34.633  28.875  27.042  1.00  0.00     0.012 A 
ATOM     34  C   UNL A   1      34.639  31.630  27.766  1.00  0.00     0.048 A 
ATOM     35  C   UNL A   1      35.829  29.586  27.179  1.00  0.00     0.001 A 
ATOM     36  C   UNL A   1      35.833  30.917  27.600  1.00  0.00     0.004 A 
ENDBRANCH  25  28
ENDBRANCH  22  24
ENDBRANCH  20  22
ENDBRANCH  19  20
ENDBRANCH   8  14
BRANCH   9  37
ATOM     37  C   UNL A   1      33.476  18.640  24.657  1.00  0.00     0.046 A 
ATOM     38  C   UNL A   1      32.679  18.023  25.647  1.00  0.00     0.026 A 
ATOM     39  C   UNL A   1      34.087  17.770  23.738  1.00  0.00     0.026 A 
ATOM     40  C   UNL A   1      32.499  16.636  25.719  1.00  0.00     0.002 A 
ATOM     41  C   UNL A   1      33.923  16.377  23.812  1.00  0.00     0.002 A 
ATOM     42  C   UNL A   1      33.128  15.810  24.800  1.00  0.00     0.000 A 
ENDBRANCH   9  37
ENDBRANCH   4   6
ENDBRANCH   1   2
BRANCH   1  43
ATOM     43  C   UNL A   1      38.866  22.154  25.756  1.00  0.00     0.023 C 
BRANCH  43  44
ATOM     44  C   UNL A   1      39.298  22.955  26.978  1.00  0.00     0.023 C 
BRANCH  44  45
ATOM     45  C   UNL A   1      40.778  23.313  27.027  1.00  0.00     0.116 C 
BRANCH  45  46
ATOM     46  N   UNL A   1      41.181  24.226  25.969  1.00  0.00    -0.352 N 
ATOM     47  C   UNL A   1      41.350  25.587  26.019  1.00  0.00     0.251 C 
ATOM     48  H   UNL A   1      41.360  23.809  25.096  1.00  0.00     0.163 HD
ATOM     49  O   UNL A   1      41.597  26.212  24.993  1.00  0.00    -0.269 OA
BRANCH  47  50
ATOM     50  C   UNL A   1      41.187  26.293  27.306  1.00  0.00     0.039 A 
ATOM     51  C   UNL A   1      42.207  27.144  27.730  1.00  0.00     0.014 A 
ATOM     52  C   UNL A   1      40.020  26.151  28.064  1.00  0.00     0.014 A 
ATOM     53  C   UNL A   1      42.029  27.903  28.886  1.00  0.00     0.010 A 
ATOM     54  C   UNL A   1      39.810  26.973  29.168  1.00  0.00     0.010 A 
ATOM     55  C   UNL A   1      40.815  27.852  29.594  1.00  0.00    -0.014 A 
BRANCH  55  56
ATOM     56  C   UNL A   1      40.595  28.733  30.768  1.00  0.00     0.031 A 
ATOM     57  C   UNL A   1      41.447  28.595  31.998  1.00  0.00     0.074 A 
ATOM     58  C   UNL A   1      39.603  29.644  30.728  1.00  0.00     0.049 A 
ATOM     59  N   UNL A   1      41.445  29.320  33.087  1.00  0.00    -0.248 NA
ATOM     60  C   UNL A   1      42.412  27.484  32.022  1.00  0.00     0.031 C 
ATOM     61  C   UNL A   1      38.660  29.820  29.619  1.00  0.00     0.029 A 
ATOM     62  N   UNL A   1      39.230  30.602  31.635  1.00  0.00    -0.354 N 
ATOM     63  C   UNL A   1      42.393  28.748  33.927  1.00  0.00     0.074 A 
ATOM     64  C   UNL A   1      42.911  27.583  33.246  1.00  0.00     0.031 C 
ATOM     65  C   UNL A   1      37.853  30.858  29.889  1.00  0.00     0.029 A 
ATOM     66  C   UNL A   1      38.203  31.406  31.196  1.00  0.00     0.049 A 
ATOM     67  H   UNL A   1      39.655  30.707  32.515  1.00  0.00     0.167 HD
ATOM     68  C   UNL A   1      42.812  29.171  35.144  1.00  0.00     0.037 A 
ATOM     69  C   UNL A   1      37.623  32.476  31.774  1.00  0.00     0.037 A 
ATOM     70  C   UNL A   1      42.308  30.348  35.804  1.00  0.00     0.049 A 
ATOM     71  C   UNL A   1      38.133  32.950  33.106  1.00  0.00     0.074 A 
ATOM     72  C   UNL A   1      42.719  30.909  37.000  1.00  0.00     0.029 A 
ATOM     73  N   UNL A   1      41.275  31.143  35.325  1.00  0.00    -0.354 N 
ATOM     74  N   UNL A   1      39.096  32.453  33.846  1.00  0.00    -0.248 NA
ATOM     75  C   UNL A   1      37.487  34.139  33.674  1.00  0.00     0.031 C 
ATOM     76  C   UNL A   1      41.906  32.017  37.267  1.00  0.00     0.029 A 
ATOM     77  C   UNL A   1      41.020  32.176  36.213  1.00  0.00     0.049 A 
ATOM     78  H   UNL A   1      40.794  30.994  34.479  1.00  0.00     0.167 HD
ATOM     79  C   UNL A   1      39.188  33.284  34.956  1.00  0.00     0.074 A 
ATOM     80  C   UNL A   1      38.195  34.325  34.778  1.00  0.00     0.031 C 
ATOM     81  C   UNL A   1      40.019  33.198  36.026  1.00  0.00     0.037 A 
BRANCH  68  82
ATOM     82  C   UNL A   1      43.868  28.353  35.837  1.00  0.00     0.058 A 
ATOM     83  C   UNL A   1      43.537  27.316  36.725  1.00  0.00     0.135 A 
ATOM     84  C   UNL A   1      45.230  28.602  35.603  1.00  0.00     0.135 A 
ATOM     85  F   UNL A   1      42.250  27.045  36.998  1.00  0.00    -0.206 F 
ATOM     86  C   UNL A   1      44.516  26.580  37.383  1.00  0.00     0.059 A 
ATOM     87  C   UNL A   1      46.227  27.857  36.228  1.00  0.00     0.059 A 
ATOM     88  F   UNL A   1      45.605  29.581  34.764  1.00  0.00    -0.206 F 
ATOM     89  C   UNL A   1      45.860  26.862  37.132  1.00  0.00     0.060 A 
BRANCH  89  90
ATOM     90  S   UNL A   1      47.119  25.905  38.001  1.00  0.00     0.124 S 
ATOM     91  O   UNL A   1      47.018  26.450  39.351  1.00  0.00    -0.237 OA
ATOM     92  O   UNL A   1      46.645  24.536  37.835  1.00  0.00    -0.237 OA
ATOM     93  O   UNL A   1      48.349  26.230  37.284  1.00  0.00    -0.744 OA
ENDBRANCH  89  90
ENDBRANCH  68  82
BRANCH  69  94
ATOM     94  C   UNL A   1      36.544  33.208  31.061  1.00  0.00     0.058 A 
ATOM     95  C   UNL A   1      35.204  33.078  31.458  1.00  0.00     0.135 A 
ATOM     96  C   UNL A   1      36.827  34.066  29.988  1.00  0.00     0.135 A 
ATOM     97  F   UNL A   1      34.885  32.265  32.478  1.00  0.00    -0.206 F 
ATOM     98  C   UNL A   1      34.182  33.761  30.811  1.00  0.00     0.059 A 
ATOM     99  C   UNL A   1      35.824  34.780  29.339  1.00  0.00     0.059 A 
ATOM    100  F   UNL A   1      38.094  34.240  29.581  1.00  0.00    -0.206 F 
ATOM    101  C   UNL A   1      34.502  34.613  29.753  1.00  0.00     0.060 A 
BRANCH 101 102
ATOM    102  S   UNL A   1      33.173  35.542  28.957  1.00  0.00     0.124 S 
ATOM    103  O   UNL A   1      33.922  36.472  28.121  1.00  0.00    -0.237 OA
ATOM    104  O   UNL A   1      32.444  34.492  28.251  1.00  0.00    -0.237 OA
ATOM    105  O   UNL A   1      32.460  36.136  30.084  1.00  0.00    -0.744 OA
ENDBRANCH 101 102
ENDBRANCH  69  94
BRANCH  81 106
ATOM    106  C   UNL A   1      39.899  34.275  37.069  1.00  0.00     0.058 A 
ATOM    107  C   UNL A   1      39.084  34.120  38.200  1.00  0.00     0.135 A 
ATOM    108  C   UNL A   1      40.607  35.479  36.930  1.00  0.00     0.135 A 
ATOM    109  F   UNL A   1      38.382  32.988  38.378  1.00  0.00    -0.206 F 
ATOM    110  C   UNL A   1      38.932  35.141  39.132  1.00  0.00     0.059 A 
ATOM    111  C   UNL A   1      40.495  36.502  37.866  1.00  0.00     0.059 A 
ATOM    112  F   UNL A   1      41.415  35.673  35.876  1.00  0.00    -0.206 F 
ATOM    113  C   UNL A   1      39.637  36.333  38.950  1.00  0.00     0.060 A 
BRANCH 113 114
ATOM    114  S   UNL A   1      39.419  37.661  40.154  1.00  0.00     0.124 S 
ATOM    115  O   UNL A   1      38.259  38.360  39.611  1.00  0.00    -0.237 OA
ATOM    116  O   UNL A   1      39.195  36.929  41.396  1.00  0.00    -0.237 OA
ATOM    117  O   UNL A   1      40.682  38.391  40.083  1.00  0.00    -0.744 OA
ENDBRANCH 113 114
ENDBRANCH  81 106
ENDBRANCH  55  56
ENDBRANCH  47  50
ENDBRANCH  45  46
ENDBRANCH  44  45
ENDBRANCH  43  44
ENDBRANCH   1  43
TORSDOF 20
ENDMDL
MODEL 2
REMARK VINA RESULT:     -13.3      1.473      2.530
REMARK SMILES O=C(NCCCCNC(=O)c1ccc(-c2c3nc(c(-c4c(F)cc(S(=O)(=O)[O-])cc4F)c4ccc([nH]4)c(-c4c(F)cc(S(=O)(=O)[O-])cc4F)c4nc(c(-c5c(F)cc(S(=O)(=O)[O-])cc5F)c5ccc2[nH]5)C=C4)C=C3)cc1)C1=CN(c2ccccc2)C[NH2+][C@H]1c1ccc(NC(=S)NC(=O)c2cc3ccccc3o2)cc1
REMARK SMILES IDX 4 1 3 2 1 3 2 4 77 6 78 7 88 8 79 9 87 10 86 11 89 14 90 15
REMARK SMILES IDX 109 16 91 17 108 18 92 19 93 20 94 22 95 23 96 24 97 25
REMARK SMILES IDX 98 27 99 28 100 29 107 30 101 31 106 32 102 33 105 34 103 35
REMARK SMILES IDX 104 36 80 37 81 38 85 39 82 40 84 41 83 42 5 43 6 44 7 45
REMARK SMILES IDX 8 46 9 47 10 49 11 50 12 51 76 52 13 53 75 54 14 55 15 56
REMARK SMILES IDX 16 57 69 58 17 59 74 60 68 61 70 62 18 63 73 64 67 65 66 66
REMARK SMILES IDX 19 68 53 69 32 70 52 71 33 72 36 73 51 74 71 75 34 76 35 77
REMARK SMILES IDX 50 79 72 80 37 81 20 82 21 83 30 84 22 85 23 86 29 87 31 88
REMARK SMILES IDX 24 89 25 90 26 91 27 92 28 93 54 94 55 95 64 96 56 97 57 98
REMARK SMILES IDX 63 99 65 100 58 101 59 102 60 103 61 104 62 105 38 106
REMARK SMILES IDX 39 107 48 108 40 109 41 110 47 111 49 112 42 113 43 114
REMARK SMILES IDX 44 115 45 116 46 117
REMARK H PARENT 3 5 87 12 87 13 93 21 96 26 8 48 70 67 36 78
REMARK Flexibility Score: inf
ROOT
ATOM      1  C   UNL A   1      37.065  22.116  25.586  1.00  0.00     0.116 C 
ENDROOT
BRANCH   1   2
ATOM      2  N   UNL A   1      36.886  22.817  24.322  1.00  0.00    -0.352 N 
ATOM      3  O   UNL A   1      35.853  23.457  22.437  1.00  0.00    -0.269 OA
ATOM      4  C   UNL A   1      35.789  22.884  23.520  1.00  0.00     0.255 C 
ATOM      5  H   UNL A   1      37.672  23.316  24.003  1.00  0.00     0.163 HD
BRANCH   4   6
ATOM      6  C   UNL A   1      34.551  22.228  23.980  1.00  0.00     0.095 C 
ATOM      7  C   UNL A   1      34.625  20.946  24.360  1.00  0.00     0.107 C 
ATOM      8  C   UNL A   1      33.268  22.991  23.878  1.00  0.00     0.253 C 
ATOM      9  N   UNL A   1      33.524  20.141  24.562  1.00  0.00    -0.300 N 
ATOM     10  N   UNL A   1      32.054  22.138  23.859  1.00  0.00    -0.319 N 
ATOM     11  C   UNL A   1      32.206  20.781  24.415  1.00  0.00     0.393 C 
ATOM     12  H   UNL A   1      31.329  22.615  24.396  1.00  0.00     0.348 HD
ATOM     13  H   UNL A   1      31.825  22.007  22.874  1.00  0.00     0.348 HD
BRANCH   8  14
ATOM     14  C   UNL A   1      33.105  24.151  24.876  1.00  0.00     0.014 A 
ATOM     15  C   UNL A   1      31.924  24.393  25.606  1.00  0.00     0.012 A 
ATOM     16  C   UNL A   1      34.164  25.065  25.029  1.00  0.00     0.012 A 
ATOM     17  C   UNL A   1      31.737  25.597  26.303  1.00  0.00     0.026 A 
ATOM     18  C   UNL A   1      33.982  26.261  25.724  1.00  0.00     0.026 A 
ATOM     19  C   UNL A   1      32.729  26.574  26.257  1.00  0.00     0.040 A 
BRANCH  19  20
ATOM     20  N   UNL A   1      32.537  27.893  26.687  1.00  0.00    -0.332 N 
ATOM     21  H   UNL A   1      32.488  28.014  27.663  1.00  0.00     0.169 HD
BRANCH  20  22
ATOM     22  C   UNL A   1      32.409  29.018  25.969  1.00  0.00     0.177 C 
ATOM     23  S   UNL A   1      32.191  30.462  26.796  1.00  0.00    -0.040 S 
BRANCH  22  24
ATOM     24  N   UNL A   1      32.581  29.116  24.610  1.00  0.00    -0.296 N 
ATOM     25  C   UNL A   1      32.052  28.921  23.316  1.00  0.00     0.293 C 
ATOM     26  H   UNL A   1      33.482  29.493  24.479  1.00  0.00     0.172 HD
ATOM     27  O   UNL A   1      32.938  28.927  22.446  1.00  0.00    -0.265 OA
BRANCH  25  28
ATOM     28  C   UNL A   1      30.664  28.745  22.931  1.00  0.00     0.193 A 
ATOM     29  C   UNL A   1      29.499  28.828  23.660  1.00  0.00     0.065 A 
ATOM     30  O   UNL A   1      30.315  29.222  21.664  1.00  0.00    -0.451 OA
ATOM     31  C   UNL A   1      28.970  30.067  23.233  1.00  0.00     0.021 A 
ATOM     32  C   UNL A   1      29.331  30.143  21.901  1.00  0.00     0.135 A 
ATOM     33  C   UNL A   1      28.266  31.131  23.806  1.00  0.00     0.012 A 
ATOM     34  C   UNL A   1      28.848  31.098  21.018  1.00  0.00     0.048 A 
ATOM     35  C   UNL A   1      27.886  32.187  22.974  1.00  0.00     0.001 A 
ATOM     36  C   UNL A   1      28.112  32.138  21.597  1.00  0.00     0.004 A 
ENDBRANCH  25  28
ENDBRANCH  22  24
ENDBRANCH  20  22
ENDBRANCH  19  20
ENDBRANCH   8  14
BRANCH   9  37
ATOM     37  C   UNL A   1      33.617  18.758  24.872  1.00  0.00     0.046 A 
ATOM     38  C   UNL A   1      34.658  17.959  24.349  1.00  0.00     0.026 A 
ATOM     39  C   UNL A   1      32.689  18.090  25.689  1.00  0.00     0.026 A 
ATOM     40  C   UNL A   1      34.771  16.590  24.621  1.00  0.00     0.002 A 
ATOM     41  C   UNL A   1      32.787  16.714  25.954  1.00  0.00     0.002 A 
ATOM     42  C   UNL A   1      33.828  15.965  25.422  1.00  0.00     0.000 A 
ENDBRANCH   9  37
ENDBRANCH   4   6
ENDBRANCH   1   2
BRANCH   1  43
ATOM     43  C   UNL A   1      38.517  21.751  25.847  1.00  0.00     0.023 C 
BRANCH  43  44
ATOM     44  C   UNL A   1      39.214  22.624  26.884  1.00  0.00     0.023 C 
BRANCH  44  45
ATOM     45  C   UNL A   1      39.134  24.123  26.627  1.00  0.00     0.116 C 
BRANCH  45  46
ATOM     46  N   UNL A   1      40.212  24.617  25.784  1.00  0.00    -0.352 N 
ATOM     47  C   UNL A   1      41.066  25.668  26.002  1.00  0.00     0.251 C 
ATOM     48  H   UNL A   1      40.348  24.127  24.941  1.00  0.00     0.163 HD
ATOM     49  O   UNL A   1      41.856  26.008  25.126  1.00  0.00    -0.269 OA
BRANCH  47  50
ATOM     50  C   UNL A   1      40.995  26.411  27.276  1.00  0.00     0.039 A 
ATOM     51  C   UNL A   1      41.749  27.577  27.408  1.00  0.00     0.014 A 
ATOM     52  C   UNL A   1      40.159  25.986  28.313  1.00  0.00     0.014 A 
ATOM     53  C   UNL A   1      41.615  28.353  28.559  1.00  0.00     0.010 A 
ATOM     54  C   UNL A   1      39.963  26.805  29.422  1.00  0.00     0.010 A 
ATOM     55  C   UNL A   1      40.694  27.993  29.559  1.00  0.00    -0.014 A 
BRANCH  55  56
ATOM     56  C   UNL A   1      40.487  28.873  30.736  1.00  0.00     0.031 A 
ATOM     57  C   UNL A   1      41.358  28.740  31.953  1.00  0.00     0.074 A 
ATOM     58  C   UNL A   1      39.487  29.777  30.712  1.00  0.00     0.049 A 
ATOM     59  N   UNL A   1      41.368  29.465  33.042  1.00  0.00    -0.248 NA
ATOM     60  C   UNL A   1      42.331  27.635  31.962  1.00  0.00     0.031 C 
ATOM     61  C   UNL A   1      38.526  29.947  29.618  1.00  0.00     0.029 A 
ATOM     62  N   UNL A   1      39.122  30.732  31.625  1.00  0.00    -0.354 N 
ATOM     63  C   UNL A   1      42.332  28.899  33.867  1.00  0.00     0.074 A 
ATOM     64  C   UNL A   1      42.848  27.738  33.178  1.00  0.00     0.031 C 
ATOM     65  C   UNL A   1      37.717  30.979  29.901  1.00  0.00     0.029 A 
ATOM     66  C   UNL A   1      38.083  31.529  31.202  1.00  0.00     0.049 A 
ATOM     67  H   UNL A   1      39.560  30.839  32.499  1.00  0.00     0.167 HD
ATOM     68  C   UNL A   1      42.768  29.325  35.078  1.00  0.00     0.037 A 
ATOM     69  C   UNL A   1      37.505  32.595  31.789  1.00  0.00     0.037 A 
ATOM     70  C   UNL A   1      42.266  30.498  35.746  1.00  0.00     0.049 A 
ATOM     71  C   UNL A   1      38.032  33.072  33.114  1.00  0.00     0.074 A 
ATOM     72  C   UNL A   1      42.691  31.061  36.936  1.00  0.00     0.029 A 
ATOM     73  N   UNL A   1      41.219  31.286  35.284  1.00  0.00    -0.354 N 
ATOM     74  N   UNL A   1      39.010  32.582  33.839  1.00  0.00    -0.248 NA
ATOM     75  C   UNL A   1      37.386  34.257  33.692  1.00  0.00     0.031 C 
ATOM     76  C   UNL A   1      41.875  32.164  37.215  1.00  0.00     0.029 A 
ATOM     77  C   UNL A   1      40.971  32.317  36.175  1.00  0.00     0.049 A 
ATOM     78  H   UNL A   1      40.727  31.134  34.445  1.00  0.00     0.167 HD
ATOM     79  C   UNL A   1      39.113  33.413  34.947  1.00  0.00     0.074 A 
ATOM     80  C   UNL A   1      38.110  34.447  34.785  1.00  0.00     0.031 C 
ATOM     81  C   UNL A   1      39.961  33.332  36.004  1.00  0.00     0.037 A 
BRANCH  68  82
ATOM     82  C   UNL A   1      43.839  28.513  35.754  1.00  0.00     0.058 A 
ATOM     83  C   UNL A   1      43.529  27.478  36.651  1.00  0.00     0.135 A 
ATOM     84  C   UNL A   1      45.196  28.767  35.494  1.00  0.00     0.135 A 
ATOM     85  F   UNL A   1      42.249  27.203  36.950  1.00  0.00    -0.206 F 
ATOM     86  C   UNL A   1      44.523  26.748  37.294  1.00  0.00     0.059 A 
ATOM     87  C   UNL A   1      46.207  28.029  36.104  1.00  0.00     0.059 A 
ATOM     88  F   UNL A   1      45.551  29.745  34.646  1.00  0.00    -0.206 F 
ATOM     89  C   UNL A   1      45.861  27.035  37.017  1.00  0.00     0.060 A 
BRANCH  89  90
ATOM     90  S   UNL A   1      47.141  26.087  37.867  1.00  0.00     0.124 S 
ATOM     91  O   UNL A   1      46.998  26.570  39.237  1.00  0.00    -0.237 OA
ATOM     92  O   UNL A   1      46.718  24.710  37.635  1.00  0.00    -0.237 OA
ATOM     93  O   UNL A   1      48.368  26.486  37.185  1.00  0.00    -0.744 OA
ENDBRANCH  89  90
ENDBRANCH  68  82
BRANCH  69  94
ATOM     94  C   UNL A   1      36.410  33.320  31.093  1.00  0.00     0.058 A 
ATOM     95  C   UNL A   1      35.092  33.260  31.572  1.00  0.00     0.135 A 
ATOM     96  C   UNL A   1      36.657  34.102  29.955  1.00  0.00     0.135 A 
ATOM     97  F   UNL A   1      34.806  32.522  32.656  1.00  0.00    -0.206 F 
ATOM     98  C   UNL A   1      34.056  33.938  30.941  1.00  0.00     0.059 A 
ATOM     99  C   UNL A   1      35.641  34.809  29.320  1.00  0.00     0.059 A 
ATOM    100  F   UNL A   1      37.903  34.206  29.468  1.00  0.00    -0.206 F 
ATOM    101  C   UNL A   1      34.341  34.714  29.816  1.00  0.00     0.060 A 
BRANCH 101 102
ATOM    102  S   UNL A   1      32.998  35.638  29.039  1.00  0.00     0.124 S 
ATOM    103  O   UNL A   1      32.368  34.610  28.219  1.00  0.00    -0.237 OA
ATOM    104  O   UNL A   1      32.230  36.094  30.194  1.00  0.00    -0.237 OA
ATOM    105  O   UNL A   1      33.697  36.691  28.308  1.00  0.00    -0.744 OA
ENDBRANCH 101 102
ENDBRANCH  69  94
BRANCH  81 106
ATOM    106  C   UNL A   1      39.850  34.408  37.049  1.00  0.00     0.058 A 
ATOM    107  C   UNL A   1      38.980  34.287  38.143  1.00  0.00     0.135 A 
ATOM    108  C   UNL A   1      40.622  35.576  36.950  1.00  0.00     0.135 A 
ATOM    109  F   UNL A   1      38.216  33.191  38.282  1.00  0.00    -0.206 F 
ATOM    110  C   UNL A   1      38.839  35.310  39.076  1.00  0.00     0.059 A 
ATOM    111  C   UNL A   1      40.521  36.598  37.888  1.00  0.00     0.059 A 
ATOM    112  F   UNL A   1      41.483  35.735  35.933  1.00  0.00    -0.206 F 
ATOM    113  C   UNL A   1      39.609  36.466  38.934  1.00  0.00     0.060 A 
BRANCH 113 114
ATOM    114  S   UNL A   1      39.406  37.797  40.137  1.00  0.00     0.124 S 
ATOM    115  O   UNL A   1      39.176  37.046  41.366  1.00  0.00    -0.237 OA
ATOM    116  O   UNL A   1      40.683  38.497  40.051  1.00  0.00    -0.237 OA
ATOM    117  O   UNL A   1      38.256  38.539  39.629  1.00  0.00    -0.744 OA
ENDBRANCH 113 114
ENDBRANCH  81 106
ENDBRANCH  55  56
ENDBRANCH  47  50
ENDBRANCH  45  46
ENDBRANCH  44  45
ENDBRANCH  43  44
ENDBRANCH   1  43
TORSDOF 20
ENDMDL
MODEL 3
REMARK VINA RESULT:     -12.6      1.615      7.956
REMARK SMILES O=C(NCCCCNC(=O)c1ccc(-c2c3nc(c(-c4c(F)cc(S(=O)(=O)[O-])cc4F)c4ccc([nH]4)c(-c4c(F)cc(S(=O)(=O)[O-])cc4F)c4nc(c(-c5c(F)cc(S(=O)(=O)[O-])cc5F)c5ccc2[nH]5)C=C4)C=C3)cc1)C1=CN(c2ccccc2)C[NH2+][C@H]1c1ccc(NC(=S)NC(=O)c2cc3ccccc3o2)cc1
REMARK SMILES IDX 4 1 3 2 1 3 2 4 77 6 78 7 88 8 79 9 87 10 86 11 89 14 90 15
REMARK SMILES IDX 109 16 91 17 108 18 92 19 93 20 94 22 95 23 96 24 97 25
REMARK SMILES IDX 98 27 99 28 100 29 107 30 101 31 106 32 102 33 105 34 103 35
REMARK SMILES IDX 104 36 80 37 81 38 85 39 82 40 84 41 83 42 5 43 6 44 7 45
REMARK SMILES IDX 8 46 9 47 10 49 11 50 12 51 76 52 13 53 75 54 14 55 15 56
REMARK SMILES IDX 16 57 69 58 17 59 74 60 68 61 70 62 18 63 73 64 67 65 66 66
REMARK SMILES IDX 19 68 53 69 32 70 52 71 33 72 36 73 51 74 71 75 34 76 35 77
REMARK SMILES IDX 50 79 72 80 37 81 20 82 21 83 30 84 22 85 23 86 29 87 31 88
REMARK SMILES IDX 24 89 25 90 26 91 27 92 28 93 54 94 55 95 64 96 56 97 57 98
REMARK SMILES IDX 63 99 65 100 58 101 59 102 60 103 61 104 62 105 38 106
REMARK SMILES IDX 39 107 48 108 40 109 41 110 47 111 49 112 42 113 43 114
REMARK SMILES IDX 44 115 45 116 46 117
REMARK H PARENT 3 5 87 12 87 13 93 21 96 26 8 48 70 67 36 78
REMARK Flexibility Score: inf
ROOT
ATOM      1  C   UNL A   1      37.200  21.499  24.829  1.00  0.00     0.116 C 
ENDROOT
BRANCH   1   2
ATOM      2  N   UNL A   1      36.864  22.484  23.810  1.00  0.00    -0.352 N 
ATOM      3  O   UNL A   1      35.570  23.608  22.363  1.00  0.00    -0.269 OA
ATOM      4  C   UNL A   1      35.649  22.806  23.287  1.00  0.00     0.255 C 
ATOM      5  H   UNL A   1      37.626  22.990  23.447  1.00  0.00     0.163 HD
BRANCH   4   6
ATOM      6  C   UNL A   1      34.455  22.144  23.846  1.00  0.00     0.095 C 
ATOM      7  C   UNL A   1      34.568  20.864  24.224  1.00  0.00     0.107 C 
ATOM      8  C   UNL A   1      33.164  22.898  23.842  1.00  0.00     0.253 C 
ATOM      9  N   UNL A   1      33.492  20.052  24.516  1.00  0.00    -0.300 N 
ATOM     10  N   UNL A   1      31.957  22.037  23.922  1.00  0.00    -0.319 N 
ATOM     11  C   UNL A   1      32.162  20.684  24.469  1.00  0.00     0.393 C 
ATOM     12  H   UNL A   1      31.274  22.511  24.512  1.00  0.00     0.348 HD
ATOM     13  H   UNL A   1      31.653  21.900  22.958  1.00  0.00     0.348 HD
BRANCH   8  14
ATOM     14  C   UNL A   1      33.071  24.061  24.845  1.00  0.00     0.014 A 
ATOM     15  C   UNL A   1      31.994  24.241  25.736  1.00  0.00     0.012 A 
ATOM     16  C   UNL A   1      34.080  25.042  24.837  1.00  0.00     0.012 A 
ATOM     17  C   UNL A   1      31.832  25.443  26.444  1.00  0.00     0.026 A 
ATOM     18  C   UNL A   1      33.924  26.236  25.544  1.00  0.00     0.026 A 
ATOM     19  C   UNL A   1      32.743  26.479  26.249  1.00  0.00     0.040 A 
BRANCH  19  20
ATOM     20  N   UNL A   1      32.530  27.790  26.693  1.00  0.00    -0.332 N 
ATOM     21  H   UNL A   1      32.492  27.901  27.671  1.00  0.00     0.169 HD
BRANCH  20  22
ATOM     22  C   UNL A   1      32.371  28.918  25.986  1.00  0.00     0.177 C 
ATOM     23  S   UNL A   1      32.086  30.342  26.827  1.00  0.00    -0.040 S 
BRANCH  22  24
ATOM     24  N   UNL A   1      32.559  29.039  24.632  1.00  0.00    -0.296 N 
ATOM     25  C   UNL A   1      32.040  28.879  23.328  1.00  0.00     0.293 C 
ATOM     26  H   UNL A   1      33.468  29.402  24.517  1.00  0.00     0.172 HD
ATOM     27  O   UNL A   1      32.935  28.886  22.468  1.00  0.00    -0.265 OA
BRANCH  25  28
ATOM     28  C   UNL A   1      30.653  28.736  22.926  1.00  0.00     0.193 A 
ATOM     29  C   UNL A   1      29.482  28.825  23.644  1.00  0.00     0.065 A 
ATOM     30  O   UNL A   1      30.327  29.246  21.665  1.00  0.00    -0.451 OA
ATOM     31  C   UNL A   1      28.980  30.081  23.238  1.00  0.00     0.021 A 
ATOM     32  C   UNL A   1      29.356  30.179  21.912  1.00  0.00     0.135 A 
ATOM     33  C   UNL A   1      28.289  31.145  23.827  1.00  0.00     0.012 A 
ATOM     34  C   UNL A   1      28.900  31.160  21.045  1.00  0.00     0.048 A 
ATOM     35  C   UNL A   1      27.936  32.226  23.013  1.00  0.00     0.001 A 
ATOM     36  C   UNL A   1      28.176  32.201  21.638  1.00  0.00     0.004 A 
ENDBRANCH  25  28
ENDBRANCH  22  24
ENDBRANCH  20  22
ENDBRANCH  19  20
ENDBRANCH   8  14
BRANCH   9  37
ATOM     37  C   UNL A   1      33.618  18.672  24.822  1.00  0.00     0.046 A 
ATOM     38  C   UNL A   1      32.597  17.979  25.511  1.00  0.00     0.026 A 
ATOM     39  C   UNL A   1      34.751  17.911  24.486  1.00  0.00     0.026 A 
ATOM     40  C   UNL A   1      32.695  16.622  25.843  1.00  0.00     0.002 A 
ATOM     41  C   UNL A   1      34.862  16.553  24.829  1.00  0.00     0.002 A 
ATOM     42  C   UNL A   1      33.835  15.909  25.505  1.00  0.00     0.000 A 
ENDBRANCH   9  37
ENDBRANCH   4   6
ENDBRANCH   1   2
BRANCH   1  43
ATOM     43  C   UNL A   1      37.971  22.105  25.990  1.00  0.00     0.023 C 
BRANCH  43  44
ATOM     44  C   UNL A   1      37.800  23.611  26.147  1.00  0.00     0.023 C 
BRANCH  44  45
ATOM     45  C   UNL A   1      38.955  24.326  26.834  1.00  0.00     0.116 C 
BRANCH  45  46
ATOM     46  N   UNL A   1      40.021  24.704  25.920  1.00  0.00    -0.352 N 
ATOM     47  C   UNL A   1      40.960  25.695  26.049  1.00  0.00     0.251 C 
ATOM     48  H   UNL A   1      40.076  24.173  25.092  1.00  0.00     0.163 HD
ATOM     49  O   UNL A   1      41.726  25.940  25.122  1.00  0.00    -0.269 OA
BRANCH  47  50
ATOM     50  C   UNL A   1      41.011  26.491  27.293  1.00  0.00     0.039 A 
ATOM     51  C   UNL A   1      41.690  27.709  27.274  1.00  0.00     0.014 A 
ATOM     52  C   UNL A   1      40.357  26.061  28.451  1.00  0.00     0.014 A 
ATOM     53  C   UNL A   1      41.660  28.527  28.403  1.00  0.00     0.010 A 
ATOM     54  C   UNL A   1      40.257  26.916  29.545  1.00  0.00     0.010 A 
ATOM     55  C   UNL A   1      40.912  28.155  29.534  1.00  0.00    -0.014 A 
BRANCH  55  56
ATOM     56  C   UNL A   1      40.805  29.073  30.695  1.00  0.00     0.031 A 
ATOM     57  C   UNL A   1      39.720  30.111  30.753  1.00  0.00     0.074 A 
ATOM     58  C   UNL A   1      41.711  28.981  31.690  1.00  0.00     0.049 A 
ATOM     59  N   UNL A   1      39.432  30.949  31.715  1.00  0.00    -0.248 NA
ATOM     60  C   UNL A   1      38.860  30.246  29.565  1.00  0.00     0.031 C 
ATOM     61  C   UNL A   1      42.855  28.065  31.710  1.00  0.00     0.029 A 
ATOM     62  N   UNL A   1      41.805  29.656  32.880  1.00  0.00    -0.354 N 
ATOM     63  C   UNL A   1      38.372  31.715  31.248  1.00  0.00     0.074 A 
ATOM     64  C   UNL A   1      38.103  31.283  29.895  1.00  0.00     0.031 C 
ATOM     65  C   UNL A   1      43.502  28.198  32.878  1.00  0.00     0.029 A 
ATOM     66  C   UNL A   1      42.838  29.222  33.678  1.00  0.00     0.049 A 
ATOM     67  H   UNL A   1      41.192  30.380  33.140  1.00  0.00     0.167 HD
ATOM     68  C   UNL A   1      37.667  32.675  31.897  1.00  0.00     0.037 A 
ATOM     69  C   UNL A   1      43.196  29.594  34.922  1.00  0.00     0.037 A 
ATOM     70  C   UNL A   1      37.926  33.081  33.254  1.00  0.00     0.049 A 
ATOM     71  C   UNL A   1      42.375  30.631  35.636  1.00  0.00     0.074 A 
ATOM     72  C   UNL A   1      37.225  33.986  34.032  1.00  0.00     0.029 A 
ATOM     73  N   UNL A   1      38.975  32.614  34.035  1.00  0.00    -0.354 N 
ATOM     74  N   UNL A   1      41.316  31.281  35.215  1.00  0.00    -0.248 NA
ATOM     75  C   UNL A   1      42.792  30.975  37.002  1.00  0.00     0.031 C 
ATOM     76  C   UNL A   1      37.874  34.098  35.267  1.00  0.00     0.029 A 
ATOM     77  C   UNL A   1      38.953  33.227  35.277  1.00  0.00     0.049 A 
ATOM     78  H   UNL A   1      39.637  31.945  33.748  1.00  0.00     0.167 HD
ATOM     79  C   UNL A   1      40.924  32.092  36.273  1.00  0.00     0.074 A 
ATOM     80  C   UNL A   1      41.850  31.836  37.358  1.00  0.00     0.031 C 
ATOM     81  C   UNL A   1      39.890  32.969  36.343  1.00  0.00     0.037 A 
BRANCH  68  82
ATOM     82  C   UNL A   1      36.553  33.347  31.143  1.00  0.00     0.058 A 
ATOM     83  C   UNL A   1      36.804  34.238  30.087  1.00  0.00     0.135 A 
ATOM     84  C   UNL A   1      35.212  33.090  31.474  1.00  0.00     0.135 A 
ATOM     85  F   UNL A   1      38.068  34.533  29.738  1.00  0.00    -0.206 F 
ATOM     86  C   UNL A   1      35.771  34.877  29.410  1.00  0.00     0.059 A 
ATOM     87  C   UNL A   1      34.161  33.696  30.790  1.00  0.00     0.059 A 
ATOM     88  F   UNL A   1      34.912  32.247  32.475  1.00  0.00    -0.206 F 
ATOM     89  C   UNL A   1      34.452  34.603  29.773  1.00  0.00     0.060 A 
BRANCH  89  90
ATOM     90  S   UNL A   1      33.121  35.448  28.893  1.00  0.00     0.124 S 
ATOM     91  O   UNL A   1      32.525  34.347  28.143  1.00  0.00    -0.237 OA
ATOM     92  O   UNL A   1      32.313  35.982  29.983  1.00  0.00    -0.237 OA
ATOM     93  O   UNL A   1      33.825  36.446  28.092  1.00  0.00    -0.744 OA
ENDBRANCH  89  90
ENDBRANCH  68  82
BRANCH  69  94
ATOM     94  C   UNL A   1      44.345  28.930  35.591  1.00  0.00     0.058 A 
ATOM     95  C   UNL A   1      44.152  27.791  36.387  1.00  0.00     0.135 A 
ATOM     96  C   UNL A   1      45.657  29.404  35.435  1.00  0.00     0.135 A 
ATOM     97  F   UNL A   1      42.915  27.303  36.569  1.00  0.00    -0.206 F 
ATOM     98  C   UNL A   1      45.215  27.151  37.014  1.00  0.00     0.059 A 
ATOM     99  C   UNL A   1      46.739  28.766  36.032  1.00  0.00     0.059 A 
ATOM    100  F   UNL A   1      45.897  30.479  34.669  1.00  0.00    -0.206 F 
ATOM    101  C   UNL A   1      46.506  27.645  36.828  1.00  0.00     0.060 A 
BRANCH 101 102
ATOM    102  S   UNL A   1      47.886  26.770  37.599  1.00  0.00     0.124 S 
ATOM    103  O   UNL A   1      48.012  27.478  38.868  1.00  0.00    -0.237 OA
ATOM    104  O   UNL A   1      47.380  25.403  37.676  1.00  0.00    -0.237 OA
ATOM    105  O   UNL A   1      48.979  26.971  36.652  1.00  0.00    -0.744 OA
ENDBRANCH 101 102
ENDBRANCH  69  94
BRANCH  81 106
ATOM    106  C   UNL A   1      39.699  33.692  37.648  1.00  0.00     0.058 A 
ATOM    107  C   UNL A   1      38.850  33.197  38.649  1.00  0.00     0.135 A 
ATOM    108  C   UNL A   1      40.372  34.899  37.896  1.00  0.00     0.135 A 
ATOM    109  F   UNL A   1      38.179  32.048  38.460  1.00  0.00    -0.206 F 
ATOM    110  C   UNL A   1      38.634  33.898  39.831  1.00  0.00     0.059 A 
ATOM    111  C   UNL A   1      40.195  35.602  39.083  1.00  0.00     0.059 A 
ATOM    112  F   UNL A   1      41.209  35.409  36.979  1.00  0.00    -0.206 F 
ATOM    113  C   UNL A   1      39.305  35.105  40.034  1.00  0.00     0.060 A 
BRANCH 113 114
ATOM    114  S   UNL A   1      39.004  36.019  41.561  1.00  0.00     0.124 S 
ATOM    115  O   UNL A   1      37.710  35.484  41.972  1.00  0.00    -0.237 OA
ATOM    116  O   UNL A   1      40.142  35.635  42.390  1.00  0.00    -0.237 OA
ATOM    117  O   UNL A   1      38.996  37.413  41.125  1.00  0.00    -0.744 OA
ENDBRANCH 113 114
ENDBRANCH  81 106
ENDBRANCH  55  56
ENDBRANCH  47  50
ENDBRANCH  45  46
ENDBRANCH  44  45
ENDBRANCH  43  44
ENDBRANCH   1  43
TORSDOF 20
ENDMDL
