MODEL 1
REMARK VINA RESULT:     -12.4      0.000      0.000
REMARK SMILES O=C(NCCCCNC(=O)c1ccccc1Sc1ccc(S(=O)(=O)N2CCCC2)cc1[N+](=O)[O-])c1ccc(-c2c3nc(c(-c4c(F)cc(S(=O)(=O)[O-])cc4F)c4ccc([nH]4)c(-c4c(F)cc(S(=O)(=O)[O-])cc4F)c4nc(c(-c5c(F)cc(S(=O)(=O)[O-])cc5F)c5ccc2[nH]5)C=C4)C=C3)cc1
REMARK SMILES IDX 6 1 5 2 4 3 3 4 1 5 2 6 35 8 36 9 100 10 37 11 99 12 38 13
REMARK SMILES IDX 39 14 40 15 93 16 41 17 98 18 92 19 94 20 42 21 97 22 91 23
REMARK SMILES IDX 90 24 43 26 77 27 56 28 76 29 57 30 60 31 75 32 95 33 58 34
REMARK SMILES IDX 59 35 74 37 96 38 61 39 44 40 45 41 54 42 46 43 47 44 53 45
REMARK SMILES IDX 55 46 48 47 49 48 50 49 51 50 52 51 78 52 79 53 88 54 80 55
REMARK SMILES IDX 81 56 87 57 89 58 82 59 83 60 84 61 85 62 86 63 62 64 63 65
REMARK SMILES IDX 72 66 64 67 65 68 71 69 73 70 66 71 67 72 68 73 69 74 70 75
REMARK SMILES IDX 7 76 8 77 9 78 10 80 11 81 12 82 16 83 13 84 15 85 14 86
REMARK SMILES IDX 17 87 18 88 19 89 31 90 20 91 30 92 21 93 32 94 33 95 34 96
REMARK SMILES IDX 22 97 23 98 24 99 25 100 26 101 29 102 27 103 28 104
REMARK H PARENT 3 7 94 25 60 36 8 79
REMARK Flexibility Score: inf
ROOT
ATOM      1  C   UNL A   1      32.656  29.846  27.217  1.00  0.00     0.023 C 
ENDROOT
BRANCH   1   2
ATOM      2  C   UNL A   1      33.933  28.995  27.154  1.00  0.00     0.023 C 
BRANCH   2   3
ATOM      3  C   UNL A   1      35.229  29.705  27.526  1.00  0.00     0.116 C 
BRANCH   3   4
ATOM      4  N   UNL A   1      35.158  30.447  28.770  1.00  0.00    -0.352 N 
ATOM      5  O   UNL A   1      35.884  31.333  30.708  1.00  0.00    -0.269 OA
ATOM      6  C   UNL A   1      36.153  30.710  29.684  1.00  0.00     0.251 C 
ATOM      7  H   UNL A   1      34.272  30.814  28.993  1.00  0.00     0.163 HD
BRANCH   6   8
ATOM      8  C   UNL A   1      37.536  30.224  29.459  1.00  0.00     0.039 A 
ATOM      9  C   UNL A   1      38.080  30.139  28.178  1.00  0.00     0.014 A 
ATOM     10  C   UNL A   1      38.322  29.892  30.565  1.00  0.00     0.014 A 
ATOM     11  C   UNL A   1      39.367  29.625  27.991  1.00  0.00     0.010 A 
ATOM     12  C   UNL A   1      39.636  29.439  30.381  1.00  0.00     0.010 A 
ATOM     13  C   UNL A   1      40.171  29.288  29.091  1.00  0.00    -0.014 A 
BRANCH  13  14
ATOM     14  C   UNL A   1      41.592  28.875  28.908  1.00  0.00     0.031 A 
ATOM     15  C   UNL A   1      42.709  29.886  28.932  1.00  0.00     0.074 A 
ATOM     16  C   UNL A   1      41.871  27.582  28.642  1.00  0.00     0.049 A 
ATOM     17  N   UNL A   1      43.974  29.725  28.629  1.00  0.00    -0.248 NA
ATOM     18  C   UNL A   1      42.364  31.257  29.337  1.00  0.00     0.031 C 
ATOM     19  C   UNL A   1      40.885  26.500  28.576  1.00  0.00     0.029 A 
ATOM     20  N   UNL A   1      43.061  26.958  28.349  1.00  0.00    -0.354 N 
ATOM     21  C   UNL A   1      44.567  30.975  28.770  1.00  0.00     0.074 A 
ATOM     22  C   UNL A   1      43.523  31.888  29.186  1.00  0.00     0.031 C 
ATOM     23  C   UNL A   1      41.505  25.354  28.258  1.00  0.00     0.029 A 
ATOM     24  C   UNL A   1      42.921  25.627  28.031  1.00  0.00     0.049 A 
ATOM     25  H   UNL A   1      43.932  27.420  28.365  1.00  0.00     0.167 HD
ATOM     26  C   UNL A   1      45.862  31.323  28.572  1.00  0.00     0.037 A 
ATOM     27  C   UNL A   1      43.809  24.731  27.559  1.00  0.00     0.037 A 
ATOM     28  C   UNL A   1      46.908  30.400  28.205  1.00  0.00     0.049 A 
ATOM     29  C   UNL A   1      45.231  25.155  27.316  1.00  0.00     0.074 A 
ATOM     30  C   UNL A   1      48.266  30.649  28.082  1.00  0.00     0.029 A 
ATOM     31  N   UNL A   1      46.720  29.063  27.890  1.00  0.00    -0.354 N 
ATOM     32  N   UNL A   1      45.785  26.326  27.515  1.00  0.00    -0.248 NA
ATOM     33  C   UNL A   1      46.146  24.141  26.772  1.00  0.00     0.031 C 
ATOM     34  C   UNL A   1      48.890  29.478  27.639  1.00  0.00     0.029 A 
ATOM     35  C   UNL A   1      47.929  28.487  27.530  1.00  0.00     0.049 A 
ATOM     36  H   UNL A   1      45.856  28.593  27.919  1.00  0.00     0.167 HD
ATOM     37  C   UNL A   1      47.112  26.188  27.126  1.00  0.00     0.074 A 
ATOM     38  C   UNL A   1      47.287  24.813  26.707  1.00  0.00     0.031 C 
ATOM     39  C   UNL A   1      48.096  27.120  27.110  1.00  0.00     0.037 A 
BRANCH  26  40
ATOM     40  C   UNL A   1      46.255  32.767  28.733  1.00  0.00     0.058 A 
ATOM     41  C   UNL A   1      46.195  33.674  27.665  1.00  0.00     0.135 A 
ATOM     42  C   UNL A   1      46.564  33.273  30.007  1.00  0.00     0.135 A 
ATOM     43  F   UNL A   1      45.910  33.243  26.427  1.00  0.00    -0.206 F 
ATOM     44  C   UNL A   1      46.425  35.034  27.855  1.00  0.00     0.059 A 
ATOM     45  C   UNL A   1      46.779  34.632  30.224  1.00  0.00     0.059 A 
ATOM     46  F   UNL A   1      46.631  32.448  31.064  1.00  0.00    -0.206 F 
ATOM     47  C   UNL A   1      46.707  35.505  29.140  1.00  0.00     0.060 A 
BRANCH  47  48
ATOM     48  S   UNL A   1      46.939  37.281  29.378  1.00  0.00     0.124 S 
ATOM     49  O   UNL A   1      45.595  37.703  29.763  1.00  0.00    -0.237 OA
ATOM     50  O   UNL A   1      47.943  37.325  30.437  1.00  0.00    -0.237 OA
ATOM     51  O   UNL A   1      47.390  37.745  28.070  1.00  0.00    -0.744 OA
ENDBRANCH  47  48
ENDBRANCH  26  40
BRANCH  27  52
ATOM     52  C   UNL A   1      43.366  23.352  27.222  1.00  0.00     0.058 A 
ATOM     53  C   UNL A   1      43.154  22.392  28.221  1.00  0.00     0.135 A 
ATOM     54  C   UNL A   1      43.164  22.964  25.887  1.00  0.00     0.135 A 
ATOM     55  F   UNL A   1      43.345  22.713  29.510  1.00  0.00    -0.206 F 
ATOM     56  C   UNL A   1      42.780  21.089  27.910  1.00  0.00     0.059 A 
ATOM     57  C   UNL A   1      42.760  21.677  25.553  1.00  0.00     0.059 A 
ATOM     58  F   UNL A   1      43.340  23.849  24.894  1.00  0.00    -0.206 F 
ATOM     59  C   UNL A   1      42.588  20.740  26.571  1.00  0.00     0.060 A 
BRANCH  59  60
ATOM     60  S   UNL A   1      42.080  19.054  26.176  1.00  0.00     0.124 S 
ATOM     61  O   UNL A   1      42.313  18.374  27.444  1.00  0.00    -0.237 OA
ATOM     62  O   UNL A   1      40.683  19.233  25.794  1.00  0.00    -0.237 OA
ATOM     63  O   UNL A   1      42.976  18.683  25.085  1.00  0.00    -0.744 OA
ENDBRANCH  59  60
ENDBRANCH  27  52
BRANCH  39  64
ATOM     64  C   UNL A   1      49.452  26.687  26.629  1.00  0.00     0.058 A 
ATOM     65  C   UNL A   1      50.387  26.110  27.502  1.00  0.00     0.135 A 
ATOM     66  C   UNL A   1      49.805  26.805  25.275  1.00  0.00     0.135 A 
ATOM     67  F   UNL A   1      50.105  25.986  28.808  1.00  0.00    -0.206 F 
ATOM     68  C   UNL A   1      51.631  25.679  27.053  1.00  0.00     0.059 A 
ATOM     69  C   UNL A   1      51.033  26.357  24.799  1.00  0.00     0.059 A 
ATOM     70  F   UNL A   1      48.944  27.345  24.396  1.00  0.00    -0.206 F 
ATOM     71  C   UNL A   1      51.944  25.803  25.698  1.00  0.00     0.060 A 
BRANCH  71  72
ATOM     72  S   UNL A   1      53.545  25.200  25.121  1.00  0.00     0.124 S 
ATOM     73  O   UNL A   1      53.388  23.757  25.270  1.00  0.00    -0.237 OA
ATOM     74  O   UNL A   1      53.590  25.695  23.748  1.00  0.00    -0.237 OA
ATOM     75  O   UNL A   1      54.493  25.825  26.038  1.00  0.00    -0.744 OA
ENDBRANCH  71  72
ENDBRANCH  39  64
ENDBRANCH  13  14
ENDBRANCH   6   8
ENDBRANCH   3   4
ENDBRANCH   2   3
ENDBRANCH   1   2
BRANCH   1  76
ATOM     76  C   UNL A   1      32.034  30.260  25.878  1.00  0.00     0.116 C 
BRANCH  76  77
ATOM     77  N   UNL A   1      32.800  29.821  24.728  1.00  0.00    -0.352 N 
ATOM     78  C   UNL A   1      32.492  28.857  23.808  1.00  0.00     0.252 C 
ATOM     79  H   UNL A   1      33.660  30.281  24.591  1.00  0.00     0.163 HD
ATOM     80  O   UNL A   1      33.289  28.596  22.908  1.00  0.00    -0.269 OA
BRANCH  78  81
ATOM     81  C   UNL A   1      31.248  28.066  23.891  1.00  0.00     0.053 A 
ATOM     82  C   UNL A   1      30.217  28.580  23.074  1.00  0.00     0.015 A 
ATOM     83  C   UNL A   1      30.997  26.977  24.745  1.00  0.00     0.025 A 
ATOM     84  C   UNL A   1      28.962  27.977  23.035  1.00  0.00     0.001 A 
ATOM     85  C   UNL A   1      29.730  26.360  24.647  1.00  0.00     0.016 A 
ATOM     86  C   UNL A   1      28.728  26.848  23.803  1.00  0.00     0.001 A 
BRANCH  83  87
ATOM     87  S   UNL A   1      32.013  26.228  26.026  1.00  0.00    -0.082 SA
BRANCH  87  88
ATOM     88  C   UNL A   1      32.792  24.786  25.338  1.00  0.00     0.090 A 
ATOM     89  C   UNL A   1      33.743  25.081  24.346  1.00  0.00     0.024 A 
ATOM     90  C   UNL A   1      32.679  23.452  25.749  1.00  0.00     0.284 A 
ATOM     91  C   UNL A   1      34.699  24.141  23.965  1.00  0.00     0.023 A 
ATOM     92  C   UNL A   1      33.721  22.551  25.469  1.00  0.00     0.108 A 
ATOM     93  C   UNL A   1      34.764  22.924  24.630  1.00  0.00     0.089 A 
BRANCH  90  94
ATOM     94  N   UNL A   1      31.514  22.938  26.490  1.00  0.00     0.063 N 
ATOM     95  O   UNL A   1      31.576  22.943  27.729  1.00  0.00    -0.258 OA
ATOM     96  O   UNL A   1      30.578  22.440  25.854  1.00  0.00    -0.258 OA
ENDBRANCH  90  94
BRANCH  93  97
ATOM     97  S   UNL A   1      36.281  21.994  24.501  1.00  0.00     0.243 S 
ATOM     98  O   UNL A   1      35.901  20.607  24.627  1.00  0.00    -0.207 OA
ATOM     99  O   UNL A   1      36.919  22.492  23.297  1.00  0.00    -0.207 OA
BRANCH  97 100
ATOM    100  N   UNL A   1      37.211  22.393  25.829  1.00  0.00    -0.198 NA
ATOM    101  C   UNL A   1      37.118  23.733  26.418  1.00  0.00     0.102 C 
ATOM    102  C   UNL A   1      38.575  21.866  25.997  1.00  0.00     0.102 C 
ATOM    103  C   UNL A   1      38.521  24.290  26.262  1.00  0.00     0.018 C 
ATOM    104  C   UNL A   1      39.428  23.073  26.387  1.00  0.00     0.018 C 
ENDBRANCH  97 100
ENDBRANCH  93  97
ENDBRANCH  87  88
ENDBRANCH  83  87
ENDBRANCH  78  81
ENDBRANCH  76  77
ENDBRANCH   1  76
TORSDOF 19
ENDMDL
MODEL 2
REMARK VINA RESULT:     -11.9      1.295      2.082
REMARK SMILES O=C(NCCCCNC(=O)c1ccccc1Sc1ccc(S(=O)(=O)N2CCCC2)cc1[N+](=O)[O-])c1ccc(-c2c3nc(c(-c4c(F)cc(S(=O)(=O)[O-])cc4F)c4ccc([nH]4)c(-c4c(F)cc(S(=O)(=O)[O-])cc4F)c4nc(c(-c5c(F)cc(S(=O)(=O)[O-])cc5F)c5ccc2[nH]5)C=C4)C=C3)cc1
REMARK SMILES IDX 6 1 5 2 4 3 3 4 1 5 2 6 35 8 36 9 100 10 37 11 99 12 38 13
REMARK SMILES IDX 39 14 40 15 93 16 41 17 98 18 92 19 94 20 42 21 97 22 91 23
REMARK SMILES IDX 90 24 43 26 77 27 56 28 76 29 57 30 60 31 75 32 95 33 58 34
REMARK SMILES IDX 59 35 74 37 96 38 61 39 44 40 45 41 54 42 46 43 47 44 53 45
REMARK SMILES IDX 55 46 48 47 49 48 50 49 51 50 52 51 78 52 79 53 88 54 80 55
REMARK SMILES IDX 81 56 87 57 89 58 82 59 83 60 84 61 85 62 86 63 62 64 63 65
REMARK SMILES IDX 72 66 64 67 65 68 71 69 73 70 66 71 67 72 68 73 69 74 70 75
REMARK SMILES IDX 7 76 8 77 9 78 10 80 11 81 12 82 16 83 13 84 15 85 14 86
REMARK SMILES IDX 17 87 18 88 19 89 31 90 20 91 30 92 21 93 32 94 33 95 34 96
REMARK SMILES IDX 22 97 23 98 24 99 25 100 26 101 29 102 27 103 28 104
REMARK H PARENT 3 7 94 25 60 36 8 79
REMARK Flexibility Score: inf
ROOT
ATOM      1  C   UNL A   1      33.141  30.268  27.282  1.00  0.00     0.023 C 
ENDROOT
BRANCH   1   2
ATOM      2  C   UNL A   1      34.655  30.031  27.183  1.00  0.00     0.023 C 
BRANCH   2   3
ATOM      3  C   UNL A   1      35.540  31.087  27.834  1.00  0.00     0.116 C 
BRANCH   3   4
ATOM      4  N   UNL A   1      35.399  31.167  29.275  1.00  0.00    -0.352 N 
ATOM      5  O   UNL A   1      35.992  30.966  31.437  1.00  0.00    -0.269 OA
ATOM      6  C   UNL A   1      36.316  30.867  30.256  1.00  0.00     0.251 C 
ATOM      7  H   UNL A   1      34.523  31.481  29.597  1.00  0.00     0.163 HD
BRANCH   6   8
ATOM      8  C   UNL A   1      37.678  30.397  29.903  1.00  0.00     0.039 A 
ATOM      9  C   UNL A   1      38.135  30.411  28.586  1.00  0.00     0.014 A 
ATOM     10  C   UNL A   1      38.533  29.979  30.926  1.00  0.00     0.014 A 
ATOM     11  C   UNL A   1      39.403  29.910  28.275  1.00  0.00     0.010 A 
ATOM     12  C   UNL A   1      39.828  29.538  30.621  1.00  0.00     0.010 A 
ATOM     13  C   UNL A   1      40.276  29.487  29.290  1.00  0.00    -0.014 A 
BRANCH  13  14
ATOM     14  C   UNL A   1      41.678  29.085  28.981  1.00  0.00     0.031 A 
ATOM     15  C   UNL A   1      42.786  30.105  28.916  1.00  0.00     0.074 A 
ATOM     16  C   UNL A   1      41.943  27.797  28.681  1.00  0.00     0.049 A 
ATOM     17  N   UNL A   1      44.021  29.956  28.504  1.00  0.00    -0.248 NA
ATOM     18  C   UNL A   1      42.468  31.471  29.361  1.00  0.00     0.031 C 
ATOM     19  C   UNL A   1      40.962  26.708  28.693  1.00  0.00     0.029 A 
ATOM     20  N   UNL A   1      43.107  27.185  28.283  1.00  0.00    -0.354 N 
ATOM     21  C   UNL A   1      44.616  31.210  28.604  1.00  0.00     0.074 A 
ATOM     22  C   UNL A   1      43.605  32.111  29.115  1.00  0.00     0.031 C 
ATOM     23  C   UNL A   1      41.560  25.569  28.313  1.00  0.00     0.029 A 
ATOM     24  C   UNL A   1      42.949  25.854  27.967  1.00  0.00     0.049 A 
ATOM     25  H   UNL A   1      43.972  27.653  28.227  1.00  0.00     0.167 HD
ATOM     26  C   UNL A   1      45.885  31.569  28.297  1.00  0.00     0.037 A 
ATOM     27  C   UNL A   1      43.800  24.969  27.413  1.00  0.00     0.037 A 
ATOM     28  C   UNL A   1      46.903  30.657  27.833  1.00  0.00     0.049 A 
ATOM     29  C   UNL A   1      45.192  25.406  27.051  1.00  0.00     0.074 A 
ATOM     30  C   UNL A   1      48.243  30.917  27.595  1.00  0.00     0.029 A 
ATOM     31  N   UNL A   1      46.697  29.321  27.525  1.00  0.00    -0.354 N 
ATOM     32  N   UNL A   1      45.753  26.580  27.210  1.00  0.00    -0.248 NA
ATOM     33  C   UNL A   1      46.063  24.403  26.422  1.00  0.00     0.031 C 
ATOM     34  C   UNL A   1      48.834  29.754  27.090  1.00  0.00     0.029 A 
ATOM     35  C   UNL A   1      47.874  28.757  27.057  1.00  0.00     0.049 A 
ATOM     36  H   UNL A   1      45.842  28.844  27.625  1.00  0.00     0.167 HD
ATOM     37  C   UNL A   1      47.042  26.454  26.707  1.00  0.00     0.074 A 
ATOM     38  C   UNL A   1      47.190  25.084  26.264  1.00  0.00     0.031 C 
ATOM     39  C   UNL A   1      48.014  27.394  26.613  1.00  0.00     0.037 A 
BRANCH  26  40
ATOM     40  C   UNL A   1      46.280  33.015  28.434  1.00  0.00     0.058 A 
ATOM     41  C   UNL A   1      46.855  33.518  29.611  1.00  0.00     0.135 A 
ATOM     42  C   UNL A   1      46.205  33.872  27.323  1.00  0.00     0.135 A 
ATOM     43  F   UNL A   1      46.945  32.744  30.703  1.00  0.00    -0.206 F 
ATOM     44  C   UNL A   1      47.345  34.819  29.680  1.00  0.00     0.059 A 
ATOM     45  C   UNL A   1      46.706  35.171  27.364  1.00  0.00     0.059 A 
ATOM     46  F   UNL A   1      45.667  33.440  26.172  1.00  0.00    -0.206 F 
ATOM     47  C   UNL A   1      47.275  35.635  28.548  1.00  0.00     0.060 A 
BRANCH  47  48
ATOM     48  S   UNL A   1      47.974  37.299  28.638  1.00  0.00     0.124 S 
ATOM     49  O   UNL A   1      48.766  37.349  27.412  1.00  0.00    -0.237 OA
ATOM     50  O   UNL A   1      46.780  38.138  28.654  1.00  0.00    -0.237 OA
ATOM     51  O   UNL A   1      48.741  37.281  29.879  1.00  0.00    -0.744 OA
ENDBRANCH  47  48
ENDBRANCH  26  40
BRANCH  27  52
ATOM     52  C   UNL A   1      43.339  23.589  27.104  1.00  0.00     0.058 A 
ATOM     53  C   UNL A   1      43.278  22.604  28.099  1.00  0.00     0.135 A 
ATOM     54  C   UNL A   1      42.966  23.226  25.799  1.00  0.00     0.135 A 
ATOM     55  F   UNL A   1      43.634  22.900  29.359  1.00  0.00    -0.206 F 
ATOM     56  C   UNL A   1      42.887  21.301  27.809  1.00  0.00     0.059 A 
ATOM     57  C   UNL A   1      42.544  21.939  25.490  1.00  0.00     0.059 A 
ATOM     58  F   UNL A   1      42.994  24.136  24.813  1.00  0.00    -0.206 F 
ATOM     59  C   UNL A   1      42.525  20.977  26.500  1.00  0.00     0.060 A 
BRANCH  59  60
ATOM     60  S   UNL A   1      41.997  19.290  26.135  1.00  0.00     0.124 S 
ATOM     61  O   UNL A   1      42.326  18.606  27.379  1.00  0.00    -0.237 OA
ATOM     62  O   UNL A   1      40.575  19.464  25.857  1.00  0.00    -0.237 OA
ATOM     63  O   UNL A   1      42.812  18.928  24.979  1.00  0.00    -0.744 OA
ENDBRANCH  59  60
ENDBRANCH  27  52
BRANCH  39  64
ATOM     64  C   UNL A   1      49.327  26.976  26.014  1.00  0.00     0.058 A 
ATOM     65  C   UNL A   1      49.597  27.154  24.648  1.00  0.00     0.135 A 
ATOM     66  C   UNL A   1      50.343  26.435  26.818  1.00  0.00     0.135 A 
ATOM     67  F   UNL A   1      48.655  27.655  23.833  1.00  0.00    -0.206 F 
ATOM     68  C   UNL A   1      50.823  26.797  24.097  1.00  0.00     0.059 A 
ATOM     69  C   UNL A   1      51.586  26.096  26.293  1.00  0.00     0.059 A 
ATOM     70  F   UNL A   1      50.139  26.249  28.132  1.00  0.00    -0.206 F 
ATOM     71  C   UNL A   1      51.814  26.272  24.929  1.00  0.00     0.060 A 
BRANCH  71  72
ATOM     72  S   UNL A   1      53.416  25.852  24.209  1.00  0.00     0.124 S 
ATOM     73  O   UNL A   1      53.635  24.511  24.739  1.00  0.00    -0.237 OA
ATOM     74  O   UNL A   1      53.145  25.931  22.776  1.00  0.00    -0.237 OA
ATOM     75  O   UNL A   1      54.304  26.886  24.730  1.00  0.00    -0.744 OA
ENDBRANCH  71  72
ENDBRANCH  39  64
ENDBRANCH  13  14
ENDBRANCH   6   8
ENDBRANCH   3   4
ENDBRANCH   2   3
ENDBRANCH   1   2
BRANCH   1  76
ATOM     76  C   UNL A   1      32.340  30.181  25.978  1.00  0.00     0.116 C 
BRANCH  76  77
ATOM     77  N   UNL A   1      33.122  29.703  24.854  1.00  0.00    -0.352 N 
ATOM     78  C   UNL A   1      32.704  29.013  23.749  1.00  0.00     0.252 C 
ATOM     79  H   UNL A   1      34.085  29.903  24.892  1.00  0.00     0.163 HD
ATOM     80  O   UNL A   1      33.526  28.658  22.905  1.00  0.00    -0.269 OA
BRANCH  78  81
ATOM     81  C   UNL A   1      31.295  28.621  23.558  1.00  0.00     0.053 A 
ATOM     82  C   UNL A   1      30.574  29.537  22.759  1.00  0.00     0.015 A 
ATOM     83  C   UNL A   1      30.632  27.535  24.159  1.00  0.00     0.025 A 
ATOM     84  C   UNL A   1      29.223  29.344  22.485  1.00  0.00     0.001 A 
ATOM     85  C   UNL A   1      29.274  27.342  23.822  1.00  0.00     0.016 A 
ATOM     86  C   UNL A   1      28.578  28.229  22.996  1.00  0.00     0.001 A 
BRANCH  83  87
ATOM     87  S   UNL A   1      31.205  26.329  25.365  1.00  0.00    -0.082 SA
BRANCH  87  88
ATOM     88  C   UNL A   1      32.794  25.732  24.834  1.00  0.00     0.090 A 
ATOM     89  C   UNL A   1      33.821  25.966  25.763  1.00  0.00     0.024 A 
ATOM     90  C   UNL A   1      33.104  24.961  23.707  1.00  0.00     0.284 A 
ATOM     91  C   UNL A   1      35.022  25.263  25.699  1.00  0.00     0.023 A 
ATOM     92  C   UNL A   1      34.255  24.153  23.717  1.00  0.00     0.108 A 
ATOM     93  C   UNL A   1      35.177  24.260  24.750  1.00  0.00     0.089 A 
BRANCH  90  94
ATOM     94  N   UNL A   1      32.264  24.936  22.497  1.00  0.00     0.063 N 
ATOM     95  O   UNL A   1      31.216  24.274  22.541  1.00  0.00    -0.258 OA
ATOM     96  O   UNL A   1      32.682  25.486  21.471  1.00  0.00    -0.258 OA
ENDBRANCH  90  94
BRANCH  93  97
ATOM     97  S   UNL A   1      36.462  23.053  25.029  1.00  0.00     0.243 S 
ATOM     98  O   UNL A   1      36.933  22.675  23.718  1.00  0.00    -0.207 OA
ATOM     99  O   UNL A   1      37.348  23.673  25.996  1.00  0.00    -0.207 OA
BRANCH  97 100
ATOM    100  N   UNL A   1      35.733  21.718  25.716  1.00  0.00    -0.198 NA
ATOM    101  C   UNL A   1      35.574  20.483  24.939  1.00  0.00     0.102 C 
ATOM    102  C   UNL A   1      34.619  21.856  26.668  1.00  0.00     0.102 C 
ATOM    103  C   UNL A   1      34.070  20.288  24.882  1.00  0.00     0.018 C 
ATOM    104  C   UNL A   1      33.565  20.851  26.204  1.00  0.00     0.018 C 
ENDBRANCH  97 100
ENDBRANCH  93  97
ENDBRANCH  87  88
ENDBRANCH  83  87
ENDBRANCH  78  81
ENDBRANCH  76  77
ENDBRANCH   1  76
TORSDOF 19
ENDMDL
MODEL 3
REMARK VINA RESULT:     -11.5      6.171     11.662
REMARK SMILES O=C(NCCCCNC(=O)c1ccccc1Sc1ccc(S(=O)(=O)N2CCCC2)cc1[N+](=O)[O-])c1ccc(-c2c3nc(c(-c4c(F)cc(S(=O)(=O)[O-])cc4F)c4ccc([nH]4)c(-c4c(F)cc(S(=O)(=O)[O-])cc4F)c4nc(c(-c5c(F)cc(S(=O)(=O)[O-])cc5F)c5ccc2[nH]5)C=C4)C=C3)cc1
REMARK SMILES IDX 6 1 5 2 4 3 3 4 1 5 2 6 35 8 36 9 100 10 37 11 99 12 38 13
REMARK SMILES IDX 39 14 40 15 93 16 41 17 98 18 92 19 94 20 42 21 97 22 91 23
REMARK SMILES IDX 90 24 43 26 77 27 56 28 76 29 57 30 60 31 75 32 95 33 58 34
REMARK SMILES IDX 59 35 74 37 96 38 61 39 44 40 45 41 54 42 46 43 47 44 53 45
REMARK SMILES IDX 55 46 48 47 49 48 50 49 51 50 52 51 78 52 79 53 88 54 80 55
REMARK SMILES IDX 81 56 87 57 89 58 82 59 83 60 84 61 85 62 86 63 62 64 63 65
REMARK SMILES IDX 72 66 64 67 65 68 71 69 73 70 66 71 67 72 68 73 69 74 70 75
REMARK SMILES IDX 7 76 8 77 9 78 10 80 11 81 12 82 16 83 13 84 15 85 14 86
REMARK SMILES IDX 17 87 18 88 19 89 31 90 20 91 30 92 21 93 32 94 33 95 34 96
REMARK SMILES IDX 22 97 23 98 24 99 25 100 26 101 29 102 27 103 28 104
REMARK H PARENT 3 7 94 25 60 36 8 79
REMARK Flexibility Score: inf
ROOT
ATOM      1  C   UNL A   1      38.485  24.004  26.656  1.00  0.00     0.023 C 
ENDROOT
BRANCH   1   2
ATOM      2  C   UNL A   1      39.599  22.960  26.823  1.00  0.00     0.023 C 
BRANCH   2   3
ATOM      3  C   UNL A   1      41.013  23.509  26.968  1.00  0.00     0.116 C 
BRANCH   3   4
ATOM      4  N   UNL A   1      41.470  24.269  25.821  1.00  0.00    -0.352 N 
ATOM      5  O   UNL A   1      42.143  26.075  24.657  1.00  0.00    -0.269 OA
ATOM      6  C   UNL A   1      41.811  25.601  25.741  1.00  0.00     0.251 C 
ATOM      7  H   UNL A   1      41.547  23.762  24.981  1.00  0.00     0.163 HD
BRANCH   6   8
ATOM      8  C   UNL A   1      41.751  26.472  26.939  1.00  0.00     0.039 A 
ATOM      9  C   UNL A   1      42.628  27.544  27.105  1.00  0.00     0.014 A 
ATOM     10  C   UNL A   1      40.760  26.238  27.896  1.00  0.00     0.014 A 
ATOM     11  C   UNL A   1      42.585  28.316  28.271  1.00  0.00     0.010 A 
ATOM     12  C   UNL A   1      40.676  27.052  29.033  1.00  0.00     0.010 A 
ATOM     13  C   UNL A   1      41.595  28.094  29.241  1.00  0.00    -0.014 A 
BRANCH  13  14
ATOM     14  C   UNL A   1      41.454  29.000  30.418  1.00  0.00     0.031 A 
ATOM     15  C   UNL A   1      42.314  28.828  31.643  1.00  0.00     0.074 A 
ATOM     16  C   UNL A   1      40.488  29.942  30.410  1.00  0.00     0.049 A 
ATOM     17  N   UNL A   1      42.214  29.416  32.810  1.00  0.00    -0.248 NA
ATOM     18  C   UNL A   1      43.423  27.865  31.556  1.00  0.00     0.031 C 
ATOM     19  C   UNL A   1      39.577  30.209  29.294  1.00  0.00     0.029 A 
ATOM     20  N   UNL A   1      40.091  30.833  31.378  1.00  0.00    -0.354 N 
ATOM     21  C   UNL A   1      43.218  28.873  33.604  1.00  0.00     0.074 A 
ATOM     22  C   UNL A   1      43.917  27.904  32.787  1.00  0.00     0.031 C 
ATOM     23  C   UNL A   1      38.726  31.186  29.641  1.00  0.00     0.029 A 
ATOM     24  C   UNL A   1      38.985  31.572  31.024  1.00  0.00     0.049 A 
ATOM     25  H   UNL A   1      40.552  30.934  32.243  1.00  0.00     0.167 HD
ATOM     26  C   UNL A   1      43.524  29.158  34.893  1.00  0.00     0.037 A 
ATOM     27  C   UNL A   1      38.225  32.425  31.739  1.00  0.00     0.037 A 
ATOM     28  C   UNL A   1      42.854  30.159  35.688  1.00  0.00     0.049 A 
ATOM     29  C   UNL A   1      38.568  32.696  33.177  1.00  0.00     0.074 A 
ATOM     30  C   UNL A   1      43.165  30.585  36.970  1.00  0.00     0.029 A 
ATOM     31  N   UNL A   1      41.739  30.880  35.291  1.00  0.00    -0.354 N 
ATOM     32  N   UNL A   1      39.558  32.218  33.891  1.00  0.00    -0.248 NA
ATOM     33  C   UNL A   1      37.684  33.612  33.912  1.00  0.00     0.031 C 
ATOM     34  C   UNL A   1      42.205  31.521  37.368  1.00  0.00     0.029 A 
ATOM     35  C   UNL A   1      41.323  31.713  36.319  1.00  0.00     0.049 A 
ATOM     36  H   UNL A   1      41.306  30.810  34.409  1.00  0.00     0.167 HD
ATOM     37  C   UNL A   1      39.418  32.779  35.155  1.00  0.00     0.074 A 
ATOM     38  C   UNL A   1      38.266  33.654  35.102  1.00  0.00     0.031 C 
ATOM     39  C   UNL A   1      40.173  32.579  36.262  1.00  0.00     0.037 A 
BRANCH  26  40
ATOM     40  C   UNL A   1      44.628  28.385  35.563  1.00  0.00     0.058 A 
ATOM     41  C   UNL A   1      45.952  28.846  35.577  1.00  0.00     0.135 A 
ATOM     42  C   UNL A   1      44.325  27.237  36.314  1.00  0.00     0.135 A 
ATOM     43  F   UNL A   1      46.297  29.935  34.872  1.00  0.00    -0.206 F 
ATOM     44  C   UNL A   1      46.937  28.198  36.316  1.00  0.00     0.059 A 
ATOM     45  C   UNL A   1      45.290  26.584  37.077  1.00  0.00     0.059 A 
ATOM     46  F   UNL A   1      43.071  26.756  36.337  1.00  0.00    -0.206 F 
ATOM     47  C   UNL A   1      46.595  27.073  37.071  1.00  0.00     0.060 A 
BRANCH  47  48
ATOM     48  S   UNL A   1      47.873  26.284  38.075  1.00  0.00     0.124 S 
ATOM     49  O   UNL A   1      47.460  26.661  39.424  1.00  0.00    -0.237 OA
ATOM     50  O   UNL A   1      47.709  24.874  37.735  1.00  0.00    -0.237 OA
ATOM     51  O   UNL A   1      49.108  26.901  37.602  1.00  0.00    -0.744 OA
ENDBRANCH  47  48
ENDBRANCH  26  40
BRANCH  27  52
ATOM     52  C   UNL A   1      37.020  33.041  31.122  1.00  0.00     0.058 A 
ATOM     53  C   UNL A   1      37.123  34.156  30.281  1.00  0.00     0.135 A 
ATOM     54  C   UNL A   1      35.736  32.531  31.381  1.00  0.00     0.135 A 
ATOM     55  F   UNL A   1      38.327  34.684  30.012  1.00  0.00    -0.206 F 
ATOM     56  C   UNL A   1      35.997  34.761  29.734  1.00  0.00     0.059 A 
ATOM     57  C   UNL A   1      34.597  33.101  30.822  1.00  0.00     0.059 A 
ATOM     58  F   UNL A   1      35.583  31.457  32.169  1.00  0.00    -0.206 F 
ATOM     59  C   UNL A   1      34.737  34.227  30.013  1.00  0.00     0.060 A 
BRANCH  59  60
ATOM     60  S   UNL A   1      33.281  35.005  29.282  1.00  0.00     0.124 S 
ATOM     61  O   UNL A   1      32.437  35.204  30.454  1.00  0.00    -0.237 OA
ATOM     62  O   UNL A   1      33.842  36.214  28.686  1.00  0.00    -0.237 OA
ATOM     63  O   UNL A   1      32.812  34.006  28.328  1.00  0.00    -0.744 OA
ENDBRANCH  59  60
ENDBRANCH  27  52
BRANCH  39  64
ATOM     64  C   UNL A   1      39.784  33.322  37.509  1.00  0.00     0.058 A 
ATOM     65  C   UNL A   1      40.377  34.550  37.843  1.00  0.00     0.135 A 
ATOM     66  C   UNL A   1      38.776  32.829  38.353  1.00  0.00     0.135 A 
ATOM     67  F   UNL A   1      41.354  35.059  37.077  1.00  0.00    -0.206 F 
ATOM     68  C   UNL A   1      39.995  35.255  38.980  1.00  0.00     0.059 A 
ATOM     69  C   UNL A   1      38.361  33.531  39.480  1.00  0.00     0.059 A 
ATOM     70  F   UNL A   1      38.173  31.662  38.076  1.00  0.00    -0.206 F 
ATOM     71  C   UNL A   1      38.983  34.739  39.790  1.00  0.00     0.060 A 
BRANCH  71  72
ATOM     72  S   UNL A   1      38.468  35.686  41.239  1.00  0.00     0.124 S 
ATOM     73  O   UNL A   1      39.550  35.403  42.176  1.00  0.00    -0.237 OA
ATOM     74  O   UNL A   1      38.419  37.051  40.721  1.00  0.00    -0.237 OA
ATOM     75  O   UNL A   1      37.173  35.106  41.582  1.00  0.00    -0.744 OA
ENDBRANCH  71  72
ENDBRANCH  39  64
ENDBRANCH  13  14
ENDBRANCH   6   8
ENDBRANCH   3   4
ENDBRANCH   2   3
ENDBRANCH   1   2
BRANCH   1  76
ATOM     76  C   UNL A   1      37.162  23.514  26.057  1.00  0.00     0.116 C 
BRANCH  76  77
ATOM     77  N   UNL A   1      37.124  23.586  24.609  1.00  0.00    -0.352 N 
ATOM     78  C   UNL A   1      36.352  22.872  23.733  1.00  0.00     0.252 C 
ATOM     79  H   UNL A   1      37.739  24.238  24.201  1.00  0.00     0.163 HD
ATOM     80  O   UNL A   1      36.482  23.048  22.523  1.00  0.00    -0.269 OA
BRANCH  78  81
ATOM     81  C   UNL A   1      35.397  21.844  24.191  1.00  0.00     0.053 A 
ATOM     82  C   UNL A   1      36.025  20.624  24.524  1.00  0.00     0.015 A 
ATOM     83  C   UNL A   1      33.994  21.947  24.215  1.00  0.00     0.025 A 
ATOM     84  C   UNL A   1      35.283  19.529  24.959  1.00  0.00     0.001 A 
ATOM     85  C   UNL A   1      33.275  20.834  24.705  1.00  0.00     0.016 A 
ATOM     86  C   UNL A   1      33.907  19.643  25.075  1.00  0.00     0.001 A 
BRANCH  83  87
ATOM     87  S   UNL A   1      32.902  23.267  23.668  1.00  0.00    -0.082 SA
BRANCH  87  88
ATOM     88  C   UNL A   1      33.169  24.674  24.722  1.00  0.00     0.090 A 
ATOM     89  C   UNL A   1      33.975  25.667  24.140  1.00  0.00     0.024 A 
ATOM     90  C   UNL A   1      32.578  24.963  25.959  1.00  0.00     0.284 A 
ATOM     91  C   UNL A   1      33.990  26.966  24.642  1.00  0.00     0.023 A 
ATOM     92  C   UNL A   1      32.484  26.300  26.385  1.00  0.00     0.108 A 
ATOM     93  C   UNL A   1      33.137  27.306  25.684  1.00  0.00     0.089 A 
BRANCH  90  94
ATOM     94  N   UNL A   1      32.024  23.924  26.844  1.00  0.00     0.063 N 
ATOM     95  O   UNL A   1      30.815  23.991  27.118  1.00  0.00    -0.258 OA
ATOM     96  O   UNL A   1      32.794  23.100  27.348  1.00  0.00    -0.258 OA
ENDBRANCH  90  94
BRANCH  93  97
ATOM     97  S   UNL A   1      32.794  29.039  25.936  1.00  0.00     0.243 S 
ATOM     98  O   UNL A   1      33.277  29.709  24.752  1.00  0.00    -0.207 OA
ATOM     99  O   UNL A   1      31.393  29.089  26.310  1.00  0.00    -0.207 OA
BRANCH  97 100
ATOM    100  N   UNL A   1      33.732  29.538  27.224  1.00  0.00    -0.198 NA
ATOM    101  C   UNL A   1      33.627  30.913  27.724  1.00  0.00     0.102 C 
ATOM    102  C   UNL A   1      35.106  29.042  27.410  1.00  0.00     0.102 C 
ATOM    103  C   UNL A   1      35.020  31.478  27.514  1.00  0.00     0.018 C 
ATOM    104  C   UNL A   1      35.945  30.284  27.708  1.00  0.00     0.018 C 
ENDBRANCH  97 100
ENDBRANCH  93  97
ENDBRANCH  87  88
ENDBRANCH  83  87
ENDBRANCH  78  81
ENDBRANCH  76  77
ENDBRANCH   1  76
TORSDOF 19
ENDMDL
