MODEL 1
REMARK VINA RESULT:     -10.5      0.000      0.000
REMARK SMILES CCCSc1nc(=O)cc(CC(=O)NCCCCNC(=O)c2ccc(-c3c4nc(c(-c5c(F)cc(S(=O)(=O)[O-])cc5F)c5ccc([nH]5)c(-c5c(F)cc(S(=O)(=O)[O-])cc5F)c5nc(c(-c6c(F)cc(S(=O)(=O)[O-])cc6F)c6ccc3[nH]6)C=C5)C=C4)cc2)[nH]1
REMARK SMILES IDX 16 1 15 2 14 3 12 4 13 5 11 7 10 8 5 9 6 10 88 11 7 12 8 14
REMARK SMILES IDX 9 15 4 16 3 17 2 18 1 19 17 20 18 21 19 22 20 23 21 25 22 26
REMARK SMILES IDX 23 27 87 28 24 29 86 30 25 31 26 32 27 33 80 34 28 35 85 36
REMARK SMILES IDX 79 37 81 38 29 39 84 40 78 41 77 42 30 44 64 45 43 46 63 47
REMARK SMILES IDX 44 48 47 49 62 50 82 51 45 52 46 53 61 55 83 56 48 57 31 58
REMARK SMILES IDX 32 59 41 60 33 61 34 62 40 63 42 64 35 65 36 66 37 67 38 68
REMARK SMILES IDX 39 69 65 70 66 71 75 72 67 73 68 74 74 75 76 76 69 77 70 78
REMARK SMILES IDX 71 79 72 80 73 81 49 82 50 83 59 84 51 85 52 86 58 87 60 88
REMARK SMILES IDX 53 89 54 90 55 91 56 92 57 93
REMARK H PARENT 14 6 88 13 19 24 81 43 47 54
REMARK Flexibility Score: inf
ROOT
ATOM      1  C   UNL A   1      39.372  22.583  26.294  1.00  0.00     0.023 C 
ENDROOT
BRANCH   1   2
ATOM      2  C   UNL A   1      38.366  21.568  25.746  1.00  0.00     0.116 C 
BRANCH   2   3
ATOM      3  N   UNL A   1      37.724  22.040  24.535  1.00  0.00    -0.356 N 
ATOM      4  C   UNL A   1      36.467  22.542  24.354  1.00  0.00     0.225 C 
ATOM      5  O   UNL A   1      36.094  22.811  23.212  1.00  0.00    -0.275 OA
ATOM      6  H   UNL A   1      38.276  21.992  23.721  1.00  0.00     0.163 HD
BRANCH   4   7
ATOM      7  C   UNL A   1      35.566  22.811  25.552  1.00  0.00     0.154 C 
BRANCH   7   8
ATOM      8  C   UNL A   1      34.239  22.106  25.475  1.00  0.00     0.032 A 
ATOM      9  C   UNL A   1      33.085  20.111  24.871  1.00  0.00     0.169 A 
ATOM     10  N   UNL A   1      31.905  20.570  25.117  1.00  0.00    -0.185 NA
ATOM     11  N   UNL A   1      34.234  20.794  25.086  1.00  0.00    -0.337 N 
ATOM     12  C   UNL A   1      31.813  21.847  25.641  1.00  0.00     0.273 A 
ATOM     13  H   UNL A   1      35.094  20.332  24.958  1.00  0.00     0.168 HD
ATOM     14  O   UNL A   1      30.753  22.347  26.012  1.00  0.00    -0.267 OA
ATOM     15  C   UNL A   1      33.057  22.675  25.754  1.00  0.00     0.095 A 
BRANCH   9  16
ATOM     16  S   UNL A   1      33.290  18.559  24.097  1.00  0.00    -0.088 SA
BRANCH  16  17
ATOM     17  C   UNL A   1      32.744  17.414  25.397  1.00  0.00     0.078 C 
BRANCH  17  18
ATOM     18  C   UNL A   1      33.318  15.995  25.279  1.00  0.00     0.008 C 
ATOM     19  C   UNL A   1      34.827  15.910  25.100  1.00  0.00     0.005 C 
ENDBRANCH  17  18
ENDBRANCH  16  17
ENDBRANCH   9  16
ENDBRANCH   7   8
ENDBRANCH   4   7
ENDBRANCH   2   3
ENDBRANCH   1   2
BRANCH   1  20
ATOM     20  C   UNL A   1      40.393  21.996  27.267  1.00  0.00     0.023 C 
BRANCH  20  21
ATOM     21  C   UNL A   1      41.554  22.916  27.613  1.00  0.00     0.116 C 
BRANCH  21  22
ATOM     22  N   UNL A   1      42.220  23.484  26.448  1.00  0.00    -0.352 N 
ATOM     23  C   UNL A   1      42.387  24.815  26.129  1.00  0.00     0.251 C 
ATOM     24  H   UNL A   1      42.598  22.836  25.809  1.00  0.00     0.163 HD
ATOM     25  O   UNL A   1      42.893  25.142  25.061  1.00  0.00    -0.269 OA
BRANCH  23  26
ATOM     26  C   UNL A   1      41.897  25.837  27.078  1.00  0.00     0.039 A 
ATOM     27  C   UNL A   1      42.513  27.088  27.136  1.00  0.00     0.014 A 
ATOM     28  C   UNL A   1      40.893  25.500  27.989  1.00  0.00     0.014 A 
ATOM     29  C   UNL A   1      42.272  27.916  28.225  1.00  0.00     0.010 A 
ATOM     30  C   UNL A   1      40.580  26.384  29.025  1.00  0.00     0.010 A 
ATOM     31  C   UNL A   1      41.311  27.571  29.190  1.00  0.00    -0.014 A 
BRANCH  31  32
ATOM     32  C   UNL A   1      41.110  28.455  30.370  1.00  0.00     0.031 A 
ATOM     33  C   UNL A   1      42.050  28.399  31.548  1.00  0.00     0.074 A 
ATOM     34  C   UNL A   1      40.111  29.360  30.351  1.00  0.00     0.049 A 
ATOM     35  N   UNL A   1      42.028  29.098  32.655  1.00  0.00    -0.248 NA
ATOM     36  C   UNL A   1      43.160  27.434  31.477  1.00  0.00     0.031 C 
ATOM     37  C   UNL A   1      39.152  29.531  29.257  1.00  0.00     0.029 A 
ATOM     38  N   UNL A   1      39.751  30.323  31.258  1.00  0.00    -0.354 N 
ATOM     39  C   UNL A   1      43.106  28.653  33.414  1.00  0.00     0.074 A 
ATOM     40  C   UNL A   1      43.739  27.594  32.660  1.00  0.00     0.031 C 
ATOM     41  C   UNL A   1      38.354  30.573  29.530  1.00  0.00     0.029 A 
ATOM     42  C   UNL A   1      38.690  31.096  30.850  1.00  0.00     0.049 A 
ATOM     43  H   UNL A   1      40.209  30.449  32.121  1.00  0.00     0.167 HD
ATOM     44  C   UNL A   1      43.539  29.099  34.618  1.00  0.00     0.037 A 
ATOM     45  C   UNL A   1      38.044  32.100  31.471  1.00  0.00     0.037 A 
ATOM     46  C   UNL A   1      42.910  30.165  35.359  1.00  0.00     0.049 A 
ATOM     47  C   UNL A   1      38.494  32.522  32.841  1.00  0.00     0.074 A 
ATOM     48  C   UNL A   1      43.274  30.690  36.586  1.00  0.00     0.029 A 
ATOM     49  N   UNL A   1      41.790  30.871  34.940  1.00  0.00    -0.354 N 
ATOM     50  N   UNL A   1      39.510  32.083  33.545  1.00  0.00    -0.248 NA
ATOM     51  C   UNL A   1      37.706  33.568  33.505  1.00  0.00     0.031 C 
ATOM     52  C   UNL A   1      42.347  31.676  36.934  1.00  0.00     0.029 A 
ATOM     53  C   UNL A   1      41.437  31.809  35.898  1.00  0.00     0.049 A 
ATOM     54  H   UNL A   1      41.317  30.727  34.090  1.00  0.00     0.167 HD
ATOM     55  C   UNL A   1      39.494  32.811  34.728  1.00  0.00     0.074 A 
ATOM     56  C   UNL A   1      38.379  33.732  34.635  1.00  0.00     0.031 C 
ATOM     57  C   UNL A   1      40.325  32.722  35.795  1.00  0.00     0.037 A 
BRANCH  44  58
ATOM     58  C   UNL A   1      44.750  28.437  35.223  1.00  0.00     0.058 A 
ATOM     59  C   UNL A   1      44.637  27.310  36.051  1.00  0.00     0.135 A 
ATOM     60  C   UNL A   1      46.043  28.898  34.922  1.00  0.00     0.135 A 
ATOM     61  F   UNL A   1      43.427  26.833  36.384  1.00  0.00    -0.206 F 
ATOM     62  C   UNL A   1      45.759  26.677  36.579  1.00  0.00     0.059 A 
ATOM     63  C   UNL A   1      47.181  28.264  35.415  1.00  0.00     0.059 A 
ATOM     64  F   UNL A   1      46.212  29.972  34.134  1.00  0.00    -0.206 F 
ATOM     65  C   UNL A   1      47.027  27.160  36.251  1.00  0.00     0.060 A 
BRANCH  65  66
ATOM     66  S   UNL A   1      48.470  26.319  36.937  1.00  0.00     0.124 S 
ATOM     67  O   UNL A   1      48.723  25.300  35.922  1.00  0.00    -0.237 OA
ATOM     68  O   UNL A   1      49.450  27.397  37.011  1.00  0.00    -0.237 OA
ATOM     69  O   UNL A   1      47.996  25.817  38.223  1.00  0.00    -0.744 OA
ENDBRANCH  65  66
ENDBRANCH  44  58
BRANCH  45  70
ATOM     70  C   UNL A   1      36.903  32.772  30.794  1.00  0.00     0.058 A 
ATOM     71  C   UNL A   1      35.580  32.424  31.100  1.00  0.00     0.135 A 
ATOM     72  C   UNL A   1      37.110  33.800  29.858  1.00  0.00     0.135 A 
ATOM     73  F   UNL A   1      35.330  31.444  31.981  1.00  0.00    -0.206 F 
ATOM     74  C   UNL A   1      34.501  33.067  30.502  1.00  0.00     0.059 A 
ATOM     75  C   UNL A   1      36.048  34.478  29.269  1.00  0.00     0.059 A 
ATOM     76  F   UNL A   1      38.357  34.180  29.541  1.00  0.00    -0.206 F 
ATOM     77  C   UNL A   1      34.746  34.099  29.594  1.00  0.00     0.060 A 
BRANCH  77  78
ATOM     78  S   UNL A   1      33.336  34.966  28.874  1.00  0.00     0.124 S 
ATOM     79  O   UNL A   1      33.982  36.123  28.264  1.00  0.00    -0.237 OA
ATOM     80  O   UNL A   1      32.808  33.968  27.949  1.00  0.00    -0.237 OA
ATOM     81  O   UNL A   1      32.490  35.252  30.028  1.00  0.00    -0.744 OA
ENDBRANCH  77  78
ENDBRANCH  45  70
BRANCH  57  82
ATOM     82  C   UNL A   1      40.078  33.654  36.950  1.00  0.00     0.058 A 
ATOM     83  C   UNL A   1      40.761  34.875  37.070  1.00  0.00     0.135 A 
ATOM     84  C   UNL A   1      39.099  33.354  37.912  1.00  0.00     0.135 A 
ATOM     85  F   UNL A   1      41.712  35.207  36.184  1.00  0.00    -0.206 F 
ATOM     86  C   UNL A   1      40.494  35.757  38.111  1.00  0.00     0.059 A 
ATOM     87  C   UNL A   1      38.794  34.235  38.944  1.00  0.00     0.059 A 
ATOM     88  F   UNL A   1      38.410  32.204  37.840  1.00  0.00    -0.206 F 
ATOM     89  C   UNL A   1      39.503  35.432  39.039  1.00  0.00     0.060 A 
BRANCH  89  90
ATOM     90  S   UNL A   1      39.140  36.610  40.358  1.00  0.00     0.124 S 
ATOM     91  O   UNL A   1      40.463  36.826  40.934  1.00  0.00    -0.237 OA
ATOM     92  O   UNL A   1      38.578  37.736  39.621  1.00  0.00    -0.237 OA
ATOM     93  O   UNL A   1      38.196  35.890  41.210  1.00  0.00    -0.744 OA
ENDBRANCH  89  90
ENDBRANCH  57  82
ENDBRANCH  31  32
ENDBRANCH  23  26
ENDBRANCH  21  22
ENDBRANCH  20  21
ENDBRANCH   1  20
TORSDOF 18
ENDMDL
MODEL 2
REMARK VINA RESULT:     -10.3      6.569     13.367
REMARK SMILES CCCSc1nc(=O)cc(CC(=O)NCCCCNC(=O)c2ccc(-c3c4nc(c(-c5c(F)cc(S(=O)(=O)[O-])cc5F)c5ccc([nH]5)c(-c5c(F)cc(S(=O)(=O)[O-])cc5F)c5nc(c(-c6c(F)cc(S(=O)(=O)[O-])cc6F)c6ccc3[nH]6)C=C5)C=C4)cc2)[nH]1
REMARK SMILES IDX 16 1 15 2 14 3 12 4 13 5 11 7 10 8 5 9 6 10 88 11 7 12 8 14
REMARK SMILES IDX 9 15 4 16 3 17 2 18 1 19 17 20 18 21 19 22 20 23 21 25 22 26
REMARK SMILES IDX 23 27 87 28 24 29 86 30 25 31 26 32 27 33 80 34 28 35 85 36
REMARK SMILES IDX 79 37 81 38 29 39 84 40 78 41 77 42 30 44 64 45 43 46 63 47
REMARK SMILES IDX 44 48 47 49 62 50 82 51 45 52 46 53 61 55 83 56 48 57 31 58
REMARK SMILES IDX 32 59 41 60 33 61 34 62 40 63 42 64 35 65 36 66 37 67 38 68
REMARK SMILES IDX 39 69 65 70 66 71 75 72 67 73 68 74 74 75 76 76 69 77 70 78
REMARK SMILES IDX 71 79 72 80 73 81 49 82 50 83 59 84 51 85 52 86 58 87 60 88
REMARK SMILES IDX 53 89 54 90 55 91 56 92 57 93
REMARK H PARENT 14 6 88 13 19 24 81 43 47 54
REMARK Flexibility Score: inf
ROOT
ATOM      1  C   UNL A   1      34.790  31.968  28.365  1.00  0.00     0.023 C 
ENDROOT
BRANCH   1   2
ATOM      2  C   UNL A   1      35.811  33.026  28.792  1.00  0.00     0.116 C 
BRANCH   2   3
ATOM      3  N   UNL A   1      35.471  34.342  28.289  1.00  0.00    -0.356 N 
ATOM      4  C   UNL A   1      34.438  35.166  28.633  1.00  0.00     0.225 C 
ATOM      5  O   UNL A   1      34.289  36.221  28.015  1.00  0.00    -0.275 OA
ATOM      6  H   UNL A   1      36.076  34.696  27.597  1.00  0.00     0.163 HD
BRANCH   4   7
ATOM      7  C   UNL A   1      33.521  34.808  29.794  1.00  0.00     0.154 C 
BRANCH   7   8
ATOM      8  C   UNL A   1      34.045  35.254  31.132  1.00  0.00     0.032 A 
ATOM      9  C   UNL A   1      35.817  35.108  32.718  1.00  0.00     0.169 A 
ATOM     10  N   UNL A   1      35.239  35.827  33.618  1.00  0.00    -0.185 NA
ATOM     11  N   UNL A   1      35.306  34.860  31.489  1.00  0.00    -0.337 N 
ATOM     12  C   UNL A   1      34.013  36.384  33.301  1.00  0.00     0.273 A 
ATOM     13  H   UNL A   1      35.858  34.378  30.832  1.00  0.00     0.168 HD
ATOM     14  O   UNL A   1      33.420  37.169  34.038  1.00  0.00    -0.267 OA
ATOM     15  C   UNL A   1      33.360  36.008  32.005  1.00  0.00     0.095 A 
BRANCH   9  16
ATOM     16  S   UNL A   1      37.307  34.269  33.074  1.00  0.00    -0.088 SA
BRANCH  16  17
ATOM     17  C   UNL A   1      37.509  33.218  31.607  1.00  0.00     0.078 C 
BRANCH  17  18
ATOM     18  C   UNL A   1      38.958  33.071  31.123  1.00  0.00     0.008 C 
ATOM     19  C   UNL A   1      40.005  32.930  32.218  1.00  0.00     0.005 C 
ENDBRANCH  17  18
ENDBRANCH  16  17
ENDBRANCH   9  16
ENDBRANCH   7   8
ENDBRANCH   4   7
ENDBRANCH   2   3
ENDBRANCH   1   2
BRANCH   1  20
ATOM     20  C   UNL A   1      35.360  30.868  27.472  1.00  0.00     0.023 C 
BRANCH  20  21
ATOM     21  C   UNL A   1      35.903  29.655  28.213  1.00  0.00     0.116 C 
BRANCH  21  22
ATOM     22  N   UNL A   1      35.699  29.709  29.655  1.00  0.00    -0.352 N 
ATOM     23  C   UNL A   1      36.654  29.714  30.649  1.00  0.00     0.251 C 
ATOM     24  H   UNL A   1      34.762  29.745  29.957  1.00  0.00     0.163 HD
ATOM     25  O   UNL A   1      36.327  29.670  31.830  1.00  0.00    -0.269 OA
BRANCH  23  26
ATOM     26  C   UNL A   1      38.081  29.724  30.260  1.00  0.00     0.039 A 
ATOM     27  C   UNL A   1      38.441  29.960  28.932  1.00  0.00     0.014 A 
ATOM     28  C   UNL A   1      39.050  29.383  31.206  1.00  0.00     0.014 A 
ATOM     29  C   UNL A   1      39.729  29.654  28.512  1.00  0.00     0.010 A 
ATOM     30  C   UNL A   1      40.370  29.177  30.795  1.00  0.00     0.010 A 
ATOM     31  C   UNL A   1      40.709  29.249  29.434  1.00  0.00    -0.014 A 
BRANCH  31  32
ATOM     32  C   UNL A   1      42.066  28.882  28.946  1.00  0.00     0.031 A 
ATOM     33  C   UNL A   1      42.364  27.484  28.467  1.00  0.00     0.074 A 
ATOM     34  C   UNL A   1      43.017  29.834  28.873  1.00  0.00     0.049 A 
ATOM     35  N   UNL A   1      43.486  26.992  28.006  1.00  0.00    -0.248 NA
ATOM     36  C   UNL A   1      41.262  26.508  28.511  1.00  0.00     0.031 C 
ATOM     37  C   UNL A   1      42.842  31.231  29.280  1.00  0.00     0.029 A 
ATOM     38  N   UNL A   1      44.306  29.785  28.407  1.00  0.00    -0.354 N 
ATOM     39  C   UNL A   1      43.232  25.655  27.716  1.00  0.00     0.074 A 
ATOM     40  C   UNL A   1      41.859  25.400  28.093  1.00  0.00     0.031 C 
ATOM     41  C   UNL A   1      43.958  31.916  28.992  1.00  0.00     0.029 A 
ATOM     42  C   UNL A   1      44.954  30.997  28.454  1.00  0.00     0.049 A 
ATOM     43  H   UNL A   1      44.727  28.960  28.072  1.00  0.00     0.167 HD
ATOM     44  C   UNL A   1      44.059  24.732  27.169  1.00  0.00     0.037 A 
ATOM     45  C   UNL A   1      46.214  31.332  28.119  1.00  0.00     0.037 A 
ATOM     46  C   UNL A   1      45.424  24.997  26.783  1.00  0.00     0.049 A 
ATOM     47  C   UNL A   1      47.137  30.271  27.590  1.00  0.00     0.074 A 
ATOM     48  C   UNL A   1      46.341  24.128  26.220  1.00  0.00     0.029 A 
ATOM     49  N   UNL A   1      46.064  26.221  26.917  1.00  0.00    -0.354 N 
ATOM     50  N   UNL A   1      46.879  29.010  27.332  1.00  0.00    -0.248 NA
ATOM     51  C   UNL A   1      48.523  30.673  27.315  1.00  0.00     0.031 C 
ATOM     52  C   UNL A   1      47.551  24.811  26.061  1.00  0.00     0.029 A 
ATOM     53  C   UNL A   1      47.372  26.122  26.470  1.00  0.00     0.049 A 
ATOM     54  H   UNL A   1      45.651  27.039  27.276  1.00  0.00     0.167 HD
ATOM     55  C   UNL A   1      48.066  28.473  26.848  1.00  0.00     0.074 A 
ATOM     56  C   UNL A   1      49.036  29.550  26.832  1.00  0.00     0.031 C 
ATOM     57  C   UNL A   1      48.329  27.202  26.457  1.00  0.00     0.037 A 
BRANCH  44  58
ATOM     58  C   UNL A   1      43.522  23.340  26.955  1.00  0.00     0.058 A 
ATOM     59  C   UNL A   1      43.185  22.869  25.676  1.00  0.00     0.135 A 
ATOM     60  C   UNL A   1      43.400  22.446  28.032  1.00  0.00     0.135 A 
ATOM     61  F   UNL A   1      43.268  23.683  24.612  1.00  0.00    -0.206 F 
ATOM     62  C   UNL A   1      42.724  21.571  25.475  1.00  0.00     0.059 A 
ATOM     63  C   UNL A   1      42.970  21.134  27.851  1.00  0.00     0.059 A 
ATOM     64  F   UNL A   1      43.711  22.841  29.277  1.00  0.00    -0.206 F 
ATOM     65  C   UNL A   1      42.624  20.710  26.569  1.00  0.00     0.060 A 
BRANCH  65  66
ATOM     66  S   UNL A   1      42.034  19.027  26.286  1.00  0.00     0.124 S 
ATOM     67  O   UNL A   1      42.116  18.460  27.629  1.00  0.00    -0.237 OA
ATOM     68  O   UNL A   1      40.686  19.254  25.776  1.00  0.00    -0.237 OA
ATOM     69  O   UNL A   1      42.986  18.488  25.320  1.00  0.00    -0.744 OA
ENDBRANCH  65  66
ENDBRANCH  44  58
BRANCH  45  70
ATOM     70  C   UNL A   1      46.669  32.739  28.277  1.00  0.00     0.058 A 
ATOM     71  C   UNL A   1      47.224  33.183  29.485  1.00  0.00     0.135 A 
ATOM     72  C   UNL A   1      46.594  33.655  27.215  1.00  0.00     0.135 A 
ATOM     73  F   UNL A   1      47.310  32.349  30.531  1.00  0.00    -0.206 F 
ATOM     74  C   UNL A   1      47.686  34.486  29.639  1.00  0.00     0.059 A 
ATOM     75  C   UNL A   1      47.078  34.954  27.334  1.00  0.00     0.059 A 
ATOM     76  F   UNL A   1      46.085  33.276  26.033  1.00  0.00    -0.206 F 
ATOM     77  C   UNL A   1      47.617  35.361  28.554  1.00  0.00     0.060 A 
BRANCH  77  78
ATOM     78  S   UNL A   1      48.278  37.030  28.747  1.00  0.00     0.124 S 
ATOM     79  O   UNL A   1      49.701  36.812  28.514  1.00  0.00    -0.237 OA
ATOM     80  O   UNL A   1      47.565  37.761  27.704  1.00  0.00    -0.237 OA
ATOM     81  O   UNL A   1      47.909  37.383  30.114  1.00  0.00    -0.744 OA
ENDBRANCH  77  78
ENDBRANCH  45  70
BRANCH  57  82
ATOM     82  C   UNL A   1      49.716  26.899  25.959  1.00  0.00     0.058 A 
ATOM     83  C   UNL A   1      50.061  27.046  24.606  1.00  0.00     0.135 A 
ATOM     84  C   UNL A   1      50.730  26.522  26.856  1.00  0.00     0.135 A 
ATOM     85  F   UNL A   1      49.129  27.395  23.705  1.00  0.00    -0.206 F 
ATOM     86  C   UNL A   1      51.357  26.814  24.158  1.00  0.00     0.059 A 
ATOM     87  C   UNL A   1      52.039  26.315  26.435  1.00  0.00     0.059 A 
ATOM     88  F   UNL A   1      50.456  26.376  28.162  1.00  0.00    -0.206 F 
ATOM     89  C   UNL A   1      52.341  26.457  25.081  1.00  0.00     0.060 A 
BRANCH  89  90
ATOM     90  S   UNL A   1      54.027  26.203  24.486  1.00  0.00     0.124 S 
ATOM     91  O   UNL A   1      54.302  24.846  24.947  1.00  0.00    -0.237 OA
ATOM     92  O   UNL A   1      53.873  26.364  23.044  1.00  0.00    -0.237 OA
ATOM     93  O   UNL A   1      54.787  27.257  25.153  1.00  0.00    -0.744 OA
ENDBRANCH  89  90
ENDBRANCH  57  82
ENDBRANCH  31  32
ENDBRANCH  23  26
ENDBRANCH  21  22
ENDBRANCH  20  21
ENDBRANCH   1  20
TORSDOF 18
ENDMDL
MODEL 3
REMARK VINA RESULT:     -10.1      1.713      3.031
REMARK SMILES CCCSc1nc(=O)cc(CC(=O)NCCCCNC(=O)c2ccc(-c3c4nc(c(-c5c(F)cc(S(=O)(=O)[O-])cc5F)c5ccc([nH]5)c(-c5c(F)cc(S(=O)(=O)[O-])cc5F)c5nc(c(-c6c(F)cc(S(=O)(=O)[O-])cc6F)c6ccc3[nH]6)C=C5)C=C4)cc2)[nH]1
REMARK SMILES IDX 16 1 15 2 14 3 12 4 13 5 11 7 10 8 5 9 6 10 88 11 7 12 8 14
REMARK SMILES IDX 9 15 4 16 3 17 2 18 1 19 17 20 18 21 19 22 20 23 21 25 22 26
REMARK SMILES IDX 23 27 87 28 24 29 86 30 25 31 26 32 27 33 80 34 28 35 85 36
REMARK SMILES IDX 79 37 81 38 29 39 84 40 78 41 77 42 30 44 64 45 43 46 63 47
REMARK SMILES IDX 44 48 47 49 62 50 82 51 45 52 46 53 61 55 83 56 48 57 31 58
REMARK SMILES IDX 32 59 41 60 33 61 34 62 40 63 42 64 35 65 36 66 37 67 38 68
REMARK SMILES IDX 39 69 65 70 66 71 75 72 67 73 68 74 74 75 76 76 69 77 70 78
REMARK SMILES IDX 71 79 72 80 73 81 49 82 50 83 59 84 51 85 52 86 58 87 60 88
REMARK SMILES IDX 53 89 54 90 55 91 56 92 57 93
REMARK H PARENT 14 6 88 13 19 24 81 43 47 54
REMARK Flexibility Score: inf
ROOT
ATOM      1  C   UNL A   1      39.499  22.581  26.238  1.00  0.00     0.023 C 
ENDROOT
BRANCH   1   2
ATOM      2  C   UNL A   1      38.208  21.918  25.754  1.00  0.00     0.116 C 
BRANCH   2   3
ATOM      3  N   UNL A   1      37.668  22.574  24.579  1.00  0.00    -0.356 N 
ATOM      4  C   UNL A   1      36.413  22.508  24.044  1.00  0.00     0.225 C 
ATOM      5  O   UNL A   1      36.189  23.090  22.982  1.00  0.00    -0.275 OA
ATOM      6  H   UNL A   1      38.299  23.153  24.095  1.00  0.00     0.163 HD
BRANCH   4   7
ATOM      7  C   UNL A   1      35.301  21.770  24.777  1.00  0.00     0.154 C 
BRANCH   7   8
ATOM      8  C   UNL A   1      34.195  22.673  25.253  1.00  0.00     0.032 A 
ATOM      9  C   UNL A   1      33.055  24.743  24.950  1.00  0.00     0.169 A 
ATOM     10  N   UNL A   1      32.280  24.610  25.972  1.00  0.00    -0.185 NA
ATOM     11  N   UNL A   1      33.945  23.811  24.535  1.00  0.00    -0.337 N 
ATOM     12  C   UNL A   1      32.365  23.430  26.688  1.00  0.00     0.273 A 
ATOM     13  H   UNL A   1      34.429  23.957  23.690  1.00  0.00     0.168 HD
ATOM     14  O   UNL A   1      31.607  23.149  27.613  1.00  0.00    -0.267 OA
ATOM     15  C   UNL A   1      33.439  22.445  26.337  1.00  0.00     0.095 A 
BRANCH   9  16
ATOM     16  S   UNL A   1      33.102  26.246  24.061  1.00  0.00    -0.088 SA
BRANCH  16  17
ATOM     17  C   UNL A   1      31.819  27.221  24.899  1.00  0.00     0.078 C 
BRANCH  17  18
ATOM     18  C   UNL A   1      32.349  28.186  25.969  1.00  0.00     0.008 C 
ATOM     19  C   UNL A   1      31.873  27.917  27.389  1.00  0.00     0.005 C 
ENDBRANCH  17  18
ENDBRANCH  16  17
ENDBRANCH   9  16
ENDBRANCH   7   8
ENDBRANCH   4   7
ENDBRANCH   2   3
ENDBRANCH   1   2
BRANCH   1  20
ATOM     20  C   UNL A   1      39.286  23.857  27.049  1.00  0.00     0.023 C 
BRANCH  20  21
ATOM     21  C   UNL A   1      39.810  25.129  26.398  1.00  0.00     0.116 C 
BRANCH  21  22
ATOM     22  N   UNL A   1      41.106  24.965  25.751  1.00  0.00    -0.352 N 
ATOM     23  C   UNL A   1      42.312  25.527  26.111  1.00  0.00     0.251 C 
ATOM     24  H   UNL A   1      41.121  24.382  24.957  1.00  0.00     0.163 HD
ATOM     25  O   UNL A   1      43.307  25.369  25.412  1.00  0.00    -0.269 OA
BRANCH  23  26
ATOM     26  C   UNL A   1      42.369  26.363  27.329  1.00  0.00     0.039 A 
ATOM     27  C   UNL A   1      42.031  25.816  28.568  1.00  0.00     0.014 A 
ATOM     28  C   UNL A   1      42.651  27.726  27.211  1.00  0.00     0.014 A 
ATOM     29  C   UNL A   1      41.775  26.663  29.640  1.00  0.00     0.010 A 
ATOM     30  C   UNL A   1      42.492  28.560  28.321  1.00  0.00     0.010 A 
ATOM     31  C   UNL A   1      41.991  28.047  29.529  1.00  0.00    -0.014 A 
BRANCH  31  32
ATOM     32  C   UNL A   1      41.662  28.933  30.678  1.00  0.00     0.031 A 
ATOM     33  C   UNL A   1      42.557  28.990  31.891  1.00  0.00     0.074 A 
ATOM     34  C   UNL A   1      40.586  29.739  30.598  1.00  0.00     0.049 A 
ATOM     35  N   UNL A   1      42.425  29.707  32.979  1.00  0.00    -0.248 NA
ATOM     36  C   UNL A   1      43.754  28.133  31.886  1.00  0.00     0.031 C 
ATOM     37  C   UNL A   1      39.659  29.796  29.465  1.00  0.00     0.029 A 
ATOM     38  N   UNL A   1      40.102  30.683  31.468  1.00  0.00    -0.354 N 
ATOM     39  C   UNL A   1      43.510  29.382  33.788  1.00  0.00     0.074 A 
ATOM     40  C   UNL A   1      44.268  28.371  33.085  1.00  0.00     0.031 C 
ATOM     41  C   UNL A   1      38.757  30.764  29.683  1.00  0.00     0.029 A 
ATOM     42  C   UNL A   1      38.990  31.344  31.000  1.00  0.00     0.049 A 
ATOM     43  H   UNL A   1      40.512  30.870  32.344  1.00  0.00     0.167 HD
ATOM     44  C   UNL A   1      43.851  29.893  34.997  1.00  0.00     0.037 A 
ATOM     45  C   UNL A   1      38.230  32.296  31.571  1.00  0.00     0.037 A 
ATOM     46  C   UNL A   1      43.097  30.910  35.686  1.00  0.00     0.049 A 
ATOM     47  C   UNL A   1      38.584  32.788  32.946  1.00  0.00     0.074 A 
ATOM     48  C   UNL A   1      43.362  31.493  36.913  1.00  0.00     0.029 A 
ATOM     49  N   UNL A   1      41.933  31.499  35.209  1.00  0.00    -0.354 N 
ATOM     50  N   UNL A   1      39.608  32.461  33.699  1.00  0.00    -0.248 NA
ATOM     51  C   UNL A   1      37.676  33.769  33.554  1.00  0.00     0.031 C 
ATOM     52  C   UNL A   1      42.333  32.395  37.201  1.00  0.00     0.029 A 
ATOM     53  C   UNL A   1      41.457  32.419  36.129  1.00  0.00     0.049 A 
ATOM     54  H   UNL A   1      41.510  31.293  34.345  1.00  0.00     0.167 HD
ATOM     55  C   UNL A   1      39.477  33.210  34.862  1.00  0.00     0.074 A 
ATOM     56  C   UNL A   1      38.285  34.019  34.705  1.00  0.00     0.031 C 
ATOM     57  C   UNL A   1      40.270  33.222  35.962  1.00  0.00     0.037 A 
BRANCH  44  58
ATOM     58  C   UNL A   1      45.093  29.360  35.663  1.00  0.00     0.058 A 
ATOM     59  C   UNL A   1      46.348  29.957  35.465  1.00  0.00     0.135 A 
ATOM     60  C   UNL A   1      45.019  28.280  36.557  1.00  0.00     0.135 A 
ATOM     61  F   UNL A   1      46.483  30.984  34.611  1.00  0.00    -0.206 F 
ATOM     62  C   UNL A   1      47.489  29.487  36.110  1.00  0.00     0.059 A 
ATOM     63  C   UNL A   1      46.141  27.811  37.237  1.00  0.00     0.059 A 
ATOM     64  F   UNL A   1      43.845  27.672  36.787  1.00  0.00    -0.206 F 
ATOM     65  C   UNL A   1      47.374  28.416  36.998  1.00  0.00     0.060 A 
BRANCH  65  66
ATOM     66  S   UNL A   1      48.863  27.828  37.833  1.00  0.00     0.124 S 
ATOM     67  O   UNL A   1      48.620  28.266  39.204  1.00  0.00    -0.237 OA
ATOM     68  O   UNL A   1      48.796  26.388  37.606  1.00  0.00    -0.237 OA
ATOM     69  O   UNL A   1      49.943  28.521  37.136  1.00  0.00    -0.744 OA
ENDBRANCH  65  66
ENDBRANCH  44  58
BRANCH  45  70
ATOM     70  C   UNL A   1      37.059  32.843  30.836  1.00  0.00     0.058 A 
ATOM     71  C   UNL A   1      35.760  32.396  31.117  1.00  0.00     0.135 A 
ATOM     72  C   UNL A   1      37.209  33.849  29.867  1.00  0.00     0.135 A 
ATOM     73  F   UNL A   1      35.565  31.431  32.028  1.00  0.00    -0.206 F 
ATOM     74  C   UNL A   1      34.651  32.922  30.462  1.00  0.00     0.059 A 
ATOM     75  C   UNL A   1      36.113  34.413  29.221  1.00  0.00     0.059 A 
ATOM     76  F   UNL A   1      38.429  34.322  29.571  1.00  0.00    -0.206 F 
ATOM     77  C   UNL A   1      34.838  33.937  29.523  1.00  0.00     0.060 A 
BRANCH  77  78
ATOM     78  S   UNL A   1      33.385  34.654  28.728  1.00  0.00     0.124 S 
ATOM     79  O   UNL A   1      32.945  33.558  27.873  1.00  0.00    -0.237 OA
ATOM     80  O   UNL A   1      32.530  34.953  29.874  1.00  0.00    -0.237 OA
ATOM     81  O   UNL A   1      33.920  35.821  28.034  1.00  0.00    -0.744 OA
ENDBRANCH  77  78
ENDBRANCH  45  70
BRANCH  57  82
ATOM     82  C   UNL A   1      39.892  34.151  37.083  1.00  0.00     0.058 A 
ATOM     83  C   UNL A   1      39.183  33.698  38.207  1.00  0.00     0.135 A 
ATOM     84  C   UNL A   1      40.300  35.495  37.063  1.00  0.00     0.135 A 
ATOM     85  F   UNL A   1      38.761  32.426  38.272  1.00  0.00    -0.206 F 
ATOM     86  C   UNL A   1      38.879  34.549  39.264  1.00  0.00     0.059 A 
ATOM     87  C   UNL A   1      40.034  36.356  38.123  1.00  0.00     0.059 A 
ATOM     88  F   UNL A   1      40.988  35.978  36.016  1.00  0.00    -0.206 F 
ATOM     89  C   UNL A   1      39.316  35.874  39.217  1.00  0.00     0.060 A 
BRANCH  89  90
ATOM     90  S   UNL A   1      38.949  36.951  40.619  1.00  0.00     0.124 S 
ATOM     91  O   UNL A   1      38.176  38.012  39.983  1.00  0.00    -0.237 OA
ATOM     92  O   UNL A   1      38.200  36.063  41.503  1.00  0.00    -0.237 OA
ATOM     93  O   UNL A   1      40.271  37.342  41.104  1.00  0.00    -0.744 OA
ENDBRANCH  89  90
ENDBRANCH  57  82
ENDBRANCH  31  32
ENDBRANCH  23  26
ENDBRANCH  21  22
ENDBRANCH  20  21
ENDBRANCH   1  20
TORSDOF 18
ENDMDL
