MODEL 1
REMARK VINA RESULT:     -12.9      0.000      0.000
REMARK SMILES COc1cc(OC)cc(-n2nnc(C(=O)NCCCCNC(=O)c3ccc(-c4c5nc(c(-c6c(F)cc(S(=O)(=O)[O-])cc6F)c6ccc([nH]6)c(-c6c(F)cc(S(=O)(=O)[O-])cc6F)c6nc(c(-c7c(F)cc(S(=O)(=O)[O-])cc7F)c7ccc4[nH]7)C=C6)C=C5)cc3)c2C(C)(C)C)c1
REMARK SMILES IDX 19 1 18 2 17 3 16 4 14 5 15 6 13 8 10 9 11 10 90 11 12 12
REMARK SMILES IDX 9 13 3 14 4 15 95 16 5 17 8 18 2 19 1 20 6 21 7 22 91 23
REMARK SMILES IDX 92 24 93 25 94 26 20 27 21 28 22 29 23 31 24 32 25 33 89 34
REMARK SMILES IDX 26 35 88 36 27 37 28 38 29 39 82 40 30 41 87 42 81 43 83 44
REMARK SMILES IDX 31 45 86 46 80 47 79 48 32 50 66 51 45 52 65 53 46 54 49 55
REMARK SMILES IDX 64 56 84 57 47 58 48 59 63 61 85 62 50 63 33 64 34 65 43 66
REMARK SMILES IDX 35 67 36 68 42 69 44 70 37 71 38 72 39 73 40 74 41 75 67 76
REMARK SMILES IDX 68 77 77 78 69 79 70 80 76 81 78 82 71 83 72 84 73 85 74 86
REMARK SMILES IDX 75 87 51 88 52 89 61 90 53 91 54 92 60 93 62 94 55 95 56 96
REMARK SMILES IDX 57 97 58 98 59 99
REMARK H PARENT 16 7 21 30 83 49 49 60
REMARK Flexibility Score: inf
ROOT
ATOM      1  C   UNL A   1      37.232  21.976  24.551  1.00  0.00     0.023 C 
ENDROOT
BRANCH   1   2
ATOM      2  C   UNL A   1      36.202  20.965  25.071  1.00  0.00     0.023 C 
BRANCH   2   3
ATOM      3  C   UNL A   1      35.185  21.500  26.097  1.00  0.00     0.116 C 
BRANCH   3   4
ATOM      4  N   UNL A   1      33.793  21.111  25.843  1.00  0.00    -0.351 N 
ATOM      5  C   UNL A   1      32.532  21.586  25.560  1.00  0.00     0.273 C 
ATOM      6  O   UNL A   1      31.776  20.643  25.277  1.00  0.00    -0.267 OA
ATOM      7  H   UNL A   1      33.741  20.129  25.894  1.00  0.00     0.163 HD
BRANCH   5   8
ATOM      8  C   UNL A   1      31.951  22.956  25.587  1.00  0.00     0.174 A 
ATOM      9  N   UNL A   1      31.240  25.047  25.621  1.00  0.00    -0.216 N 
ATOM     10  N   UNL A   1      30.463  24.351  26.462  1.00  0.00    -0.061 NA
ATOM     11  C   UNL A   1      32.262  24.245  25.108  1.00  0.00     0.083 A 
ATOM     12  N   UNL A   1      30.814  23.085  26.381  1.00  0.00    -0.124 NA
BRANCH   9  13
ATOM     13  C   UNL A   1      31.146  26.448  25.600  1.00  0.00     0.074 A 
ATOM     14  C   UNL A   1      30.838  28.400  24.240  1.00  0.00     0.124 A 
ATOM     15  C   UNL A   1      31.654  29.112  25.133  1.00  0.00     0.093 A 
ATOM     16  C   UNL A   1      30.539  27.067  24.503  1.00  0.00     0.075 A 
ATOM     17  C   UNL A   1      32.192  28.504  26.277  1.00  0.00     0.124 A 
ATOM     18  C   UNL A   1      31.913  27.164  26.530  1.00  0.00     0.075 A 
BRANCH  14  19
ATOM     19  O   UNL A   1      30.494  29.076  23.100  1.00  0.00    -0.497 OA
ATOM     20  C   UNL A   1      29.106  29.155  22.780  1.00  0.00     0.278 C 
ENDBRANCH  14  19
BRANCH  17  21
ATOM     21  O   UNL A   1      33.032  29.293  27.015  1.00  0.00    -0.497 OA
ATOM     22  C   UNL A   1      34.371  28.830  27.170  1.00  0.00     0.278 C 
ENDBRANCH  17  21
ENDBRANCH   9  13
BRANCH  11  23
ATOM     23  C   UNL A   1      33.470  24.733  24.335  1.00  0.00     0.007 C 
ATOM     24  C   UNL A   1      34.539  24.996  25.409  1.00  0.00     0.017 C 
ATOM     25  C   UNL A   1      33.712  23.702  23.216  1.00  0.00     0.017 C 
ATOM     26  C   UNL A   1      33.499  26.076  23.585  1.00  0.00     0.017 C 
ENDBRANCH  11  23
ENDBRANCH   5   8
ENDBRANCH   3   4
ENDBRANCH   2   3
ENDBRANCH   1   2
BRANCH   1  27
ATOM     27  C   UNL A   1      38.017  22.728  25.620  1.00  0.00     0.116 C 
BRANCH  27  28
ATOM     28  N   UNL A   1      38.792  21.886  26.530  1.00  0.00    -0.352 N 
ATOM     29  C   UNL A   1      39.957  22.268  27.198  1.00  0.00     0.251 C 
ATOM     30  H   UNL A   1      38.463  20.971  26.685  1.00  0.00     0.163 HD
ATOM     31  O   UNL A   1      40.736  21.463  27.645  1.00  0.00    -0.269 OA
BRANCH  29  32
ATOM     32  C   UNL A   1      40.188  23.724  27.333  1.00  0.00     0.039 A 
ATOM     33  C   UNL A   1      39.128  24.630  27.378  1.00  0.00     0.014 A 
ATOM     34  C   UNL A   1      41.493  24.124  27.606  1.00  0.00     0.014 A 
ATOM     35  C   UNL A   1      39.378  25.928  27.828  1.00  0.00     0.010 A 
ATOM     36  C   UNL A   1      41.710  25.363  28.164  1.00  0.00     0.010 A 
ATOM     37  C   UNL A   1      40.665  26.284  28.267  1.00  0.00    -0.014 A 
BRANCH  37  38
ATOM     38  C   UNL A   1      40.888  27.562  28.953  1.00  0.00     0.031 A 
ATOM     39  C   UNL A   1      41.953  28.452  28.388  1.00  0.00     0.074 A 
ATOM     40  C   UNL A   1      40.050  28.069  29.883  1.00  0.00     0.049 A 
ATOM     41  N   UNL A   1      43.054  28.842  28.945  1.00  0.00    -0.248 NA
ATOM     42  C   UNL A   1      41.805  28.911  26.997  1.00  0.00     0.031 C 
ATOM     43  C   UNL A   1      38.765  27.530  30.350  1.00  0.00     0.029 A 
ATOM     44  N   UNL A   1      40.128  29.261  30.537  1.00  0.00    -0.354 N 
ATOM     45  C   UNL A   1      43.644  29.753  28.066  1.00  0.00     0.074 A 
ATOM     46  C   UNL A   1      42.911  29.640  26.830  1.00  0.00     0.031 C 
ATOM     47  C   UNL A   1      38.086  28.490  31.014  1.00  0.00     0.029 A 
ATOM     48  C   UNL A   1      38.962  29.631  31.191  1.00  0.00     0.049 A 
ATOM     49  H   UNL A   1      40.943  29.814  30.543  1.00  0.00     0.167 HD
ATOM     50  C   UNL A   1      44.567  30.670  28.480  1.00  0.00     0.037 A 
ATOM     51  C   UNL A   1      38.717  30.792  31.840  1.00  0.00     0.037 A 
ATOM     52  C   UNL A   1      45.089  30.337  29.781  1.00  0.00     0.049 A 
ATOM     53  C   UNL A   1      40.030  31.384  32.193  1.00  0.00     0.074 A 
ATOM     54  C   UNL A   1      45.763  29.257  30.318  1.00  0.00     0.029 A 
ATOM     55  N   UNL A   1      44.633  31.057  30.858  1.00  0.00    -0.354 N 
ATOM     56  N   UNL A   1      40.872  30.843  33.032  1.00  0.00    -0.248 NA
ATOM     57  C   UNL A   1      40.598  32.378  31.297  1.00  0.00     0.031 C 
ATOM     58  C   UNL A   1      45.239  29.118  31.638  1.00  0.00     0.029 A 
ATOM     59  C   UNL A   1      44.321  30.151  31.840  1.00  0.00     0.049 A 
ATOM     60  H   UNL A   1      44.547  32.035  30.916  1.00  0.00     0.167 HD
ATOM     61  C   UNL A   1      42.126  31.109  32.502  1.00  0.00     0.074 A 
ATOM     62  C   UNL A   1      41.897  32.148  31.502  1.00  0.00     0.031 C 
ATOM     63  C   UNL A   1      43.185  30.276  32.728  1.00  0.00     0.037 A 
BRANCH  50  64
ATOM     64  C   UNL A   1      44.771  32.047  27.876  1.00  0.00     0.058 A 
ATOM     65  C   UNL A   1      45.974  32.341  27.197  1.00  0.00     0.135 A 
ATOM     66  C   UNL A   1      43.966  33.164  28.185  1.00  0.00     0.135 A 
ATOM     67  F   UNL A   1      46.822  31.358  26.848  1.00  0.00    -0.206 F 
ATOM     68  C   UNL A   1      46.388  33.648  26.930  1.00  0.00     0.059 A 
ATOM     69  C   UNL A   1      44.334  34.472  27.879  1.00  0.00     0.059 A 
ATOM     70  F   UNL A   1      42.832  33.053  28.889  1.00  0.00    -0.206 F 
ATOM     71  C   UNL A   1      45.568  34.709  27.297  1.00  0.00     0.060 A 
BRANCH  71  72
ATOM     72  S   UNL A   1      46.155  36.400  27.086  1.00  0.00     0.124 S 
ATOM     73  O   UNL A   1      46.943  36.281  25.864  1.00  0.00    -0.237 OA
ATOM     74  O   UNL A   1      44.906  37.145  26.971  1.00  0.00    -0.237 OA
ATOM     75  O   UNL A   1      46.914  36.645  28.309  1.00  0.00    -0.744 OA
ENDBRANCH  71  72
ENDBRANCH  50  64
BRANCH  51  76
ATOM     76  C   UNL A   1      37.434  31.529  31.917  1.00  0.00     0.058 A 
ATOM     77  C   UNL A   1      36.857  31.873  33.150  1.00  0.00     0.135 A 
ATOM     78  C   UNL A   1      36.881  32.139  30.772  1.00  0.00     0.135 A 
ATOM     79  F   UNL A   1      37.340  31.354  34.288  1.00  0.00    -0.206 F 
ATOM     80  C   UNL A   1      35.815  32.799  33.246  1.00  0.00     0.059 A 
ATOM     81  C   UNL A   1      35.837  33.059  30.843  1.00  0.00     0.059 A 
ATOM     82  F   UNL A   1      37.403  31.921  29.554  1.00  0.00    -0.206 F 
ATOM     83  C   UNL A   1      35.324  33.402  32.087  1.00  0.00     0.060 A 
BRANCH  83  84
ATOM     84  S   UNL A   1      34.093  34.718  32.227  1.00  0.00     0.124 S 
ATOM     85  O   UNL A   1      33.027  34.055  32.971  1.00  0.00    -0.237 OA
ATOM     86  O   UNL A   1      34.828  35.751  32.949  1.00  0.00    -0.237 OA
ATOM     87  O   UNL A   1      33.779  35.038  30.837  1.00  0.00    -0.744 OA
ENDBRANCH  83  84
ENDBRANCH  51  76
BRANCH  63  88
ATOM     88  C   UNL A   1      43.068  29.240  33.818  1.00  0.00     0.058 A 
ATOM     89  C   UNL A   1      43.340  29.481  35.176  1.00  0.00     0.135 A 
ATOM     90  C   UNL A   1      42.489  28.002  33.494  1.00  0.00     0.135 A 
ATOM     91  F   UNL A   1      43.796  30.671  35.588  1.00  0.00    -0.206 F 
ATOM     92  C   UNL A   1      43.082  28.524  36.160  1.00  0.00     0.059 A 
ATOM     93  C   UNL A   1      42.194  27.046  34.464  1.00  0.00     0.059 A 
ATOM     94  F   UNL A   1      42.146  27.733  32.223  1.00  0.00    -0.206 F 
ATOM     95  C   UNL A   1      42.502  27.311  35.796  1.00  0.00     0.060 A 
BRANCH  95  96
ATOM     96  S   UNL A   1      42.077  26.119  37.084  1.00  0.00     0.124 S 
ATOM     97  O   UNL A   1      40.666  26.408  37.318  1.00  0.00    -0.237 OA
ATOM     98  O   UNL A   1      42.364  24.840  36.441  1.00  0.00    -0.237 OA
ATOM     99  O   UNL A   1      42.976  26.468  38.182  1.00  0.00    -0.744 OA
ENDBRANCH  95  96
ENDBRANCH  63  88
ENDBRANCH  37  38
ENDBRANCH  29  32
ENDBRANCH  27  28
ENDBRANCH   1  27
TORSDOF 18
ENDMDL
MODEL 2
REMARK VINA RESULT:     -12.8      2.918      9.526
REMARK SMILES COc1cc(OC)cc(-n2nnc(C(=O)NCCCCNC(=O)c3ccc(-c4c5nc(c(-c6c(F)cc(S(=O)(=O)[O-])cc6F)c6ccc([nH]6)c(-c6c(F)cc(S(=O)(=O)[O-])cc6F)c6nc(c(-c7c(F)cc(S(=O)(=O)[O-])cc7F)c7ccc4[nH]7)C=C6)C=C5)cc3)c2C(C)(C)C)c1
REMARK SMILES IDX 19 1 18 2 17 3 16 4 14 5 15 6 13 8 10 9 11 10 90 11 12 12
REMARK SMILES IDX 9 13 3 14 4 15 95 16 5 17 8 18 2 19 1 20 6 21 7 22 91 23
REMARK SMILES IDX 92 24 93 25 94 26 20 27 21 28 22 29 23 31 24 32 25 33 89 34
REMARK SMILES IDX 26 35 88 36 27 37 28 38 29 39 82 40 30 41 87 42 81 43 83 44
REMARK SMILES IDX 31 45 86 46 80 47 79 48 32 50 66 51 45 52 65 53 46 54 49 55
REMARK SMILES IDX 64 56 84 57 47 58 48 59 63 61 85 62 50 63 33 64 34 65 43 66
REMARK SMILES IDX 35 67 36 68 42 69 44 70 37 71 38 72 39 73 40 74 41 75 67 76
REMARK SMILES IDX 68 77 77 78 69 79 70 80 76 81 78 82 71 83 72 84 73 85 74 86
REMARK SMILES IDX 75 87 51 88 52 89 61 90 53 91 54 92 60 93 62 94 55 95 56 96
REMARK SMILES IDX 57 97 58 98 59 99
REMARK H PARENT 16 7 21 30 83 49 49 60
REMARK Flexibility Score: inf
ROOT
ATOM      1  C   UNL A   1      32.329  29.497  27.065  1.00  0.00     0.023 C 
ENDROOT
BRANCH   1   2
ATOM      2  C   UNL A   1      31.810  29.711  25.638  1.00  0.00     0.023 C 
BRANCH   2   3
ATOM      3  C   UNL A   1      32.683  29.139  24.505  1.00  0.00     0.116 C 
BRANCH   3   4
ATOM      4  N   UNL A   1      31.935  28.519  23.406  1.00  0.00    -0.351 N 
ATOM      5  C   UNL A   1      31.528  27.320  22.865  1.00  0.00     0.273 C 
ATOM      6  O   UNL A   1      30.713  27.520  21.951  1.00  0.00    -0.267 OA
ATOM      7  H   UNL A   1      31.590  29.240  22.832  1.00  0.00     0.163 HD
BRANCH   5   8
ATOM      8  C   UNL A   1      31.920  25.912  23.147  1.00  0.00     0.174 A 
ATOM      9  N   UNL A   1      32.568  23.875  23.705  1.00  0.00    -0.216 N 
ATOM     10  N   UNL A   1      32.760  24.004  22.386  1.00  0.00    -0.061 NA
ATOM     11  C   UNL A   1      32.130  25.077  24.264  1.00  0.00     0.083 A 
ATOM     12  N   UNL A   1      32.291  25.179  22.023  1.00  0.00    -0.124 NA
BRANCH   9  13
ATOM     13  C   UNL A   1      33.087  22.750  24.368  1.00  0.00     0.074 A 
ATOM     14  C   UNL A   1      35.013  21.365  24.726  1.00  0.00     0.124 A 
ATOM     15  C   UNL A   1      34.153  20.270  24.900  1.00  0.00     0.093 A 
ATOM     16  C   UNL A   1      34.472  22.629  24.508  1.00  0.00     0.075 A 
ATOM     17  C   UNL A   1      32.759  20.417  24.839  1.00  0.00     0.124 A 
ATOM     18  C   UNL A   1      32.217  21.675  24.599  1.00  0.00     0.075 A 
BRANCH  14  19
ATOM     19  O   UNL A   1      36.346  21.058  24.676  1.00  0.00    -0.497 OA
ATOM     20  C   UNL A   1      37.271  22.126  24.867  1.00  0.00     0.278 C 
ENDBRANCH  14  19
BRANCH  17  21
ATOM     21  O   UNL A   1      32.046  19.253  24.948  1.00  0.00    -0.497 OA
ATOM     22  C   UNL A   1      32.762  18.105  25.397  1.00  0.00     0.278 C 
ENDBRANCH  17  21
ENDBRANCH   9  13
BRANCH  11  23
ATOM     23  C   UNL A   1      32.050  25.391  25.745  1.00  0.00     0.007 C 
ATOM     24  C   UNL A   1      33.408  26.029  26.082  1.00  0.00     0.017 C 
ATOM     25  C   UNL A   1      30.737  26.172  25.951  1.00  0.00     0.017 C 
ATOM     26  C   UNL A   1      31.982  24.302  26.830  1.00  0.00     0.017 C 
ENDBRANCH  11  23
ENDBRANCH   5   8
ENDBRANCH   3   4
ENDBRANCH   2   3
ENDBRANCH   1   2
BRANCH   1  27
ATOM     27  C   UNL A   1      33.806  29.807  27.284  1.00  0.00     0.116 C 
BRANCH  27  28
ATOM     28  N   UNL A   1      34.198  31.190  27.017  1.00  0.00    -0.352 N 
ATOM     29  C   UNL A   1      35.254  31.868  27.628  1.00  0.00     0.251 C 
ATOM     30  H   UNL A   1      33.671  31.685  26.349  1.00  0.00     0.163 HD
ATOM     31  O   UNL A   1      35.324  33.072  27.643  1.00  0.00    -0.269 OA
BRANCH  29  32
ATOM     32  C   UNL A   1      36.296  31.026  28.258  1.00  0.00     0.039 A 
ATOM     33  C   UNL A   1      36.544  29.724  27.823  1.00  0.00     0.014 A 
ATOM     34  C   UNL A   1      37.141  31.658  29.166  1.00  0.00     0.014 A 
ATOM     35  C   UNL A   1      37.730  29.102  28.218  1.00  0.00     0.010 A 
ATOM     36  C   UNL A   1      38.362  31.090  29.450  1.00  0.00     0.010 A 
ATOM     37  C   UNL A   1      38.665  29.804  28.997  1.00  0.00    -0.014 A 
BRANCH  37  38
ATOM     38  C   UNL A   1      40.007  29.252  29.225  1.00  0.00     0.031 A 
ATOM     39  C   UNL A   1      40.436  29.094  30.651  1.00  0.00     0.074 A 
ATOM     40  C   UNL A   1      40.751  28.672  28.258  1.00  0.00     0.049 A 
ATOM     41  N   UNL A   1      41.413  29.678  31.266  1.00  0.00    -0.248 NA
ATOM     42  C   UNL A   1      39.631  28.222  31.523  1.00  0.00     0.031 C 
ATOM     43  C   UNL A   1      40.392  28.412  26.857  1.00  0.00     0.029 A 
ATOM     44  N   UNL A   1      41.973  28.081  28.367  1.00  0.00    -0.354 N 
ATOM     45  C   UNL A   1      41.479  29.108  32.540  1.00  0.00     0.074 A 
ATOM     46  C   UNL A   1      40.273  28.333  32.689  1.00  0.00     0.031 C 
ATOM     47  C   UNL A   1      41.256  27.520  26.327  1.00  0.00     0.029 A 
ATOM     48  C   UNL A   1      42.332  27.306  27.275  1.00  0.00     0.049 A 
ATOM     49  H   UNL A   1      42.551  28.193  29.156  1.00  0.00     0.167 HD
ATOM     50  C   UNL A   1      42.611  29.159  33.302  1.00  0.00     0.037 A 
ATOM     51  C   UNL A   1      43.436  26.535  27.141  1.00  0.00     0.037 A 
ATOM     52  C   UNL A   1      43.537  30.143  32.799  1.00  0.00     0.049 A 
ATOM     53  C   UNL A   1      44.444  27.040  28.102  1.00  0.00     0.074 A 
ATOM     54  C   UNL A   1      43.493  31.507  32.581  1.00  0.00     0.029 A 
ATOM     55  N   UNL A   1      44.632  29.695  32.102  1.00  0.00    -0.354 N 
ATOM     56  N   UNL A   1      44.997  28.221  28.027  1.00  0.00    -0.248 NA
ATOM     57  C   UNL A   1      44.541  26.392  29.400  1.00  0.00     0.031 C 
ATOM     58  C   UNL A   1      44.235  31.709  31.380  1.00  0.00     0.029 A 
ATOM     59  C   UNL A   1      44.727  30.467  30.972  1.00  0.00     0.049 A 
ATOM     60  H   UNL A   1      45.233  28.961  32.362  1.00  0.00     0.167 HD
ATOM     61  C   UNL A   1      45.136  28.637  29.342  1.00  0.00     0.074 A 
ATOM     62  C   UNL A   1      44.945  27.428  30.139  1.00  0.00     0.031 C 
ATOM     63  C   UNL A   1      45.124  29.961  29.675  1.00  0.00     0.037 A 
BRANCH  50  64
ATOM     64  C   UNL A   1      43.045  28.106  34.304  1.00  0.00     0.058 A 
ATOM     65  C   UNL A   1      43.227  28.464  35.658  1.00  0.00     0.135 A 
ATOM     66  C   UNL A   1      43.564  26.845  33.939  1.00  0.00     0.135 A 
ATOM     67  F   UNL A   1      42.774  29.640  36.124  1.00  0.00    -0.206 F 
ATOM     68  C   UNL A   1      43.949  27.673  36.556  1.00  0.00     0.059 A 
ATOM     69  C   UNL A   1      44.239  26.016  34.832  1.00  0.00     0.059 A 
ATOM     70  F   UNL A   1      43.533  26.399  32.678  1.00  0.00    -0.206 F 
ATOM     71  C   UNL A   1      44.471  26.459  36.124  1.00  0.00     0.060 A 
BRANCH  71  72
ATOM     72  S   UNL A   1      45.521  25.499  37.230  1.00  0.00     0.124 S 
ATOM     73  O   UNL A   1      45.872  24.366  36.383  1.00  0.00    -0.237 OA
ATOM     74  O   UNL A   1      46.599  26.439  37.521  1.00  0.00    -0.237 OA
ATOM     75  O   UNL A   1      44.638  25.202  38.354  1.00  0.00    -0.744 OA
ENDBRANCH  71  72
ENDBRANCH  50  64
BRANCH  51  76
ATOM     76  C   UNL A   1      43.549  25.238  26.434  1.00  0.00     0.058 A 
ATOM     77  C   UNL A   1      44.412  25.071  25.340  1.00  0.00     0.135 A 
ATOM     78  C   UNL A   1      43.001  24.062  26.988  1.00  0.00     0.135 A 
ATOM     79  F   UNL A   1      44.993  26.137  24.771  1.00  0.00    -0.206 F 
ATOM     80  C   UNL A   1      44.745  23.806  24.846  1.00  0.00     0.059 A 
ATOM     81  C   UNL A   1      43.311  22.792  26.507  1.00  0.00     0.059 A 
ATOM     82  F   UNL A   1      42.213  24.114  28.073  1.00  0.00    -0.206 F 
ATOM     83  C   UNL A   1      44.203  22.670  25.449  1.00  0.00     0.060 A 
BRANCH  83  84
ATOM     84  S   UNL A   1      44.761  21.035  24.918  1.00  0.00     0.124 S 
ATOM     85  O   UNL A   1      43.825  20.158  25.614  1.00  0.00    -0.237 OA
ATOM     86  O   UNL A   1      44.605  21.113  23.470  1.00  0.00    -0.237 OA
ATOM     87  O   UNL A   1      46.141  20.978  25.391  1.00  0.00    -0.744 OA
ENDBRANCH  83  84
ENDBRANCH  51  76
BRANCH  63  88
ATOM     88  C   UNL A   1      45.281  30.983  28.576  1.00  0.00     0.058 A 
ATOM     89  C   UNL A   1      44.222  31.478  27.795  1.00  0.00     0.135 A 
ATOM     90  C   UNL A   1      46.528  31.609  28.428  1.00  0.00     0.135 A 
ATOM     91  F   UNL A   1      42.976  31.009  27.945  1.00  0.00    -0.206 F 
ATOM     92  C   UNL A   1      44.402  32.522  26.886  1.00  0.00     0.059 A 
ATOM     93  C   UNL A   1      46.723  32.674  27.550  1.00  0.00     0.059 A 
ATOM     94  F   UNL A   1      47.567  31.227  29.189  1.00  0.00    -0.206 F 
ATOM     95  C   UNL A   1      45.656  33.120  26.774  1.00  0.00     0.060 A 
BRANCH  95  96
ATOM     96  S   UNL A   1      45.859  34.536  25.673  1.00  0.00     0.124 S 
ATOM     97  O   UNL A   1      45.459  35.650  26.526  1.00  0.00    -0.237 OA
ATOM     98  O   UNL A   1      47.277  34.475  25.333  1.00  0.00    -0.237 OA
ATOM     99  O   UNL A   1      44.951  34.241  24.567  1.00  0.00    -0.744 OA
ENDBRANCH  95  96
ENDBRANCH  63  88
ENDBRANCH  37  38
ENDBRANCH  29  32
ENDBRANCH  27  28
ENDBRANCH   1  27
TORSDOF 18
ENDMDL
MODEL 3
REMARK VINA RESULT:     -12.7      2.963      9.465
REMARK SMILES COc1cc(OC)cc(-n2nnc(C(=O)NCCCCNC(=O)c3ccc(-c4c5nc(c(-c6c(F)cc(S(=O)(=O)[O-])cc6F)c6ccc([nH]6)c(-c6c(F)cc(S(=O)(=O)[O-])cc6F)c6nc(c(-c7c(F)cc(S(=O)(=O)[O-])cc7F)c7ccc4[nH]7)C=C6)C=C5)cc3)c2C(C)(C)C)c1
REMARK SMILES IDX 19 1 18 2 17 3 16 4 14 5 15 6 13 8 10 9 11 10 90 11 12 12
REMARK SMILES IDX 9 13 3 14 4 15 95 16 5 17 8 18 2 19 1 20 6 21 7 22 91 23
REMARK SMILES IDX 92 24 93 25 94 26 20 27 21 28 22 29 23 31 24 32 25 33 89 34
REMARK SMILES IDX 26 35 88 36 27 37 28 38 29 39 82 40 30 41 87 42 81 43 83 44
REMARK SMILES IDX 31 45 86 46 80 47 79 48 32 50 66 51 45 52 65 53 46 54 49 55
REMARK SMILES IDX 64 56 84 57 47 58 48 59 63 61 85 62 50 63 33 64 34 65 43 66
REMARK SMILES IDX 35 67 36 68 42 69 44 70 37 71 38 72 39 73 40 74 41 75 67 76
REMARK SMILES IDX 68 77 77 78 69 79 70 80 76 81 78 82 71 83 72 84 73 85 74 86
REMARK SMILES IDX 75 87 51 88 52 89 61 90 53 91 54 92 60 93 62 94 55 95 56 96
REMARK SMILES IDX 57 97 58 98 59 99
REMARK H PARENT 16 7 21 30 83 49 49 60
REMARK Flexibility Score: inf
ROOT
ATOM      1  C   UNL A   1      32.362  29.457  27.162  1.00  0.00     0.023 C 
ENDROOT
BRANCH   1   2
ATOM      2  C   UNL A   1      31.830  29.853  25.780  1.00  0.00     0.023 C 
BRANCH   2   3
ATOM      3  C   UNL A   1      32.633  29.338  24.570  1.00  0.00     0.116 C 
BRANCH   3   4
ATOM      4  N   UNL A   1      31.818  28.799  23.476  1.00  0.00    -0.351 N 
ATOM      5  C   UNL A   1      31.491  27.656  22.781  1.00  0.00     0.273 C 
ATOM      6  O   UNL A   1      30.533  27.878  22.023  1.00  0.00    -0.267 OA
ATOM      7  H   UNL A   1      31.305  29.544  23.088  1.00  0.00     0.163 HD
BRANCH   5   8
ATOM      8  C   UNL A   1      32.094  26.296  22.755  1.00  0.00     0.174 A 
ATOM      9  N   UNL A   1      33.064  24.314  22.856  1.00  0.00    -0.216 N 
ATOM     10  N   UNL A   1      33.080  24.697  21.573  1.00  0.00    -0.061 NA
ATOM     11  C   UNL A   1      32.542  25.321  23.670  1.00  0.00     0.083 A 
ATOM     12  N   UNL A   1      32.422  25.834  21.483  1.00  0.00    -0.124 NA
BRANCH   9  13
ATOM     13  C   UNL A   1      33.800  23.182  23.244  1.00  0.00     0.074 A 
ATOM     14  C   UNL A   1      33.743  21.059  24.359  1.00  0.00     0.124 A 
ATOM     15  C   UNL A   1      35.076  21.262  24.745  1.00  0.00     0.093 A 
ATOM     16  C   UNL A   1      33.113  22.006  23.556  1.00  0.00     0.075 A 
ATOM     17  C   UNL A   1      35.785  22.408  24.357  1.00  0.00     0.124 A 
ATOM     18  C   UNL A   1      35.150  23.367  23.574  1.00  0.00     0.075 A 
BRANCH  14  19
ATOM     19  O   UNL A   1      33.134  19.967  24.918  1.00  0.00    -0.497 OA
ATOM     20  C   UNL A   1      33.746  18.696  24.706  1.00  0.00     0.278 C 
ENDBRANCH  14  19
BRANCH  17  21
ATOM     21  O   UNL A   1      37.049  22.513  24.871  1.00  0.00    -0.497 OA
ATOM     22  C   UNL A   1      37.347  23.702  25.597  1.00  0.00     0.278 C 
ENDBRANCH  17  21
ENDBRANCH   9  13
BRANCH  11  23
ATOM     23  C   UNL A   1      32.597  25.357  25.184  1.00  0.00     0.007 C 
ATOM     24  C   UNL A   1      33.914  26.082  25.509  1.00  0.00     0.017 C 
ATOM     25  C   UNL A   1      31.244  25.928  25.653  1.00  0.00     0.017 C 
ATOM     26  C   UNL A   1      32.760  24.093  26.048  1.00  0.00     0.017 C 
ENDBRANCH  11  23
ENDBRANCH   5   8
ENDBRANCH   3   4
ENDBRANCH   2   3
ENDBRANCH   1   2
BRANCH   1  27
ATOM     27  C   UNL A   1      33.828  29.789  27.426  1.00  0.00     0.116 C 
BRANCH  27  28
ATOM     28  N   UNL A   1      34.224  31.158  27.100  1.00  0.00    -0.352 N 
ATOM     29  C   UNL A   1      35.297  31.850  27.663  1.00  0.00     0.251 C 
ATOM     30  H   UNL A   1      33.687  31.632  26.425  1.00  0.00     0.163 HD
ATOM     31  O   UNL A   1      35.375  33.053  27.633  1.00  0.00    -0.269 OA
BRANCH  29  32
ATOM     32  C   UNL A   1      36.345  31.024  28.304  1.00  0.00     0.039 A 
ATOM     33  C   UNL A   1      36.569  29.702  27.918  1.00  0.00     0.014 A 
ATOM     34  C   UNL A   1      37.218  31.684  29.164  1.00  0.00     0.014 A 
ATOM     35  C   UNL A   1      37.759  29.084  28.312  1.00  0.00     0.010 A 
ATOM     36  C   UNL A   1      38.440  31.115  29.443  1.00  0.00     0.010 A 
ATOM     37  C   UNL A   1      38.719  29.808  29.038  1.00  0.00    -0.014 A 
BRANCH  37  38
ATOM     38  C   UNL A   1      40.060  29.251  29.257  1.00  0.00     0.031 A 
ATOM     39  C   UNL A   1      40.498  29.091  30.681  1.00  0.00     0.074 A 
ATOM     40  C   UNL A   1      40.796  28.669  28.285  1.00  0.00     0.049 A 
ATOM     41  N   UNL A   1      41.481  29.672  31.290  1.00  0.00    -0.248 NA
ATOM     42  C   UNL A   1      39.696  28.222  31.557  1.00  0.00     0.031 C 
ATOM     43  C   UNL A   1      40.428  28.410  26.887  1.00  0.00     0.029 A 
ATOM     44  N   UNL A   1      42.017  28.074  28.386  1.00  0.00    -0.354 N 
ATOM     45  C   UNL A   1      41.554  29.102  32.563  1.00  0.00     0.074 A 
ATOM     46  C   UNL A   1      40.346  28.331  32.719  1.00  0.00     0.031 C 
ATOM     47  C   UNL A   1      41.286  27.516  26.350  1.00  0.00     0.029 A 
ATOM     48  C   UNL A   1      42.366  27.298  27.291  1.00  0.00     0.049 A 
ATOM     49  H   UNL A   1      42.601  28.184  29.171  1.00  0.00     0.167 HD
ATOM     50  C   UNL A   1      42.690  29.148  33.317  1.00  0.00     0.037 A 
ATOM     51  C   UNL A   1      43.466  26.523  27.150  1.00  0.00     0.037 A 
ATOM     52  C   UNL A   1      43.616  30.129  32.809  1.00  0.00     0.049 A 
ATOM     53  C   UNL A   1      44.482  27.025  28.105  1.00  0.00     0.074 A 
ATOM     54  C   UNL A   1      43.576  31.493  32.591  1.00  0.00     0.029 A 
ATOM     55  N   UNL A   1      44.705  29.678  32.104  1.00  0.00    -0.354 N 
ATOM     56  N   UNL A   1      45.039  28.204  28.027  1.00  0.00    -0.248 NA
ATOM     57  C   UNL A   1      44.585  26.376  29.402  1.00  0.00     0.031 C 
ATOM     58  C   UNL A   1      44.311  31.693  31.385  1.00  0.00     0.029 A 
ATOM     59  C   UNL A   1      44.796  30.450  30.974  1.00  0.00     0.049 A 
ATOM     60  H   UNL A   1      45.306  28.942  32.361  1.00  0.00     0.167 HD
ATOM     61  C   UNL A   1      45.188  28.618  29.341  1.00  0.00     0.074 A 
ATOM     62  C   UNL A   1      44.998  27.410  30.139  1.00  0.00     0.031 C 
ATOM     63  C   UNL A   1      45.183  29.943  29.675  1.00  0.00     0.037 A 
BRANCH  50  64
ATOM     64  C   UNL A   1      43.127  28.094  34.316  1.00  0.00     0.058 A 
ATOM     65  C   UNL A   1      43.391  28.465  35.653  1.00  0.00     0.135 A 
ATOM     66  C   UNL A   1      43.572  26.805  33.950  1.00  0.00     0.135 A 
ATOM     67  F   UNL A   1      43.012  29.667  36.119  1.00  0.00    -0.206 F 
ATOM     68  C   UNL A   1      44.121  27.657  36.529  1.00  0.00     0.059 A 
ATOM     69  C   UNL A   1      44.254  25.961  34.823  1.00  0.00     0.059 A 
ATOM     70  F   UNL A   1      43.460  26.341  32.699  1.00  0.00    -0.206 F 
ATOM     71  C   UNL A   1      44.568  26.415  36.095  1.00  0.00     0.060 A 
BRANCH  71  72
ATOM     72  S   UNL A   1      45.629  25.428  37.166  1.00  0.00     0.124 S 
ATOM     73  O   UNL A   1      46.235  24.512  36.207  1.00  0.00    -0.237 OA
ATOM     74  O   UNL A   1      46.515  26.438  37.734  1.00  0.00    -0.237 OA
ATOM     75  O   UNL A   1      44.688  24.829  38.108  1.00  0.00    -0.744 OA
ENDBRANCH  71  72
ENDBRANCH  50  64
BRANCH  51  76
ATOM     76  C   UNL A   1      43.571  25.226  26.442  1.00  0.00     0.058 A 
ATOM     77  C   UNL A   1      44.443  25.050  25.356  1.00  0.00     0.135 A 
ATOM     78  C   UNL A   1      43.003  24.057  26.988  1.00  0.00     0.135 A 
ATOM     79  F   UNL A   1      45.042  26.110  24.795  1.00  0.00    -0.206 F 
ATOM     80  C   UNL A   1      44.765  23.782  24.863  1.00  0.00     0.059 A 
ATOM     81  C   UNL A   1      43.303  22.783  26.509  1.00  0.00     0.059 A 
ATOM     82  F   UNL A   1      42.205  24.116  28.066  1.00  0.00    -0.206 F 
ATOM     83  C   UNL A   1      44.203  22.652  25.460  1.00  0.00     0.060 A 
BRANCH  83  84
ATOM     84  S   UNL A   1      44.746  21.011  24.931  1.00  0.00     0.124 S 
ATOM     85  O   UNL A   1      46.112  20.968  25.441  1.00  0.00    -0.237 OA
ATOM     86  O   UNL A   1      43.787  20.140  25.601  1.00  0.00    -0.237 OA
ATOM     87  O   UNL A   1      44.623  21.066  23.477  1.00  0.00    -0.744 OA
ENDBRANCH  83  84
ENDBRANCH  51  76
BRANCH  63  88
ATOM     88  C   UNL A   1      45.336  30.964  28.574  1.00  0.00     0.058 A 
ATOM     89  C   UNL A   1      44.271  31.477  27.814  1.00  0.00     0.135 A 
ATOM     90  C   UNL A   1      46.590  31.572  28.406  1.00  0.00     0.135 A 
ATOM     91  F   UNL A   1      43.021  31.027  27.984  1.00  0.00    -0.206 F 
ATOM     92  C   UNL A   1      44.451  32.521  26.904  1.00  0.00     0.059 A 
ATOM     93  C   UNL A   1      46.786  32.635  27.527  1.00  0.00     0.059 A 
ATOM     94  F   UNL A   1      47.636  31.172  29.148  1.00  0.00    -0.206 F 
ATOM     95  C   UNL A   1      45.713  33.099  26.771  1.00  0.00     0.060 A 
BRANCH  95  96
ATOM     96  S   UNL A   1      45.918  34.514  25.669  1.00  0.00     0.124 S 
ATOM     97  O   UNL A   1      45.511  35.629  26.519  1.00  0.00    -0.237 OA
ATOM     98  O   UNL A   1      47.338  34.456  25.337  1.00  0.00    -0.237 OA
ATOM     99  O   UNL A   1      45.016  34.216  24.558  1.00  0.00    -0.744 OA
ENDBRANCH  95  96
ENDBRANCH  63  88
ENDBRANCH  37  38
ENDBRANCH  29  32
ENDBRANCH  27  28
ENDBRANCH   1  27
TORSDOF 18
ENDMDL
