MODEL 1
REMARK VINA RESULT:     -11.9      0.000      0.000
REMARK SMILES CCOC(=O)C1=NN(c2ccc(Cl)cc2F)[C@@H](C(=O)NCCCCNC(=O)c2ccc(-c3c4nc(c(-c5c(F)cc(S(=O)(=O)[O-])cc5F)c5ccc([nH]5)c(-c5c(F)cc(S(=O)(=O)[O-])cc5F)c5nc(c(-c6c(F)cc(S(=O)(=O)[O-])cc6F)c6ccc3[nH]6)C=C5)C=C4)cc2)C1
REMARK SMILES IDX 22 1 21 2 20 3 18 4 19 5 17 7 6 8 7 9 94 10 8 11 4 12 5 13
REMARK SMILES IDX 3 14 2 15 1 16 9 17 10 18 15 19 11 20 14 21 16 22 12 23
REMARK SMILES IDX 13 24 23 25 24 26 25 27 26 28 27 30 28 31 29 32 93 33 30 34
REMARK SMILES IDX 92 35 31 36 32 37 33 38 86 39 34 40 91 41 85 42 87 43 35 44
REMARK SMILES IDX 90 45 84 46 83 47 36 49 70 50 49 51 69 52 50 53 53 54 68 55
REMARK SMILES IDX 88 56 51 57 52 58 67 60 89 61 54 62 37 63 38 64 47 65 39 66
REMARK SMILES IDX 40 67 46 68 48 69 41 70 42 71 43 72 44 73 45 74 71 75 72 76
REMARK SMILES IDX 81 77 73 78 74 79 80 80 82 81 75 82 76 83 77 84 78 85 79 86
REMARK SMILES IDX 55 87 56 88 65 89 57 90 58 91 64 92 66 93 59 94 60 95 61 96
REMARK SMILES IDX 62 97 63 98
REMARK H PARENT 20 6 25 29 87 48 53 59
REMARK Flexibility Score: inf
ROOT
ATOM      1  C   UNL A   1      36.700  23.350  24.337  1.00  0.00     0.023 C 
ENDROOT
BRANCH   1   2
ATOM      2  C   UNL A   1      35.257  23.842  24.217  1.00  0.00     0.116 C 
BRANCH   2   3
ATOM      3  N   UNL A   1      34.992  24.943  25.118  1.00  0.00    -0.354 N 
ATOM      4  C   UNL A   1      33.866  25.706  25.243  1.00  0.00     0.245 C 
ATOM      5  O   UNL A   1      33.913  26.632  26.060  1.00  0.00    -0.273 OA
ATOM      6  H   UNL A   1      35.729  25.175  25.728  1.00  0.00     0.163 HD
BRANCH   4   7
ATOM      7  C   UNL A   1      32.571  25.377  24.454  1.00  0.00     0.203 C 
ATOM      8  C   UNL A   1      31.250  24.216  25.903  1.00  0.00     0.148 C 
ATOM      9  N   UNL A   1      30.790  25.428  25.991  1.00  0.00    -0.169 NA
ATOM     10  C   UNL A   1      32.156  23.932  24.753  1.00  0.00     0.103 C 
ATOM     11  N   UNL A   1      31.416  26.124  24.984  1.00  0.00    -0.249 N 
BRANCH   8  12
ATOM     12  C   UNL A   1      30.853  23.108  26.829  1.00  0.00     0.354 C 
ATOM     13  O   UNL A   1      29.876  22.411  26.619  1.00  0.00    -0.245 OA
BRANCH  12  14
ATOM     14  O   UNL A   1      31.756  23.023  27.822  1.00  0.00    -0.461 OA
BRANCH  14  15
ATOM     15  C   UNL A   1      32.827  22.093  27.617  1.00  0.00     0.230 C 
ATOM     16  C   UNL A   1      34.157  22.801  27.786  1.00  0.00     0.049 C 
ENDBRANCH  14  15
ENDBRANCH  12  14
ENDBRANCH   8  12
BRANCH  11  17
ATOM     17  C   UNL A   1      30.726  27.174  24.385  1.00  0.00     0.096 A 
ATOM     18  C   UNL A   1      29.505  26.913  23.730  1.00  0.00     0.032 A 
ATOM     19  C   UNL A   1      31.158  28.510  24.382  1.00  0.00     0.149 A 
ATOM     20  C   UNL A   1      28.745  27.931  23.144  1.00  0.00     0.023 A 
ATOM     21  C   UNL A   1      30.415  29.537  23.796  1.00  0.00     0.062 A 
ATOM     22  F   UNL A   1      32.329  28.854  24.940  1.00  0.00    -0.205 F 
ATOM     23  C   UNL A   1      29.205  29.242  23.183  1.00  0.00     0.044 A 
ATOM     24  Cl  UNL A   1      28.279  30.500  22.465  1.00  0.00    -0.084 Cl
ENDBRANCH  11  17
ENDBRANCH   4   7
ENDBRANCH   2   3
ENDBRANCH   1   2
BRANCH   1  25
ATOM     25  C   UNL A   1      37.190  23.127  25.770  1.00  0.00     0.023 C 
BRANCH  25  26
ATOM     26  C   UNL A   1      38.152  24.187  26.304  1.00  0.00     0.116 C 
BRANCH  26  27
ATOM     27  N   UNL A   1      39.549  23.853  26.078  1.00  0.00    -0.352 N 
ATOM     28  C   UNL A   1      40.675  24.478  26.558  1.00  0.00     0.251 C 
ATOM     29  H   UNL A   1      39.710  23.072  25.502  1.00  0.00     0.163 HD
ATOM     30  O   UNL A   1      41.784  24.116  26.173  1.00  0.00    -0.269 OA
BRANCH  28  31
ATOM     31  C   UNL A   1      40.553  25.609  27.503  1.00  0.00     0.039 A 
ATOM     32  C   UNL A   1      39.598  25.525  28.522  1.00  0.00     0.014 A 
ATOM     33  C   UNL A   1      41.360  26.744  27.389  1.00  0.00     0.014 A 
ATOM     34  C   UNL A   1      39.501  26.545  29.471  1.00  0.00     0.010 A 
ATOM     35  C   UNL A   1      41.286  27.746  28.354  1.00  0.00     0.010 A 
ATOM     36  C   UNL A   1      40.366  27.648  29.409  1.00  0.00    -0.014 A 
BRANCH  36  37
ATOM     37  C   UNL A   1      40.349  28.696  30.455  1.00  0.00     0.031 A 
ATOM     38  C   UNL A   1      41.262  28.601  31.640  1.00  0.00     0.074 A 
ATOM     39  C   UNL A   1      39.439  29.686  30.382  1.00  0.00     0.049 A 
ATOM     40  N   UNL A   1      41.283  29.332  32.725  1.00  0.00    -0.248 NA
ATOM     41  C   UNL A   1      42.266  27.527  31.613  1.00  0.00     0.031 C 
ATOM     42  C   UNL A   1      38.463  29.861  29.304  1.00  0.00     0.029 A 
ATOM     43  N   UNL A   1      39.176  30.719  31.243  1.00  0.00    -0.354 N 
ATOM     44  C   UNL A   1      42.260  28.773  33.537  1.00  0.00     0.074 A 
ATOM     45  C   UNL A   1      42.827  27.657  32.807  1.00  0.00     0.031 C 
ATOM     46  C   UNL A   1      37.705  30.939  29.570  1.00  0.00     0.029 A 
ATOM     47  C   UNL A   1      38.131  31.516  30.843  1.00  0.00     0.049 A 
ATOM     48  H   UNL A   1      39.686  30.875  32.071  1.00  0.00     0.167 HD
ATOM     49  C   UNL A   1      42.640  29.147  34.781  1.00  0.00     0.037 A 
ATOM     50  C   UNL A   1      37.572  32.585  31.438  1.00  0.00     0.037 A 
ATOM     51  C   UNL A   1      42.116  30.284  35.489  1.00  0.00     0.049 A 
ATOM     52  C   UNL A   1      38.101  33.062  32.757  1.00  0.00     0.074 A 
ATOM     53  C   UNL A   1      42.461  30.758  36.742  1.00  0.00     0.029 A 
ATOM     54  N   UNL A   1      41.143  31.138  34.993  1.00  0.00    -0.354 N 
ATOM     55  N   UNL A   1      39.032  32.526  33.508  1.00  0.00    -0.248 NA
ATOM     56  C   UNL A   1      37.508  34.289  33.306  1.00  0.00     0.031 C 
ATOM     57  C   UNL A   1      41.699  31.906  37.001  1.00  0.00     0.029 A 
ATOM     58  C   UNL A   1      40.884  32.145  35.907  1.00  0.00     0.049 A 
ATOM     59  H   UNL A   1      40.700  31.042  34.118  1.00  0.00     0.167 HD
ATOM     60  C   UNL A   1      39.136  33.348  34.623  1.00  0.00     0.074 A 
ATOM     61  C   UNL A   1      38.182  34.425  34.441  1.00  0.00     0.031 C 
ATOM     62  C   UNL A   1      39.943  33.215  35.703  1.00  0.00     0.037 A 
BRANCH  49  63
ATOM     63  C   UNL A   1      43.658  28.282  35.456  1.00  0.00     0.058 A 
ATOM     64  C   UNL A   1      45.032  28.475  35.254  1.00  0.00     0.135 A 
ATOM     65  C   UNL A   1      43.251  27.222  36.280  1.00  0.00     0.135 A 
ATOM     66  F   UNL A   1      45.466  29.463  34.458  1.00  0.00    -0.206 F 
ATOM     67  C   UNL A   1      45.973  27.623  35.826  1.00  0.00     0.059 A 
ATOM     68  C   UNL A   1      44.174  26.364  36.867  1.00  0.00     0.059 A 
ATOM     69  F   UNL A   1      41.945  26.993  36.491  1.00  0.00    -0.206 F 
ATOM     70  C   UNL A   1      45.533  26.561  36.616  1.00  0.00     0.060 A 
BRANCH  70  71
ATOM     71  S   UNL A   1      46.733  25.413  37.324  1.00  0.00     0.124 S 
ATOM     72  O   UNL A   1      46.025  24.957  38.517  1.00  0.00    -0.237 OA
ATOM     73  O   UNL A   1      46.899  24.416  36.270  1.00  0.00    -0.237 OA
ATOM     74  O   UNL A   1      47.895  26.262  37.564  1.00  0.00    -0.744 OA
ENDBRANCH  70  71
ENDBRANCH  49  63
BRANCH  50  75
ATOM     75  C   UNL A   1      36.447  33.278  30.769  1.00  0.00     0.058 A 
ATOM     76  C   UNL A   1      35.146  33.184  31.279  1.00  0.00     0.135 A 
ATOM     77  C   UNL A   1      36.666  34.095  29.651  1.00  0.00     0.135 A 
ATOM     78  F   UNL A   1      34.899  32.413  32.348  1.00  0.00    -0.206 F 
ATOM     79  C   UNL A   1      34.091  33.886  30.706  1.00  0.00     0.059 A 
ATOM     80  C   UNL A   1      35.628  34.811  29.066  1.00  0.00     0.059 A 
ATOM     81  F   UNL A   1      37.901  34.222  29.143  1.00  0.00    -0.206 F 
ATOM     82  C   UNL A   1      34.344  34.699  29.601  1.00  0.00     0.060 A 
BRANCH  82  83
ATOM     83  S   UNL A   1      33.002  35.690  28.905  1.00  0.00     0.124 S 
ATOM     84  O   UNL A   1      33.742  36.758  28.241  1.00  0.00    -0.237 OA
ATOM     85  O   UNL A   1      32.324  34.743  28.026  1.00  0.00    -0.237 OA
ATOM     86  O   UNL A   1      32.244  36.082  30.090  1.00  0.00    -0.744 OA
ENDBRANCH  82  83
ENDBRANCH  50  75
BRANCH  62  87
ATOM     87  C   UNL A   1      39.832  34.268  36.763  1.00  0.00     0.058 A 
ATOM     88  C   UNL A   1      39.005  34.082  37.880  1.00  0.00     0.135 A 
ATOM     89  C   UNL A   1      40.574  35.453  36.674  1.00  0.00     0.135 A 
ATOM     90  F   UNL A   1      38.274  32.964  38.001  1.00  0.00    -0.206 F 
ATOM     91  C   UNL A   1      38.908  35.048  38.876  1.00  0.00     0.059 A 
ATOM     92  C   UNL A   1      40.496  36.431  37.660  1.00  0.00     0.059 A 
ATOM     93  F   UNL A   1      41.376  35.672  35.619  1.00  0.00    -0.206 F 
ATOM     94  C   UNL A   1      39.653  36.223  38.754  1.00  0.00     0.060 A 
BRANCH  94  95
ATOM     95  S   UNL A   1      39.555  37.475  40.052  1.00  0.00     0.124 S 
ATOM     96  O   UNL A   1      38.545  38.379  39.511  1.00  0.00    -0.237 OA
ATOM     97  O   UNL A   1      39.150  36.701  41.222  1.00  0.00    -0.237 OA
ATOM     98  O   UNL A   1      40.915  38.004  40.101  1.00  0.00    -0.744 OA
ENDBRANCH  94  95
ENDBRANCH  62  87
ENDBRANCH  36  37
ENDBRANCH  28  31
ENDBRANCH  26  27
ENDBRANCH  25  26
ENDBRANCH   1  25
TORSDOF 18
ENDMDL
MODEL 2
REMARK VINA RESULT:     -11.6      1.992      8.410
REMARK SMILES CCOC(=O)C1=NN(c2ccc(Cl)cc2F)[C@@H](C(=O)NCCCCNC(=O)c2ccc(-c3c4nc(c(-c5c(F)cc(S(=O)(=O)[O-])cc5F)c5ccc([nH]5)c(-c5c(F)cc(S(=O)(=O)[O-])cc5F)c5nc(c(-c6c(F)cc(S(=O)(=O)[O-])cc6F)c6ccc3[nH]6)C=C5)C=C4)cc2)C1
REMARK SMILES IDX 22 1 21 2 20 3 18 4 19 5 17 7 6 8 7 9 94 10 8 11 4 12 5 13
REMARK SMILES IDX 3 14 2 15 1 16 9 17 10 18 15 19 11 20 14 21 16 22 12 23
REMARK SMILES IDX 13 24 23 25 24 26 25 27 26 28 27 30 28 31 29 32 93 33 30 34
REMARK SMILES IDX 92 35 31 36 32 37 33 38 86 39 34 40 91 41 85 42 87 43 35 44
REMARK SMILES IDX 90 45 84 46 83 47 36 49 70 50 49 51 69 52 50 53 53 54 68 55
REMARK SMILES IDX 88 56 51 57 52 58 67 60 89 61 54 62 37 63 38 64 47 65 39 66
REMARK SMILES IDX 40 67 46 68 48 69 41 70 42 71 43 72 44 73 45 74 71 75 72 76
REMARK SMILES IDX 81 77 73 78 74 79 80 80 82 81 75 82 76 83 77 84 78 85 79 86
REMARK SMILES IDX 55 87 56 88 65 89 57 90 58 91 64 92 66 93 59 94 60 95 61 96
REMARK SMILES IDX 62 97 63 98
REMARK H PARENT 20 6 25 29 87 48 53 59
REMARK Flexibility Score: inf
ROOT
ATOM      1  C   UNL A   1      38.874  21.972  25.905  1.00  0.00     0.023 C 
ENDROOT
BRANCH   1   2
ATOM      2  C   UNL A   1      37.443  21.815  25.390  1.00  0.00     0.116 C 
BRANCH   2   3
ATOM      3  N   UNL A   1      36.473  22.026  26.442  1.00  0.00    -0.354 N 
ATOM      4  C   UNL A   1      35.134  22.280  26.345  1.00  0.00     0.245 C 
ATOM      5  O   UNL A   1      34.530  22.480  27.404  1.00  0.00    -0.273 OA
ATOM      6  H   UNL A   1      36.828  21.981  27.359  1.00  0.00     0.163 HD
BRANCH   4   7
ATOM      7  C   UNL A   1      34.398  22.245  24.979  1.00  0.00     0.203 C 
ATOM      8  C   UNL A   1      33.267  20.267  24.946  1.00  0.00     0.148 C 
ATOM      9  N   UNL A   1      32.360  21.119  25.319  1.00  0.00    -0.169 NA
ATOM     10  C   UNL A   1      34.523  20.839  24.380  1.00  0.00     0.103 C 
ATOM     11  N   UNL A   1      32.939  22.355  25.153  1.00  0.00    -0.249 N 
BRANCH   8  12
ATOM     12  C   UNL A   1      33.075  18.782  24.980  1.00  0.00     0.354 C 
ATOM     13  O   UNL A   1      32.089  18.271  25.480  1.00  0.00    -0.245 OA
BRANCH  12  14
ATOM     14  O   UNL A   1      34.106  18.193  24.348  1.00  0.00    -0.461 OA
BRANCH  14  15
ATOM     15  C   UNL A   1      33.982  16.784  24.125  1.00  0.00     0.230 C 
ATOM     16  C   UNL A   1      34.865  16.033  25.103  1.00  0.00     0.049 C 
ENDBRANCH  14  15
ENDBRANCH  12  14
ENDBRANCH   8  12
BRANCH  11  17
ATOM     17  C   UNL A   1      32.115  23.427  24.822  1.00  0.00     0.096 A 
ATOM     18  C   UNL A   1      31.238  23.310  23.724  1.00  0.00     0.032 A 
ATOM     19  C   UNL A   1      32.082  24.649  25.514  1.00  0.00     0.149 A 
ATOM     20  C   UNL A   1      30.356  24.335  23.365  1.00  0.00     0.023 A 
ATOM     21  C   UNL A   1      31.214  25.685  25.164  1.00  0.00     0.062 A 
ATOM     22  F   UNL A   1      32.909  24.875  26.545  1.00  0.00    -0.205 F 
ATOM     23  C   UNL A   1      30.348  25.520  24.091  1.00  0.00     0.044 A 
ATOM     24  Cl  UNL A   1      29.269  26.786  23.658  1.00  0.00    -0.084 Cl
ENDBRANCH  11  17
ENDBRANCH   4   7
ENDBRANCH   2   3
ENDBRANCH   1   2
BRANCH   1  25
ATOM     25  C   UNL A   1      39.116  23.207  26.778  1.00  0.00     0.023 C 
BRANCH  25  26
ATOM     26  C   UNL A   1      40.582  23.579  26.990  1.00  0.00     0.116 C 
BRANCH  26  27
ATOM     27  N   UNL A   1      41.094  24.479  25.970  1.00  0.00    -0.352 N 
ATOM     28  C   UNL A   1      41.366  25.823  26.061  1.00  0.00     0.251 C 
ATOM     29  H   UNL A   1      41.270  24.070  25.093  1.00  0.00     0.163 HD
ATOM     30  O   UNL A   1      41.695  26.448  25.057  1.00  0.00    -0.269 OA
BRANCH  28  31
ATOM     31  C   UNL A   1      41.222  26.525  27.356  1.00  0.00     0.039 A 
ATOM     32  C   UNL A   1      42.125  27.548  27.662  1.00  0.00     0.014 A 
ATOM     33  C   UNL A   1      40.216  26.181  28.263  1.00  0.00     0.014 A 
ATOM     34  C   UNL A   1      41.978  28.276  28.846  1.00  0.00     0.010 A 
ATOM     35  C   UNL A   1      40.049  26.928  29.427  1.00  0.00     0.010 A 
ATOM     36  C   UNL A   1      40.919  27.988  29.721  1.00  0.00    -0.014 A 
BRANCH  36  37
ATOM     37  C   UNL A   1      40.684  28.805  30.933  1.00  0.00     0.031 A 
ATOM     38  C   UNL A   1      39.577  29.815  30.965  1.00  0.00     0.074 A 
ATOM     39  C   UNL A   1      41.532  28.700  31.974  1.00  0.00     0.049 A 
ATOM     40  N   UNL A   1      39.315  30.722  31.870  1.00  0.00    -0.248 NA
ATOM     41  C   UNL A   1      38.659  29.823  29.815  1.00  0.00     0.031 C 
ATOM     42  C   UNL A   1      42.676  27.790  32.045  1.00  0.00     0.029 A 
ATOM     43  N   UNL A   1      41.572  29.382  33.162  1.00  0.00    -0.354 N 
ATOM     44  C   UNL A   1      38.241  31.449  31.376  1.00  0.00     0.074 A 
ATOM     45  C   UNL A   1      37.883  30.859  30.101  1.00  0.00     0.031 C 
ATOM     46  C   UNL A   1      43.308  27.971  33.218  1.00  0.00     0.029 A 
ATOM     47  C   UNL A   1      42.624  29.021  33.968  1.00  0.00     0.049 A 
ATOM     48  H   UNL A   1      40.912  30.068  33.414  1.00  0.00     0.167 HD
ATOM     49  C   UNL A   1      37.619  32.518  31.926  1.00  0.00     0.037 A 
ATOM     50  C   UNL A   1      43.001  29.489  35.172  1.00  0.00     0.037 A 
ATOM     51  C   UNL A   1      37.937  33.076  33.213  1.00  0.00     0.049 A 
ATOM     52  C   UNL A   1      42.213  30.584  35.823  1.00  0.00     0.074 A 
ATOM     53  C   UNL A   1      37.342  34.140  33.867  1.00  0.00     0.029 A 
ATOM     54  N   UNL A   1      38.932  32.598  34.052  1.00  0.00    -0.354 N 
ATOM     55  N   UNL A   1      41.194  31.256  35.345  1.00  0.00    -0.248 NA
ATOM     56  C   UNL A   1      42.622  30.984  37.176  1.00  0.00     0.031 C 
ATOM     57  C   UNL A   1      37.974  34.302  35.107  1.00  0.00     0.029 A 
ATOM     58  C   UNL A   1      38.960  33.336  35.223  1.00  0.00     0.049 A 
ATOM     59  H   UNL A   1      39.532  31.845  33.844  1.00  0.00     0.167 HD
ATOM     60  C   UNL A   1      40.839  32.161  36.336  1.00  0.00     0.074 A 
ATOM     61  C   UNL A   1      41.746  31.943  37.447  1.00  0.00     0.031 C 
ATOM     62  C   UNL A   1      39.858  33.095  36.323  1.00  0.00     0.037 A 
BRANCH  49  63
ATOM     63  C   UNL A   1      36.546  33.163  31.104  1.00  0.00     0.058 A 
ATOM     64  C   UNL A   1      36.856  34.041  30.056  1.00  0.00     0.135 A 
ATOM     65  C   UNL A   1      35.194  32.929  31.398  1.00  0.00     0.135 A 
ATOM     66  F   UNL A   1      38.135  34.308  29.754  1.00  0.00    -0.206 F 
ATOM     67  C   UNL A   1      35.856  34.694  29.342  1.00  0.00     0.059 A 
ATOM     68  C   UNL A   1      34.179  33.565  30.692  1.00  0.00     0.059 A 
ATOM     69  F   UNL A   1      34.853  32.105  32.400  1.00  0.00    -0.206 F 
ATOM     70  C   UNL A   1      34.522  34.462  29.679  1.00  0.00     0.060 A 
BRANCH  70  71
ATOM     71  S   UNL A   1      33.210  35.339  28.800  1.00  0.00     0.124 S 
ATOM     72  O   UNL A   1      32.488  35.960  29.908  1.00  0.00    -0.237 OA
ATOM     73  O   UNL A   1      33.947  36.256  27.936  1.00  0.00    -0.237 OA
ATOM     74  O   UNL A   1      32.505  34.265  28.110  1.00  0.00    -0.744 OA
ENDBRANCH  70  71
ENDBRANCH  49  63
BRANCH  50  75
ATOM     75  C   UNL A   1      44.186  28.900  35.836  1.00  0.00     0.058 A 
ATOM     76  C   UNL A   1      44.050  27.807  36.702  1.00  0.00     0.135 A 
ATOM     77  C   UNL A   1      45.476  29.377  35.566  1.00  0.00     0.135 A 
ATOM     78  F   UNL A   1      42.831  27.322  36.983  1.00  0.00    -0.206 F 
ATOM     79  C   UNL A   1      45.158  27.196  37.277  1.00  0.00     0.059 A 
ATOM     80  C   UNL A   1      46.599  28.779  36.125  1.00  0.00     0.059 A 
ATOM     81  F   UNL A   1      45.648  30.413  34.730  1.00  0.00    -0.206 F 
ATOM     82  C   UNL A   1      46.430  27.689  36.980  1.00  0.00     0.060 A 
BRANCH  82  83
ATOM     83  S   UNL A   1      47.884  26.847  37.645  1.00  0.00     0.124 S 
ATOM     84  O   UNL A   1      48.193  27.672  38.807  1.00  0.00    -0.237 OA
ATOM     85  O   UNL A   1      47.378  25.507  37.930  1.00  0.00    -0.237 OA
ATOM     86  O   UNL A   1      48.835  26.923  36.538  1.00  0.00    -0.744 OA
ENDBRANCH  82  83
ENDBRANCH  50  75
BRANCH  62  87
ATOM     87  C   UNL A   1      39.711  33.940  37.550  1.00  0.00     0.058 A 
ATOM     88  C   UNL A   1      38.864  33.550  38.597  1.00  0.00     0.135 A 
ATOM     89  C   UNL A   1      40.439  35.129  37.691  1.00  0.00     0.135 A 
ATOM     90  F   UNL A   1      38.146  32.421  38.501  1.00  0.00    -0.206 F 
ATOM     91  C   UNL A   1      38.733  34.322  39.747  1.00  0.00     0.059 A 
ATOM     92  C   UNL A   1      40.327  35.915  38.834  1.00  0.00     0.059 A 
ATOM     93  F   UNL A   1      41.259  35.541  36.711  1.00  0.00    -0.206 F 
ATOM     94  C   UNL A   1      39.464  35.506  39.854  1.00  0.00     0.060 A 
BRANCH  94  95
ATOM     95  S   UNL A   1      39.322  36.505  41.351  1.00  0.00     0.124 S 
ATOM     96  O   UNL A   1      40.612  36.263  41.988  1.00  0.00    -0.237 OA
ATOM     97  O   UNL A   1      39.118  37.853  40.827  1.00  0.00    -0.237 OA
ATOM     98  O   UNL A   1      38.165  35.924  42.026  1.00  0.00    -0.744 OA
ENDBRANCH  94  95
ENDBRANCH  62  87
ENDBRANCH  36  37
ENDBRANCH  28  31
ENDBRANCH  26  27
ENDBRANCH  25  26
ENDBRANCH   1  25
TORSDOF 18
ENDMDL
MODEL 3
REMARK VINA RESULT:     -11.4      2.700      9.020
REMARK SMILES CCOC(=O)C1=NN(c2ccc(Cl)cc2F)[C@@H](C(=O)NCCCCNC(=O)c2ccc(-c3c4nc(c(-c5c(F)cc(S(=O)(=O)[O-])cc5F)c5ccc([nH]5)c(-c5c(F)cc(S(=O)(=O)[O-])cc5F)c5nc(c(-c6c(F)cc(S(=O)(=O)[O-])cc6F)c6ccc3[nH]6)C=C5)C=C4)cc2)C1
REMARK SMILES IDX 22 1 21 2 20 3 18 4 19 5 17 7 6 8 7 9 94 10 8 11 4 12 5 13
REMARK SMILES IDX 3 14 2 15 1 16 9 17 10 18 15 19 11 20 14 21 16 22 12 23
REMARK SMILES IDX 13 24 23 25 24 26 25 27 26 28 27 30 28 31 29 32 93 33 30 34
REMARK SMILES IDX 92 35 31 36 32 37 33 38 86 39 34 40 91 41 85 42 87 43 35 44
REMARK SMILES IDX 90 45 84 46 83 47 36 49 70 50 49 51 69 52 50 53 53 54 68 55
REMARK SMILES IDX 88 56 51 57 52 58 67 60 89 61 54 62 37 63 38 64 47 65 39 66
REMARK SMILES IDX 40 67 46 68 48 69 41 70 42 71 43 72 44 73 45 74 71 75 72 76
REMARK SMILES IDX 81 77 73 78 74 79 80 80 82 81 75 82 76 83 77 84 78 85 79 86
REMARK SMILES IDX 55 87 56 88 65 89 57 90 58 91 64 92 66 93 59 94 60 95 61 96
REMARK SMILES IDX 62 97 63 98
REMARK H PARENT 20 6 25 29 87 48 53 59
REMARK Flexibility Score: inf
ROOT
ATOM      1  C   UNL A   1      39.610  22.035  26.245  1.00  0.00     0.023 C 
ENDROOT
BRANCH   1   2
ATOM      2  C   UNL A   1      38.241  22.709  26.153  1.00  0.00     0.116 C 
BRANCH   2   3
ATOM      3  N   UNL A   1      37.776  22.786  24.784  1.00  0.00    -0.354 N 
ATOM      4  C   UNL A   1      36.552  22.470  24.268  1.00  0.00     0.245 C 
ATOM      5  O   UNL A   1      36.425  22.573  23.043  1.00  0.00    -0.273 OA
ATOM      6  H   UNL A   1      38.438  23.113  24.132  1.00  0.00     0.163 HD
BRANCH   4   7
ATOM      7  C   UNL A   1      35.363  22.075  25.182  1.00  0.00     0.203 C 
ATOM      8  C   UNL A   1      33.571  23.241  24.393  1.00  0.00     0.148 C 
ATOM      9  N   UNL A   1      33.428  22.073  23.843  1.00  0.00    -0.169 NA
ATOM     10  C   UNL A   1      34.549  23.330  25.516  1.00  0.00     0.103 C 
ATOM     11  N   UNL A   1      34.366  21.273  24.450  1.00  0.00    -0.249 N 
BRANCH   8  12
ATOM     12  C   UNL A   1      32.759  24.441  24.016  1.00  0.00     0.354 C 
ATOM     13  O   UNL A   1      31.641  24.340  23.542  1.00  0.00    -0.245 OA
BRANCH  12  14
ATOM     14  O   UNL A   1      33.446  25.552  24.336  1.00  0.00    -0.461 OA
BRANCH  14  15
ATOM     15  C   UNL A   1      32.741  26.790  24.188  1.00  0.00     0.230 C 
ATOM     16  C   UNL A   1      32.938  27.324  22.782  1.00  0.00     0.049 C 
ENDBRANCH  14  15
ENDBRANCH  12  14
ENDBRANCH   8  12
BRANCH  11  17
ATOM     17  C   UNL A   1      34.075  19.920  24.603  1.00  0.00     0.096 A 
ATOM     18  C   UNL A   1      32.730  19.511  24.704  1.00  0.00     0.032 A 
ATOM     19  C   UNL A   1      35.040  18.901  24.664  1.00  0.00     0.149 A 
ATOM     20  C   UNL A   1      32.371  18.163  24.818  1.00  0.00     0.023 A 
ATOM     21  C   UNL A   1      34.698  17.552  24.785  1.00  0.00     0.062 A 
ATOM     22  F   UNL A   1      36.349  19.192  24.622  1.00  0.00    -0.205 F 
ATOM     23  C   UNL A   1      33.360  17.188  24.856  1.00  0.00     0.044 A 
ATOM     24  Cl  UNL A   1      32.929  15.530  24.997  1.00  0.00    -0.084 Cl
ENDBRANCH  11  17
ENDBRANCH   4   7
ENDBRANCH   2   3
ENDBRANCH   1   2
BRANCH   1  25
ATOM     25  C   UNL A   1      40.415  22.374  27.502  1.00  0.00     0.023 C 
BRANCH  25  26
ATOM     26  C   UNL A   1      41.687  23.186  27.263  1.00  0.00     0.116 C 
BRANCH  26  27
ATOM     27  N   UNL A   1      41.579  24.095  26.134  1.00  0.00    -0.352 N 
ATOM     28  C   UNL A   1      41.303  25.441  26.132  1.00  0.00     0.251 C 
ATOM     29  H   UNL A   1      41.721  23.689  25.249  1.00  0.00     0.163 HD
ATOM     30  O   UNL A   1      41.145  26.029  25.065  1.00  0.00    -0.269 OA
BRANCH  28  31
ATOM     31  C   UNL A   1      41.156  26.172  27.409  1.00  0.00     0.039 A 
ATOM     32  C   UNL A   1      42.145  27.095  27.765  1.00  0.00     0.014 A 
ATOM     33  C   UNL A   1      40.064  25.952  28.254  1.00  0.00     0.014 A 
ATOM     34  C   UNL A   1      42.004  27.851  28.932  1.00  0.00     0.010 A 
ATOM     35  C   UNL A   1      39.908  26.728  29.400  1.00  0.00     0.010 A 
ATOM     36  C   UNL A   1      40.868  27.692  29.740  1.00  0.00    -0.014 A 
BRANCH  36  37
ATOM     37  C   UNL A   1      40.648  28.547  30.929  1.00  0.00     0.031 A 
ATOM     38  C   UNL A   1      39.559  29.576  30.934  1.00  0.00     0.074 A 
ATOM     39  C   UNL A   1      41.495  28.457  31.972  1.00  0.00     0.049 A 
ATOM     40  N   UNL A   1      39.313  30.512  31.813  1.00  0.00    -0.248 NA
ATOM     41  C   UNL A   1      38.640  29.567  29.785  1.00  0.00     0.031 C 
ATOM     42  C   UNL A   1      42.624  27.529  32.067  1.00  0.00     0.029 A 
ATOM     43  N   UNL A   1      41.549  29.171  33.140  1.00  0.00    -0.354 N 
ATOM     44  C   UNL A   1      38.251  31.243  31.299  1.00  0.00     0.074 A 
ATOM     45  C   UNL A   1      37.881  30.623  30.042  1.00  0.00     0.031 C 
ATOM     46  C   UNL A   1      43.260  27.732  33.234  1.00  0.00     0.029 A 
ATOM     47  C   UNL A   1      42.595  28.814  33.955  1.00  0.00     0.049 A 
ATOM     48  H   UNL A   1      40.900  29.874  33.373  1.00  0.00     0.167 HD
ATOM     49  C   UNL A   1      37.648  32.337  31.820  1.00  0.00     0.037 A 
ATOM     50  C   UNL A   1      42.982  29.309  35.145  1.00  0.00     0.037 A 
ATOM     51  C   UNL A   1      37.977  32.926  33.090  1.00  0.00     0.049 A 
ATOM     52  C   UNL A   1      42.213  30.436  35.766  1.00  0.00     0.074 A 
ATOM     53  C   UNL A   1      37.401  34.018  33.714  1.00  0.00     0.029 A 
ATOM     54  N   UNL A   1      38.965  32.455  33.941  1.00  0.00    -0.354 N 
ATOM     55  N   UNL A   1      41.205  31.111  35.270  1.00  0.00    -0.248 NA
ATOM     56  C   UNL A   1      42.631  30.866  37.107  1.00  0.00     0.031 C 
ATOM     57  C   UNL A   1      38.037  34.204  34.949  1.00  0.00     0.029 A 
ATOM     58  C   UNL A   1      39.007  33.225  35.091  1.00  0.00     0.049 A 
ATOM     59  H   UNL A   1      39.551  31.687  33.755  1.00  0.00     0.167 HD
ATOM     60  C   UNL A   1      40.867  32.049  36.236  1.00  0.00     0.074 A 
ATOM     61  C   UNL A   1      41.771  31.847  37.352  1.00  0.00     0.031 C 
ATOM     62  C   UNL A   1      39.902  32.999  36.197  1.00  0.00     0.037 A 
BRANCH  49  63
ATOM     63  C   UNL A   1      36.586  32.977  30.980  1.00  0.00     0.058 A 
ATOM     64  C   UNL A   1      36.908  33.777  29.875  1.00  0.00     0.135 A 
ATOM     65  C   UNL A   1      35.232  32.820  31.314  1.00  0.00     0.135 A 
ATOM     66  F   UNL A   1      38.191  33.970  29.532  1.00  0.00    -0.206 F 
ATOM     67  C   UNL A   1      35.921  34.428  29.142  1.00  0.00     0.059 A 
ATOM     68  C   UNL A   1      34.229  33.456  30.591  1.00  0.00     0.059 A 
ATOM     69  F   UNL A   1      34.878  32.074  32.372  1.00  0.00    -0.206 F 
ATOM     70  C   UNL A   1      34.586  34.275  29.518  1.00  0.00     0.060 A 
BRANCH  70  71
ATOM     71  S   UNL A   1      33.293  35.152  28.613  1.00  0.00     0.124 S 
ATOM     72  O   UNL A   1      32.622  34.050  27.930  1.00  0.00    -0.237 OA
ATOM     73  O   UNL A   1      32.525  35.796  29.676  1.00  0.00    -0.237 OA
ATOM     74  O   UNL A   1      34.051  36.059  27.758  1.00  0.00    -0.744 OA
ENDBRANCH  70  71
ENDBRANCH  49  63
BRANCH  50  75
ATOM     75  C   UNL A   1      44.157  28.719  35.825  1.00  0.00     0.058 A 
ATOM     76  C   UNL A   1      45.434  29.270  35.651  1.00  0.00     0.135 A 
ATOM     77  C   UNL A   1      44.014  27.640  36.707  1.00  0.00     0.135 A 
ATOM     78  F   UNL A   1      45.609  30.305  34.815  1.00  0.00    -0.206 F 
ATOM     79  C   UNL A   1      46.536  28.775  36.337  1.00  0.00     0.059 A 
ATOM     80  C   UNL A   1      45.101  27.131  37.409  1.00  0.00     0.059 A 
ATOM     81  F   UNL A   1      42.805  27.094  36.912  1.00  0.00    -0.206 F 
ATOM     82  C   UNL A   1      46.358  27.705  37.217  1.00  0.00     0.060 A 
BRANCH  82  83
ATOM     83  S   UNL A   1      47.764  27.113  38.187  1.00  0.00     0.124 S 
ATOM     84  O   UNL A   1      48.411  28.366  38.558  1.00  0.00    -0.237 OA
ATOM     85  O   UNL A   1      47.120  26.381  39.273  1.00  0.00    -0.237 OA
ATOM     86  O   UNL A   1      48.488  26.281  37.229  1.00  0.00    -0.744 OA
ENDBRANCH  82  83
ENDBRANCH  50  75
BRANCH  62  87
ATOM     87  C   UNL A   1      39.771  33.880  37.400  1.00  0.00     0.058 A 
ATOM     88  C   UNL A   1      40.429  35.117  37.464  1.00  0.00     0.135 A 
ATOM     89  C   UNL A   1      38.966  33.499  38.482  1.00  0.00     0.135 A 
ATOM     90  F   UNL A   1      41.214  35.518  36.453  1.00  0.00    -0.206 F 
ATOM     91  C   UNL A   1      40.301  35.948  38.573  1.00  0.00     0.059 A 
ATOM     92  C   UNL A   1      38.819  34.316  39.599  1.00  0.00     0.059 A 
ATOM     93  F   UNL A   1      38.320  32.322  38.463  1.00  0.00    -0.206 F 
ATOM     94  C   UNL A   1      39.499  35.535  39.638  1.00  0.00     0.060 A 
BRANCH  94  95
ATOM     95  S   UNL A   1      39.304  36.615  41.072  1.00  0.00     0.124 S 
ATOM     96  O   UNL A   1      38.341  35.867  41.874  1.00  0.00    -0.237 OA
ATOM     97  O   UNL A   1      40.658  36.687  41.614  1.00  0.00    -0.237 OA
ATOM     98  O   UNL A   1      38.808  37.857  40.484  1.00  0.00    -0.744 OA
ENDBRANCH  94  95
ENDBRANCH  62  87
ENDBRANCH  36  37
ENDBRANCH  28  31
ENDBRANCH  26  27
ENDBRANCH  25  26
ENDBRANCH   1  25
TORSDOF 18
ENDMDL
