MODEL 1
REMARK VINA RESULT:     -12.8      0.000      0.000
REMARK SMILES COc1cc(C)cc2c1O[C@H](C(F)(F)F)C(C(=O)NCCCCNC(=O)c1ccc(-c3c4nc(c(-c5c(F)cc(S(=O)(=O)[O-])cc5F)c5ccc([nH]5)c(-c5c(F)cc(S(=O)(=O)[O-])cc5F)c5nc(c(-c6c(F)cc(S(=O)(=O)[O-])cc6F)c6ccc3[nH]6)C=C5)C=C4)cc1)=C2
REMARK SMILES IDX 22 1 21 2 20 3 19 4 17 5 18 6 16 8 3 9 4 10 9 11 5 12 8 13
REMARK SMILES IDX 10 14 6 15 7 16 93 17 11 18 2 19 1 20 12 21 13 22 14 23
REMARK SMILES IDX 15 24 23 25 24 26 25 27 26 29 27 30 28 31 92 32 29 33 91 34
REMARK SMILES IDX 30 35 31 36 32 37 85 38 33 39 90 40 84 41 86 42 34 43 89 44
REMARK SMILES IDX 83 45 82 46 35 48 69 49 48 50 68 51 49 52 52 53 67 54 87 55
REMARK SMILES IDX 50 56 51 57 66 59 88 60 53 61 36 62 37 63 46 64 38 65 39 66
REMARK SMILES IDX 45 67 47 68 40 69 41 70 42 71 43 72 44 73 70 74 71 75 80 76
REMARK SMILES IDX 72 77 73 78 79 79 81 80 74 81 75 82 76 83 77 84 78 85 54 86
REMARK SMILES IDX 55 87 64 88 56 89 57 90 63 91 65 92 58 93 59 94 60 95 61 96
REMARK SMILES IDX 62 97
REMARK H PARENT 19 7 24 28 86 47 52 58
REMARK Flexibility Score: inf
ROOT
ATOM      1  C   UNL A   1      39.938  22.118  26.525  1.00  0.00     0.023 C 
ENDROOT
BRANCH   1   2
ATOM      2  C   UNL A   1      38.575  22.681  26.108  1.00  0.00     0.023 C 
BRANCH   2   3
ATOM      3  C   UNL A   1      37.664  21.681  25.400  1.00  0.00     0.116 C 
BRANCH   3   4
ATOM      4  N   UNL A   1      36.401  21.498  26.096  1.00  0.00    -0.352 N 
ATOM      5  C   UNL A   1      35.159  22.035  26.044  1.00  0.00     0.251 C 
ATOM      6  O   UNL A   1      34.349  21.564  26.850  1.00  0.00    -0.270 OA
ATOM      7  H   UNL A   1      36.467  20.801  26.787  1.00  0.00     0.163 HD
BRANCH   5   8
ATOM      8  C   UNL A   1      34.719  23.116  25.112  1.00  0.00     0.067 C 
ATOM      9  C   UNL A   1      33.659  26.342  22.640  1.00  0.00     0.161 A 
ATOM     10  C   UNL A   1      33.239  27.547  23.208  1.00  0.00     0.054 A 
ATOM     11  C   UNL A   1      34.064  25.281  23.454  1.00  0.00     0.169 A 
ATOM     12  C   UNL A   1      33.267  27.715  24.597  1.00  0.00    -0.047 A 
ATOM     13  C   UNL A   1      34.094  25.435  24.840  1.00  0.00     0.021 A 
ATOM     14  O   UNL A   1      34.481  24.127  22.848  1.00  0.00    -0.471 OA
ATOM     15  C   UNL A   1      32.828  29.004  25.227  1.00  0.00     0.044 C 
ATOM     16  C   UNL A   1      33.701  26.653  25.408  1.00  0.00     0.015 A 
ATOM     17  C   UNL A   1      34.564  24.332  25.670  1.00  0.00     0.025 C 
ATOM     18  C   UNL A   1      34.407  22.919  23.655  1.00  0.00     0.314 C 
BRANCH   9  19
ATOM     19  O   UNL A   1      33.596  26.158  21.283  1.00  0.00    -0.493 OA
ATOM     20  C   UNL A   1      32.297  25.719  20.890  1.00  0.00     0.278 C 
ENDBRANCH   9  19
BRANCH  18  21
ATOM     21  C   UNL A   1      33.047  22.233  23.424  1.00  0.00     0.429 C 
ATOM     22  F   UNL A   1      33.116  20.917  23.749  1.00  0.00    -0.167 F 
ATOM     23  F   UNL A   1      32.066  22.763  24.192  1.00  0.00    -0.167 F 
ATOM     24  F   UNL A   1      32.628  22.314  22.143  1.00  0.00    -0.167 F 
ENDBRANCH  18  21
ENDBRANCH   5   8
ENDBRANCH   3   4
ENDBRANCH   2   3
ENDBRANCH   1   2
BRANCH   1  25
ATOM     25  C   UNL A   1      41.007  23.156  26.865  1.00  0.00     0.116 C 
BRANCH  25  26
ATOM     26  N   UNL A   1      41.206  24.175  25.842  1.00  0.00    -0.352 N 
ATOM     27  C   UNL A   1      41.325  25.538  26.023  1.00  0.00     0.251 C 
ATOM     28  H   UNL A   1      41.262  23.854  24.913  1.00  0.00     0.163 HD
ATOM     29  O   UNL A   1      41.422  26.290  25.059  1.00  0.00    -0.269 OA
BRANCH  27  30
ATOM     30  C   UNL A   1      41.267  26.077  27.397  1.00  0.00     0.039 A 
ATOM     31  C   UNL A   1      40.100  25.949  28.151  1.00  0.00     0.014 A 
ATOM     32  C   UNL A   1      42.350  26.814  27.883  1.00  0.00     0.014 A 
ATOM     33  C   UNL A   1      39.944  26.716  29.299  1.00  0.00     0.010 A 
ATOM     34  C   UNL A   1      42.217  27.526  29.077  1.00  0.00     0.010 A 
ATOM     35  C   UNL A   1      40.988  27.539  29.756  1.00  0.00    -0.014 A 
BRANCH  35  36
ATOM     36  C   UNL A   1      40.737  28.457  30.897  1.00  0.00     0.031 A 
ATOM     37  C   UNL A   1      41.655  28.455  32.093  1.00  0.00     0.074 A 
ATOM     38  C   UNL A   1      39.742  29.361  30.812  1.00  0.00     0.049 A 
ATOM     39  N   UNL A   1      41.633  29.229  33.149  1.00  0.00    -0.248 NA
ATOM     40  C   UNL A   1      42.738  27.458  32.108  1.00  0.00     0.031 C 
ATOM     41  C   UNL A   1      38.802  29.475  29.696  1.00  0.00     0.029 A 
ATOM     42  N   UNL A   1      39.383  30.381  31.656  1.00  0.00    -0.354 N 
ATOM     43  C   UNL A   1      42.681  28.802  33.957  1.00  0.00     0.074 A 
ATOM     44  C   UNL A   1      43.305  27.684  33.285  1.00  0.00     0.031 C 
ATOM     45  C   UNL A   1      38.017  30.546  29.892  1.00  0.00     0.029 A 
ATOM     46  C   UNL A   1      38.363  31.163  31.169  1.00  0.00     0.049 A 
ATOM     47  H   UNL A   1      39.815  30.538  32.528  1.00  0.00     0.167 HD
ATOM     48  C   UNL A   1      43.096  29.305  35.144  1.00  0.00     0.037 A 
ATOM     49  C   UNL A   1      37.773  32.255  31.691  1.00  0.00     0.037 A 
ATOM     50  C   UNL A   1      42.500  30.442  35.795  1.00  0.00     0.049 A 
ATOM     51  C   UNL A   1      38.227  32.771  33.025  1.00  0.00     0.074 A 
ATOM     52  C   UNL A   1      42.873  31.045  36.984  1.00  0.00     0.029 A 
ATOM     53  N   UNL A   1      41.411  31.149  35.311  1.00  0.00    -0.354 N 
ATOM     54  N   UNL A   1      39.213  32.347  33.778  1.00  0.00    -0.248 NA
ATOM     55  C   UNL A   1      37.473  33.897  33.593  1.00  0.00     0.031 C 
ATOM     56  C   UNL A   1      41.989  32.101  37.234  1.00  0.00     0.029 A 
ATOM     57  C   UNL A   1      41.083  32.170  36.187  1.00  0.00     0.049 A 
ATOM     58  H   UNL A   1      40.940  30.955  34.469  1.00  0.00     0.167 HD
ATOM     59  C   UNL A   1      39.191  33.147  34.913  1.00  0.00     0.074 A 
ATOM     60  C   UNL A   1      38.112  34.097  34.738  1.00  0.00     0.031 C 
ATOM     61  C   UNL A   1      39.990  33.092  36.007  1.00  0.00     0.037 A 
BRANCH  48  62
ATOM     62  C   UNL A   1      44.252  28.628  35.823  1.00  0.00     0.058 A 
ATOM     63  C   UNL A   1      44.055  27.571  36.726  1.00  0.00     0.135 A 
ATOM     64  C   UNL A   1      45.571  29.011  35.537  1.00  0.00     0.135 A 
ATOM     65  F   UNL A   1      42.813  27.179  37.047  1.00  0.00    -0.206 F 
ATOM     66  C   UNL A   1      45.128  26.929  37.335  1.00  0.00     0.059 A 
ATOM     67  C   UNL A   1      46.661  28.371  36.121  1.00  0.00     0.059 A 
ATOM     68  F   UNL A   1      45.812  30.019  34.682  1.00  0.00    -0.206 F 
ATOM     69  C   UNL A   1      46.428  27.338  37.028  1.00  0.00     0.060 A 
BRANCH  69  70
ATOM     70  S   UNL A   1      47.810  26.495  37.827  1.00  0.00     0.124 S 
ATOM     71  O   UNL A   1      48.368  25.734  36.713  1.00  0.00    -0.237 OA
ATOM     72  O   UNL A   1      48.626  27.608  38.303  1.00  0.00    -0.237 OA
ATOM     73  O   UNL A   1      47.167  25.701  38.870  1.00  0.00    -0.744 OA
ENDBRANCH  69  70
ENDBRANCH  48  62
BRANCH  49  74
ATOM     74  C   UNL A   1      36.685  32.925  30.937  1.00  0.00     0.058 A 
ATOM     75  C   UNL A   1      35.346  32.778  31.326  1.00  0.00     0.135 A 
ATOM     76  C   UNL A   1      36.967  33.766  29.850  1.00  0.00     0.135 A 
ATOM     77  F   UNL A   1      35.030  31.978  32.355  1.00  0.00    -0.206 F 
ATOM     78  C   UNL A   1      34.322  33.449  30.667  1.00  0.00     0.059 A 
ATOM     79  C   UNL A   1      35.962  34.463  29.188  1.00  0.00     0.059 A 
ATOM     80  F   UNL A   1      38.236  33.946  29.452  1.00  0.00    -0.206 F 
ATOM     81  C   UNL A   1      34.641  34.294  29.602  1.00  0.00     0.060 A 
BRANCH  81  82
ATOM     82  S   UNL A   1      33.316  35.228  28.805  1.00  0.00     0.124 S 
ATOM     83  O   UNL A   1      34.070  36.245  28.080  1.00  0.00    -0.237 OA
ATOM     84  O   UNL A   1      32.667  34.209  27.988  1.00  0.00    -0.237 OA
ATOM     85  O   UNL A   1      32.525  35.712  29.933  1.00  0.00    -0.744 OA
ENDBRANCH  81  82
ENDBRANCH  49  74
BRANCH  61  86
ATOM     86  C   UNL A   1      39.709  34.060  37.116  1.00  0.00     0.058 A 
ATOM     87  C   UNL A   1      38.953  33.676  38.233  1.00  0.00     0.135 A 
ATOM     88  C   UNL A   1      40.258  35.352  37.101  1.00  0.00     0.135 A 
ATOM     89  F   UNL A   1      38.401  32.454  38.288  1.00  0.00    -0.206 F 
ATOM     90  C   UNL A   1      38.748  34.542  39.302  1.00  0.00     0.059 A 
ATOM     91  C   UNL A   1      40.079  36.229  38.167  1.00  0.00     0.059 A 
ATOM     92  F   UNL A   1      40.994  35.761  36.056  1.00  0.00    -0.206 F 
ATOM     93  C   UNL A   1      39.319  35.815  39.262  1.00  0.00     0.060 A 
BRANCH  93  94
ATOM     94  S   UNL A   1      39.094  36.908  40.681  1.00  0.00     0.124 S 
ATOM     95  O   UNL A   1      38.263  37.963  40.111  1.00  0.00    -0.237 OA
ATOM     96  O   UNL A   1      38.436  36.034  41.648  1.00  0.00    -0.237 OA
ATOM     97  O   UNL A   1      40.458  37.299  41.027  1.00  0.00    -0.744 OA
ENDBRANCH  93  94
ENDBRANCH  61  86
ENDBRANCH  35  36
ENDBRANCH  27  30
ENDBRANCH  25  26
ENDBRANCH   1  25
TORSDOF 16
ENDMDL
MODEL 2
REMARK VINA RESULT:     -12.5      6.683     11.756
REMARK SMILES COc1cc(C)cc2c1O[C@H](C(F)(F)F)C(C(=O)NCCCCNC(=O)c1ccc(-c3c4nc(c(-c5c(F)cc(S(=O)(=O)[O-])cc5F)c5ccc([nH]5)c(-c5c(F)cc(S(=O)(=O)[O-])cc5F)c5nc(c(-c6c(F)cc(S(=O)(=O)[O-])cc6F)c6ccc3[nH]6)C=C5)C=C4)cc1)=C2
REMARK SMILES IDX 22 1 21 2 20 3 19 4 17 5 18 6 16 8 3 9 4 10 9 11 5 12 8 13
REMARK SMILES IDX 10 14 6 15 7 16 93 17 11 18 2 19 1 20 12 21 13 22 14 23
REMARK SMILES IDX 15 24 23 25 24 26 25 27 26 29 27 30 28 31 92 32 29 33 91 34
REMARK SMILES IDX 30 35 31 36 32 37 85 38 33 39 90 40 84 41 86 42 34 43 89 44
REMARK SMILES IDX 83 45 82 46 35 48 69 49 48 50 68 51 49 52 52 53 67 54 87 55
REMARK SMILES IDX 50 56 51 57 66 59 88 60 53 61 36 62 37 63 46 64 38 65 39 66
REMARK SMILES IDX 45 67 47 68 40 69 41 70 42 71 43 72 44 73 70 74 71 75 80 76
REMARK SMILES IDX 72 77 73 78 79 79 81 80 74 81 75 82 76 83 77 84 78 85 54 86
REMARK SMILES IDX 55 87 64 88 56 89 57 90 63 91 65 92 58 93 59 94 60 95 61 96
REMARK SMILES IDX 62 97
REMARK H PARENT 19 7 24 28 86 47 52 58
REMARK Flexibility Score: inf
ROOT
ATOM      1  C   UNL A   1      35.497  31.998  27.834  1.00  0.00     0.023 C 
ENDROOT
BRANCH   1   2
ATOM      2  C   UNL A   1      34.166  31.244  27.740  1.00  0.00     0.023 C 
BRANCH   2   3
ATOM      3  C   UNL A   1      34.287  29.797  27.271  1.00  0.00     0.116 C 
BRANCH   3   4
ATOM      4  N   UNL A   1      33.954  29.644  25.865  1.00  0.00    -0.352 N 
ATOM      5  C   UNL A   1      33.419  28.682  25.076  1.00  0.00     0.251 C 
ATOM      6  O   UNL A   1      33.304  28.984  23.884  1.00  0.00    -0.270 OA
ATOM      7  H   UNL A   1      34.176  30.453  25.351  1.00  0.00     0.163 HD
BRANCH   5   8
ATOM      8  C   UNL A   1      32.974  27.332  25.535  1.00  0.00     0.067 C 
ATOM      9  C   UNL A   1      31.988  23.503  26.955  1.00  0.00     0.161 A 
ATOM     10  C   UNL A   1      32.853  22.431  26.726  1.00  0.00     0.054 A 
ATOM     11  C   UNL A   1      32.332  24.790  26.532  1.00  0.00     0.169 A 
ATOM     12  C   UNL A   1      34.093  22.648  26.115  1.00  0.00    -0.047 A 
ATOM     13  C   UNL A   1      33.564  25.019  25.920  1.00  0.00     0.021 A 
ATOM     14  O   UNL A   1      31.456  25.809  26.794  1.00  0.00    -0.471 OA
ATOM     15  C   UNL A   1      35.041  21.511  25.868  1.00  0.00     0.044 C 
ATOM     16  C   UNL A   1      34.444  23.949  25.718  1.00  0.00     0.015 A 
ATOM     17  C   UNL A   1      33.924  26.377  25.529  1.00  0.00     0.025 C 
ATOM     18  C   UNL A   1      31.570  26.983  25.942  1.00  0.00     0.314 C 
BRANCH   9  19
ATOM     19  O   UNL A   1      30.755  23.291  27.516  1.00  0.00    -0.493 OA
ATOM     20  C   UNL A   1      29.908  22.570  26.623  1.00  0.00     0.278 C 
ENDBRANCH   9  19
BRANCH  18  21
ATOM     21  C   UNL A   1      30.620  26.834  24.737  1.00  0.00     0.429 C 
ATOM     22  F   UNL A   1      30.226  28.052  24.288  1.00  0.00    -0.167 F 
ATOM     23  F   UNL A   1      31.212  26.215  23.689  1.00  0.00    -0.167 F 
ATOM     24  F   UNL A   1      29.507  26.128  25.031  1.00  0.00    -0.167 F 
ENDBRANCH  18  21
ENDBRANCH   5   8
ENDBRANCH   3   4
ENDBRANCH   2   3
ENDBRANCH   1   2
BRANCH   1  25
ATOM     25  C   UNL A   1      36.002  32.276  29.250  1.00  0.00     0.116 C 
BRANCH  25  26
ATOM     26  N   UNL A   1      35.760  31.198  30.200  1.00  0.00    -0.352 N 
ATOM     27  C   UNL A   1      36.653  30.239  30.630  1.00  0.00     0.251 C 
ATOM     28  H   UNL A   1      34.853  31.148  30.579  1.00  0.00     0.163 HD
ATOM     29  O   UNL A   1      36.293  29.343  31.386  1.00  0.00    -0.269 OA
BRANCH  27  30
ATOM     30  C   UNL A   1      38.035  30.275  30.109  1.00  0.00     0.039 A 
ATOM     31  C   UNL A   1      38.295  29.914  28.786  1.00  0.00     0.014 A 
ATOM     32  C   UNL A   1      39.084  30.559  30.987  1.00  0.00     0.014 A 
ATOM     33  C   UNL A   1      39.602  29.650  28.397  1.00  0.00     0.010 A 
ATOM     34  C   UNL A   1      40.403  30.364  30.569  1.00  0.00     0.010 A 
ATOM     35  C   UNL A   1      40.667  29.840  29.295  1.00  0.00    -0.014 A 
BRANCH  35  36
ATOM     36  C   UNL A   1      42.032  29.406  28.897  1.00  0.00     0.031 A 
ATOM     37  C   UNL A   1      42.275  27.996  28.421  1.00  0.00     0.074 A 
ATOM     38  C   UNL A   1      43.030  30.310  28.867  1.00  0.00     0.049 A 
ATOM     39  N   UNL A   1      43.380  27.459  27.971  1.00  0.00    -0.248 NA
ATOM     40  C   UNL A   1      41.133  27.068  28.455  1.00  0.00     0.031 C 
ATOM     41  C   UNL A   1      42.912  31.708  29.282  1.00  0.00     0.029 A 
ATOM     42  N   UNL A   1      44.327  30.199  28.432  1.00  0.00    -0.354 N 
ATOM     43  C   UNL A   1      43.073  26.133  27.687  1.00  0.00     0.074 A 
ATOM     44  C   UNL A   1      41.683  25.937  28.039  1.00  0.00     0.031 C 
ATOM     45  C   UNL A   1      44.066  32.342  29.019  1.00  0.00     0.029 A 
ATOM     46  C   UNL A   1      45.020  31.385  28.468  1.00  0.00     0.049 A 
ATOM     47  H   UNL A   1      44.722  29.351  28.124  1.00  0.00     0.167 HD
ATOM     48  C   UNL A   1      43.869  25.170  27.164  1.00  0.00     0.037 A 
ATOM     49  C   UNL A   1      46.282  31.671  28.097  1.00  0.00     0.037 A 
ATOM     50  C   UNL A   1      45.240  25.374  26.778  1.00  0.00     0.049 A 
ATOM     51  C   UNL A   1      47.157  30.579  27.555  1.00  0.00     0.074 A 
ATOM     52  C   UNL A   1      46.118  24.467  26.209  1.00  0.00     0.029 A 
ATOM     53  N   UNL A   1      45.931  26.568  26.914  1.00  0.00    -0.354 N 
ATOM     54  N   UNL A   1      46.849  29.329  27.302  1.00  0.00    -0.248 NA
ATOM     55  C   UNL A   1      48.555  30.926  27.271  1.00  0.00     0.031 C 
ATOM     56  C   UNL A   1      47.350  25.106  26.029  1.00  0.00     0.029 A 
ATOM     57  C   UNL A   1      47.231  26.417  26.462  1.00  0.00     0.049 A 
ATOM     58  H   UNL A   1      45.553  27.401  27.279  1.00  0.00     0.167 HD
ATOM     59  C   UNL A   1      48.019  28.739  26.841  1.00  0.00     0.074 A 
ATOM     60  C   UNL A   1      49.033  29.772  26.824  1.00  0.00     0.031 C 
ATOM     61  C   UNL A   1      48.234  27.452  26.474  1.00  0.00     0.037 A 
BRANCH  48  62
ATOM     62  C   UNL A   1      43.280  23.801  26.982  1.00  0.00     0.058 A 
ATOM     63  C   UNL A   1      42.803  23.368  25.735  1.00  0.00     0.135 A 
ATOM     64  C   UNL A   1      43.232  22.897  28.054  1.00  0.00     0.135 A 
ATOM     65  F   UNL A   1      42.810  24.200  24.682  1.00  0.00    -0.206 F 
ATOM     66  C   UNL A   1      42.280  22.090  25.562  1.00  0.00     0.059 A 
ATOM     67  C   UNL A   1      42.729  21.607  27.900  1.00  0.00     0.059 A 
ATOM     68  F   UNL A   1      43.674  23.263  29.268  1.00  0.00    -0.206 F 
ATOM     69  C   UNL A   1      42.245  21.218  26.652  1.00  0.00     0.060 A 
BRANCH  69  70
ATOM     70  S   UNL A   1      41.564  19.563  26.411  1.00  0.00     0.124 S 
ATOM     71  O   UNL A   1      41.808  18.957  27.717  1.00  0.00    -0.237 OA
ATOM     72  O   UNL A   1      40.166  19.841  26.096  1.00  0.00    -0.237 OA
ATOM     73  O   UNL A   1      42.358  19.024  25.311  1.00  0.00    -0.744 OA
ENDBRANCH  69  70
ENDBRANCH  48  62
BRANCH  49  74
ATOM     74  C   UNL A   1      46.784  33.061  28.232  1.00  0.00     0.058 A 
ATOM     75  C   UNL A   1      46.625  33.985  27.191  1.00  0.00     0.135 A 
ATOM     76  C   UNL A   1      47.384  33.503  29.421  1.00  0.00     0.135 A 
ATOM     77  F   UNL A   1      46.064  33.604  26.033  1.00  0.00    -0.206 F 
ATOM     78  C   UNL A   1      47.036  35.307  27.326  1.00  0.00     0.059 A 
ATOM     79  C   UNL A   1      47.785  34.824  29.586  1.00  0.00     0.059 A 
ATOM     80  F   UNL A   1      47.545  32.656  30.448  1.00  0.00    -0.206 F 
ATOM     81  C   UNL A   1      47.610  35.719  28.531  1.00  0.00     0.060 A 
BRANCH  81  82
ATOM     82  S   UNL A   1      48.062  37.456  28.730  1.00  0.00     0.124 S 
ATOM     83  O   UNL A   1      48.082  37.588  30.182  1.00  0.00    -0.237 OA
ATOM     84  O   UNL A   1      49.360  37.516  28.065  1.00  0.00    -0.237 OA
ATOM     85  O   UNL A   1      46.984  38.162  28.045  1.00  0.00    -0.744 OA
ENDBRANCH  81  82
ENDBRANCH  49  74
BRANCH  61  86
ATOM     86  C   UNL A   1      49.623  27.077  26.054  1.00  0.00     0.058 A 
ATOM     87  C   UNL A   1      50.535  26.545  26.977  1.00  0.00     0.135 A 
ATOM     88  C   UNL A   1      50.022  27.176  24.712  1.00  0.00     0.135 A 
ATOM     89  F   UNL A   1      50.201  26.438  28.273  1.00  0.00    -0.206 F 
ATOM     90  C   UNL A   1      51.801  26.125  26.585  1.00  0.00     0.059 A 
ATOM     91  C   UNL A   1      51.279  26.747  24.295  1.00  0.00     0.059 A 
ATOM     92  F   UNL A   1      49.180  27.673  23.792  1.00  0.00    -0.206 F 
ATOM     93  C   UNL A   1      52.162  26.226  25.240  1.00  0.00     0.060 A 
BRANCH  93  94
ATOM     94  S   UNL A   1      53.787  25.623  24.734  1.00  0.00     0.124 S 
ATOM     95  O   UNL A   1      53.920  26.213  23.407  1.00  0.00    -0.237 OA
ATOM     96  O   UNL A   1      54.661  26.174  25.766  1.00  0.00    -0.237 OA
ATOM     97  O   UNL A   1      53.634  24.170  24.764  1.00  0.00    -0.744 OA
ENDBRANCH  93  94
ENDBRANCH  61  86
ENDBRANCH  35  36
ENDBRANCH  27  30
ENDBRANCH  25  26
ENDBRANCH   1  25
TORSDOF 16
ENDMDL
MODEL 3
REMARK VINA RESULT:     -12.5      5.113      9.926
REMARK SMILES COc1cc(C)cc2c1O[C@H](C(F)(F)F)C(C(=O)NCCCCNC(=O)c1ccc(-c3c4nc(c(-c5c(F)cc(S(=O)(=O)[O-])cc5F)c5ccc([nH]5)c(-c5c(F)cc(S(=O)(=O)[O-])cc5F)c5nc(c(-c6c(F)cc(S(=O)(=O)[O-])cc6F)c6ccc3[nH]6)C=C5)C=C4)cc1)=C2
REMARK SMILES IDX 22 1 21 2 20 3 19 4 17 5 18 6 16 8 3 9 4 10 9 11 5 12 8 13
REMARK SMILES IDX 10 14 6 15 7 16 93 17 11 18 2 19 1 20 12 21 13 22 14 23
REMARK SMILES IDX 15 24 23 25 24 26 25 27 26 29 27 30 28 31 92 32 29 33 91 34
REMARK SMILES IDX 30 35 31 36 32 37 85 38 33 39 90 40 84 41 86 42 34 43 89 44
REMARK SMILES IDX 83 45 82 46 35 48 69 49 48 50 68 51 49 52 52 53 67 54 87 55
REMARK SMILES IDX 50 56 51 57 66 59 88 60 53 61 36 62 37 63 46 64 38 65 39 66
REMARK SMILES IDX 45 67 47 68 40 69 41 70 42 71 43 72 44 73 70 74 71 75 80 76
REMARK SMILES IDX 72 77 73 78 79 79 81 80 74 81 75 82 76 83 77 84 78 85 54 86
REMARK SMILES IDX 55 87 64 88 56 89 57 90 63 91 65 92 58 93 59 94 60 95 61 96
REMARK SMILES IDX 62 97
REMARK H PARENT 19 7 24 28 86 47 52 58
REMARK Flexibility Score: inf
ROOT
ATOM      1  C   UNL A   1      32.861  28.926  25.835  1.00  0.00     0.023 C 
ENDROOT
BRANCH   1   2
ATOM      2  C   UNL A   1      33.273  27.825  24.853  1.00  0.00     0.023 C 
BRANCH   2   3
ATOM      3  C   UNL A   1      32.110  27.019  24.277  1.00  0.00     0.116 C 
BRANCH   3   4
ATOM      4  N   UNL A   1      31.358  26.325  25.307  1.00  0.00    -0.352 N 
ATOM      5  C   UNL A   1      31.428  25.135  25.949  1.00  0.00     0.251 C 
ATOM      6  O   UNL A   1      30.549  24.941  26.795  1.00  0.00    -0.270 OA
ATOM      7  H   UNL A   1      30.595  26.862  25.622  1.00  0.00     0.163 HD
BRANCH   5   8
ATOM      8  C   UNL A   1      32.461  24.081  25.712  1.00  0.00     0.067 C 
ATOM      9  C   UNL A   1      35.482  21.192  25.306  1.00  0.00     0.161 A 
ATOM     10  C   UNL A   1      36.819  21.551  25.492  1.00  0.00     0.054 A 
ATOM     11  C   UNL A   1      34.467  22.134  25.490  1.00  0.00     0.169 A 
ATOM     12  C   UNL A   1      37.146  22.846  25.911  1.00  0.00    -0.047 A 
ATOM     13  C   UNL A   1      34.780  23.428  25.906  1.00  0.00     0.021 A 
ATOM     14  O   UNL A   1      33.172  21.728  25.311  1.00  0.00    -0.471 OA
ATOM     15  C   UNL A   1      38.576  23.249  26.123  1.00  0.00     0.044 C 
ATOM     16  C   UNL A   1      36.119  23.779  26.120  1.00  0.00     0.015 A 
ATOM     17  C   UNL A   1      33.702  24.383  26.137  1.00  0.00     0.025 C 
ATOM     18  C   UNL A   1      32.210  22.777  25.009  1.00  0.00     0.314 C 
BRANCH   9  19
ATOM     19  O   UNL A   1      35.159  19.938  24.857  1.00  0.00    -0.493 OA
ATOM     20  C   UNL A   1      36.326  19.130  24.721  1.00  0.00     0.278 C 
ENDBRANCH   9  19
BRANCH  18  21
ATOM     21  C   UNL A   1      32.090  22.936  23.481  1.00  0.00     0.429 C 
ATOM     22  F   UNL A   1      32.253  21.738  22.864  1.00  0.00    -0.167 F 
ATOM     23  F   UNL A   1      30.874  23.395  23.105  1.00  0.00    -0.167 F 
ATOM     24  F   UNL A   1      33.006  23.786  22.968  1.00  0.00    -0.167 F 
ENDBRANCH  18  21
ENDBRANCH   5   8
ENDBRANCH   3   4
ENDBRANCH   2   3
ENDBRANCH   1   2
BRANCH   1  25
ATOM     25  C   UNL A   1      33.632  28.960  27.154  1.00  0.00     0.116 C 
BRANCH  25  26
ATOM     26  N   UNL A   1      33.624  30.254  27.825  1.00  0.00    -0.352 N 
ATOM     27  C   UNL A   1      34.658  30.850  28.517  1.00  0.00     0.251 C 
ATOM     28  H   UNL A   1      32.782  30.762  27.779  1.00  0.00     0.163 HD
ATOM     29  O   UNL A   1      34.490  31.919  29.094  1.00  0.00    -0.269 OA
BRANCH  27  30
ATOM     30  C   UNL A   1      35.952  30.141  28.604  1.00  0.00     0.039 A 
ATOM     31  C   UNL A   1      36.378  29.607  29.821  1.00  0.00     0.014 A 
ATOM     32  C   UNL A   1      36.789  30.119  27.486  1.00  0.00     0.014 A 
ATOM     33  C   UNL A   1      37.706  29.227  29.969  1.00  0.00     0.010 A 
ATOM     34  C   UNL A   1      38.103  29.666  27.620  1.00  0.00     0.010 A 
ATOM     35  C   UNL A   1      38.592  29.284  28.879  1.00  0.00    -0.014 A 
BRANCH  35  36
ATOM     36  C   UNL A   1      40.035  29.015  29.108  1.00  0.00     0.031 A 
ATOM     37  C   UNL A   1      40.636  27.692  28.706  1.00  0.00     0.074 A 
ATOM     38  C   UNL A   1      40.824  29.998  29.583  1.00  0.00     0.049 A 
ATOM     39  N   UNL A   1      41.885  27.303  28.765  1.00  0.00    -0.248 NA
ATOM     40  C   UNL A   1      39.721  26.673  28.168  1.00  0.00     0.031 C 
ATOM     41  C   UNL A   1      40.362  31.327  29.986  1.00  0.00     0.029 A 
ATOM     42  N   UNL A   1      42.183  30.046  29.768  1.00  0.00    -0.354 N 
ATOM     43  C   UNL A   1      41.901  25.995  28.293  1.00  0.00     0.074 A 
ATOM     44  C   UNL A   1      40.535  25.645  27.973  1.00  0.00     0.031 C 
ATOM     45  C   UNL A   1      41.425  32.081  30.307  1.00  0.00     0.029 A 
ATOM     46  C   UNL A   1      42.636  31.275  30.183  1.00  0.00     0.049 A 
ATOM     47  H   UNL A   1      42.776  29.274  29.618  1.00  0.00     0.167 HD
ATOM     48  C   UNL A   1      42.959  25.167  28.124  1.00  0.00     0.037 A 
ATOM     49  C   UNL A   1      43.887  31.707  30.434  1.00  0.00     0.037 A 
ATOM     50  C   UNL A   1      44.324  25.529  28.404  1.00  0.00     0.049 A 
ATOM     51  C   UNL A   1      45.039  30.759  30.275  1.00  0.00     0.074 A 
ATOM     52  C   UNL A   1      45.467  24.768  28.233  1.00  0.00     0.029 A 
ATOM     53  N   UNL A   1      44.729  26.754  28.908  1.00  0.00    -0.354 N 
ATOM     54  N   UNL A   1      45.032  29.523  29.835  1.00  0.00    -0.248 NA
ATOM     55  C   UNL A   1      46.365  31.253  30.668  1.00  0.00     0.031 C 
ATOM     56  C   UNL A   1      46.564  25.525  28.663  1.00  0.00     0.029 A 
ATOM     57  C   UNL A   1      46.104  26.765  29.077  1.00  0.00     0.049 A 
ATOM     58  H   UNL A   1      44.130  27.507  29.116  1.00  0.00     0.167 HD
ATOM     59  C   UNL A   1      46.349  29.089  29.910  1.00  0.00     0.074 A 
ATOM     60  C   UNL A   1      47.130  30.200  30.412  1.00  0.00     0.031 C 
ATOM     61  C   UNL A   1      46.862  27.873  29.600  1.00  0.00     0.037 A 
BRANCH  48  62
ATOM     62  C   UNL A   1      42.686  23.782  27.613  1.00  0.00     0.058 A 
ATOM     63  C   UNL A   1      42.620  23.506  26.238  1.00  0.00     0.135 A 
ATOM     64  C   UNL A   1      42.531  22.711  28.506  1.00  0.00     0.135 A 
ATOM     65  F   UNL A   1      42.745  24.498  25.343  1.00  0.00    -0.206 F 
ATOM     66  C   UNL A   1      42.392  22.217  25.767  1.00  0.00     0.059 A 
ATOM     67  C   UNL A   1      42.319  21.410  28.057  1.00  0.00     0.059 A 
ATOM     68  F   UNL A   1      42.583  22.922  29.831  1.00  0.00    -0.206 F 
ATOM     69  C   UNL A   1      42.239  21.176  26.685  1.00  0.00     0.060 A 
BRANCH  69  70
ATOM     70  S   UNL A   1      41.943  19.509  26.058  1.00  0.00     0.124 S 
ATOM     71  O   UNL A   1      42.282  18.697  27.223  1.00  0.00    -0.237 OA
ATOM     72  O   UNL A   1      40.527  19.551  25.708  1.00  0.00    -0.237 OA
ATOM     73  O   UNL A   1      42.863  19.401  24.929  1.00  0.00    -0.744 OA
ENDBRANCH  69  70
ENDBRANCH  48  62
BRANCH  49  74
ATOM     74  C   UNL A   1      44.101  33.110  30.864  1.00  0.00     0.058 A 
ATOM     75  C   UNL A   1      44.204  34.142  29.921  1.00  0.00     0.135 A 
ATOM     76  C   UNL A   1      44.154  33.452  32.224  1.00  0.00     0.135 A 
ATOM     77  F   UNL A   1      44.166  33.860  28.610  1.00  0.00    -0.206 F 
ATOM     78  C   UNL A   1      44.343  35.470  30.311  1.00  0.00     0.059 A 
ATOM     79  C   UNL A   1      44.273  34.774  32.639  1.00  0.00     0.059 A 
ATOM     80  F   UNL A   1      44.047  32.498  33.161  1.00  0.00    -0.206 F 
ATOM     81  C   UNL A   1      44.371  35.776  31.674  1.00  0.00     0.060 A 
BRANCH  81  82
ATOM     82  S   UNL A   1      44.467  37.509  32.173  1.00  0.00     0.124 S 
ATOM     83  O   UNL A   1      44.271  38.192  30.900  1.00  0.00    -0.237 OA
ATOM     84  O   UNL A   1      43.371  37.616  33.131  1.00  0.00    -0.237 OA
ATOM     85  O   UNL A   1      45.803  37.617  32.750  1.00  0.00    -0.744 OA
ENDBRANCH  81  82
ENDBRANCH  49  74
BRANCH  61  86
ATOM     86  C   UNL A   1      48.330  27.666  29.823  1.00  0.00     0.058 A 
ATOM     87  C   UNL A   1      48.800  27.048  30.991  1.00  0.00     0.135 A 
ATOM     88  C   UNL A   1      49.265  28.016  28.837  1.00  0.00     0.135 A 
ATOM     89  F   UNL A   1      47.944  26.704  31.965  1.00  0.00    -0.206 F 
ATOM     90  C   UNL A   1      50.152  26.784  31.177  1.00  0.00     0.059 A 
ATOM     91  C   UNL A   1      50.622  27.746  28.995  1.00  0.00     0.059 A 
ATOM     92  F   UNL A   1      48.861  28.603  27.700  1.00  0.00    -0.206 F 
ATOM     93  C   UNL A   1      51.055  27.132  30.171  1.00  0.00     0.060 A 
BRANCH  93  94
ATOM     94  S   UNL A   1      52.801  26.731  30.400  1.00  0.00     0.124 S 
ATOM     95  O   UNL A   1      53.163  26.229  29.079  1.00  0.00    -0.237 OA
ATOM     96  O   UNL A   1      53.374  28.023  30.768  1.00  0.00    -0.237 OA
ATOM     97  O   UNL A   1      52.782  25.735  31.468  1.00  0.00    -0.744 OA
ENDBRANCH  93  94
ENDBRANCH  61  86
ENDBRANCH  35  36
ENDBRANCH  27  30
ENDBRANCH  25  26
ENDBRANCH   1  25
TORSDOF 16
ENDMDL
