MODEL 1
REMARK VINA RESULT:     -11.3      0.000      0.000
REMARK SMILES CN(CCc1cccs1)C(=O)N[C@@H]1COC[C@H]1C(=O)NCCCCNC(=O)c1ccc(-c2c3nc(c(-c4c(F)cc(S(=O)(=O)[O-])cc4F)c4ccc([nH]4)c(-c4c(F)cc(S(=O)(=O)[O-])cc4F)c4nc(c(-c5c(F)cc(S(=O)(=O)[O-])cc5F)c5ccc2[nH]5)C=C4)C=C3)cc1
REMARK SMILES IDX 21 1 20 2 18 3 19 4 17 6 13 7 14 8 15 9 16 10 12 11 10 12
REMARK SMILES IDX 11 13 2 15 1 16 3 17 4 18 5 19 6 20 9 21 7 22 8 23 22 24
REMARK SMILES IDX 23 25 24 26 25 27 26 28 27 30 28 31 29 32 93 33 30 34 92 35
REMARK SMILES IDX 31 36 32 37 33 38 86 39 34 40 91 41 85 42 87 43 35 44 90 45
REMARK SMILES IDX 84 46 83 47 36 49 70 50 49 51 69 52 50 53 53 54 68 55 88 56
REMARK SMILES IDX 51 57 52 58 67 60 89 61 54 62 37 63 38 64 47 65 39 66 40 67
REMARK SMILES IDX 46 68 48 69 41 70 42 71 43 72 44 73 45 74 71 75 72 76 81 77
REMARK SMILES IDX 73 78 74 79 80 80 82 81 75 82 76 83 77 84 78 85 79 86 55 87
REMARK SMILES IDX 56 88 65 89 57 90 58 91 64 92 66 93 59 94 60 95 61 96 62 97
REMARK SMILES IDX 63 98
REMARK H PARENT 20 5 12 14 25 29 87 48 53 59
REMARK Flexibility Score: inf
ROOT
ATOM      1  C   UNL A   1      37.789  22.846  25.755  1.00  0.00     0.116 C 
ENDROOT
BRANCH   1   2
ATOM      2  N   UNL A   1      37.350  22.993  24.386  1.00  0.00    -0.356 N 
ATOM      3  C   UNL A   1      36.124  22.788  23.843  1.00  0.00     0.227 C 
ATOM      4  O   UNL A   1      35.950  23.114  22.666  1.00  0.00    -0.275 OA
ATOM      5  H   UNL A   1      38.044  23.286  23.753  1.00  0.00     0.163 HD
BRANCH   3   6
ATOM      6  C   UNL A   1      34.997  22.161  24.630  1.00  0.00     0.129 C 
ATOM      7  C   UNL A   1      33.669  22.208  23.901  1.00  0.00     0.124 C 
ATOM      8  C   UNL A   1      33.216  20.751  23.863  1.00  0.00     0.186 C 
ATOM      9  O   UNL A   1      34.105  19.948  24.647  1.00  0.00    -0.378 OA
ATOM     10  C   UNL A   1      35.210  20.740  25.088  1.00  0.00     0.176 C 
BRANCH   7  11
ATOM     11  N   UNL A   1      32.739  23.079  24.602  1.00  0.00    -0.332 N 
ATOM     12  C   UNL A   1      32.743  24.427  24.407  1.00  0.00     0.317 C 
ATOM     13  O   UNL A   1      32.523  24.882  23.289  1.00  0.00    -0.249 OA
ATOM     14  H   UNL A   1      32.092  22.686  25.231  1.00  0.00     0.165 HD
BRANCH  12  15
ATOM     15  N   UNL A   1      32.958  25.193  25.542  1.00  0.00    -0.328 N 
ATOM     16  C   UNL A   1      31.849  25.283  26.480  1.00  0.00     0.148 C 
BRANCH  15  17
ATOM     17  C   UNL A   1      33.976  26.245  25.660  1.00  0.00     0.126 C 
BRANCH  17  18
ATOM     18  C   UNL A   1      33.698  27.686  25.192  1.00  0.00     0.068 C 
BRANCH  18  19
ATOM     19  C   UNL A   1      33.863  28.832  26.149  1.00  0.00     0.006 A 
ATOM     20  C   UNL A   1      34.925  29.123  26.989  1.00  0.00     0.015 A 
ATOM     21  S   UNL A   1      32.659  30.056  26.229  1.00  0.00    -0.149 S 
ATOM     22  C   UNL A   1      34.711  30.314  27.746  1.00  0.00     0.012 A 
ATOM     23  C   UNL A   1      33.503  30.902  27.449  1.00  0.00     0.065 A 
ENDBRANCH  18  19
ENDBRANCH  17  18
ENDBRANCH  15  17
ENDBRANCH  12  15
ENDBRANCH   7  11
ENDBRANCH   3   6
ENDBRANCH   1   2
BRANCH   1  24
ATOM     24  C   UNL A   1      38.700  21.642  25.971  1.00  0.00     0.023 C 
BRANCH  24  25
ATOM     25  C   UNL A   1      39.955  21.925  26.787  1.00  0.00     0.023 C 
BRANCH  25  26
ATOM     26  C   UNL A   1      40.171  23.391  27.129  1.00  0.00     0.116 C 
BRANCH  26  27
ATOM     27  N   UNL A   1      40.724  24.177  26.033  1.00  0.00    -0.352 N 
ATOM     28  C   UNL A   1      41.277  25.434  26.095  1.00  0.00     0.251 C 
ATOM     29  H   UNL A   1      40.699  23.758  25.143  1.00  0.00     0.163 HD
ATOM     30  O   UNL A   1      41.712  25.985  25.099  1.00  0.00    -0.269 OA
BRANCH  28  31
ATOM     31  C   UNL A   1      41.253  26.115  27.400  1.00  0.00     0.039 A 
ATOM     32  C   UNL A   1      42.315  26.962  27.715  1.00  0.00     0.014 A 
ATOM     33  C   UNL A   1      40.115  26.044  28.206  1.00  0.00     0.014 A 
ATOM     34  C   UNL A   1      42.202  27.806  28.815  1.00  0.00     0.010 A 
ATOM     35  C   UNL A   1      39.975  26.940  29.257  1.00  0.00     0.010 A 
ATOM     36  C   UNL A   1      41.014  27.832  29.563  1.00  0.00    -0.014 A 
BRANCH  36  37
ATOM     37  C   UNL A   1      40.840  28.796  30.674  1.00  0.00     0.031 A 
ATOM     38  C   UNL A   1      41.702  28.679  31.896  1.00  0.00     0.074 A 
ATOM     39  C   UNL A   1      39.863  29.722  30.602  1.00  0.00     0.049 A 
ATOM     40  N   UNL A   1      41.670  29.385  32.995  1.00  0.00    -0.248 NA
ATOM     41  C   UNL A   1      42.713  27.609  31.898  1.00  0.00     0.031 C 
ATOM     42  C   UNL A   1      38.918  29.875  29.491  1.00  0.00     0.029 A 
ATOM     43  N   UNL A   1      39.494  30.703  31.484  1.00  0.00    -0.354 N 
ATOM     44  C   UNL A   1      42.635  28.830  33.825  1.00  0.00     0.074 A 
ATOM     45  C   UNL A   1      43.204  27.701  33.125  1.00  0.00     0.031 C 
ATOM     46  C   UNL A   1      38.090  30.899  29.754  1.00  0.00     0.029 A 
ATOM     47  C   UNL A   1      38.428  31.460  31.059  1.00  0.00     0.049 A 
ATOM     48  H   UNL A   1      39.950  30.852  32.345  1.00  0.00     0.167 HD
ATOM     49  C   UNL A   1      43.028  29.244  35.052  1.00  0.00     0.037 A 
ATOM     50  C   UNL A   1      37.794  32.486  31.657  1.00  0.00     0.037 A 
ATOM     51  C   UNL A   1      42.490  30.399  35.717  1.00  0.00     0.049 A 
ATOM     52  C   UNL A   1      38.286  32.959  32.997  1.00  0.00     0.074 A 
ATOM     53  C   UNL A   1      42.881  30.960  36.918  1.00  0.00     0.029 A 
ATOM     54  N   UNL A   1      41.446  31.173  35.231  1.00  0.00    -0.354 N 
ATOM     55  N   UNL A   1      39.262  32.477  33.732  1.00  0.00    -0.248 NA
ATOM     56  C   UNL A   1      37.602  34.117  33.588  1.00  0.00     0.031 C 
ATOM     57  C   UNL A   1      42.051  32.057  37.176  1.00  0.00     0.029 A 
ATOM     58  C   UNL A   1      41.168  32.199  36.118  1.00  0.00     0.049 A 
ATOM     59  H   UNL A   1      40.973  31.016  34.382  1.00  0.00     0.167 HD
ATOM     60  C   UNL A   1      39.319  33.284  34.862  1.00  0.00     0.074 A 
ATOM     61  C   UNL A   1      38.293  34.294  34.707  1.00  0.00     0.031 C 
ATOM     62  C   UNL A   1      40.144  33.196  35.935  1.00  0.00     0.037 A 
BRANCH  49  63
ATOM     63  C   UNL A   1      44.102  28.454  35.743  1.00  0.00     0.058 A 
ATOM     64  C   UNL A   1      43.792  27.389  36.604  1.00  0.00     0.135 A 
ATOM     65  C   UNL A   1      45.457  28.740  35.515  1.00  0.00     0.135 A 
ATOM     66  F   UNL A   1      42.512  27.089  36.873  1.00  0.00    -0.206 F 
ATOM     67  C   UNL A   1      44.786  26.647  37.231  1.00  0.00     0.059 A 
ATOM     68  C   UNL A   1      46.470  27.996  36.112  1.00  0.00     0.059 A 
ATOM     69  F   UNL A   1      45.807  29.753  34.707  1.00  0.00    -0.206 F 
ATOM     70  C   UNL A   1      46.124  26.958  36.978  1.00  0.00     0.060 A 
BRANCH  70  71
ATOM     71  S   UNL A   1      47.405  25.971  37.780  1.00  0.00     0.124 S 
ATOM     72  O   UNL A   1      47.178  26.290  39.186  1.00  0.00    -0.237 OA
ATOM     73  O   UNL A   1      47.054  24.614  37.374  1.00  0.00    -0.237 OA
ATOM     74  O   UNL A   1      48.643  26.492  37.209  1.00  0.00    -0.744 OA
ENDBRANCH  70  71
ENDBRANCH  49  63
BRANCH  50  75
ATOM     75  C   UNL A   1      36.645  33.150  30.986  1.00  0.00     0.058 A 
ATOM     76  C   UNL A   1      36.838  33.975  29.869  1.00  0.00     0.135 A 
ATOM     77  C   UNL A   1      35.332  32.970  31.448  1.00  0.00     0.135 A 
ATOM     78  F   UNL A   1      38.075  34.179  29.394  1.00  0.00    -0.206 F 
ATOM     79  C   UNL A   1      35.773  34.617  29.245  1.00  0.00     0.059 A 
ATOM     80  C   UNL A   1      34.248  33.585  30.826  1.00  0.00     0.059 A 
ATOM     81  F   UNL A   1      35.092  32.175  32.502  1.00  0.00    -0.206 F 
ATOM     82  C   UNL A   1      34.481  34.417  29.732  1.00  0.00     0.060 A 
BRANCH  82  83
ATOM     83  S   UNL A   1      33.100  35.226  28.895  1.00  0.00     0.124 S 
ATOM     84  O   UNL A   1      32.694  34.199  27.942  1.00  0.00    -0.237 OA
ATOM     85  O   UNL A   1      32.175  35.477  29.996  1.00  0.00    -0.237 OA
ATOM     86  O   UNL A   1      33.713  36.419  28.318  1.00  0.00    -0.744 OA
ENDBRANCH  82  83
ENDBRANCH  50  75
BRANCH  62  87
ATOM     87  C   UNL A   1      39.982  34.227  37.012  1.00  0.00     0.058 A 
ATOM     88  C   UNL A   1      40.686  35.440  36.975  1.00  0.00     0.135 A 
ATOM     89  C   UNL A   1      39.070  34.025  38.060  1.00  0.00     0.135 A 
ATOM     90  F   UNL A   1      41.572  35.677  35.995  1.00  0.00    -0.206 F 
ATOM     91  C   UNL A   1      40.504  36.413  37.951  1.00  0.00     0.059 A 
ATOM     92  C   UNL A   1      38.856  34.993  39.035  1.00  0.00     0.059 A 
ATOM     93  F   UNL A   1      38.366  32.885  38.133  1.00  0.00    -0.206 F 
ATOM     94  C   UNL A   1      39.586  36.180  38.977  1.00  0.00     0.060 A 
BRANCH  94  95
ATOM     95  S   UNL A   1      39.329  37.466  40.218  1.00  0.00     0.124 S 
ATOM     96  O   UNL A   1      38.280  38.266  39.597  1.00  0.00    -0.237 OA
ATOM     97  O   UNL A   1      38.930  36.697  41.392  1.00  0.00    -0.237 OA
ATOM     98  O   UNL A   1      40.637  38.108  40.313  1.00  0.00    -0.744 OA
ENDBRANCH  94  95
ENDBRANCH  62  87
ENDBRANCH  36  37
ENDBRANCH  28  31
ENDBRANCH  26  27
ENDBRANCH  25  26
ENDBRANCH  24  25
ENDBRANCH   1  24
TORSDOF 19
ENDMDL
MODEL 2
REMARK VINA RESULT:     -11.2      4.831     10.613
REMARK SMILES CN(CCc1cccs1)C(=O)N[C@@H]1COC[C@H]1C(=O)NCCCCNC(=O)c1ccc(-c2c3nc(c(-c4c(F)cc(S(=O)(=O)[O-])cc4F)c4ccc([nH]4)c(-c4c(F)cc(S(=O)(=O)[O-])cc4F)c4nc(c(-c5c(F)cc(S(=O)(=O)[O-])cc5F)c5ccc2[nH]5)C=C4)C=C3)cc1
REMARK SMILES IDX 21 1 20 2 18 3 19 4 17 6 13 7 14 8 15 9 16 10 12 11 10 12
REMARK SMILES IDX 11 13 2 15 1 16 3 17 4 18 5 19 6 20 9 21 7 22 8 23 22 24
REMARK SMILES IDX 23 25 24 26 25 27 26 28 27 30 28 31 29 32 93 33 30 34 92 35
REMARK SMILES IDX 31 36 32 37 33 38 86 39 34 40 91 41 85 42 87 43 35 44 90 45
REMARK SMILES IDX 84 46 83 47 36 49 70 50 49 51 69 52 50 53 53 54 68 55 88 56
REMARK SMILES IDX 51 57 52 58 67 60 89 61 54 62 37 63 38 64 47 65 39 66 40 67
REMARK SMILES IDX 46 68 48 69 41 70 42 71 43 72 44 73 45 74 71 75 72 76 81 77
REMARK SMILES IDX 73 78 74 79 80 80 82 81 75 82 76 83 77 84 78 85 79 86 55 87
REMARK SMILES IDX 56 88 65 89 57 90 58 91 64 92 66 93 59 94 60 95 61 96 62 97
REMARK SMILES IDX 63 98
REMARK H PARENT 20 5 12 14 25 29 87 48 53 59
REMARK Flexibility Score: inf
ROOT
ATOM      1  C   UNL A   1      30.665  26.697  25.853  1.00  0.00     0.116 C 
ENDROOT
BRANCH   1   2
ATOM      2  N   UNL A   1      30.514  27.551  24.696  1.00  0.00    -0.356 N 
ATOM      3  C   UNL A   1      31.194  27.547  23.523  1.00  0.00     0.227 C 
ATOM      4  O   UNL A   1      30.794  28.286  22.619  1.00  0.00    -0.275 OA
ATOM      5  H   UNL A   1      29.813  28.237  24.772  1.00  0.00     0.163 HD
BRANCH   3   6
ATOM      6  C   UNL A   1      32.419  26.688  23.312  1.00  0.00     0.129 C 
ATOM      7  C   UNL A   1      32.081  25.254  22.953  1.00  0.00     0.124 C 
ATOM      8  C   UNL A   1      32.828  25.016  21.643  1.00  0.00     0.186 C 
ATOM      9  O   UNL A   1      33.664  26.142  21.352  1.00  0.00    -0.378 OA
ATOM     10  C   UNL A   1      33.418  27.184  22.298  1.00  0.00     0.176 C 
BRANCH   7  11
ATOM     11  N   UNL A   1      32.495  24.356  24.019  1.00  0.00    -0.332 N 
ATOM     12  C   UNL A   1      33.780  23.918  24.121  1.00  0.00     0.317 C 
ATOM     13  O   UNL A   1      34.689  24.726  24.278  1.00  0.00    -0.249 OA
ATOM     14  H   UNL A   1      31.831  24.059  24.683  1.00  0.00     0.165 HD
BRANCH  12  15
ATOM     15  N   UNL A   1      33.945  22.541  24.083  1.00  0.00    -0.328 N 
ATOM     16  C   UNL A   1      35.299  22.048  24.287  1.00  0.00     0.148 C 
BRANCH  15  17
ATOM     17  C   UNL A   1      33.021  21.607  23.428  1.00  0.00     0.126 C 
BRANCH  17  18
ATOM     18  C   UNL A   1      32.486  20.362  24.160  1.00  0.00     0.068 C 
BRANCH  18  19
ATOM     19  C   UNL A   1      33.168  19.036  23.984  1.00  0.00     0.006 A 
ATOM     20  C   UNL A   1      34.265  18.522  24.654  1.00  0.00     0.015 A 
ATOM     21  S   UNL A   1      32.527  17.887  22.877  1.00  0.00    -0.149 S 
ATOM     22  C   UNL A   1      34.615  17.213  24.206  1.00  0.00     0.012 A 
ATOM     23  C   UNL A   1      33.767  16.763  23.220  1.00  0.00     0.065 A 
ENDBRANCH  18  19
ENDBRANCH  17  18
ENDBRANCH  15  17
ENDBRANCH  12  15
ENDBRANCH   7  11
ENDBRANCH   3   6
ENDBRANCH   1   2
BRANCH   1  24
ATOM     24  C   UNL A   1      32.037  26.806  26.509  1.00  0.00     0.023 C 
BRANCH  24  25
ATOM     25  C   UNL A   1      32.209  27.999  27.441  1.00  0.00     0.023 C 
BRANCH  25  26
ATOM     26  C   UNL A   1      33.523  28.747  27.277  1.00  0.00     0.116 C 
BRANCH  26  27
ATOM     27  N   UNL A   1      33.481  30.124  27.753  1.00  0.00    -0.352 N 
ATOM     28  C   UNL A   1      34.515  30.867  28.271  1.00  0.00     0.251 C 
ATOM     29  H   UNL A   1      32.609  30.577  27.696  1.00  0.00     0.163 HD
ATOM     30  O   UNL A   1      34.350  32.020  28.632  1.00  0.00    -0.269 OA
BRANCH  28  31
ATOM     31  C   UNL A   1      35.811  30.189  28.441  1.00  0.00     0.039 A 
ATOM     32  C   UNL A   1      36.716  30.232  27.381  1.00  0.00     0.014 A 
ATOM     33  C   UNL A   1      36.175  29.678  29.689  1.00  0.00     0.014 A 
ATOM     34  C   UNL A   1      38.028  29.826  27.597  1.00  0.00     0.010 A 
ATOM     35  C   UNL A   1      37.502  29.346  29.921  1.00  0.00     0.010 A 
ATOM     36  C   UNL A   1      38.439  29.424  28.879  1.00  0.00    -0.014 A 
BRANCH  36  37
ATOM     37  C   UNL A   1      39.855  29.087  29.148  1.00  0.00     0.031 A 
ATOM     38  C   UNL A   1      40.764  30.126  29.736  1.00  0.00     0.074 A 
ATOM     39  C   UNL A   1      40.327  27.874  28.797  1.00  0.00     0.049 A 
ATOM     40  N   UNL A   1      42.043  30.049  29.993  1.00  0.00    -0.248 NA
ATOM     41  C   UNL A   1      40.165  31.434  30.047  1.00  0.00     0.031 C 
ATOM     42  C   UNL A   1      39.548  26.814  28.148  1.00  0.00     0.029 A 
ATOM     43  N   UNL A   1      41.578  27.330  28.924  1.00  0.00    -0.354 N 
ATOM     44  C   UNL A   1      42.405  31.302  30.472  1.00  0.00     0.074 A 
ATOM     45  C   UNL A   1      41.224  32.135  30.425  1.00  0.00     0.031 C 
ATOM     46  C   UNL A   1      40.336  25.745  27.952  1.00  0.00     0.029 A 
ATOM     47  C   UNL A   1      41.679  26.048  28.435  1.00  0.00     0.049 A 
ATOM     48  H   UNL A   1      42.336  27.812  29.329  1.00  0.00     0.167 HD
ATOM     49  C   UNL A   1      43.609  31.710  30.932  1.00  0.00     0.037 A 
ATOM     50  C   UNL A   1      42.737  25.217  28.381  1.00  0.00     0.037 A 
ATOM     51  C   UNL A   1      44.763  30.857  31.020  1.00  0.00     0.049 A 
ATOM     52  C   UNL A   1      44.051  25.679  28.948  1.00  0.00     0.074 A 
ATOM     53  C   UNL A   1      46.004  31.143  31.558  1.00  0.00     0.029 A 
ATOM     54  N   UNL A   1      44.812  29.548  30.564  1.00  0.00    -0.354 N 
ATOM     55  N   UNL A   1      44.354  26.840  29.480  1.00  0.00    -0.248 NA
ATOM     56  C   UNL A   1      45.163  24.720  28.919  1.00  0.00     0.031 C 
ATOM     57  C   UNL A   1      46.817  30.015  31.397  1.00  0.00     0.029 A 
ATOM     58  C   UNL A   1      46.070  29.017  30.792  1.00  0.00     0.049 A 
ATOM     59  H   UNL A   1      44.064  29.068  30.140  1.00  0.00     0.167 HD
ATOM     60  C   UNL A   1      45.687  26.744  29.864  1.00  0.00     0.074 A 
ATOM     61  C   UNL A   1      46.126  25.407  29.520  1.00  0.00     0.031 C 
ATOM     62  C   UNL A   1      46.478  27.679  30.445  1.00  0.00     0.037 A 
BRANCH  49  63
ATOM     63  C   UNL A   1      43.733  33.134  31.391  1.00  0.00     0.058 A 
ATOM     64  C   UNL A   1      43.586  33.487  32.742  1.00  0.00     0.135 A 
ATOM     65  C   UNL A   1      44.039  34.155  30.476  1.00  0.00     0.135 A 
ATOM     66  F   UNL A   1      43.272  32.553  33.654  1.00  0.00    -0.206 F 
ATOM     67  C   UNL A   1      43.719  34.804  33.168  1.00  0.00     0.059 A 
ATOM     68  C   UNL A   1      44.199  35.475  30.884  1.00  0.00     0.059 A 
ATOM     69  F   UNL A   1      44.181  33.872  29.172  1.00  0.00    -0.206 F 
ATOM     70  C   UNL A   1      44.026  35.792  32.231  1.00  0.00     0.060 A 
BRANCH  70  71
ATOM     71  S   UNL A   1      44.218  37.493  32.803  1.00  0.00     0.124 S 
ATOM     72  O   UNL A   1      45.498  37.422  33.499  1.00  0.00    -0.237 OA
ATOM     73  O   UNL A   1      44.218  38.245  31.552  1.00  0.00    -0.237 OA
ATOM     74  O   UNL A   1      43.050  37.699  33.654  1.00  0.00    -0.744 OA
ENDBRANCH  70  71
ENDBRANCH  49  63
BRANCH  50  75
ATOM     75  C   UNL A   1      42.593  23.860  27.790  1.00  0.00     0.058 A 
ATOM     76  C   UNL A   1      42.607  23.672  26.400  1.00  0.00     0.135 A 
ATOM     77  C   UNL A   1      42.439  22.726  28.602  1.00  0.00     0.135 A 
ATOM     78  F   UNL A   1      42.748  24.726  25.583  1.00  0.00    -0.206 F 
ATOM     79  C   UNL A   1      42.453  22.410  25.834  1.00  0.00     0.059 A 
ATOM     80  C   UNL A   1      42.305  21.451  28.060  1.00  0.00     0.059 A 
ATOM     81  F   UNL A   1      42.438  22.851  29.938  1.00  0.00    -0.206 F 
ATOM     82  C   UNL A   1      42.301  21.305  26.673  1.00  0.00     0.060 A 
BRANCH  82  83
ATOM     83  S   UNL A   1      42.137  19.666  25.932  1.00  0.00     0.124 S 
ATOM     84  O   UNL A   1      42.446  18.800  27.063  1.00  0.00    -0.237 OA
ATOM     85  O   UNL A   1      40.746  19.665  25.488  1.00  0.00    -0.237 OA
ATOM     86  O   UNL A   1      43.128  19.686  24.859  1.00  0.00    -0.744 OA
ENDBRANCH  82  83
ENDBRANCH  50  75
BRANCH  62  87
ATOM     87  C   UNL A   1      47.890  27.283  30.762  1.00  0.00     0.058 A 
ATOM     88  C   UNL A   1      48.220  26.660  31.975  1.00  0.00     0.135 A 
ATOM     89  C   UNL A   1      48.912  27.475  29.818  1.00  0.00     0.135 A 
ATOM     90  F   UNL A   1      47.278  26.459  32.910  1.00  0.00    -0.206 F 
ATOM     91  C   UNL A   1      49.521  26.255  32.250  1.00  0.00     0.059 A 
ATOM     92  C   UNL A   1      50.216  27.058  30.064  1.00  0.00     0.059 A 
ATOM     93  F   UNL A   1      48.643  28.057  28.640  1.00  0.00    -0.206 F 
ATOM     94  C   UNL A   1      50.512  26.458  31.287  1.00  0.00     0.060 A 
BRANCH  94  95
ATOM     95  S   UNL A   1      52.191  25.893  31.639  1.00  0.00     0.124 S 
ATOM     96  O   UNL A   1      51.954  24.515  32.054  1.00  0.00    -0.237 OA
ATOM     97  O   UNL A   1      52.857  26.064  30.352  1.00  0.00    -0.237 OA
ATOM     98  O   UNL A   1      52.637  26.800  32.693  1.00  0.00    -0.744 OA
ENDBRANCH  94  95
ENDBRANCH  62  87
ENDBRANCH  36  37
ENDBRANCH  28  31
ENDBRANCH  26  27
ENDBRANCH  25  26
ENDBRANCH  24  25
ENDBRANCH   1  24
TORSDOF 19
ENDMDL
MODEL 3
REMARK VINA RESULT:     -11.1      6.735     13.399
REMARK SMILES CN(CCc1cccs1)C(=O)N[C@@H]1COC[C@H]1C(=O)NCCCCNC(=O)c1ccc(-c2c3nc(c(-c4c(F)cc(S(=O)(=O)[O-])cc4F)c4ccc([nH]4)c(-c4c(F)cc(S(=O)(=O)[O-])cc4F)c4nc(c(-c5c(F)cc(S(=O)(=O)[O-])cc5F)c5ccc2[nH]5)C=C4)C=C3)cc1
REMARK SMILES IDX 21 1 20 2 18 3 19 4 17 6 13 7 14 8 15 9 16 10 12 11 10 12
REMARK SMILES IDX 11 13 2 15 1 16 3 17 4 18 5 19 6 20 9 21 7 22 8 23 22 24
REMARK SMILES IDX 23 25 24 26 25 27 26 28 27 30 28 31 29 32 93 33 30 34 92 35
REMARK SMILES IDX 31 36 32 37 33 38 86 39 34 40 91 41 85 42 87 43 35 44 90 45
REMARK SMILES IDX 84 46 83 47 36 49 70 50 49 51 69 52 50 53 53 54 68 55 88 56
REMARK SMILES IDX 51 57 52 58 67 60 89 61 54 62 37 63 38 64 47 65 39 66 40 67
REMARK SMILES IDX 46 68 48 69 41 70 42 71 43 72 44 73 45 74 71 75 72 76 81 77
REMARK SMILES IDX 73 78 74 79 80 80 82 81 75 82 76 83 77 84 78 85 79 86 55 87
REMARK SMILES IDX 56 88 65 89 57 90 58 91 64 92 66 93 59 94 60 95 61 96 62 97
REMARK SMILES IDX 63 98
REMARK H PARENT 20 5 12 14 25 29 87 48 53 59
REMARK Flexibility Score: inf
ROOT
ATOM      1  C   UNL A   1      34.267  34.989  29.220  1.00  0.00     0.116 C 
ENDROOT
BRANCH   1   2
ATOM      2  N   UNL A   1      33.414  35.468  30.284  1.00  0.00    -0.356 N 
ATOM      3  C   UNL A   1      33.516  35.286  31.624  1.00  0.00     0.227 C 
ATOM      4  O   UNL A   1      32.743  35.911  32.354  1.00  0.00    -0.275 OA
ATOM      5  H   UNL A   1      32.645  36.008  29.992  1.00  0.00     0.163 HD
BRANCH   3   6
ATOM      6  C   UNL A   1      34.523  34.334  32.226  1.00  0.00     0.129 C 
ATOM      7  C   UNL A   1      35.699  35.045  32.867  1.00  0.00     0.124 C 
ATOM      8  C   UNL A   1      35.722  34.508  34.295  1.00  0.00     0.186 C 
ATOM      9  O   UNL A   1      34.762  33.453  34.431  1.00  0.00    -0.378 OA
ATOM     10  C   UNL A   1      33.991  33.345  33.233  1.00  0.00     0.176 C 
BRANCH   7  11
ATOM     11  N   UNL A   1      36.920  34.763  32.129  1.00  0.00    -0.332 N 
ATOM     12  C   UNL A   1      37.634  33.623  32.344  1.00  0.00     0.317 C 
ATOM     13  O   UNL A   1      37.113  32.531  32.144  1.00  0.00    -0.249 OA
ATOM     14  H   UNL A   1      37.239  35.411  31.460  1.00  0.00     0.165 HD
BRANCH  12  15
ATOM     15  N   UNL A   1      38.950  33.809  32.739  1.00  0.00    -0.328 N 
ATOM     16  C   UNL A   1      39.192  34.880  33.694  1.00  0.00     0.148 C 
BRANCH  15  17
ATOM     17  C   UNL A   1      40.122  33.361  31.977  1.00  0.00     0.126 C 
BRANCH  17  18
ATOM     18  C   UNL A   1      40.415  33.899  30.564  1.00  0.00     0.068 C 
BRANCH  18  19
ATOM     19  C   UNL A   1      41.679  34.665  30.298  1.00  0.00     0.006 A 
ATOM     20  C   UNL A   1      42.824  34.756  31.071  1.00  0.00     0.015 A 
ATOM     21  S   UNL A   1      41.865  35.516  28.816  1.00  0.00    -0.149 S 
ATOM     22  C   UNL A   1      43.823  35.582  30.472  1.00  0.00     0.012 A 
ATOM     23  C   UNL A   1      43.416  36.082  29.256  1.00  0.00     0.065 A 
ENDBRANCH  18  19
ENDBRANCH  17  18
ENDBRANCH  15  17
ENDBRANCH  12  15
ENDBRANCH   7  11
ENDBRANCH   3   6
ENDBRANCH   1   2
BRANCH   1  24
ATOM     24  C   UNL A   1      33.943  33.565  28.781  1.00  0.00     0.023 C 
BRANCH  24  25
ATOM     25  C   UNL A   1      35.040  32.876  27.979  1.00  0.00     0.023 C 
BRANCH  25  26
ATOM     26  C   UNL A   1      36.161  32.283  28.818  1.00  0.00     0.116 C 
BRANCH  26  27
ATOM     27  N   UNL A   1      35.740  31.179  29.671  1.00  0.00    -0.352 N 
ATOM     28  C   UNL A   1      36.510  30.149  30.157  1.00  0.00     0.251 C 
ATOM     29  H   UNL A   1      34.790  31.170  29.931  1.00  0.00     0.163 HD
ATOM     30  O   UNL A   1      36.034  29.283  30.871  1.00  0.00    -0.269 OA
BRANCH  28  31
ATOM     31  C   UNL A   1      37.914  30.096  29.718  1.00  0.00     0.039 A 
ATOM     32  C   UNL A   1      38.907  30.112  30.697  1.00  0.00     0.014 A 
ATOM     33  C   UNL A   1      38.220  29.859  28.375  1.00  0.00     0.014 A 
ATOM     34  C   UNL A   1      40.216  29.810  30.336  1.00  0.00     0.010 A 
ATOM     35  C   UNL A   1      39.511  29.485  28.033  1.00  0.00     0.010 A 
ATOM     36  C   UNL A   1      40.516  29.451  29.012  1.00  0.00    -0.014 A 
BRANCH  36  37
ATOM     37  C   UNL A   1      41.885  29.029  28.635  1.00  0.00     0.031 A 
ATOM     38  C   UNL A   1      42.985  30.048  28.585  1.00  0.00     0.074 A 
ATOM     39  C   UNL A   1      42.109  27.750  28.273  1.00  0.00     0.049 A 
ATOM     40  N   UNL A   1      44.232  29.894  28.225  1.00  0.00    -0.248 NA
ATOM     41  C   UNL A   1      42.631  31.428  28.957  1.00  0.00     0.031 C 
ATOM     42  C   UNL A   1      41.093  26.694  28.213  1.00  0.00     0.029 A 
ATOM     43  N   UNL A   1      43.260  27.122  27.877  1.00  0.00    -0.354 N 
ATOM     44  C   UNL A   1      44.803  31.158  28.305  1.00  0.00     0.074 A 
ATOM     45  C   UNL A   1      43.758  32.076  28.700  1.00  0.00     0.031 C 
ATOM     46  C   UNL A   1      41.672  25.548  27.820  1.00  0.00     0.029 A 
ATOM     47  C   UNL A   1      43.091  25.790  27.576  1.00  0.00     0.049 A 
ATOM     48  H   UNL A   1      44.129  27.581  27.812  1.00  0.00     0.167 HD
ATOM     49  C   UNL A   1      46.090  31.514  28.092  1.00  0.00     0.037 A 
ATOM     50  C   UNL A   1      43.980  24.873  27.150  1.00  0.00     0.037 A 
ATOM     51  C   UNL A   1      47.131  30.583  27.748  1.00  0.00     0.049 A 
ATOM     52  C   UNL A   1      45.415  25.284  26.972  1.00  0.00     0.074 A 
ATOM     53  C   UNL A   1      48.484  30.822  27.602  1.00  0.00     0.029 A 
ATOM     54  N   UNL A   1      46.931  29.232  27.504  1.00  0.00    -0.354 N 
ATOM     55  N   UNL A   1      45.958  26.468  27.138  1.00  0.00    -0.248 NA
ATOM     56  C   UNL A   1      46.362  24.239  26.560  1.00  0.00     0.031 C 
ATOM     57  C   UNL A   1      49.101  29.620  27.237  1.00  0.00     0.029 A 
ATOM     58  C   UNL A   1      48.136  28.626  27.191  1.00  0.00     0.049 A 
ATOM     59  H   UNL A   1      46.062  28.772  27.547  1.00  0.00     0.167 HD
ATOM     60  C   UNL A   1      47.312  26.305  26.867  1.00  0.00     0.074 A 
ATOM     61  C   UNL A   1      47.508  24.907  26.544  1.00  0.00     0.031 C 
ATOM     62  C   UNL A   1      48.304  27.229  26.880  1.00  0.00     0.037 A 
BRANCH  49  63
ATOM     63  C   UNL A   1      46.447  32.964  28.241  1.00  0.00     0.058 A 
ATOM     64  C   UNL A   1      46.926  33.482  29.455  1.00  0.00     0.135 A 
ATOM     65  C   UNL A   1      46.343  33.841  27.149  1.00  0.00     0.135 A 
ATOM     66  F   UNL A   1      47.022  32.692  30.535  1.00  0.00    -0.206 F 
ATOM     67  C   UNL A   1      47.271  34.822  29.588  1.00  0.00     0.059 A 
ATOM     68  C   UNL A   1      46.706  35.180  27.252  1.00  0.00     0.059 A 
ATOM     69  F   UNL A   1      45.883  33.398  25.969  1.00  0.00    -0.206 F 
ATOM     70  C   UNL A   1      47.159  35.664  28.479  1.00  0.00     0.060 A 
BRANCH  70  71
ATOM     71  S   UNL A   1      47.634  37.396  28.660  1.00  0.00     0.124 S 
ATOM     72  O   UNL A   1      48.449  37.348  29.869  1.00  0.00    -0.237 OA
ATOM     73  O   UNL A   1      48.356  37.654  27.419  1.00  0.00    -0.237 OA
ATOM     74  O   UNL A   1      46.355  38.087  28.792  1.00  0.00    -0.744 OA
ENDBRANCH  70  71
ENDBRANCH  49  63
BRANCH  50  75
ATOM     75  C   UNL A   1      43.545  23.476  26.885  1.00  0.00     0.058 A 
ATOM     76  C   UNL A   1      43.392  23.004  25.574  1.00  0.00     0.135 A 
ATOM     77  C   UNL A   1      43.276  22.587  27.937  1.00  0.00     0.135 A 
ATOM     78  F   UNL A   1      43.634  23.818  24.536  1.00  0.00    -0.206 F 
ATOM     79  C   UNL A   1      42.966  21.705  25.312  1.00  0.00     0.059 A 
ATOM     80  C   UNL A   1      42.871  21.277  27.700  1.00  0.00     0.059 A 
ATOM     81  F   UNL A   1      43.427  22.985  29.209  1.00  0.00    -0.206 F 
ATOM     82  C   UNL A   1      42.706  20.848  26.383  1.00  0.00     0.060 A 
BRANCH  82  83
ATOM     83  S   UNL A   1      42.189  19.153  26.035  1.00  0.00     0.124 S 
ATOM     84  O   UNL A   1      42.919  18.871  24.805  1.00  0.00    -0.237 OA
ATOM     85  O   UNL A   1      42.645  18.441  27.226  1.00  0.00    -0.237 OA
ATOM     86  O   UNL A   1      40.740  19.268  25.901  1.00  0.00    -0.744 OA
ENDBRANCH  82  83
ENDBRANCH  50  75
BRANCH  62  87
ATOM     87  C   UNL A   1      49.689  26.755  26.554  1.00  0.00     0.058 A 
ATOM     88  C   UNL A   1      50.552  26.276  27.552  1.00  0.00     0.135 A 
ATOM     89  C   UNL A   1      50.137  26.724  25.224  1.00  0.00     0.135 A 
ATOM     90  F   UNL A   1      50.170  26.290  28.839  1.00  0.00    -0.206 F 
ATOM     91  C   UNL A   1      51.820  25.797  27.243  1.00  0.00     0.059 A 
ATOM     92  C   UNL A   1      51.393  26.229  24.890  1.00  0.00     0.059 A 
ATOM     93  F   UNL A   1      49.344  27.162  24.234  1.00  0.00    -0.206 F 
ATOM     94  C   UNL A   1      52.231  25.777  25.909  1.00  0.00     0.060 A 
BRANCH  94  95
ATOM     95  S   UNL A   1      53.865  25.118  25.515  1.00  0.00     0.124 S 
ATOM     96  O   UNL A   1      53.522  23.926  24.747  1.00  0.00    -0.237 OA
ATOM     97  O   UNL A   1      54.472  26.209  24.760  1.00  0.00    -0.237 OA
ATOM     98  O   UNL A   1      54.453  24.871  26.829  1.00  0.00    -0.744 OA
ENDBRANCH  94  95
ENDBRANCH  62  87
ENDBRANCH  36  37
ENDBRANCH  28  31
ENDBRANCH  26  27
ENDBRANCH  25  26
ENDBRANCH  24  25
ENDBRANCH   1  24
TORSDOF 19
ENDMDL
