MODEL 1
REMARK VINA RESULT:     -12.3      0.000      0.000
REMARK SMILES Nc1oc2ccc(F)cc2c(=O)c1[C@@H]1[NH2+][C@H](C(=O)NCCCCNC(=O)c2ccc(-c3c4nc(c(-c5c(F)cc(S(=O)(=O)[O-])cc5F)c5ccc([nH]5)c(-c5c(F)cc(S(=O)(=O)[O-])cc5F)c5nc(c(-c6c(F)cc(S(=O)(=O)[O-])cc6F)c6ccc3[nH]6)C=C5)C=C4)cc2)CS1
REMARK SMILES IDX 22 1 21 2 20 3 19 4 17 5 18 6 16 8 14 9 15 10 94 11 93 14
REMARK SMILES IDX 13 15 2 16 3 17 4 18 11 19 5 20 10 21 12 22 6 23 9 24 7 25
REMARK SMILES IDX 8 26 1 27 23 30 24 31 25 32 26 34 27 35 28 36 92 37 29 38
REMARK SMILES IDX 91 39 30 40 31 41 32 42 85 43 33 44 90 45 84 46 86 47 34 48
REMARK SMILES IDX 89 49 83 50 82 51 35 53 69 54 48 55 68 56 49 57 52 58 67 59
REMARK SMILES IDX 87 60 50 61 51 62 66 64 88 65 53 66 36 67 37 68 46 69 38 70
REMARK SMILES IDX 39 71 45 72 47 73 40 74 41 75 42 76 43 77 44 78 70 79 71 80
REMARK SMILES IDX 80 81 72 82 73 83 79 84 81 85 74 86 75 87 76 88 77 89 78 90
REMARK SMILES IDX 54 91 55 92 64 93 56 94 57 95 63 96 65 97 58 98 59 99 60 100
REMARK SMILES IDX 61 101 62 102
REMARK H PARENT 19 7 15 12 15 13 1 28 1 29 24 33 86 52 52 63
REMARK Flexibility Score: inf
ROOT
ATOM      1  C   UNL A   1      33.109  29.384  25.844  1.00  0.00     0.023 C 
ENDROOT
BRANCH   1   2
ATOM      2  C   UNL A   1      31.680  28.848  25.906  1.00  0.00     0.023 C 
BRANCH   2   3
ATOM      3  C   UNL A   1      31.418  27.816  26.998  1.00  0.00     0.116 C 
BRANCH   3   4
ATOM      4  N   UNL A   1      31.213  26.453  26.562  1.00  0.00    -0.351 N 
ATOM      5  C   UNL A   1      32.048  25.412  26.332  1.00  0.00     0.279 C 
ATOM      6  O   UNL A   1      31.517  24.292  26.395  1.00  0.00    -0.268 OA
ATOM      7  H   UNL A   1      30.267  26.235  26.398  1.00  0.00     0.163 HD
BRANCH   5   8
ATOM      8  C   UNL A   1      33.507  25.499  25.833  1.00  0.00     0.283 C 
ATOM      9  C   UNL A   1      34.421  23.491  24.770  1.00  0.00     0.283 C 
ATOM     10  N   UNL A   1      34.166  24.182  26.044  1.00  0.00    -0.320 N 
ATOM     11  S   UNL A   1      34.087  24.661  23.409  1.00  0.00    -0.087 SA
ATOM     12  H   UNL A   1      35.055  24.330  26.524  1.00  0.00     0.348 HD
ATOM     13  H   UNL A   1      33.542  23.600  26.603  1.00  0.00     0.348 HD
ATOM     14  C   UNL A   1      33.859  26.078  24.486  1.00  0.00     0.151 C 
BRANCH   9  15
ATOM     15  C   UNL A   1      33.705  22.174  24.565  1.00  0.00     0.128 A 
ATOM     16  C   UNL A   1      32.483  21.939  24.034  1.00  0.00     0.205 A 
ATOM     17  O   UNL A   1      31.938  20.671  23.889  1.00  0.00    -0.440 OA
ATOM     18  C   UNL A   1      32.768  19.592  23.965  1.00  0.00     0.140 A 
ATOM     19  C   UNL A   1      34.432  20.978  25.093  1.00  0.00     0.205 A 
ATOM     20  C   UNL A   1      32.327  18.396  23.401  1.00  0.00     0.051 A 
ATOM     21  C   UNL A   1      34.008  19.669  24.580  1.00  0.00     0.068 A 
ATOM     22  O   UNL A   1      35.358  21.067  25.892  1.00  0.00    -0.288 OA
ATOM     23  C   UNL A   1      33.153  17.275  23.444  1.00  0.00     0.043 A 
ATOM     24  C   UNL A   1      34.825  18.542  24.665  1.00  0.00     0.055 A 
ATOM     25  C   UNL A   1      34.390  17.356  24.082  1.00  0.00     0.124 A 
ATOM     26  F   UNL A   1      35.175  16.273  24.130  1.00  0.00    -0.207 F 
BRANCH  16  27
ATOM     27  N   UNL A   1      31.640  22.886  23.551  1.00  0.00    -0.369 N 
ATOM     28  H   UNL A   1      31.570  23.033  22.580  1.00  0.00     0.159 HD
ATOM     29  H   UNL A   1      31.099  23.426  24.171  1.00  0.00     0.159 HD
ENDBRANCH  16  27
ENDBRANCH   9  15
ENDBRANCH   5   8
ENDBRANCH   3   4
ENDBRANCH   2   3
ENDBRANCH   1   2
BRANCH   1  30
ATOM     30  C   UNL A   1      33.864  29.214  27.151  1.00  0.00     0.116 C 
BRANCH  30  31
ATOM     31  N   UNL A   1      33.945  30.397  28.000  1.00  0.00    -0.352 N 
ATOM     32  C   UNL A   1      35.045  30.877  28.688  1.00  0.00     0.251 C 
ATOM     33  H   UNL A   1      33.115  30.918  28.096  1.00  0.00     0.163 HD
ATOM     34  O   UNL A   1      34.956  31.895  29.368  1.00  0.00    -0.269 OA
BRANCH  32  35
ATOM     35  C   UNL A   1      36.309  30.099  28.666  1.00  0.00     0.039 A 
ATOM     36  C   UNL A   1      36.751  29.436  29.805  1.00  0.00     0.014 A 
ATOM     37  C   UNL A   1      37.126  30.144  27.533  1.00  0.00     0.014 A 
ATOM     38  C   UNL A   1      38.090  29.097  29.920  1.00  0.00     0.010 A 
ATOM     39  C   UNL A   1      38.437  29.654  27.602  1.00  0.00     0.010 A 
ATOM     40  C   UNL A   1      38.960  29.206  28.826  1.00  0.00    -0.014 A 
BRANCH  40  41
ATOM     41  C   UNL A   1      40.407  28.896  29.016  1.00  0.00     0.031 A 
ATOM     42  C   UNL A   1      40.981  27.574  28.561  1.00  0.00     0.074 A 
ATOM     43  C   UNL A   1      41.230  29.847  29.503  1.00  0.00     0.049 A 
ATOM     44  N   UNL A   1      42.205  27.125  28.678  1.00  0.00    -0.248 NA
ATOM     45  C   UNL A   1      40.066  26.628  27.899  1.00  0.00     0.031 C 
ATOM     46  C   UNL A   1      40.808  31.178  29.952  1.00  0.00     0.029 A 
ATOM     47  N   UNL A   1      42.592  29.868  29.662  1.00  0.00    -0.354 N 
ATOM     48  C   UNL A   1      42.195  25.834  28.157  1.00  0.00     0.074 A 
ATOM     49  C   UNL A   1      40.841  25.566  27.726  1.00  0.00     0.031 C 
ATOM     50  C   UNL A   1      41.892  31.912  30.239  1.00  0.00     0.029 A 
ATOM     51  C   UNL A   1      43.077  31.076  30.106  1.00  0.00     0.049 A 
ATOM     52  H   UNL A   1      43.169  29.092  29.475  1.00  0.00     0.167 HD
ATOM     53  C   UNL A   1      43.222  24.958  28.044  1.00  0.00     0.037 A 
ATOM     54  C   UNL A   1      44.330  31.466  30.408  1.00  0.00     0.037 A 
ATOM     55  C   UNL A   1      44.580  25.254  28.420  1.00  0.00     0.049 A 
ATOM     56  C   UNL A   1      45.447  30.473  30.289  1.00  0.00     0.074 A 
ATOM     57  C   UNL A   1      45.695  24.437  28.336  1.00  0.00     0.029 A 
ATOM     58  N   UNL A   1      45.015  26.468  28.932  1.00  0.00    -0.354 N 
ATOM     59  N   UNL A   1      45.401  29.237  29.856  1.00  0.00    -0.248 NA
ATOM     60  C   UNL A   1      46.776  30.913  30.729  1.00  0.00     0.031 C 
ATOM     61  C   UNL A   1      46.797  25.145  28.827  1.00  0.00     0.029 A 
ATOM     62  C   UNL A   1      46.376  26.417  29.182  1.00  0.00     0.049 A 
ATOM     63  H   UNL A   1      44.441  27.250  29.096  1.00  0.00     0.167 HD
ATOM     64  C   UNL A   1      46.694  28.744  29.984  1.00  0.00     0.074 A 
ATOM     65  C   UNL A   1      47.504  29.828  30.503  1.00  0.00     0.031 C 
ATOM     66  C   UNL A   1      47.162  27.502  29.712  1.00  0.00     0.037 A 
BRANCH  53  67
ATOM     67  C   UNL A   1      42.923  23.582  27.513  1.00  0.00     0.058 A 
ATOM     68  C   UNL A   1      43.061  23.261  26.154  1.00  0.00     0.135 A 
ATOM     69  C   UNL A   1      42.552  22.549  28.393  1.00  0.00     0.135 A 
ATOM     70  F   UNL A   1      43.393  24.212  25.266  1.00  0.00    -0.206 F 
ATOM     71  C   UNL A   1      42.830  21.971  25.683  1.00  0.00     0.059 A 
ATOM     72  C   UNL A   1      42.337  21.248  27.948  1.00  0.00     0.059 A 
ATOM     73  F   UNL A   1      42.404  22.800  29.703  1.00  0.00    -0.206 F 
ATOM     74  C   UNL A   1      42.471  20.971  26.588  1.00  0.00     0.060 A 
BRANCH  74  75
ATOM     75  S   UNL A   1      42.193  19.299  25.963  1.00  0.00     0.124 S 
ATOM     76  O   UNL A   1      43.035  19.292  24.771  1.00  0.00    -0.237 OA
ATOM     77  O   UNL A   1      42.657  18.471  27.071  1.00  0.00    -0.237 OA
ATOM     78  O   UNL A   1      40.755  19.263  25.715  1.00  0.00    -0.744 OA
ENDBRANCH  74  75
ENDBRANCH  53  67
BRANCH  54  79
ATOM     79  C   UNL A   1      44.571  32.851  30.891  1.00  0.00     0.058 A 
ATOM     80  C   UNL A   1      44.821  33.899  29.994  1.00  0.00     0.135 A 
ATOM     81  C   UNL A   1      44.493  33.165  32.258  1.00  0.00     0.135 A 
ATOM     82  F   UNL A   1      44.916  33.648  28.679  1.00  0.00    -0.206 F 
ATOM     83  C   UNL A   1      44.974  35.210  30.432  1.00  0.00     0.059 A 
ATOM     84  C   UNL A   1      44.612  34.471  32.717  1.00  0.00     0.059 A 
ATOM     85  F   UNL A   1      44.242  32.199  33.156  1.00  0.00    -0.206 F 
ATOM     86  C   UNL A   1      44.856  35.488  31.795  1.00  0.00     0.060 A 
BRANCH  86  87
ATOM     87  S   UNL A   1      44.958  37.205  32.345  1.00  0.00     0.124 S 
ATOM     88  O   UNL A   1      44.201  37.892  31.306  1.00  0.00    -0.237 OA
ATOM     89  O   UNL A   1      44.328  37.144  33.662  1.00  0.00    -0.237 OA
ATOM     90  O   UNL A   1      46.394  37.467  32.360  1.00  0.00    -0.744 OA
ENDBRANCH  86  87
ENDBRANCH  54  79
BRANCH  66  91
ATOM     91  C   UNL A   1      48.617  27.250  29.977  1.00  0.00     0.058 A 
ATOM     92  C   UNL A   1      49.600  27.620  29.047  1.00  0.00     0.135 A 
ATOM     93  C   UNL A   1      49.035  26.674  31.187  1.00  0.00     0.135 A 
ATOM     94  F   UNL A   1      49.247  28.165  27.872  1.00  0.00    -0.206 F 
ATOM     95  C   UNL A   1      50.950  27.411  29.299  1.00  0.00     0.059 A 
ATOM     96  C   UNL A   1      50.383  26.476  31.470  1.00  0.00     0.059 A 
ATOM     97  F   UNL A   1      48.132  26.311  32.111  1.00  0.00    -0.206 F 
ATOM     98  C   UNL A   1      51.332  26.838  30.514  1.00  0.00     0.060 A 
BRANCH  98  99
ATOM     99  S   UNL A   1      53.091  26.596  30.839  1.00  0.00     0.124 S 
ATOM    100  O   UNL A   1      53.583  26.216  29.519  1.00  0.00    -0.237 OA
ATOM    101  O   UNL A   1      53.505  27.912  31.316  1.00  0.00    -0.237 OA
ATOM    102  O   UNL A   1      53.108  25.537  31.845  1.00  0.00    -0.744 OA
ENDBRANCH  98  99
ENDBRANCH  66  91
ENDBRANCH  40  41
ENDBRANCH  32  35
ENDBRANCH  30  31
ENDBRANCH   1  30
TORSDOF 16
ENDMDL
MODEL 2
REMARK VINA RESULT:     -12.2      2.276      4.045
REMARK SMILES Nc1oc2ccc(F)cc2c(=O)c1[C@@H]1[NH2+][C@H](C(=O)NCCCCNC(=O)c2ccc(-c3c4nc(c(-c5c(F)cc(S(=O)(=O)[O-])cc5F)c5ccc([nH]5)c(-c5c(F)cc(S(=O)(=O)[O-])cc5F)c5nc(c(-c6c(F)cc(S(=O)(=O)[O-])cc6F)c6ccc3[nH]6)C=C5)C=C4)cc2)CS1
REMARK SMILES IDX 22 1 21 2 20 3 19 4 17 5 18 6 16 8 14 9 15 10 94 11 93 14
REMARK SMILES IDX 13 15 2 16 3 17 4 18 11 19 5 20 10 21 12 22 6 23 9 24 7 25
REMARK SMILES IDX 8 26 1 27 23 30 24 31 25 32 26 34 27 35 28 36 92 37 29 38
REMARK SMILES IDX 91 39 30 40 31 41 32 42 85 43 33 44 90 45 84 46 86 47 34 48
REMARK SMILES IDX 89 49 83 50 82 51 35 53 69 54 48 55 68 56 49 57 52 58 67 59
REMARK SMILES IDX 87 60 50 61 51 62 66 64 88 65 53 66 36 67 37 68 46 69 38 70
REMARK SMILES IDX 39 71 45 72 47 73 40 74 41 75 42 76 43 77 44 78 70 79 71 80
REMARK SMILES IDX 80 81 72 82 73 83 79 84 81 85 74 86 75 87 76 88 77 89 78 90
REMARK SMILES IDX 54 91 55 92 64 93 56 94 57 95 63 96 65 97 58 98 59 99 60 100
REMARK SMILES IDX 61 101 62 102
REMARK H PARENT 19 7 15 12 15 13 1 28 1 29 24 33 86 52 52 63
REMARK Flexibility Score: inf
ROOT
ATOM      1  C   UNL A   1      32.414  28.275  27.386  1.00  0.00     0.023 C 
ENDROOT
BRANCH   1   2
ATOM      2  C   UNL A   1      32.110  27.406  26.167  1.00  0.00     0.023 C 
BRANCH   2   3
ATOM      3  C   UNL A   1      32.383  25.917  26.343  1.00  0.00     0.116 C 
BRANCH   3   4
ATOM      4  N   UNL A   1      31.266  25.101  26.764  1.00  0.00    -0.351 N 
ATOM      5  C   UNL A   1      30.911  23.815  26.532  1.00  0.00     0.279 C 
ATOM      6  O   UNL A   1      30.151  23.322  27.381  1.00  0.00    -0.268 OA
ATOM      7  H   UNL A   1      30.629  25.582  27.341  1.00  0.00     0.163 HD
BRANCH   5   8
ATOM      8  C   UNL A   1      31.205  22.997  25.255  1.00  0.00     0.283 C 
ATOM      9  C   UNL A   1      31.449  24.264  23.175  1.00  0.00     0.283 C 
ATOM     10  N   UNL A   1      30.503  23.629  24.107  1.00  0.00    -0.320 N 
ATOM     11  S   UNL A   1      33.141  23.771  23.652  1.00  0.00    -0.087 SA
ATOM     12  H   UNL A   1      29.977  22.913  23.607  1.00  0.00     0.348 HD
ATOM     13  H   UNL A   1      29.882  24.351  24.472  1.00  0.00     0.348 HD
ATOM     14  C   UNL A   1      32.604  22.577  24.880  1.00  0.00     0.151 C 
BRANCH   9  15
ATOM     15  C   UNL A   1      31.328  25.764  23.013  1.00  0.00     0.128 A 
ATOM     16  C   UNL A   1      32.217  26.642  22.495  1.00  0.00     0.205 A 
ATOM     17  O   UNL A   1      31.980  28.005  22.391  1.00  0.00    -0.440 OA
ATOM     18  C   UNL A   1      30.697  28.454  22.496  1.00  0.00     0.140 A 
ATOM     19  C   UNL A   1      30.073  26.355  23.574  1.00  0.00     0.205 A 
ATOM     20  C   UNL A   1      30.407  29.713  21.970  1.00  0.00     0.051 A 
ATOM     21  C   UNL A   1      29.708  27.696  23.102  1.00  0.00     0.068 A 
ATOM     22  O   UNL A   1      29.355  25.753  24.365  1.00  0.00    -0.288 OA
ATOM     23  C   UNL A   1      29.104  30.200  22.044  1.00  0.00     0.043 A 
ATOM     24  C   UNL A   1      28.410  28.192  23.218  1.00  0.00     0.055 A 
ATOM     25  C   UNL A   1      28.120  29.440  22.673  1.00  0.00     0.124 A 
ATOM     26  F   UNL A   1      26.872  29.917  22.751  1.00  0.00    -0.207 F 
BRANCH  16  27
ATOM     27  N   UNL A   1      33.434  26.322  21.987  1.00  0.00    -0.369 N 
ATOM     28  H   UNL A   1      33.499  25.737  21.197  1.00  0.00     0.159 HD
ATOM     29  H   UNL A   1      34.251  26.674  22.407  1.00  0.00     0.159 HD
ENDBRANCH  16  27
ENDBRANCH   9  15
ENDBRANCH   5   8
ENDBRANCH   3   4
ENDBRANCH   2   3
ENDBRANCH   1   2
BRANCH   1  30
ATOM     30  C   UNL A   1      33.750  28.992  27.285  1.00  0.00     0.116 C 
BRANCH  30  31
ATOM     31  N   UNL A   1      33.856  30.250  28.014  1.00  0.00    -0.352 N 
ATOM     32  C   UNL A   1      34.982  30.803  28.599  1.00  0.00     0.251 C 
ATOM     33  H   UNL A   1      33.024  30.771  28.101  1.00  0.00     0.163 HD
ATOM     34  O   UNL A   1      34.911  31.880  29.183  1.00  0.00    -0.269 OA
BRANCH  32  35
ATOM     35  C   UNL A   1      36.254  30.038  28.588  1.00  0.00     0.039 A 
ATOM     36  C   UNL A   1      36.678  29.357  29.724  1.00  0.00     0.014 A 
ATOM     37  C   UNL A   1      37.093  30.112  27.474  1.00  0.00     0.014 A 
ATOM     38  C   UNL A   1      38.018  29.028  29.860  1.00  0.00     0.010 A 
ATOM     39  C   UNL A   1      38.407  29.633  27.560  1.00  0.00     0.010 A 
ATOM     40  C   UNL A   1      38.909  29.167  28.786  1.00  0.00    -0.014 A 
BRANCH  40  41
ATOM     41  C   UNL A   1      40.355  28.867  29.000  1.00  0.00     0.031 A 
ATOM     42  C   UNL A   1      40.947  27.552  28.549  1.00  0.00     0.074 A 
ATOM     43  C   UNL A   1      41.162  29.822  29.507  1.00  0.00     0.049 A 
ATOM     44  N   UNL A   1      42.172  27.112  28.685  1.00  0.00    -0.248 NA
ATOM     45  C   UNL A   1      40.051  26.603  27.866  1.00  0.00     0.031 C 
ATOM     46  C   UNL A   1      40.722  31.147  29.955  1.00  0.00     0.029 A 
ATOM     47  N   UNL A   1      42.521  29.852  29.690  1.00  0.00    -0.354 N 
ATOM     48  C   UNL A   1      42.182  25.824  28.158  1.00  0.00     0.074 A 
ATOM     49  C   UNL A   1      40.837  25.547  27.702  1.00  0.00     0.031 C 
ATOM     50  C   UNL A   1      41.794  31.889  30.265  1.00  0.00     0.029 A 
ATOM     51  C   UNL A   1      42.988  31.062  30.149  1.00  0.00     0.049 A 
ATOM     52  H   UNL A   1      43.107  29.082  29.510  1.00  0.00     0.167 HD
ATOM     53  C   UNL A   1      43.217  24.956  28.059  1.00  0.00     0.037 A 
ATOM     54  C   UNL A   1      44.232  31.460  30.475  1.00  0.00     0.037 A 
ATOM     55  C   UNL A   1      44.566  25.260  28.461  1.00  0.00     0.049 A 
ATOM     56  C   UNL A   1      45.359  30.476  30.371  1.00  0.00     0.074 A 
ATOM     57  C   UNL A   1      45.689  24.452  28.392  1.00  0.00     0.029 A 
ATOM     58  N   UNL A   1      44.983  26.475  28.987  1.00  0.00    -0.354 N 
ATOM     59  N   UNL A   1      45.330  29.242  29.931  1.00  0.00    -0.248 NA
ATOM     60  C   UNL A   1      46.676  30.924  30.837  1.00  0.00     0.031 C 
ATOM     61  C   UNL A   1      46.776  25.166  28.907  1.00  0.00     0.029 A 
ATOM     62  C   UNL A   1      46.340  26.433  29.261  1.00  0.00     0.049 A 
ATOM     63  H   UNL A   1      44.399  27.252  29.144  1.00  0.00     0.167 HD
ATOM     64  C   UNL A   1      46.625  28.759  30.080  1.00  0.00     0.074 A 
ATOM     65  C   UNL A   1      47.417  29.846  30.619  1.00  0.00     0.031 C 
ATOM     66  C   UNL A   1      47.107  27.522  29.810  1.00  0.00     0.037 A 
BRANCH  53  67
ATOM     67  C   UNL A   1      42.938  23.580  27.517  1.00  0.00     0.058 A 
ATOM     68  C   UNL A   1      43.170  23.249  26.172  1.00  0.00     0.135 A 
ATOM     69  C   UNL A   1      42.491  22.559  28.373  1.00  0.00     0.135 A 
ATOM     70  F   UNL A   1      43.579  24.188  25.306  1.00  0.00    -0.206 F 
ATOM     71  C   UNL A   1      42.955  21.958  25.694  1.00  0.00     0.059 A 
ATOM     72  C   UNL A   1      42.291  21.257  27.921  1.00  0.00     0.059 A 
ATOM     73  F   UNL A   1      42.252  22.821  29.668  1.00  0.00    -0.206 F 
ATOM     74  C   UNL A   1      42.518  20.969  26.577  1.00  0.00     0.060 A 
BRANCH  74  75
ATOM     75  S   UNL A   1      42.263  19.297  25.942  1.00  0.00     0.124 S 
ATOM     76  O   UNL A   1      40.814  19.270  25.773  1.00  0.00    -0.237 OA
ATOM     77  O   UNL A   1      43.045  19.309  24.710  1.00  0.00    -0.237 OA
ATOM     78  O   UNL A   1      42.786  18.445  27.006  1.00  0.00    -0.744 OA
ENDBRANCH  74  75
ENDBRANCH  53  67
BRANCH  54  79
ATOM     79  C   UNL A   1      44.454  32.844  30.970  1.00  0.00     0.058 A 
ATOM     80  C   UNL A   1      44.418  33.139  32.340  1.00  0.00     0.135 A 
ATOM     81  C   UNL A   1      44.769  33.888  30.084  1.00  0.00     0.135 A 
ATOM     82  F   UNL A   1      44.111  32.178  33.225  1.00  0.00    -0.206 F 
ATOM     83  C   UNL A   1      44.698  34.416  32.817  1.00  0.00     0.059 A 
ATOM     84  C   UNL A   1      45.081  35.164  30.538  1.00  0.00     0.059 A 
ATOM     85  F   UNL A   1      44.829  33.654  28.764  1.00  0.00    -0.206 F 
ATOM     86  C   UNL A   1      45.039  35.419  31.908  1.00  0.00     0.060 A 
BRANCH  86  87
ATOM     87  S   UNL A   1      45.496  37.048  32.540  1.00  0.00     0.124 S 
ATOM     88  O   UNL A   1      44.359  37.856  32.118  1.00  0.00    -0.237 OA
ATOM     89  O   UNL A   1      45.607  36.800  33.975  1.00  0.00    -0.237 OA
ATOM     90  O   UNL A   1      46.759  37.328  31.864  1.00  0.00    -0.744 OA
ENDBRANCH  86  87
ENDBRANCH  54  79
BRANCH  66  91
ATOM     91  C   UNL A   1      48.559  27.279  30.100  1.00  0.00     0.058 A 
ATOM     92  C   UNL A   1      48.987  26.872  31.373  1.00  0.00     0.135 A 
ATOM     93  C   UNL A   1      49.523  27.410  29.089  1.00  0.00     0.135 A 
ATOM     94  F   UNL A   1      48.103  26.742  32.374  1.00  0.00    -0.206 F 
ATOM     95  C   UNL A   1      50.328  26.622  31.639  1.00  0.00     0.059 A 
ATOM     96  C   UNL A   1      50.868  27.144  29.328  1.00  0.00     0.059 A 
ATOM     97  F   UNL A   1      49.160  27.789  27.854  1.00  0.00    -0.206 F 
ATOM     98  C   UNL A   1      51.261  26.761  30.610  1.00  0.00     0.060 A 
BRANCH  98  99
ATOM     99  S   UNL A   1      52.995  26.407  30.964  1.00  0.00     0.124 S 
ATOM    100  O   UNL A   1      53.555  26.312  29.620  1.00  0.00    -0.237 OA
ATOM    101  O   UNL A   1      53.401  27.576  31.739  1.00  0.00    -0.237 OA
ATOM    102  O   UNL A   1      52.941  25.154  31.712  1.00  0.00    -0.744 OA
ENDBRANCH  98  99
ENDBRANCH  66  91
ENDBRANCH  40  41
ENDBRANCH  32  35
ENDBRANCH  30  31
ENDBRANCH   1  30
TORSDOF 16
ENDMDL
MODEL 3
REMARK VINA RESULT:     -12.2      2.338      8.952
REMARK SMILES Nc1oc2ccc(F)cc2c(=O)c1[C@@H]1[NH2+][C@H](C(=O)NCCCCNC(=O)c2ccc(-c3c4nc(c(-c5c(F)cc(S(=O)(=O)[O-])cc5F)c5ccc([nH]5)c(-c5c(F)cc(S(=O)(=O)[O-])cc5F)c5nc(c(-c6c(F)cc(S(=O)(=O)[O-])cc6F)c6ccc3[nH]6)C=C5)C=C4)cc2)CS1
REMARK SMILES IDX 22 1 21 2 20 3 19 4 17 5 18 6 16 8 14 9 15 10 94 11 93 14
REMARK SMILES IDX 13 15 2 16 3 17 4 18 11 19 5 20 10 21 12 22 6 23 9 24 7 25
REMARK SMILES IDX 8 26 1 27 23 30 24 31 25 32 26 34 27 35 28 36 92 37 29 38
REMARK SMILES IDX 91 39 30 40 31 41 32 42 85 43 33 44 90 45 84 46 86 47 34 48
REMARK SMILES IDX 89 49 83 50 82 51 35 53 69 54 48 55 68 56 49 57 52 58 67 59
REMARK SMILES IDX 87 60 50 61 51 62 66 64 88 65 53 66 36 67 37 68 46 69 38 70
REMARK SMILES IDX 39 71 45 72 47 73 40 74 41 75 42 76 43 77 44 78 70 79 71 80
REMARK SMILES IDX 80 81 72 82 73 83 79 84 81 85 74 86 75 87 76 88 77 89 78 90
REMARK SMILES IDX 54 91 55 92 64 93 56 94 57 95 63 96 65 97 58 98 59 99 60 100
REMARK SMILES IDX 61 101 62 102
REMARK H PARENT 19 7 15 12 15 13 1 28 1 29 24 33 86 52 52 63
REMARK Flexibility Score: inf
ROOT
ATOM      1  C   UNL A   1      32.745  28.207  27.381  1.00  0.00     0.023 C 
ENDROOT
BRANCH   1   2
ATOM      2  C   UNL A   1      32.177  27.320  26.275  1.00  0.00     0.023 C 
BRANCH   2   3
ATOM      3  C   UNL A   1      32.382  25.822  26.471  1.00  0.00     0.116 C 
BRANCH   3   4
ATOM      4  N   UNL A   1      31.210  25.050  26.819  1.00  0.00    -0.351 N 
ATOM      5  C   UNL A   1      30.815  23.783  26.551  1.00  0.00     0.279 C 
ATOM      6  O   UNL A   1      29.989  23.313  27.351  1.00  0.00    -0.268 OA
ATOM      7  H   UNL A   1      30.563  25.551  27.365  1.00  0.00     0.163 HD
BRANCH   5   8
ATOM      8  C   UNL A   1      31.146  22.966  25.283  1.00  0.00     0.283 C 
ATOM      9  C   UNL A   1      31.459  24.236  23.213  1.00  0.00     0.283 C 
ATOM     10  N   UNL A   1      30.483  23.603  24.114  1.00  0.00    -0.320 N 
ATOM     11  S   UNL A   1      33.134  23.735  23.742  1.00  0.00    -0.087 SA
ATOM     12  H   UNL A   1      29.970  22.890  23.596  1.00  0.00     0.348 HD
ATOM     13  H   UNL A   1      29.853  24.327  24.461  1.00  0.00     0.348 HD
ATOM     14  C   UNL A   1      32.555  22.541  24.950  1.00  0.00     0.151 C 
BRANCH   9  15
ATOM     15  C   UNL A   1      31.349  25.737  23.051  1.00  0.00     0.128 A 
ATOM     16  C   UNL A   1      32.248  26.610  22.542  1.00  0.00     0.205 A 
ATOM     17  O   UNL A   1      32.021  27.975  22.436  1.00  0.00    -0.440 OA
ATOM     18  C   UNL A   1      30.740  28.431  22.529  1.00  0.00     0.140 A 
ATOM     19  C   UNL A   1      30.092  26.335  23.600  1.00  0.00     0.205 A 
ATOM     20  C   UNL A   1      30.462  29.692  22.001  1.00  0.00     0.051 A 
ATOM     21  C   UNL A   1      29.740  27.679  23.126  1.00  0.00     0.068 A 
ATOM     22  O   UNL A   1      29.364  25.737  24.384  1.00  0.00    -0.288 OA
ATOM     23  C   UNL A   1      29.162  30.187  22.062  1.00  0.00     0.043 A 
ATOM     24  C   UNL A   1      28.444  28.183  23.229  1.00  0.00     0.055 A 
ATOM     25  C   UNL A   1      28.167  29.432  22.682  1.00  0.00     0.124 A 
ATOM     26  F   UNL A   1      26.921  29.917  22.748  1.00  0.00    -0.207 F 
BRANCH  16  27
ATOM     27  N   UNL A   1      33.468  26.282  22.045  1.00  0.00    -0.369 N 
ATOM     28  H   UNL A   1      33.708  26.535  21.124  1.00  0.00     0.159 HD
ATOM     29  H   UNL A   1      34.112  25.793  22.605  1.00  0.00     0.159 HD
ENDBRANCH  16  27
ENDBRANCH   9  15
ENDBRANCH   5   8
ENDBRANCH   3   4
ENDBRANCH   2   3
ENDBRANCH   1   2
BRANCH   1  30
ATOM     30  C   UNL A   1      33.413  29.464  26.849  1.00  0.00     0.116 C 
BRANCH  30  31
ATOM     31  N   UNL A   1      33.448  30.603  27.759  1.00  0.00    -0.352 N 
ATOM     32  C   UNL A   1      34.515  31.055  28.515  1.00  0.00     0.251 C 
ATOM     33  H   UNL A   1      32.610  31.112  27.846  1.00  0.00     0.163 HD
ATOM     34  O   UNL A   1      34.388  32.036  29.242  1.00  0.00    -0.269 OA
BRANCH  32  35
ATOM     35  C   UNL A   1      35.786  30.288  28.507  1.00  0.00     0.039 A 
ATOM     36  C   UNL A   1      36.243  29.663  29.662  1.00  0.00     0.014 A 
ATOM     37  C   UNL A   1      36.594  30.306  27.367  1.00  0.00     0.014 A 
ATOM     38  C   UNL A   1      37.585  29.339  29.777  1.00  0.00     0.010 A 
ATOM     39  C   UNL A   1      37.909  29.830  27.440  1.00  0.00     0.010 A 
ATOM     40  C   UNL A   1      38.446  29.424  28.673  1.00  0.00    -0.014 A 
BRANCH  40  41
ATOM     41  C   UNL A   1      39.897  29.132  28.861  1.00  0.00     0.031 A 
ATOM     42  C   UNL A   1      40.801  30.122  29.558  1.00  0.00     0.074 A 
ATOM     43  C   UNL A   1      40.383  27.927  28.497  1.00  0.00     0.049 A 
ATOM     44  N   UNL A   1      42.090  30.047  29.777  1.00  0.00    -0.248 NA
ATOM     45  C   UNL A   1      40.187  31.360  30.068  1.00  0.00     0.031 C 
ATOM     46  C   UNL A   1      39.609  26.869  27.841  1.00  0.00     0.029 A 
ATOM     47  N   UNL A   1      41.623  27.366  28.664  1.00  0.00    -0.354 N 
ATOM     48  C   UNL A   1      42.448  31.241  30.396  1.00  0.00     0.074 A 
ATOM     49  C   UNL A   1      41.241  32.029  30.517  1.00  0.00     0.031 C 
ATOM     50  C   UNL A   1      40.359  25.762  27.753  1.00  0.00     0.029 A 
ATOM     51  C   UNL A   1      41.699  26.061  28.239  1.00  0.00     0.049 A 
ATOM     52  H   UNL A   1      42.387  27.852  29.053  1.00  0.00     0.167 HD
ATOM     53  C   UNL A   1      43.668  31.639  30.830  1.00  0.00     0.037 A 
ATOM     54  C   UNL A   1      42.736  25.202  28.208  1.00  0.00     0.037 A 
ATOM     55  C   UNL A   1      44.853  30.824  30.761  1.00  0.00     0.049 A 
ATOM     56  C   UNL A   1      44.080  25.671  28.679  1.00  0.00     0.074 A 
ATOM     57  C   UNL A   1      46.136  31.132  31.182  1.00  0.00     0.029 A 
ATOM     58  N   UNL A   1      44.900  29.532  30.257  1.00  0.00    -0.354 N 
ATOM     59  N   UNL A   1      44.407  26.828  29.201  1.00  0.00    -0.248 NA
ATOM     60  C   UNL A   1      45.200  24.735  28.528  1.00  0.00     0.031 C 
ATOM     61  C   UNL A   1      46.964  30.041  30.902  1.00  0.00     0.029 A 
ATOM     62  C   UNL A   1      46.190  29.036  30.343  1.00  0.00     0.049 A 
ATOM     63  H   UNL A   1      44.130  29.041  29.891  1.00  0.00     0.167 HD
ATOM     64  C   UNL A   1      45.776  26.766  29.428  1.00  0.00     0.074 A 
ATOM     65  C   UNL A   1      46.208  25.444  29.019  1.00  0.00     0.031 C 
ATOM     66  C   UNL A   1      46.602  27.723  29.917  1.00  0.00     0.037 A 
BRANCH  53  67
ATOM     67  C   UNL A   1      43.799  33.026  31.398  1.00  0.00     0.058 A 
ATOM     68  C   UNL A   1      43.978  34.153  30.580  1.00  0.00     0.135 A 
ATOM     69  C   UNL A   1      43.682  33.237  32.783  1.00  0.00     0.135 A 
ATOM     70  F   UNL A   1      44.115  34.009  29.253  1.00  0.00    -0.206 F 
ATOM     71  C   UNL A   1      44.048  35.436  31.115  1.00  0.00     0.059 A 
ATOM     72  C   UNL A   1      43.727  34.513  33.338  1.00  0.00     0.059 A 
ATOM     73  F   UNL A   1      43.512  32.195  33.612  1.00  0.00    -0.206 F 
ATOM     74  C   UNL A   1      43.919  35.607  32.495  1.00  0.00     0.060 A 
BRANCH  74  75
ATOM     75  S   UNL A   1      43.994  37.281  33.169  1.00  0.00     0.124 S 
ATOM     76  O   UNL A   1      42.779  37.322  33.977  1.00  0.00    -0.237 OA
ATOM     77  O   UNL A   1      45.249  37.260  33.913  1.00  0.00    -0.237 OA
ATOM     78  O   UNL A   1      43.986  38.128  31.981  1.00  0.00    -0.744 OA
ENDBRANCH  74  75
ENDBRANCH  53  67
BRANCH  54  79
ATOM     79  C   UNL A   1      42.538  23.830  27.671  1.00  0.00     0.058 A 
ATOM     80  C   UNL A   1      42.559  23.583  26.291  1.00  0.00     0.135 A 
ATOM     81  C   UNL A   1      42.387  22.731  28.531  1.00  0.00     0.135 A 
ATOM     82  F   UNL A   1      42.690  24.602  25.428  1.00  0.00    -0.206 F 
ATOM     83  C   UNL A   1      42.448  22.293  25.782  1.00  0.00     0.059 A 
ATOM     84  C   UNL A   1      42.304  21.430  28.048  1.00  0.00     0.059 A 
ATOM     85  F   UNL A   1      42.374  22.914  29.861  1.00  0.00    -0.206 F 
ATOM     86  C   UNL A   1      42.333  21.221  26.670  1.00  0.00     0.060 A 
BRANCH  86  87
ATOM     87  S   UNL A   1      42.288  19.542  26.007  1.00  0.00     0.124 S 
ATOM     88  O   UNL A   1      43.189  19.653  24.866  1.00  0.00    -0.237 OA
ATOM     89  O   UNL A   1      42.777  18.753  27.134  1.00  0.00    -0.237 OA
ATOM     90  O   UNL A   1      40.878  19.347  25.683  1.00  0.00    -0.744 OA
ENDBRANCH  86  87
ENDBRANCH  54  79
BRANCH  66  91
ATOM     91  C   UNL A   1      48.057  27.374  30.028  1.00  0.00     0.058 A 
ATOM     92  C   UNL A   1      48.959  27.685  28.999  1.00  0.00     0.135 A 
ATOM     93  C   UNL A   1      48.561  26.767  31.189  1.00  0.00     0.135 A 
ATOM     94  F   UNL A   1      48.521  28.257  27.866  1.00  0.00    -0.206 F 
ATOM     95  C   UNL A   1      50.312  27.386  29.108  1.00  0.00     0.059 A 
ATOM     96  C   UNL A   1      49.915  26.480  31.328  1.00  0.00     0.059 A 
ATOM     97  F   UNL A   1      47.739  26.459  32.203  1.00  0.00    -0.206 F 
ATOM     98  C   UNL A   1      50.781  26.783  30.277  1.00  0.00     0.060 A 
BRANCH  98  99
ATOM     99  S   UNL A   1      52.544  26.425  30.416  1.00  0.00     0.124 S 
ATOM    100  O   UNL A   1      52.892  26.123  29.032  1.00  0.00    -0.237 OA
ATOM    101  O   UNL A   1      53.077  27.677  30.946  1.00  0.00    -0.237 OA
ATOM    102  O   UNL A   1      52.590  25.293  31.338  1.00  0.00    -0.744 OA
ENDBRANCH  98  99
ENDBRANCH  66  91
ENDBRANCH  40  41
ENDBRANCH  32  35
ENDBRANCH  30  31
ENDBRANCH   1  30
TORSDOF 16
ENDMDL
