MODEL 1
REMARK VINA RESULT:     -14.6      0.000      0.000
REMARK SMILES Cc1ccc(NC(=O)[C@H]2CC(Cl)=CC[C@@H]2C(=O)NCCCCNC(=O)c2ccc(-c3c4nc(c(-c5c(F)cc(S(=O)(=O)[O-])cc5F)c5ccc([nH]5)c(-c5c(F)cc(S(=O)(=O)[O-])cc5F)c5nc(c(-c6c(F)cc(S(=O)(=O)[O-])cc6F)c6ccc3[nH]6)C=C5)C=C4)cc2)cc1[N+](=O)[O-]
REMARK SMILES IDX 20 1 19 2 18 3 16 4 17 5 15 7 9 8 10 9 11 10 14 11 12 12
REMARK SMILES IDX 13 13 7 14 6 15 8 17 5 18 1 19 2 20 3 21 93 22 4 23 92 24
REMARK SMILES IDX 94 25 95 26 96 27 21 28 22 29 23 30 24 31 25 33 26 34 27 35
REMARK SMILES IDX 91 36 28 37 90 38 29 39 30 40 31 41 84 42 32 43 89 44 83 45
REMARK SMILES IDX 85 46 33 47 88 48 82 49 81 50 34 52 68 53 47 54 67 55 48 56
REMARK SMILES IDX 51 57 66 58 86 59 49 60 50 61 65 63 87 64 52 65 35 66 36 67
REMARK SMILES IDX 45 68 37 69 38 70 44 71 46 72 39 73 40 74 41 75 42 76 43 77
REMARK SMILES IDX 69 78 70 79 79 80 71 81 72 82 78 83 80 84 73 85 74 86 75 87
REMARK SMILES IDX 76 88 77 89 53 90 54 91 63 92 55 93 56 94 62 95 64 96 57 97
REMARK SMILES IDX 58 98 59 99 60 100 61 101
REMARK H PARENT 18 6 6 16 23 32 85 51 51 62
REMARK Flexibility Score: inf
ROOT
ATOM      1  C   UNL A   1      32.331  29.829  26.906  1.00  0.00     0.023 C 
ENDROOT
BRANCH   1   2
ATOM      2  C   UNL A   1      32.350  28.518  27.698  1.00  0.00     0.116 C 
BRANCH   2   3
ATOM      3  N   UNL A   1      31.369  27.537  27.252  1.00  0.00    -0.356 N 
ATOM      4  C   UNL A   1      31.474  26.362  26.583  1.00  0.00     0.224 C 
ATOM      5  O   UNL A   1      30.437  25.709  26.429  1.00  0.00    -0.275 OA
ATOM      6  H   UNL A   1      30.443  27.776  27.484  1.00  0.00     0.163 HD
BRANCH   4   7
ATOM      7  C   UNL A   1      32.796  25.858  26.008  1.00  0.00     0.095 C 
ATOM      8  C   UNL A   1      32.830  26.119  24.481  1.00  0.00     0.097 C 
ATOM      9  C   UNL A   1      34.014  25.391  23.814  1.00  0.00     0.062 C 
ATOM     10  C   UNL A   1      33.996  23.932  24.123  1.00  0.00     0.015 C 
ATOM     11  C   UNL A   1      32.878  24.331  26.321  1.00  0.00     0.043 C 
ATOM     12  Cl  UNL A   1      34.633  22.876  22.918  1.00  0.00    -0.089 Cl
ATOM     13  C   UNL A   1      33.479  23.452  25.258  1.00  0.00    -0.010 C 
BRANCH   8  14
ATOM     14  C   UNL A   1      32.973  27.596  24.145  1.00  0.00     0.228 C 
ATOM     15  N   UNL A   1      31.953  28.387  23.710  1.00  0.00    -0.326 N 
ATOM     16  H   UNL A   1      32.231  29.319  23.549  1.00  0.00     0.169 HD
ATOM     17  O   UNL A   1      34.060  28.161  24.335  1.00  0.00    -0.274 OA
BRANCH  15  18
ATOM     18  C   UNL A   1      30.593  28.167  23.439  1.00  0.00     0.048 A 
ATOM     19  C   UNL A   1      26.272  27.997  23.584  1.00  0.00     0.052 C 
ATOM     20  C   UNL A   1      27.757  28.072  23.384  1.00  0.00     0.027 A 
ATOM     21  C   UNL A   1      28.517  26.918  23.600  1.00  0.00     0.012 A 
ATOM     22  C   UNL A   1      28.457  29.242  23.067  1.00  0.00     0.274 A 
ATOM     23  C   UNL A   1      29.917  26.963  23.606  1.00  0.00     0.027 A 
ATOM     24  C   UNL A   1      29.859  29.282  23.032  1.00  0.00     0.112 A 
BRANCH  22  25
ATOM     25  N   UNL A   1      27.761  30.497  22.846  1.00  0.00     0.063 N 
ATOM     26  O   UNL A   1      27.254  31.034  23.839  1.00  0.00    -0.258 OA
ATOM     27  O   UNL A   1      27.722  30.926  21.685  1.00  0.00    -0.258 OA
ENDBRANCH  22  25
ENDBRANCH  15  18
ENDBRANCH   8  14
ENDBRANCH   4   7
ENDBRANCH   2   3
ENDBRANCH   1   2
BRANCH   1  28
ATOM     28  C   UNL A   1      33.242  30.949  27.419  1.00  0.00     0.023 C 
BRANCH  28  29
ATOM     29  C   UNL A   1      34.727  30.615  27.517  1.00  0.00     0.116 C 
BRANCH  29  30
ATOM     30  N   UNL A   1      35.402  31.465  28.512  1.00  0.00    -0.352 N 
ATOM     31  C   UNL A   1      36.540  31.204  29.239  1.00  0.00     0.251 C 
ATOM     32  H   UNL A   1      34.983  32.340  28.680  1.00  0.00     0.163 HD
ATOM     33  O   UNL A   1      37.006  31.945  30.082  1.00  0.00    -0.269 OA
BRANCH  31  34
ATOM     34  C   UNL A   1      37.233  29.941  28.889  1.00  0.00     0.039 A 
ATOM     35  C   UNL A   1      37.389  29.019  29.925  1.00  0.00     0.014 A 
ATOM     36  C   UNL A   1      38.050  29.961  27.765  1.00  0.00     0.014 A 
ATOM     37  C   UNL A   1      38.524  28.220  29.931  1.00  0.00     0.010 A 
ATOM     38  C   UNL A   1      39.208  29.209  27.812  1.00  0.00     0.010 A 
ATOM     39  C   UNL A   1      39.478  28.400  28.929  1.00  0.00    -0.014 A 
BRANCH  39  40
ATOM     40  C   UNL A   1      40.834  27.875  29.039  1.00  0.00     0.031 A 
ATOM     41  C   UNL A   1      41.121  26.500  28.584  1.00  0.00     0.074 A 
ATOM     42  C   UNL A   1      41.825  28.647  29.542  1.00  0.00     0.049 A 
ATOM     43  N   UNL A   1      42.124  25.792  28.979  1.00  0.00    -0.248 NA
ATOM     44  C   UNL A   1      40.240  25.785  27.669  1.00  0.00     0.031 C 
ATOM     45  C   UNL A   1      43.259  28.378  29.502  1.00  0.00     0.029 A 
ATOM     46  N   UNL A   1      41.702  29.752  30.392  1.00  0.00    -0.354 N 
ATOM     47  C   UNL A   1      42.165  24.646  28.216  1.00  0.00     0.074 A 
ATOM     48  C   UNL A   1      40.945  24.673  27.445  1.00  0.00     0.031 C 
ATOM     49  C   UNL A   1      43.861  29.091  30.465  1.00  0.00     0.029 A 
ATOM     50  C   UNL A   1      42.824  29.745  31.243  1.00  0.00     0.049 A 
ATOM     51  H   UNL A   1      40.969  30.409  30.395  1.00  0.00     0.167 HD
ATOM     52  C   UNL A   1      43.285  23.865  28.248  1.00  0.00     0.037 A 
ATOM     53  C   UNL A   1      42.684  29.637  32.596  1.00  0.00     0.037 A 
ATOM     54  C   UNL A   1      44.227  24.350  29.257  1.00  0.00     0.049 A 
ATOM     55  C   UNL A   1      43.300  28.383  33.178  1.00  0.00     0.074 A 
ATOM     56  C   UNL A   1      45.338  25.177  29.189  1.00  0.00     0.029 A 
ATOM     57  N   UNL A   1      43.895  24.252  30.605  1.00  0.00    -0.354 N 
ATOM     58  N   UNL A   1      43.685  27.359  32.466  1.00  0.00    -0.248 NA
ATOM     59  C   UNL A   1      43.521  28.175  34.607  1.00  0.00     0.031 C 
ATOM     60  C   UNL A   1      45.624  25.639  30.499  1.00  0.00     0.029 A 
ATOM     61  C   UNL A   1      44.709  25.071  31.368  1.00  0.00     0.049 A 
ATOM     62  H   UNL A   1      43.181  23.679  30.965  1.00  0.00     0.167 HD
ATOM     63  C   UNL A   1      44.143  26.364  33.293  1.00  0.00     0.074 A 
ATOM     64  C   UNL A   1      44.054  26.939  34.622  1.00  0.00     0.031 C 
ATOM     65  C   UNL A   1      44.542  25.146  32.814  1.00  0.00     0.037 A 
BRANCH  52  66
ATOM     66  C   UNL A   1      43.639  22.855  27.171  1.00  0.00     0.058 A 
ATOM     67  C   UNL A   1      42.866  21.685  26.996  1.00  0.00     0.135 A 
ATOM     68  C   UNL A   1      44.765  22.938  26.328  1.00  0.00     0.135 A 
ATOM     69  F   UNL A   1      41.707  21.508  27.646  1.00  0.00    -0.206 F 
ATOM     70  C   UNL A   1      43.250  20.635  26.158  1.00  0.00     0.059 A 
ATOM     71  C   UNL A   1      45.205  21.877  25.530  1.00  0.00     0.059 A 
ATOM     72  F   UNL A   1      45.456  24.077  26.200  1.00  0.00    -0.206 F 
ATOM     73  C   UNL A   1      44.446  20.719  25.459  1.00  0.00     0.060 A 
BRANCH  73  74
ATOM     74  S   UNL A   1      44.980  19.316  24.462  1.00  0.00     0.124 S 
ATOM     75  O   UNL A   1      44.518  19.690  23.128  1.00  0.00    -0.237 OA
ATOM     76  O   UNL A   1      46.425  19.333  24.663  1.00  0.00    -0.237 OA
ATOM     77  O   UNL A   1      44.278  18.185  25.062  1.00  0.00    -0.744 OA
ENDBRANCH  73  74
ENDBRANCH  52  66
BRANCH  53  78
ATOM     78  C   UNL A   1      41.500  30.366  33.123  1.00  0.00     0.058 A 
ATOM     79  C   UNL A   1      40.318  29.627  33.333  1.00  0.00     0.135 A 
ATOM     80  C   UNL A   1      41.617  31.595  33.783  1.00  0.00     0.135 A 
ATOM     81  F   UNL A   1      40.151  28.441  32.724  1.00  0.00    -0.206 F 
ATOM     82  C   UNL A   1      39.359  30.019  34.261  1.00  0.00     0.059 A 
ATOM     83  C   UNL A   1      40.665  32.009  34.720  1.00  0.00     0.059 A 
ATOM     84  F   UNL A   1      42.719  32.345  33.626  1.00  0.00    -0.206 F 
ATOM     85  C   UNL A   1      39.570  31.186  34.991  1.00  0.00     0.060 A 
BRANCH  85  86
ATOM     86  S   UNL A   1      38.481  31.510  36.400  1.00  0.00     0.124 S 
ATOM     87  O   UNL A   1      38.141  30.159  36.831  1.00  0.00    -0.237 OA
ATOM     88  O   UNL A   1      39.360  32.253  37.302  1.00  0.00    -0.237 OA
ATOM     89  O   UNL A   1      37.397  32.285  35.810  1.00  0.00    -0.744 OA
ENDBRANCH  85  86
ENDBRANCH  53  78
BRANCH  65  90
ATOM     90  C   UNL A   1      44.885  23.926  33.641  1.00  0.00     0.058 A 
ATOM     91  C   UNL A   1      43.973  22.907  33.966  1.00  0.00     0.135 A 
ATOM     92  C   UNL A   1      46.229  23.679  34.015  1.00  0.00     0.135 A 
ATOM     93  F   UNL A   1      42.691  22.969  33.579  1.00  0.00    -0.206 F 
ATOM     94  C   UNL A   1      44.354  21.753  34.658  1.00  0.00     0.059 A 
ATOM     95  C   UNL A   1      46.640  22.511  34.653  1.00  0.00     0.059 A 
ATOM     96  F   UNL A   1      47.202  24.567  33.758  1.00  0.00    -0.206 F 
ATOM     97  C   UNL A   1      45.690  21.561  34.994  1.00  0.00     0.060 A 
BRANCH  97  98
ATOM     98  S   UNL A   1      46.209  20.042  35.814  1.00  0.00     0.124 S 
ATOM     99  O   UNL A   1      47.641  20.035  35.537  1.00  0.00    -0.237 OA
ATOM    100  O   UNL A   1      45.838  20.279  37.207  1.00  0.00    -0.237 OA
ATOM    101  O   UNL A   1      45.427  19.015  35.134  1.00  0.00    -0.744 OA
ENDBRANCH  97  98
ENDBRANCH  65  90
ENDBRANCH  39  40
ENDBRANCH  31  34
ENDBRANCH  29  30
ENDBRANCH  28  29
ENDBRANCH   1  28
TORSDOF 17
ENDMDL
MODEL 2
REMARK VINA RESULT:     -14.3      5.457     11.801
REMARK SMILES Cc1ccc(NC(=O)[C@H]2CC(Cl)=CC[C@@H]2C(=O)NCCCCNC(=O)c2ccc(-c3c4nc(c(-c5c(F)cc(S(=O)(=O)[O-])cc5F)c5ccc([nH]5)c(-c5c(F)cc(S(=O)(=O)[O-])cc5F)c5nc(c(-c6c(F)cc(S(=O)(=O)[O-])cc6F)c6ccc3[nH]6)C=C5)C=C4)cc2)cc1[N+](=O)[O-]
REMARK SMILES IDX 20 1 19 2 18 3 16 4 17 5 15 7 9 8 10 9 11 10 14 11 12 12
REMARK SMILES IDX 13 13 7 14 6 15 8 17 5 18 1 19 2 20 3 21 93 22 4 23 92 24
REMARK SMILES IDX 94 25 95 26 96 27 21 28 22 29 23 30 24 31 25 33 26 34 27 35
REMARK SMILES IDX 91 36 28 37 90 38 29 39 30 40 31 41 84 42 32 43 89 44 83 45
REMARK SMILES IDX 85 46 33 47 88 48 82 49 81 50 34 52 68 53 47 54 67 55 48 56
REMARK SMILES IDX 51 57 66 58 86 59 49 60 50 61 65 63 87 64 52 65 35 66 36 67
REMARK SMILES IDX 45 68 37 69 38 70 44 71 46 72 39 73 40 74 41 75 42 76 43 77
REMARK SMILES IDX 69 78 70 79 79 80 71 81 72 82 78 83 80 84 73 85 74 86 75 87
REMARK SMILES IDX 76 88 77 89 53 90 54 91 63 92 55 93 56 94 62 95 64 96 57 97
REMARK SMILES IDX 58 98 59 99 60 100 61 101
REMARK H PARENT 18 6 6 16 23 32 85 51 51 62
REMARK Flexibility Score: inf
ROOT
ATOM      1  C   UNL A   1      37.440  21.661  24.632  1.00  0.00     0.023 C 
ENDROOT
BRANCH   1   2
ATOM      2  C   UNL A   1      37.002  23.014  24.062  1.00  0.00     0.116 C 
BRANCH   2   3
ATOM      3  N   UNL A   1      35.855  22.942  23.167  1.00  0.00    -0.356 N 
ATOM      4  C   UNL A   1      34.693  23.639  23.095  1.00  0.00     0.224 C 
ATOM      5  O   UNL A   1      33.945  23.387  22.145  1.00  0.00    -0.275 OA
ATOM      6  H   UNL A   1      35.940  22.247  22.476  1.00  0.00     0.163 HD
BRANCH   4   7
ATOM      7  C   UNL A   1      34.288  24.674  24.143  1.00  0.00     0.095 C 
ATOM      8  C   UNL A   1      33.370  24.008  25.200  1.00  0.00     0.097 C 
ATOM      9  C   UNL A   1      32.719  25.061  26.119  1.00  0.00     0.062 C 
ATOM     10  C   UNL A   1      31.989  26.094  25.327  1.00  0.00     0.015 C 
ATOM     11  C   UNL A   1      33.542  25.820  23.390  1.00  0.00     0.043 C 
ATOM     12  Cl  UNL A   1      30.600  26.799  26.066  1.00  0.00    -0.089 Cl
ATOM     13  C   UNL A   1      32.361  26.435  24.090  1.00  0.00    -0.010 C 
BRANCH   8  14
ATOM     14  C   UNL A   1      34.124  23.041  26.100  1.00  0.00     0.228 C 
ATOM     15  N   UNL A   1      34.056  21.684  25.997  1.00  0.00    -0.326 N 
ATOM     16  H   UNL A   1      34.618  21.220  26.661  1.00  0.00     0.169 HD
ATOM     17  O   UNL A   1      34.911  23.486  26.947  1.00  0.00    -0.274 OA
BRANCH  15  18
ATOM     18  C   UNL A   1      33.362  20.802  25.154  1.00  0.00     0.048 A 
ATOM     19  C   UNL A   1      32.222  17.977  22.083  1.00  0.00     0.052 C 
ATOM     20  C   UNL A   1      32.515  18.888  23.237  1.00  0.00     0.027 A 
ATOM     21  C   UNL A   1      32.137  20.231  23.138  1.00  0.00     0.012 A 
ATOM     22  C   UNL A   1      33.215  18.511  24.389  1.00  0.00     0.274 A 
ATOM     23  C   UNL A   1      32.538  21.170  24.096  1.00  0.00     0.027 A 
ATOM     24  C   UNL A   1      33.584  19.441  25.372  1.00  0.00     0.112 A 
BRANCH  22  25
ATOM     25  N   UNL A   1      33.671  17.146  24.577  1.00  0.00     0.063 N 
ATOM     26  O   UNL A   1      34.816  16.883  24.189  1.00  0.00    -0.258 OA
ATOM     27  O   UNL A   1      32.878  16.351  25.100  1.00  0.00    -0.258 OA
ENDBRANCH  22  25
ENDBRANCH  15  18
ENDBRANCH   8  14
ENDBRANCH   4   7
ENDBRANCH   2   3
ENDBRANCH   1   2
BRANCH   1  28
ATOM     28  C   UNL A   1      38.486  21.698  25.750  1.00  0.00     0.023 C 
BRANCH  28  29
ATOM     29  C   UNL A   1      38.838  23.078  26.297  1.00  0.00     0.116 C 
BRANCH  29  30
ATOM     30  N   UNL A   1      40.289  23.219  26.500  1.00  0.00    -0.352 N 
ATOM     31  C   UNL A   1      41.007  24.342  26.844  1.00  0.00     0.251 C 
ATOM     32  H   UNL A   1      40.820  22.399  26.372  1.00  0.00     0.163 HD
ATOM     33  O   UNL A   1      42.217  24.383  26.944  1.00  0.00    -0.269 OA
BRANCH  31  34
ATOM     34  C   UNL A   1      40.189  25.538  27.157  1.00  0.00     0.039 A 
ATOM     35  C   UNL A   1      40.505  26.699  26.449  1.00  0.00     0.014 A 
ATOM     36  C   UNL A   1      39.539  25.554  28.385  1.00  0.00     0.014 A 
ATOM     37  C   UNL A   1      40.345  27.922  27.085  1.00  0.00     0.010 A 
ATOM     38  C   UNL A   1      39.444  26.770  29.034  1.00  0.00     0.010 A 
ATOM     39  C   UNL A   1      39.917  27.939  28.413  1.00  0.00    -0.014 A 
BRANCH  39  40
ATOM     40  C   UNL A   1      40.053  29.117  29.261  1.00  0.00     0.031 A 
ATOM     41  C   UNL A   1      38.984  30.136  29.268  1.00  0.00     0.074 A 
ATOM     42  C   UNL A   1      41.143  29.269  30.047  1.00  0.00     0.049 A 
ATOM     43  N   UNL A   1      39.144  31.363  29.630  1.00  0.00    -0.248 NA
ATOM     44  C   UNL A   1      37.635  29.849  28.797  1.00  0.00     0.031 C 
ATOM     45  C   UNL A   1      41.330  30.242  31.118  1.00  0.00     0.029 A 
ATOM     46  N   UNL A   1      42.406  28.689  29.880  1.00  0.00    -0.354 N 
ATOM     47  C   UNL A   1      37.905  31.962  29.673  1.00  0.00     0.074 A 
ATOM     48  C   UNL A   1      37.005  30.986  29.105  1.00  0.00     0.031 C 
ATOM     49  C   UNL A   1      42.643  30.396  31.343  1.00  0.00     0.029 A 
ATOM     50  C   UNL A   1      43.353  29.625  30.337  1.00  0.00     0.049 A 
ATOM     51  H   UNL A   1      42.596  27.796  29.514  1.00  0.00     0.167 HD
ATOM     52  C   UNL A   1      37.771  33.173  30.290  1.00  0.00     0.037 A 
ATOM     53  C   UNL A   1      44.306  30.132  29.502  1.00  0.00     0.037 A 
ATOM     54  C   UNL A   1      39.078  33.700  30.684  1.00  0.00     0.049 A 
ATOM     55  C   UNL A   1      44.198  31.625  29.281  1.00  0.00     0.074 A 
ATOM     56  C   UNL A   1      39.787  33.666  31.874  1.00  0.00     0.029 A 
ATOM     57  N   UNL A   1      39.981  34.092  29.702  1.00  0.00    -0.354 N 
ATOM     58  N   UNL A   1      43.157  32.339  29.611  1.00  0.00    -0.248 NA
ATOM     59  C   UNL A   1      45.245  32.432  28.660  1.00  0.00     0.031 C 
ATOM     60  C   UNL A   1      41.144  33.962  31.587  1.00  0.00     0.029 A 
ATOM     61  C   UNL A   1      41.255  34.208  30.230  1.00  0.00     0.049 A 
ATOM     62  H   UNL A   1      39.747  34.263  28.761  1.00  0.00     0.167 HD
ATOM     63  C   UNL A   1      43.345  33.643  29.226  1.00  0.00     0.074 A 
ATOM     64  C   UNL A   1      44.685  33.656  28.668  1.00  0.00     0.031 C 
ATOM     65  C   UNL A   1      42.378  34.596  29.385  1.00  0.00     0.037 A 
BRANCH  52  66
ATOM     66  C   UNL A   1      36.446  33.724  30.786  1.00  0.00     0.058 A 
ATOM     67  C   UNL A   1      35.466  34.178  29.875  1.00  0.00     0.135 A 
ATOM     68  C   UNL A   1      36.106  33.904  32.142  1.00  0.00     0.135 A 
ATOM     69  F   UNL A   1      35.592  33.982  28.555  1.00  0.00    -0.206 F 
ATOM     70  C   UNL A   1      34.316  34.867  30.271  1.00  0.00     0.059 A 
ATOM     71  C   UNL A   1      34.996  34.644  32.562  1.00  0.00     0.059 A 
ATOM     72  F   UNL A   1      36.808  33.318  33.119  1.00  0.00    -0.206 F 
ATOM     73  C   UNL A   1      34.109  35.135  31.617  1.00  0.00     0.060 A 
BRANCH  73  74
ATOM     74  S   UNL A   1      32.676  36.113  32.106  1.00  0.00     0.124 S 
ATOM     75  O   UNL A   1      31.722  35.083  32.509  1.00  0.00    -0.237 OA
ATOM     76  O   UNL A   1      33.220  36.931  33.184  1.00  0.00    -0.237 OA
ATOM     77  O   UNL A   1      32.325  36.835  30.887  1.00  0.00    -0.744 OA
ENDBRANCH  73  74
ENDBRANCH  52  66
BRANCH  53  78
ATOM     78  C   UNL A   1      44.827  29.131  28.532  1.00  0.00     0.058 A 
ATOM     79  C   UNL A   1      44.221  29.076  27.261  1.00  0.00     0.135 A 
ATOM     80  C   UNL A   1      46.098  28.559  28.665  1.00  0.00     0.135 A 
ATOM     81  F   UNL A   1      43.001  29.607  27.075  1.00  0.00    -0.206 F 
ATOM     82  C   UNL A   1      44.899  28.603  26.142  1.00  0.00     0.059 A 
ATOM     83  C   UNL A   1      46.797  28.078  27.554  1.00  0.00     0.059 A 
ATOM     84  F   UNL A   1      46.729  28.581  29.849  1.00  0.00    -0.206 F 
ATOM     85  C   UNL A   1      46.209  28.156  26.290  1.00  0.00     0.060 A 
BRANCH  85  86
ATOM     86  S   UNL A   1      47.170  27.845  24.788  1.00  0.00     0.124 S 
ATOM     87  O   UNL A   1      46.773  28.963  23.942  1.00  0.00    -0.237 OA
ATOM     88  O   UNL A   1      48.544  27.895  25.288  1.00  0.00    -0.237 OA
ATOM     89  O   UNL A   1      46.709  26.528  24.368  1.00  0.00    -0.744 OA
ENDBRANCH  85  86
ENDBRANCH  53  78
BRANCH  65  90
ATOM     90  C   UNL A   1      42.409  36.006  28.834  1.00  0.00     0.058 A 
ATOM     91  C   UNL A   1      43.101  37.074  29.429  1.00  0.00     0.135 A 
ATOM     92  C   UNL A   1      41.838  36.283  27.567  1.00  0.00     0.135 A 
ATOM     93  F   UNL A   1      43.773  36.916  30.578  1.00  0.00    -0.206 F 
ATOM     94  C   UNL A   1      43.177  38.339  28.839  1.00  0.00     0.059 A 
ATOM     95  C   UNL A   1      41.950  37.519  26.935  1.00  0.00     0.059 A 
ATOM     96  F   UNL A   1      41.156  35.349  26.886  1.00  0.00    -0.206 F 
ATOM     97  C   UNL A   1      42.603  38.552  27.590  1.00  0.00     0.060 A 
BRANCH  97  98
ATOM     98  S   UNL A   1      42.762  40.155  26.781  1.00  0.00     0.124 S 
ATOM     99  O   UNL A   1      41.455  40.294  26.148  1.00  0.00    -0.237 OA
ATOM    100  O   UNL A   1      43.021  41.061  27.897  1.00  0.00    -0.237 OA
ATOM    101  O   UNL A   1      43.888  39.957  25.874  1.00  0.00    -0.744 OA
ENDBRANCH  97  98
ENDBRANCH  65  90
ENDBRANCH  39  40
ENDBRANCH  31  34
ENDBRANCH  29  30
ENDBRANCH  28  29
ENDBRANCH   1  28
TORSDOF 17
ENDMDL
MODEL 3
REMARK VINA RESULT:     -14.1      1.812      3.519
REMARK SMILES Cc1ccc(NC(=O)[C@H]2CC(Cl)=CC[C@@H]2C(=O)NCCCCNC(=O)c2ccc(-c3c4nc(c(-c5c(F)cc(S(=O)(=O)[O-])cc5F)c5ccc([nH]5)c(-c5c(F)cc(S(=O)(=O)[O-])cc5F)c5nc(c(-c6c(F)cc(S(=O)(=O)[O-])cc6F)c6ccc3[nH]6)C=C5)C=C4)cc2)cc1[N+](=O)[O-]
REMARK SMILES IDX 20 1 19 2 18 3 16 4 17 5 15 7 9 8 10 9 11 10 14 11 12 12
REMARK SMILES IDX 13 13 7 14 6 15 8 17 5 18 1 19 2 20 3 21 93 22 4 23 92 24
REMARK SMILES IDX 94 25 95 26 96 27 21 28 22 29 23 30 24 31 25 33 26 34 27 35
REMARK SMILES IDX 91 36 28 37 90 38 29 39 30 40 31 41 84 42 32 43 89 44 83 45
REMARK SMILES IDX 85 46 33 47 88 48 82 49 81 50 34 52 68 53 47 54 67 55 48 56
REMARK SMILES IDX 51 57 66 58 86 59 49 60 50 61 65 63 87 64 52 65 35 66 36 67
REMARK SMILES IDX 45 68 37 69 38 70 44 71 46 72 39 73 40 74 41 75 42 76 43 77
REMARK SMILES IDX 69 78 70 79 79 80 71 81 72 82 78 83 80 84 73 85 74 86 75 87
REMARK SMILES IDX 76 88 77 89 53 90 54 91 63 92 55 93 56 94 62 95 64 96 57 97
REMARK SMILES IDX 58 98 59 99 60 100 61 101
REMARK H PARENT 18 6 6 16 23 32 85 51 51 62
REMARK Flexibility Score: inf
ROOT
ATOM      1  C   UNL A   1      32.297  30.741  26.174  1.00  0.00     0.023 C 
ENDROOT
BRANCH   1   2
ATOM      2  C   UNL A   1      31.875  29.653  25.182  1.00  0.00     0.116 C 
BRANCH   2   3
ATOM      3  N   UNL A   1      32.885  29.332  24.182  1.00  0.00    -0.356 N 
ATOM      4  C   UNL A   1      33.389  28.161  23.719  1.00  0.00     0.224 C 
ATOM      5  O   UNL A   1      34.194  28.226  22.785  1.00  0.00    -0.275 OA
ATOM      6  H   UNL A   1      33.281  30.126  23.757  1.00  0.00     0.163 HD
BRANCH   4   7
ATOM      7  C   UNL A   1      33.018  26.809  24.326  1.00  0.00     0.095 C 
ATOM      8  C   UNL A   1      31.686  26.313  23.709  1.00  0.00     0.097 C 
ATOM      9  C   UNL A   1      31.132  25.096  24.476  1.00  0.00     0.062 C 
ATOM     10  C   UNL A   1      30.987  25.393  25.931  1.00  0.00     0.015 C 
ATOM     11  C   UNL A   1      32.881  27.021  25.867  1.00  0.00     0.043 C 
ATOM     12  Cl  UNL A   1      29.711  24.588  26.764  1.00  0.00    -0.089 Cl
ATOM     13  C   UNL A   1      31.779  26.267  26.560  1.00  0.00    -0.010 C 
BRANCH   8  14
ATOM     14  C   UNL A   1      31.840  25.887  22.256  1.00  0.00     0.228 C 
ATOM     15  N   UNL A   1      32.547  24.798  21.846  1.00  0.00    -0.326 N 
ATOM     16  H   UNL A   1      32.530  24.675  20.868  1.00  0.00     0.169 HD
ATOM     17  O   UNL A   1      31.238  26.513  21.372  1.00  0.00    -0.274 OA
BRANCH  15  18
ATOM     18  C   UNL A   1      33.296  23.813  22.508  1.00  0.00     0.048 A 
ATOM     19  C   UNL A   1      34.961  21.067  25.407  1.00  0.00     0.052 C 
ATOM     20  C   UNL A   1      34.409  21.912  24.298  1.00  0.00     0.027 A 
ATOM     21  C   UNL A   1      35.129  23.043  23.902  1.00  0.00     0.012 A 
ATOM     22  C   UNL A   1      33.176  21.694  23.672  1.00  0.00     0.274 A 
ATOM     23  C   UNL A   1      34.586  23.969  23.002  1.00  0.00     0.027 A 
ATOM     24  C   UNL A   1      32.647  22.598  22.740  1.00  0.00     0.112 A 
BRANCH  22  25
ATOM     25  N   UNL A   1      32.343  20.560  24.029  1.00  0.00     0.063 N 
ATOM     26  O   UNL A   1      32.317  19.615  23.230  1.00  0.00    -0.258 OA
ATOM     27  O   UNL A   1      31.718  20.630  25.096  1.00  0.00    -0.258 OA
ENDBRANCH  22  25
ENDBRANCH  15  18
ENDBRANCH   8  14
ENDBRANCH   4   7
ENDBRANCH   2   3
ENDBRANCH   1   2
BRANCH   1  28
ATOM     28  C   UNL A   1      33.046  30.271  27.425  1.00  0.00     0.023 C 
BRANCH  28  29
ATOM     29  C   UNL A   1      34.566  30.217  27.318  1.00  0.00     0.116 C 
BRANCH  29  30
ATOM     30  N   UNL A   1      35.204  31.139  28.272  1.00  0.00    -0.352 N 
ATOM     31  C   UNL A   1      36.326  30.943  29.043  1.00  0.00     0.251 C 
ATOM     32  H   UNL A   1      34.767  32.017  28.373  1.00  0.00     0.163 HD
ATOM     33  O   UNL A   1      36.760  31.745  29.847  1.00  0.00    -0.269 OA
BRANCH  31  34
ATOM     34  C   UNL A   1      37.046  29.672  28.792  1.00  0.00     0.039 A 
ATOM     35  C   UNL A   1      37.319  28.890  29.916  1.00  0.00     0.014 A 
ATOM     36  C   UNL A   1      37.775  29.582  27.613  1.00  0.00     0.014 A 
ATOM     37  C   UNL A   1      38.486  28.137  29.927  1.00  0.00     0.010 A 
ATOM     38  C   UNL A   1      38.965  28.883  27.657  1.00  0.00     0.010 A 
ATOM     39  C   UNL A   1      39.353  28.226  28.838  1.00  0.00    -0.014 A 
BRANCH  39  40
ATOM     40  C   UNL A   1      40.735  27.766  28.902  1.00  0.00     0.031 A 
ATOM     41  C   UNL A   1      41.070  26.403  28.445  1.00  0.00     0.074 A 
ATOM     42  C   UNL A   1      41.706  28.588  29.363  1.00  0.00     0.049 A 
ATOM     43  N   UNL A   1      42.119  25.746  28.808  1.00  0.00    -0.248 NA
ATOM     44  C   UNL A   1      40.191  25.640  27.568  1.00  0.00     0.031 C 
ATOM     45  C   UNL A   1      43.149  28.386  29.273  1.00  0.00     0.029 A 
ATOM     46  N   UNL A   1      41.562  29.692  30.211  1.00  0.00    -0.354 N 
ATOM     47  C   UNL A   1      42.187  24.596  28.052  1.00  0.00     0.074 A 
ATOM     48  C   UNL A   1      40.940  24.560  27.326  1.00  0.00     0.031 C 
ATOM     49  C   UNL A   1      43.752  29.134  30.209  1.00  0.00     0.029 A 
ATOM     50  C   UNL A   1      42.714  29.745  31.020  1.00  0.00     0.049 A 
ATOM     51  H   UNL A   1      40.800  30.314  30.236  1.00  0.00     0.167 HD
ATOM     52  C   UNL A   1      43.343  23.869  28.048  1.00  0.00     0.037 A 
ATOM     53  C   UNL A   1      42.628  29.641  32.378  1.00  0.00     0.037 A 
ATOM     54  C   UNL A   1      44.296  24.406  29.019  1.00  0.00     0.049 A 
ATOM     55  C   UNL A   1      43.323  28.422  32.945  1.00  0.00     0.074 A 
ATOM     56  C   UNL A   1      45.364  25.283  28.906  1.00  0.00     0.029 A 
ATOM     57  N   UNL A   1      44.018  24.303  30.379  1.00  0.00    -0.354 N 
ATOM     58  N   UNL A   1      43.729  27.411  32.226  1.00  0.00    -0.248 NA
ATOM     59  C   UNL A   1      43.604  28.236  34.367  1.00  0.00     0.031 C 
ATOM     60  C   UNL A   1      45.675  25.768  30.201  1.00  0.00     0.029 A 
ATOM     61  C   UNL A   1      44.819  25.165  31.106  1.00  0.00     0.049 A 
ATOM     62  H   UNL A   1      43.345  23.700  30.768  1.00  0.00     0.167 HD
ATOM     63  C   UNL A   1      44.263  26.445  33.042  1.00  0.00     0.074 A 
ATOM     64  C   UNL A   1      44.195  27.026  34.370  1.00  0.00     0.031 C 
ATOM     65  C   UNL A   1      44.701  25.244  32.557  1.00  0.00     0.037 A 
BRANCH  52  66
ATOM     66  C   UNL A   1      43.704  22.868  26.965  1.00  0.00     0.058 A 
ATOM     67  C   UNL A   1      42.983  21.660  26.828  1.00  0.00     0.135 A 
ATOM     68  C   UNL A   1      44.792  22.998  26.079  1.00  0.00     0.135 A 
ATOM     69  F   UNL A   1      41.860  21.432  27.523  1.00  0.00    -0.206 F 
ATOM     70  C   UNL A   1      43.386  20.623  25.983  1.00  0.00     0.059 A 
ATOM     71  C   UNL A   1      45.253  21.953  25.272  1.00  0.00     0.059 A 
ATOM     72  F   UNL A   1      45.421  24.168  25.917  1.00  0.00    -0.206 F 
ATOM     73  C   UNL A   1      44.549  20.759  25.239  1.00  0.00     0.060 A 
BRANCH  73  74
ATOM     74  S   UNL A   1      45.114  19.375  24.231  1.00  0.00     0.124 S 
ATOM     75  O   UNL A   1      46.563  19.554  24.244  1.00  0.00    -0.237 OA
ATOM     76  O   UNL A   1      44.608  18.229  24.979  1.00  0.00    -0.237 OA
ATOM     77  O   UNL A   1      44.475  19.612  22.940  1.00  0.00    -0.744 OA
ENDBRANCH  73  74
ENDBRANCH  52  66
BRANCH  53  78
ATOM     78  C   UNL A   1      41.430  30.318  32.943  1.00  0.00     0.058 A 
ATOM     79  C   UNL A   1      40.314  29.517  33.257  1.00  0.00     0.135 A 
ATOM     80  C   UNL A   1      41.504  31.583  33.540  1.00  0.00     0.135 A 
ATOM     81  F   UNL A   1      40.190  28.295  32.711  1.00  0.00    -0.206 F 
ATOM     82  C   UNL A   1      39.386  29.892  34.223  1.00  0.00     0.059 A 
ATOM     83  C   UNL A   1      40.582  31.980  34.514  1.00  0.00     0.059 A 
ATOM     84  F   UNL A   1      42.543  32.392  33.283  1.00  0.00    -0.206 F 
ATOM     85  C   UNL A   1      39.561  31.104  34.887  1.00  0.00     0.060 A 
BRANCH  85  86
ATOM     86  S   UNL A   1      38.536  31.425  36.343  1.00  0.00     0.124 S 
ATOM     87  O   UNL A   1      38.191  30.074  36.769  1.00  0.00    -0.237 OA
ATOM     88  O   UNL A   1      39.464  32.140  37.219  1.00  0.00    -0.237 OA
ATOM     89  O   UNL A   1      37.443  32.226  35.808  1.00  0.00    -0.744 OA
ENDBRANCH  85  86
ENDBRANCH  53  78
BRANCH  65  90
ATOM     90  C   UNL A   1      45.131  24.048  33.379  1.00  0.00     0.058 A 
ATOM     91  C   UNL A   1      46.381  23.927  34.007  1.00  0.00     0.135 A 
ATOM     92  C   UNL A   1      44.198  23.024  33.682  1.00  0.00     0.135 A 
ATOM     93  F   UNL A   1      47.317  24.879  33.887  1.00  0.00    -0.206 F 
ATOM     94  C   UNL A   1      46.705  22.844  34.831  1.00  0.00     0.059 A 
ATOM     95  C   UNL A   1      44.479  21.969  34.545  1.00  0.00     0.059 A 
ATOM     96  F   UNL A   1      42.964  23.024  33.154  1.00  0.00    -0.206 F 
ATOM     97  C   UNL A   1      45.746  21.872  35.099  1.00  0.00     0.060 A 
BRANCH  97  98
ATOM     98  S   UNL A   1      46.122  20.514  36.224  1.00  0.00     0.124 S 
ATOM     99  O   UNL A   1      45.300  19.443  35.672  1.00  0.00    -0.237 OA
ATOM    100  O   UNL A   1      47.565  20.347  36.063  1.00  0.00    -0.237 OA
ATOM    101  O   UNL A   1      45.702  21.034  37.520  1.00  0.00    -0.744 OA
ENDBRANCH  97  98
ENDBRANCH  65  90
ENDBRANCH  39  40
ENDBRANCH  31  34
ENDBRANCH  29  30
ENDBRANCH  28  29
ENDBRANCH   1  28
TORSDOF 17
ENDMDL
