MODEL 1
REMARK VINA RESULT:     -10.6      0.000      0.000
REMARK SMILES C[C@@H](CC(=O)NCCCCNC(=O)c1ccc(-c2c3nc(c(-c4c(F)cc(S(=O)(=O)[O-])cc4F)c4ccc([nH]4)c(-c4c(F)cc(S(=O)(=O)[O-])cc4F)c4nc(c(-c5c(F)cc(S(=O)(=O)[O-])cc5F)c5ccc2[nH]5)C=C4)C=C3)cc1)NC(=O)/C=C/c1cccnc1
REMARK SMILES IDX 8 1 7 2 6 3 4 4 5 5 3 7 2 8 1 9 80 10 81 11 82 13 83 14
REMARK SMILES IDX 84 15 85 16 86 17 90 18 87 19 89 20 88 21 9 22 10 23 11 24
REMARK SMILES IDX 12 25 13 27 14 28 15 29 79 30 16 31 78 32 17 33 18 34 19 35
REMARK SMILES IDX 72 36 20 37 77 38 71 39 73 40 21 41 76 42 70 43 69 44 22 46
REMARK SMILES IDX 56 47 35 48 55 49 36 50 39 51 54 52 74 53 37 54 38 55 53 57
REMARK SMILES IDX 75 58 40 59 23 60 24 61 33 62 25 63 26 64 32 65 34 66 27 67
REMARK SMILES IDX 28 68 29 69 30 70 31 71 57 72 58 73 67 74 59 75 60 76 66 77
REMARK SMILES IDX 68 78 61 79 62 80 63 81 64 82 65 83 41 84 42 85 51 86 43 87
REMARK SMILES IDX 44 88 50 89 52 90 45 91 46 92 47 93 48 94 49 95
REMARK H PARENT 6 6 80 12 11 26 73 45 39 56
REMARK Flexibility Score: inf
ROOT
ATOM      1  C   UNL A   1      35.731  21.790  26.115  1.00  0.00     0.023 C 
ENDROOT
BRANCH   1   2
ATOM      2  C   UNL A   1      35.305  20.947  24.910  1.00  0.00     0.116 C 
BRANCH   2   3
ATOM      3  N   UNL A   1      33.998  20.366  25.141  1.00  0.00    -0.356 N 
ATOM      4  C   UNL A   1      32.798  20.670  24.575  1.00  0.00     0.222 C 
ATOM      5  O   UNL A   1      31.776  20.219  25.093  1.00  0.00    -0.275 OA
ATOM      6  H   UNL A   1      33.975  19.643  25.809  1.00  0.00     0.163 HD
BRANCH   4   7
ATOM      7  C   UNL A   1      32.720  21.506  23.316  1.00  0.00     0.124 C 
BRANCH   7   8
ATOM      8  C   UNL A   1      32.486  23.013  23.496  1.00  0.00     0.088 C 
ATOM      9  C   UNL A   1      31.012  23.380  23.625  1.00  0.00     0.031 C 
BRANCH   8  10
ATOM     10  N   UNL A   1      33.090  23.833  22.450  1.00  0.00    -0.350 N 
ATOM     11  C   UNL A   1      33.189  25.185  22.314  1.00  0.00     0.244 C 
ATOM     12  H   UNL A   1      33.495  23.319  21.714  1.00  0.00     0.164 HD
ATOM     13  O   UNL A   1      33.647  25.660  21.276  1.00  0.00    -0.270 OA
BRANCH  11  14
ATOM     14  C   UNL A   1      32.865  26.110  23.431  1.00  0.00     0.072 C 
ATOM     15  C   UNL A   1      33.653  26.409  24.472  1.00  0.00     0.015 C 
BRANCH  15  16
ATOM     16  C   UNL A   1      33.331  27.366  25.518  1.00  0.00    -0.007 A 
ATOM     17  C   UNL A   1      34.328  28.050  26.208  1.00  0.00     0.011 A 
ATOM     18  C   UNL A   1      32.006  27.721  25.757  1.00  0.00     0.119 A 
ATOM     19  C   UNL A   1      33.967  29.064  27.089  1.00  0.00     0.021 A 
ATOM     20  N   UNL A   1      31.626  28.698  26.611  1.00  0.00    -0.264 NA
ATOM     21  C   UNL A   1      32.619  29.353  27.251  1.00  0.00     0.111 A 
ENDBRANCH  15  16
ENDBRANCH  11  14
ENDBRANCH   8  10
ENDBRANCH   7   8
ENDBRANCH   4   7
ENDBRANCH   2   3
ENDBRANCH   1   2
BRANCH   1  22
ATOM     22  C   UNL A   1      35.830  23.283  25.850  1.00  0.00     0.023 C 
BRANCH  22  23
ATOM     23  C   UNL A   1      37.092  23.707  25.129  1.00  0.00     0.116 C 
BRANCH  23  24
ATOM     24  N   UNL A   1      38.209  22.793  25.336  1.00  0.00    -0.352 N 
ATOM     25  C   UNL A   1      39.368  23.025  26.043  1.00  0.00     0.251 C 
ATOM     26  H   UNL A   1      38.124  21.904  24.922  1.00  0.00     0.163 HD
ATOM     27  O   UNL A   1      40.275  22.209  26.048  1.00  0.00    -0.269 OA
BRANCH  25  28
ATOM     28  C   UNL A   1      39.492  24.314  26.754  1.00  0.00     0.039 A 
ATOM     29  C   UNL A   1      38.906  24.453  28.013  1.00  0.00     0.014 A 
ATOM     30  C   UNL A   1      40.297  25.324  26.221  1.00  0.00     0.014 A 
ATOM     31  C   UNL A   1      39.196  25.585  28.775  1.00  0.00     0.010 A 
ATOM     32  C   UNL A   1      40.663  26.395  27.021  1.00  0.00     0.010 A 
ATOM     33  C   UNL A   1      40.110  26.542  28.302  1.00  0.00    -0.014 A 
BRANCH  33  34
ATOM     34  C   UNL A   1      40.488  27.723  29.115  1.00  0.00     0.031 A 
ATOM     35  C   UNL A   1      41.796  27.716  29.860  1.00  0.00     0.074 A 
ATOM     36  C   UNL A   1      39.631  28.754  29.249  1.00  0.00     0.049 A 
ATOM     37  N   UNL A   1      42.272  28.595  30.703  1.00  0.00    -0.248 NA
ATOM     38  C   UNL A   1      42.667  26.545  29.661  1.00  0.00     0.031 C 
ATOM     39  C   UNL A   1      38.306  28.845  28.629  1.00  0.00     0.029 A 
ATOM     40  N   UNL A   1      39.743  29.923  29.959  1.00  0.00    -0.354 N 
ATOM     41  C   UNL A   1      43.478  28.071  31.151  1.00  0.00     0.074 A 
ATOM     42  C   UNL A   1      43.632  26.771  30.537  1.00  0.00     0.031 C 
ATOM     43  C   UNL A   1      37.743  30.018  28.963  1.00  0.00     0.029 A 
ATOM     44  C   UNL A   1      38.648  30.747  29.845  1.00  0.00     0.049 A 
ATOM     45  H   UNL A   1      40.534  30.149  30.501  1.00  0.00     0.167 HD
ATOM     46  C   UNL A   1      44.392  28.635  31.975  1.00  0.00     0.037 A 
ATOM     47  C   UNL A   1      38.405  31.954  30.392  1.00  0.00     0.037 A 
ATOM     48  C   UNL A   1      44.257  29.950  32.538  1.00  0.00     0.049 A 
ATOM     49  C   UNL A   1      39.453  32.578  31.274  1.00  0.00     0.074 A 
ATOM     50  C   UNL A   1      45.154  30.646  33.327  1.00  0.00     0.029 A 
ATOM     51  N   UNL A   1      43.154  30.774  32.362  1.00  0.00    -0.354 N 
ATOM     52  N   UNL A   1      40.617  32.095  31.639  1.00  0.00    -0.248 NA
ATOM     53  C   UNL A   1      39.159  33.913  31.813  1.00  0.00     0.031 C 
ATOM     54  C   UNL A   1      44.582  31.881  33.651  1.00  0.00     0.029 A 
ATOM     55  C   UNL A   1      43.343  31.968  33.034  1.00  0.00     0.049 A 
ATOM     56  H   UNL A   1      42.353  30.542  31.837  1.00  0.00     0.167 HD
ATOM     57  C   UNL A   1      41.205  33.076  32.431  1.00  0.00     0.074 A 
ATOM     58  C   UNL A   1      40.273  34.184  32.481  1.00  0.00     0.031 C 
ATOM     59  C   UNL A   1      42.405  33.061  33.059  1.00  0.00     0.037 A 
BRANCH  46  60
ATOM     60  C   UNL A   1      45.624  27.835  32.291  1.00  0.00     0.058 A 
ATOM     61  C   UNL A   1      46.776  27.914  31.492  1.00  0.00     0.135 A 
ATOM     62  C   UNL A   1      45.659  26.988  33.409  1.00  0.00     0.135 A 
ATOM     63  F   UNL A   1      46.789  28.694  30.400  1.00  0.00    -0.206 F 
ATOM     64  C   UNL A   1      47.907  27.156  31.770  1.00  0.00     0.059 A 
ATOM     65  C   UNL A   1      46.790  26.239  33.723  1.00  0.00     0.059 A 
ATOM     66  F   UNL A   1      44.583  26.871  34.204  1.00  0.00    -0.206 F 
ATOM     67  C   UNL A   1      47.904  26.318  32.886  1.00  0.00     0.060 A 
BRANCH  67  68
ATOM     68  S   UNL A   1      49.378  25.336  33.232  1.00  0.00     0.124 S 
ATOM     69  O   UNL A   1      50.234  26.319  33.889  1.00  0.00    -0.237 OA
ATOM     70  O   UNL A   1      48.857  24.277  34.089  1.00  0.00    -0.237 OA
ATOM     71  O   UNL A   1      49.818  24.907  31.907  1.00  0.00    -0.744 OA
ENDBRANCH  67  68
ENDBRANCH  46  60
BRANCH  47  72
ATOM     72  C   UNL A   1      37.137  32.668  30.092  1.00  0.00     0.058 A 
ATOM     73  C   UNL A   1      37.065  33.590  29.037  1.00  0.00     0.135 A 
ATOM     74  C   UNL A   1      35.972  32.439  30.839  1.00  0.00     0.135 A 
ATOM     75  F   UNL A   1      38.153  33.847  28.296  1.00  0.00    -0.206 F 
ATOM     76  C   UNL A   1      35.890  34.274  28.744  1.00  0.00     0.059 A 
ATOM     77  C   UNL A   1      34.778  33.094  30.553  1.00  0.00     0.059 A 
ATOM     78  F   UNL A   1      35.984  31.552  31.847  1.00  0.00    -0.206 F 
ATOM     79  C   UNL A   1      34.750  34.018  29.509  1.00  0.00     0.060 A 
BRANCH  79  80
ATOM     80  S   UNL A   1      33.216  34.878  29.092  1.00  0.00     0.124 S 
ATOM     81  O   UNL A   1      32.622  33.965  28.124  1.00  0.00    -0.237 OA
ATOM     82  O   UNL A   1      32.547  34.959  30.388  1.00  0.00    -0.237 OA
ATOM     83  O   UNL A   1      33.684  36.153  28.557  1.00  0.00    -0.744 OA
ENDBRANCH  79  80
ENDBRANCH  47  72
BRANCH  59  84
ATOM     84  C   UNL A   1      42.795  34.290  33.830  1.00  0.00     0.058 A 
ATOM     85  C   UNL A   1      42.485  34.431  35.190  1.00  0.00     0.135 A 
ATOM     86  C   UNL A   1      43.538  35.308  33.212  1.00  0.00     0.135 A 
ATOM     87  F   UNL A   1      41.771  33.488  35.823  1.00  0.00    -0.206 F 
ATOM     88  C   UNL A   1      42.884  35.552  35.910  1.00  0.00     0.059 A 
ATOM     89  C   UNL A   1      43.969  36.426  33.919  1.00  0.00     0.059 A 
ATOM     90  F   UNL A   1      43.869  35.213  31.915  1.00  0.00    -0.206 F 
ATOM     91  C   UNL A   1      43.628  36.543  35.266  1.00  0.00     0.060 A 
BRANCH  91  92
ATOM     92  S   UNL A   1      44.176  37.973  36.221  1.00  0.00     0.124 S 
ATOM     93  O   UNL A   1      45.610  37.721  36.330  1.00  0.00    -0.237 OA
ATOM     94  O   UNL A   1      43.791  39.091  35.365  1.00  0.00    -0.237 OA
ATOM     95  O   UNL A   1      43.422  37.857  37.467  1.00  0.00    -0.744 OA
ENDBRANCH  91  92
ENDBRANCH  59  84
ENDBRANCH  33  34
ENDBRANCH  25  28
ENDBRANCH  23  24
ENDBRANCH  22  23
ENDBRANCH   1  22
TORSDOF 18
ENDMDL
MODEL 2
REMARK VINA RESULT:     -10.6      1.711      2.183
REMARK SMILES C[C@@H](CC(=O)NCCCCNC(=O)c1ccc(-c2c3nc(c(-c4c(F)cc(S(=O)(=O)[O-])cc4F)c4ccc([nH]4)c(-c4c(F)cc(S(=O)(=O)[O-])cc4F)c4nc(c(-c5c(F)cc(S(=O)(=O)[O-])cc5F)c5ccc2[nH]5)C=C4)C=C3)cc1)NC(=O)/C=C/c1cccnc1
REMARK SMILES IDX 8 1 7 2 6 3 4 4 5 5 3 7 2 8 1 9 80 10 81 11 82 13 83 14
REMARK SMILES IDX 84 15 85 16 86 17 90 18 87 19 89 20 88 21 9 22 10 23 11 24
REMARK SMILES IDX 12 25 13 27 14 28 15 29 79 30 16 31 78 32 17 33 18 34 19 35
REMARK SMILES IDX 72 36 20 37 77 38 71 39 73 40 21 41 76 42 70 43 69 44 22 46
REMARK SMILES IDX 56 47 35 48 55 49 36 50 39 51 54 52 74 53 37 54 38 55 53 57
REMARK SMILES IDX 75 58 40 59 23 60 24 61 33 62 25 63 26 64 32 65 34 66 27 67
REMARK SMILES IDX 28 68 29 69 30 70 31 71 57 72 58 73 67 74 59 75 60 76 66 77
REMARK SMILES IDX 68 78 61 79 62 80 63 81 64 82 65 83 41 84 42 85 51 86 43 87
REMARK SMILES IDX 44 88 50 89 52 90 45 91 46 92 47 93 48 94 49 95
REMARK H PARENT 6 6 80 12 11 26 73 45 39 56
REMARK Flexibility Score: inf
ROOT
ATOM      1  C   UNL A   1      34.665  22.999  26.525  1.00  0.00     0.023 C 
ENDROOT
BRANCH   1   2
ATOM      2  C   UNL A   1      33.723  21.800  26.664  1.00  0.00     0.116 C 
BRANCH   2   3
ATOM      3  N   UNL A   1      32.470  22.214  27.261  1.00  0.00    -0.356 N 
ATOM      4  C   UNL A   1      31.412  22.863  26.702  1.00  0.00     0.222 C 
ATOM      5  O   UNL A   1      30.551  23.331  27.449  1.00  0.00    -0.275 OA
ATOM      6  H   UNL A   1      32.368  21.991  28.215  1.00  0.00     0.163 HD
BRANCH   4   7
ATOM      7  C   UNL A   1      31.271  22.972  25.200  1.00  0.00     0.124 C 
BRANCH   7   8
ATOM      8  C   UNL A   1      31.630  24.324  24.565  1.00  0.00     0.088 C 
ATOM      9  C   UNL A   1      32.595  24.198  23.390  1.00  0.00     0.031 C 
BRANCH   8  10
ATOM     10  N   UNL A   1      32.161  25.299  25.513  1.00  0.00    -0.350 N 
ATOM     11  C   UNL A   1      31.963  26.642  25.626  1.00  0.00     0.244 C 
ATOM     12  H   UNL A   1      32.769  24.919  26.188  1.00  0.00     0.164 HD
ATOM     13  O   UNL A   1      32.616  27.286  26.445  1.00  0.00    -0.270 OA
BRANCH  11  14
ATOM     14  C   UNL A   1      30.895  27.343  24.865  1.00  0.00     0.072 C 
ATOM     15  C   UNL A   1      31.046  28.016  23.718  1.00  0.00     0.015 C 
BRANCH  15  16
ATOM     16  C   UNL A   1      29.970  28.640  22.965  1.00  0.00    -0.007 A 
ATOM     17  C   UNL A   1      28.635  28.414  23.284  1.00  0.00     0.011 A 
ATOM     18  C   UNL A   1      30.260  29.591  21.990  1.00  0.00     0.119 A 
ATOM     19  C   UNL A   1      27.649  29.152  22.636  1.00  0.00     0.021 A 
ATOM     20  N   UNL A   1      29.323  30.318  21.340  1.00  0.00    -0.264 NA
ATOM     21  C   UNL A   1      28.039  30.086  21.686  1.00  0.00     0.111 A 
ENDBRANCH  15  16
ENDBRANCH  11  14
ENDBRANCH   8  10
ENDBRANCH   7   8
ENDBRANCH   4   7
ENDBRANCH   2   3
ENDBRANCH   1   2
BRANCH   1  22
ATOM     22  C   UNL A   1      35.604  22.942  25.332  1.00  0.00     0.023 C 
BRANCH  22  23
ATOM     23  C   UNL A   1      36.901  23.702  25.521  1.00  0.00     0.116 C 
BRANCH  23  24
ATOM     24  N   UNL A   1      38.068  22.835  25.616  1.00  0.00    -0.352 N 
ATOM     25  C   UNL A   1      39.281  23.117  26.203  1.00  0.00     0.251 C 
ATOM     26  H   UNL A   1      37.978  21.941  25.212  1.00  0.00     0.163 HD
ATOM     27  O   UNL A   1      40.217  22.338  26.119  1.00  0.00    -0.269 OA
BRANCH  25  28
ATOM     28  C   UNL A   1      39.423  24.413  26.898  1.00  0.00     0.039 A 
ATOM     29  C   UNL A   1      38.935  24.542  28.199  1.00  0.00     0.014 A 
ATOM     30  C   UNL A   1      40.154  25.442  26.300  1.00  0.00     0.014 A 
ATOM     31  C   UNL A   1      39.250  25.686  28.931  1.00  0.00     0.010 A 
ATOM     32  C   UNL A   1      40.551  26.527  27.065  1.00  0.00     0.010 A 
ATOM     33  C   UNL A   1      40.096  26.666  28.385  1.00  0.00    -0.014 A 
BRANCH  33  34
ATOM     34  C   UNL A   1      40.502  27.862  29.162  1.00  0.00     0.031 A 
ATOM     35  C   UNL A   1      41.838  27.872  29.855  1.00  0.00     0.074 A 
ATOM     36  C   UNL A   1      39.648  28.894  29.310  1.00  0.00     0.049 A 
ATOM     37  N   UNL A   1      42.343  28.766  30.663  1.00  0.00    -0.248 NA
ATOM     38  C   UNL A   1      42.703  26.699  29.644  1.00  0.00     0.031 C 
ATOM     39  C   UNL A   1      38.300  28.971  28.740  1.00  0.00     0.029 A 
ATOM     40  N   UNL A   1      39.784  30.076  29.994  1.00  0.00    -0.354 N 
ATOM     41  C   UNL A   1      43.568  28.253  31.074  1.00  0.00     0.074 A 
ATOM     42  C   UNL A   1      43.701  26.942  30.478  1.00  0.00     0.031 C 
ATOM     43  C   UNL A   1      37.747  30.149  29.075  1.00  0.00     0.029 A 
ATOM     44  C   UNL A   1      38.684  30.896  29.908  1.00  0.00     0.049 A 
ATOM     45  H   UNL A   1      40.595  30.313  30.501  1.00  0.00     0.167 HD
ATOM     46  C   UNL A   1      44.511  28.833  31.851  1.00  0.00     0.037 A 
ATOM     47  C   UNL A   1      38.459  32.112  30.442  1.00  0.00     0.037 A 
ATOM     48  C   UNL A   1      44.394  30.158  32.396  1.00  0.00     0.049 A 
ATOM     49  C   UNL A   1      39.538  32.753  31.272  1.00  0.00     0.074 A 
ATOM     50  C   UNL A   1      45.320  30.869  33.137  1.00  0.00     0.029 A 
ATOM     51  N   UNL A   1      43.284  30.976  32.247  1.00  0.00    -0.354 N 
ATOM     52  N   UNL A   1      40.717  32.279  31.600  1.00  0.00    -0.248 NA
ATOM     53  C   UNL A   1      39.262  34.097  31.797  1.00  0.00     0.031 C 
ATOM     54  C   UNL A   1      44.758  32.109  33.460  1.00  0.00     0.029 A 
ATOM     55  C   UNL A   1      43.496  32.183  32.891  1.00  0.00     0.049 A 
ATOM     56  H   UNL A   1      42.464  30.734  31.758  1.00  0.00     0.167 HD
ATOM     57  C   UNL A   1      41.332  33.275  32.350  1.00  0.00     0.074 A 
ATOM     58  C   UNL A   1      40.400  34.383  32.417  1.00  0.00     0.031 C 
ATOM     59  C   UNL A   1      42.557  33.274  32.932  1.00  0.00     0.037 A 
BRANCH  46  60
ATOM     60  C   UNL A   1      45.757  28.041  32.134  1.00  0.00     0.058 A 
ATOM     61  C   UNL A   1      46.869  28.092  31.279  1.00  0.00     0.135 A 
ATOM     62  C   UNL A   1      45.844  27.230  33.276  1.00  0.00     0.135 A 
ATOM     63  F   UNL A   1      46.830  28.836  30.162  1.00  0.00    -0.206 F 
ATOM     64  C   UNL A   1      48.012  27.340  31.526  1.00  0.00     0.059 A 
ATOM     65  C   UNL A   1      46.989  26.490  33.559  1.00  0.00     0.059 A 
ATOM     66  F   UNL A   1      44.808  27.142  34.125  1.00  0.00    -0.206 F 
ATOM     67  C   UNL A   1      48.061  26.539  32.668  1.00  0.00     0.060 A 
BRANCH  67  68
ATOM     68  S   UNL A   1      49.550  25.566  32.974  1.00  0.00     0.124 S 
ATOM     69  O   UNL A   1      49.026  24.489  33.808  1.00  0.00    -0.237 OA
ATOM     70  O   UNL A   1      49.957  25.183  31.627  1.00  0.00    -0.237 OA
ATOM     71  O   UNL A   1      50.438  26.508  33.650  1.00  0.00    -0.744 OA
ENDBRANCH  67  68
ENDBRANCH  46  60
BRANCH  47  72
ATOM     72  C   UNL A   1      37.178  32.818  30.179  1.00  0.00     0.058 A 
ATOM     73  C   UNL A   1      37.050  33.687  29.084  1.00  0.00     0.135 A 
ATOM     74  C   UNL A   1      36.057  32.634  31.001  1.00  0.00     0.135 A 
ATOM     75  F   UNL A   1      38.096  33.899  28.270  1.00  0.00    -0.206 F 
ATOM     76  C   UNL A   1      35.863  34.363  28.824  1.00  0.00     0.059 A 
ATOM     77  C   UNL A   1      34.851  33.281  30.750  1.00  0.00     0.059 A 
ATOM     78  F   UNL A   1      36.123  31.799  32.050  1.00  0.00    -0.206 F 
ATOM     79  C   UNL A   1      34.767  34.152  29.664  1.00  0.00     0.060 A 
BRANCH  79  80
ATOM     80  S   UNL A   1      33.215  35.000  29.291  1.00  0.00     0.124 S 
ATOM     81  O   UNL A   1      33.689  36.322  28.902  1.00  0.00    -0.237 OA
ATOM     82  O   UNL A   1      32.665  34.176  28.217  1.00  0.00    -0.237 OA
ATOM     83  O   UNL A   1      32.488  34.934  30.555  1.00  0.00    -0.744 OA
ENDBRANCH  79  80
ENDBRANCH  47  72
BRANCH  59  84
ATOM     84  C   UNL A   1      42.973  34.517  33.665  1.00  0.00     0.058 A 
ATOM     85  C   UNL A   1      42.833  34.630  35.056  1.00  0.00     0.135 A 
ATOM     86  C   UNL A   1      43.571  35.581  32.973  1.00  0.00     0.135 A 
ATOM     87  F   UNL A   1      42.261  33.641  35.761  1.00  0.00    -0.206 F 
ATOM     88  C   UNL A   1      43.259  35.766  35.736  1.00  0.00     0.059 A 
ATOM     89  C   UNL A   1      44.026  36.717  33.636  1.00  0.00     0.059 A 
ATOM     90  F   UNL A   1      43.737  35.516  31.643  1.00  0.00    -0.206 F 
ATOM     91  C   UNL A   1      43.855  36.804  35.017  1.00  0.00     0.060 A 
BRANCH  91  92
ATOM     92  S   UNL A   1      44.441  38.255  35.916  1.00  0.00     0.124 S 
ATOM     93  O   UNL A   1      43.696  38.146  37.166  1.00  0.00    -0.237 OA
ATOM     94  O   UNL A   1      45.877  38.009  36.009  1.00  0.00    -0.237 OA
ATOM     95  O   UNL A   1      44.056  39.367  35.051  1.00  0.00    -0.744 OA
ENDBRANCH  91  92
ENDBRANCH  59  84
ENDBRANCH  33  34
ENDBRANCH  25  28
ENDBRANCH  23  24
ENDBRANCH  22  23
ENDBRANCH   1  22
TORSDOF 18
ENDMDL
MODEL 3
REMARK VINA RESULT:     -10.6      3.232      4.896
REMARK SMILES C[C@@H](CC(=O)NCCCCNC(=O)c1ccc(-c2c3nc(c(-c4c(F)cc(S(=O)(=O)[O-])cc4F)c4ccc([nH]4)c(-c4c(F)cc(S(=O)(=O)[O-])cc4F)c4nc(c(-c5c(F)cc(S(=O)(=O)[O-])cc5F)c5ccc2[nH]5)C=C4)C=C3)cc1)NC(=O)/C=C/c1cccnc1
REMARK SMILES IDX 8 1 7 2 6 3 4 4 5 5 3 7 2 8 1 9 80 10 81 11 82 13 83 14
REMARK SMILES IDX 84 15 85 16 86 17 90 18 87 19 89 20 88 21 9 22 10 23 11 24
REMARK SMILES IDX 12 25 13 27 14 28 15 29 79 30 16 31 78 32 17 33 18 34 19 35
REMARK SMILES IDX 72 36 20 37 77 38 71 39 73 40 21 41 76 42 70 43 69 44 22 46
REMARK SMILES IDX 56 47 35 48 55 49 36 50 39 51 54 52 74 53 37 54 38 55 53 57
REMARK SMILES IDX 75 58 40 59 23 60 24 61 33 62 25 63 26 64 32 65 34 66 27 67
REMARK SMILES IDX 28 68 29 69 30 70 31 71 57 72 58 73 67 74 59 75 60 76 66 77
REMARK SMILES IDX 68 78 61 79 62 80 63 81 64 82 65 83 41 84 42 85 51 86 43 87
REMARK SMILES IDX 44 88 50 89 52 90 45 91 46 92 47 93 48 94 49 95
REMARK H PARENT 6 6 80 12 11 26 73 45 39 56
REMARK Flexibility Score: inf
ROOT
ATOM      1  C   UNL A   1      40.246  21.249  26.432  1.00  0.00     0.023 C 
ENDROOT
BRANCH   1   2
ATOM      2  C   UNL A   1      38.892  21.286  25.717  1.00  0.00     0.116 C 
BRANCH   2   3
ATOM      3  N   UNL A   1      38.131  22.443  26.145  1.00  0.00    -0.356 N 
ATOM      4  C   UNL A   1      37.231  23.195  25.457  1.00  0.00     0.222 C 
ATOM      5  O   UNL A   1      36.884  24.277  25.934  1.00  0.00    -0.275 OA
ATOM      6  H   UNL A   1      38.291  22.727  27.075  1.00  0.00     0.163 HD
BRANCH   4   7
ATOM      7  C   UNL A   1      36.634  22.700  24.157  1.00  0.00     0.124 C 
BRANCH   7   8
ATOM      8  C   UNL A   1      35.102  22.725  24.043  1.00  0.00     0.088 C 
ATOM      9  C   UNL A   1      34.596  23.674  22.962  1.00  0.00     0.031 C 
BRANCH   8  10
ATOM     10  N   UNL A   1      34.421  23.027  25.298  1.00  0.00    -0.350 N 
ATOM     11  C   UNL A   1      33.756  22.224  26.175  1.00  0.00     0.244 C 
ATOM     12  H   UNL A   1      34.446  23.978  25.555  1.00  0.00     0.164 HD
ATOM     13  O   UNL A   1      33.154  22.726  27.122  1.00  0.00    -0.270 OA
BRANCH  11  14
ATOM     14  C   UNL A   1      33.827  20.742  26.088  1.00  0.00     0.072 C 
ATOM     15  C   UNL A   1      33.215  19.967  25.185  1.00  0.00     0.015 C 
BRANCH  15  16
ATOM     16  C   UNL A   1      33.353  18.522  25.090  1.00  0.00    -0.007 A 
ATOM     17  C   UNL A   1      32.478  17.664  25.749  1.00  0.00     0.011 A 
ATOM     18  C   UNL A   1      34.288  17.966  24.220  1.00  0.00     0.119 A 
ATOM     19  C   UNL A   1      32.558  16.296  25.504  1.00  0.00     0.021 A 
ATOM     20  N   UNL A   1      34.391  16.641  23.967  1.00  0.00    -0.264 NA
ATOM     21  C   UNL A   1      33.516  15.839  24.610  1.00  0.00     0.111 A 
ENDBRANCH  15  16
ENDBRANCH  11  14
ENDBRANCH   8  10
ENDBRANCH   7   8
ENDBRANCH   4   7
ENDBRANCH   2   3
ENDBRANCH   1   2
BRANCH   1  22
ATOM     22  C   UNL A   1      40.423  22.291  27.524  1.00  0.00     0.023 C 
BRANCH  22  23
ATOM     23  C   UNL A   1      41.631  23.187  27.341  1.00  0.00     0.116 C 
BRANCH  23  24
ATOM     24  N   UNL A   1      41.554  24.022  26.149  1.00  0.00    -0.352 N 
ATOM     25  C   UNL A   1      41.367  25.384  26.086  1.00  0.00     0.251 C 
ATOM     26  H   UNL A   1      41.647  23.556  25.286  1.00  0.00     0.163 HD
ATOM     27  O   UNL A   1      41.213  25.949  25.014  1.00  0.00    -0.269 OA
BRANCH  25  28
ATOM     28  C   UNL A   1      41.314  26.131  27.360  1.00  0.00     0.039 A 
ATOM     29  C   UNL A   1      42.334  27.034  27.660  1.00  0.00     0.014 A 
ATOM     30  C   UNL A   1      40.188  26.021  28.179  1.00  0.00     0.014 A 
ATOM     31  C   UNL A   1      42.184  27.889  28.752  1.00  0.00     0.010 A 
ATOM     32  C   UNL A   1      39.997  26.940  29.199  1.00  0.00     0.010 A 
ATOM     33  C   UNL A   1      40.996  27.878  29.502  1.00  0.00    -0.014 A 
BRANCH  33  34
ATOM     34  C   UNL A   1      40.780  28.818  30.628  1.00  0.00     0.031 A 
ATOM     35  C   UNL A   1      41.611  28.678  31.874  1.00  0.00     0.074 A 
ATOM     36  C   UNL A   1      39.794  29.735  30.563  1.00  0.00     0.049 A 
ATOM     37  N   UNL A   1      41.518  29.324  33.007  1.00  0.00    -0.248 NA
ATOM     38  C   UNL A   1      42.661  27.644  31.859  1.00  0.00     0.031 C 
ATOM     39  C   UNL A   1      38.880  29.923  29.434  1.00  0.00     0.029 A 
ATOM     40  N   UNL A   1      39.390  30.677  31.475  1.00  0.00    -0.354 N 
ATOM     41  C   UNL A   1      42.474  28.758  33.842  1.00  0.00     0.074 A 
ATOM     42  C   UNL A   1      43.093  27.676  33.109  1.00  0.00     0.031 C 
ATOM     43  C   UNL A   1      38.042  30.937  29.708  1.00  0.00     0.029 A 
ATOM     44  C   UNL A   1      38.336  31.449  31.043  1.00  0.00     0.049 A 
ATOM     45  H   UNL A   1      39.815  30.790  32.356  1.00  0.00     0.167 HD
ATOM     46  C   UNL A   1      42.828  29.127  35.095  1.00  0.00     0.037 A 
ATOM     47  C   UNL A   1      37.684  32.455  31.657  1.00  0.00     0.037 A 
ATOM     48  C   UNL A   1      42.246  30.238  35.796  1.00  0.00     0.049 A 
ATOM     49  C   UNL A   1      38.121  32.872  33.035  1.00  0.00     0.074 A 
ATOM     50  C   UNL A   1      42.579  30.742  37.040  1.00  0.00     0.029 A 
ATOM     51  N   UNL A   1      41.213  31.024  35.307  1.00  0.00    -0.354 N 
ATOM     52  N   UNL A   1      39.069  32.366  33.787  1.00  0.00    -0.248 NA
ATOM     53  C   UNL A   1      37.406  34.001  33.646  1.00  0.00     0.031 C 
ATOM     54  C   UNL A   1      41.728  31.818  37.315  1.00  0.00     0.029 A 
ATOM     55  C   UNL A   1      40.889  32.006  36.228  1.00  0.00     0.049 A 
ATOM     56  H   UNL A   1      40.773  30.902  34.435  1.00  0.00     0.167 HD
ATOM     57  C   UNL A   1      39.081  33.130  34.950  1.00  0.00     0.074 A 
ATOM     58  C   UNL A   1      38.053  34.139  34.796  1.00  0.00     0.031 C 
ATOM     59  C   UNL A   1      39.869  33.007  36.045  1.00  0.00     0.037 A 
BRANCH  46  60
ATOM     60  C   UNL A   1      43.910  28.332  35.770  1.00  0.00     0.058 A 
ATOM     61  C   UNL A   1      45.268  28.639  35.589  1.00  0.00     0.135 A 
ATOM     62  C   UNL A   1      43.588  27.258  36.613  1.00  0.00     0.135 A 
ATOM     63  F   UNL A   1      45.632  29.644  34.777  1.00  0.00    -0.206 F 
ATOM     64  C   UNL A   1      46.271  27.888  36.193  1.00  0.00     0.059 A 
ATOM     65  C   UNL A   1      44.574  26.508  37.250  1.00  0.00     0.059 A 
ATOM     66  F   UNL A   1      42.305  26.918  36.817  1.00  0.00    -0.206 F 
ATOM     67  C   UNL A   1      45.913  26.822  37.020  1.00  0.00     0.060 A 
BRANCH  67  68
ATOM     68  S   UNL A   1      47.225  25.855  37.794  1.00  0.00     0.124 S 
ATOM     69  O   UNL A   1      48.340  26.796  37.759  1.00  0.00    -0.237 OA
ATOM     70  O   UNL A   1      46.673  25.576  39.115  1.00  0.00    -0.237 OA
ATOM     71  O   UNL A   1      47.355  24.696  36.915  1.00  0.00    -0.744 OA
ENDBRANCH  67  68
ENDBRANCH  46  60
BRANCH  47  72
ATOM     72  C   UNL A   1      36.577  33.161  30.961  1.00  0.00     0.058 A 
ATOM     73  C   UNL A   1      36.842  34.043  29.903  1.00  0.00     0.135 A 
ATOM     74  C   UNL A   1      35.237  32.964  31.327  1.00  0.00     0.135 A 
ATOM     75  F   UNL A   1      38.107  34.268  29.518  1.00  0.00    -0.206 F 
ATOM     76  C   UNL A   1      35.821  34.719  29.242  1.00  0.00     0.059 A 
ATOM     77  C   UNL A   1      34.196  33.611  30.668  1.00  0.00     0.059 A 
ATOM     78  F   UNL A   1      34.930  32.116  32.321  1.00  0.00    -0.206 F 
ATOM     79  C   UNL A   1      34.499  34.496  29.633  1.00  0.00     0.060 A 
BRANCH  79  80
ATOM     80  S   UNL A   1      33.177  35.344  28.741  1.00  0.00     0.124 S 
ATOM     81  O   UNL A   1      32.446  35.978  29.830  1.00  0.00    -0.237 OA
ATOM     82  O   UNL A   1      33.924  36.242  27.865  1.00  0.00    -0.237 OA
ATOM     83  O   UNL A   1      32.482  34.254  28.061  1.00  0.00    -0.744 OA
ENDBRANCH  79  80
ENDBRANCH  47  72
BRANCH  59  84
ATOM     84  C   UNL A   1      39.674  34.005  37.151  1.00  0.00     0.058 A 
ATOM     85  C   UNL A   1      38.875  33.717  38.266  1.00  0.00     0.135 A 
ATOM     86  C   UNL A   1      40.343  35.238  37.118  1.00  0.00     0.135 A 
ATOM     87  F   UNL A   1      38.210  32.553  38.340  1.00  0.00    -0.206 F 
ATOM     88  C   UNL A   1      38.730  34.627  39.307  1.00  0.00     0.059 A 
ATOM     89  C   UNL A   1      40.233  36.154  38.160  1.00  0.00     0.059 A 
ATOM     90  F   UNL A   1      41.129  35.555  36.077  1.00  0.00    -0.206 F 
ATOM     91  C   UNL A   1      39.415  35.843  39.246  1.00  0.00     0.060 A 
BRANCH  91  92
ATOM     92  S   UNL A   1      39.253  36.999  40.622  1.00  0.00     0.124 S 
ATOM     93  O   UNL A   1      40.645  37.364  40.864  1.00  0.00    -0.237 OA
ATOM     94  O   UNL A   1      38.411  38.048  40.055  1.00  0.00    -0.237 OA
ATOM     95  O   UNL A   1      38.624  36.195  41.667  1.00  0.00    -0.744 OA
ENDBRANCH  91  92
ENDBRANCH  59  84
ENDBRANCH  33  34
ENDBRANCH  25  28
ENDBRANCH  23  24
ENDBRANCH  22  23
ENDBRANCH   1  22
TORSDOF 18
ENDMDL
