MODEL 1
REMARK VINA RESULT:     -11.2      0.000      0.000
REMARK SMILES CC[C@H]1CCCC[C@@H]1C1(C(=O)NCCCCNC(=O)c2ccc(-c3c4nc(c(-c5c(F)cc(S(=O)(=O)[O-])cc5F)c5ccc([nH]5)c(-c5c(F)cc(S(=O)(=O)[O-])cc5F)c5nc(c(-c6c(F)cc(S(=O)(=O)[O-])cc6F)c6ccc3[nH]6)C=C5)C=C4)cc2)CC1
REMARK SMILES IDX 15 1 14 2 13 3 12 4 10 5 11 6 9 8 86 9 87 10 8 11 3 12 4 13
REMARK SMILES IDX 5 14 7 15 6 16 2 17 1 18 16 19 17 20 18 21 19 23 20 24 21 25
REMARK SMILES IDX 85 26 22 27 84 28 23 29 24 30 25 31 78 32 26 33 83 34 77 35
REMARK SMILES IDX 79 36 27 37 82 38 76 39 75 40 28 42 62 43 41 44 61 45 42 46
REMARK SMILES IDX 45 47 60 48 80 49 43 50 44 51 59 53 81 54 46 55 29 56 30 57
REMARK SMILES IDX 39 58 31 59 32 60 38 61 40 62 33 63 34 64 35 65 36 66 37 67
REMARK SMILES IDX 63 68 64 69 73 70 65 71 66 72 72 73 74 74 67 75 68 76 69 77
REMARK SMILES IDX 70 78 71 79 47 80 48 81 57 82 49 83 50 84 56 85 58 86 51 87
REMARK SMILES IDX 52 88 53 89 54 90 55 91
REMARK H PARENT 12 7 17 22 79 41 45 52
REMARK Flexibility Score: inf
ROOT
ATOM      1  C   UNL A   1      32.977  28.374  25.665  1.00  0.00     0.023 C 
ENDROOT
BRANCH   1   2
ATOM      2  C   UNL A   1      33.728  28.358  24.329  1.00  0.00     0.023 C 
BRANCH   2   3
ATOM      3  C   UNL A   1      32.846  28.447  23.084  1.00  0.00     0.116 C 
BRANCH   3   4
ATOM      4  N   UNL A   1      33.175  27.451  22.090  1.00  0.00    -0.356 N 
ATOM      5  C   UNL A   1      33.223  26.087  22.063  1.00  0.00     0.226 C 
ATOM      6  O   UNL A   1      33.428  25.586  20.957  1.00  0.00    -0.274 OA
ATOM      7  H   UNL A   1      33.425  27.851  21.226  1.00  0.00     0.163 HD
BRANCH   5   8
ATOM      8  C   UNL A   1      33.019  25.156  23.265  1.00  0.00     0.052 C 
ATOM      9  C   UNL A   1      31.819  24.213  23.117  1.00  0.00     0.018 C 
ATOM     10  C   UNL A   1      31.828  25.241  24.204  1.00  0.00     0.018 C 
BRANCH   8  11
ATOM     11  C   UNL A   1      34.378  24.638  23.867  1.00  0.00     0.008 C 
ATOM     12  C   UNL A   1      34.855  23.186  23.556  1.00  0.00    -0.007 C 
ATOM     13  C   UNL A   1      34.269  22.129  24.512  1.00  0.00     0.004 C 
ATOM     14  C   UNL A   1      34.340  22.518  25.985  1.00  0.00     0.000 C 
ATOM     15  C   UNL A   1      34.456  24.960  25.373  1.00  0.00     0.005 C 
ATOM     16  C   UNL A   1      33.782  23.910  26.247  1.00  0.00     0.000 C 
BRANCH  12  17
ATOM     17  C   UNL A   1      36.412  23.145  23.578  1.00  0.00     0.000 C 
ATOM     18  C   UNL A   1      36.994  21.886  24.209  1.00  0.00     0.004 C 
ENDBRANCH  12  17
ENDBRANCH   8  11
ENDBRANCH   5   8
ENDBRANCH   3   4
ENDBRANCH   2   3
ENDBRANCH   1   2
BRANCH   1  19
ATOM     19  C   UNL A   1      33.831  28.582  26.912  1.00  0.00     0.116 C 
BRANCH  19  20
ATOM     20  N   UNL A   1      33.669  29.893  27.519  1.00  0.00    -0.352 N 
ATOM     21  C   UNL A   1      34.597  30.612  28.237  1.00  0.00     0.251 C 
ATOM     22  H   UNL A   1      32.790  30.319  27.403  1.00  0.00     0.163 HD
ATOM     23  O   UNL A   1      34.295  31.684  28.750  1.00  0.00    -0.269 OA
BRANCH  21  24
ATOM     24  C   UNL A   1      35.952  30.049  28.419  1.00  0.00     0.039 A 
ATOM     25  C   UNL A   1      36.860  30.115  27.358  1.00  0.00     0.014 A 
ATOM     26  C   UNL A   1      36.339  29.517  29.652  1.00  0.00     0.014 A 
ATOM     27  C   UNL A   1      38.183  29.713  27.554  1.00  0.00     0.010 A 
ATOM     28  C   UNL A   1      37.670  29.169  29.860  1.00  0.00     0.010 A 
ATOM     29  C   UNL A   1      38.606  29.272  28.818  1.00  0.00    -0.014 A 
BRANCH  29  30
ATOM     30  C   UNL A   1      40.017  28.899  29.088  1.00  0.00     0.031 A 
ATOM     31  C   UNL A   1      40.975  29.948  29.583  1.00  0.00     0.074 A 
ATOM     32  C   UNL A   1      40.459  27.661  28.790  1.00  0.00     0.049 A 
ATOM     33  N   UNL A   1      42.276  29.893  29.692  1.00  0.00    -0.248 NA
ATOM     34  C   UNL A   1      40.390  31.241  29.974  1.00  0.00     0.031 C 
ATOM     35  C   UNL A   1      39.632  26.565  28.277  1.00  0.00     0.029 A 
ATOM     36  N   UNL A   1      41.722  27.123  28.845  1.00  0.00    -0.354 N 
ATOM     37  C   UNL A   1      42.670  31.153  30.128  1.00  0.00     0.074 A 
ATOM     38  C   UNL A   1      41.472  31.958  30.239  1.00  0.00     0.031 C 
ATOM     39  C   UNL A   1      40.409  25.490  28.063  1.00  0.00     0.029 A 
ATOM     40  C   UNL A   1      41.793  25.830  28.381  1.00  0.00     0.049 A 
ATOM     41  H   UNL A   1      42.502  27.618  29.186  1.00  0.00     0.167 HD
ATOM     42  C   UNL A   1      43.916  31.593  30.419  1.00  0.00     0.037 A 
ATOM     43  C   UNL A   1      42.857  25.020  28.208  1.00  0.00     0.037 A 
ATOM     44  C   UNL A   1      45.095  30.772  30.351  1.00  0.00     0.049 A 
ATOM     45  C   UNL A   1      44.230  25.525  28.563  1.00  0.00     0.074 A 
ATOM     46  C   UNL A   1      46.398  31.109  30.676  1.00  0.00     0.029 A 
ATOM     47  N   UNL A   1      45.114  29.448  29.941  1.00  0.00    -0.354 N 
ATOM     48  N   UNL A   1      44.582  26.708  29.007  1.00  0.00    -0.248 NA
ATOM     49  C   UNL A   1      45.352  24.589  28.396  1.00  0.00     0.031 C 
ATOM     50  C   UNL A   1      47.208  29.995  30.438  1.00  0.00     0.029 A 
ATOM     51  C   UNL A   1      46.404  28.953  30.001  1.00  0.00     0.049 A 
ATOM     52  H   UNL A   1      44.326  28.935  29.649  1.00  0.00     0.167 HD
ATOM     53  C   UNL A   1      45.956  26.646  29.208  1.00  0.00     0.074 A 
ATOM     54  C   UNL A   1      46.375  25.312  28.833  1.00  0.00     0.031 C 
ATOM     55  C   UNL A   1      46.794  27.608  29.663  1.00  0.00     0.037 A 
BRANCH  42  56
ATOM     56  C   UNL A   1      44.071  33.026  30.842  1.00  0.00     0.058 A 
ATOM     57  C   UNL A   1      44.221  34.057  29.903  1.00  0.00     0.135 A 
ATOM     58  C   UNL A   1      44.028  33.376  32.201  1.00  0.00     0.135 A 
ATOM     59  F   UNL A   1      44.285  33.774  28.593  1.00  0.00    -0.206 F 
ATOM     60  C   UNL A   1      44.345  35.385  30.297  1.00  0.00     0.059 A 
ATOM     61  C   UNL A   1      44.126  34.700  32.616  1.00  0.00     0.059 A 
ATOM     62  F   UNL A   1      43.888  32.427  33.140  1.00  0.00    -0.206 F 
ATOM     63  C   UNL A   1      44.298  35.697  31.657  1.00  0.00     0.060 A 
BRANCH  63  64
ATOM     64  S   UNL A   1      44.449  37.426  32.152  1.00  0.00     0.124 S 
ATOM     65  O   UNL A   1      44.079  38.114  30.918  1.00  0.00    -0.237 OA
ATOM     66  O   UNL A   1      43.488  37.526  33.245  1.00  0.00    -0.237 OA
ATOM     67  O   UNL A   1      45.851  37.546  32.541  1.00  0.00    -0.744 OA
ENDBRANCH  63  64
ENDBRANCH  42  56
BRANCH  43  68
ATOM     68  C   UNL A   1      42.668  23.644  27.678  1.00  0.00     0.058 A 
ATOM     69  C   UNL A   1      42.655  23.400  26.297  1.00  0.00     0.135 A 
ATOM     70  C   UNL A   1      42.498  22.547  28.537  1.00  0.00     0.135 A 
ATOM     71  F   UNL A   1      42.808  24.417  25.435  1.00  0.00    -0.206 F 
ATOM     72  C   UNL A   1      42.458  22.122  25.784  1.00  0.00     0.059 A 
ATOM     73  C   UNL A   1      42.322  21.256  28.048  1.00  0.00     0.059 A 
ATOM     74  F   UNL A   1      42.520  22.724  29.867  1.00  0.00    -0.206 F 
ATOM     75  C   UNL A   1      42.291  21.055  26.669  1.00  0.00     0.060 A 
BRANCH  75  76
ATOM     76  S   UNL A   1      42.073  19.394  25.995  1.00  0.00     0.124 S 
ATOM     77  O   UNL A   1      42.534  18.566  27.103  1.00  0.00    -0.237 OA
ATOM     78  O   UNL A   1      40.640  19.356  25.723  1.00  0.00    -0.237 OA
ATOM     79  O   UNL A   1      42.927  19.400  24.810  1.00  0.00    -0.744 OA
ENDBRANCH  75  76
ENDBRANCH  43  68
BRANCH  55  80
ATOM     80  C   UNL A   1      48.240  27.251  29.850  1.00  0.00     0.058 A 
ATOM     81  C   UNL A   1      49.203  27.537  28.871  1.00  0.00     0.135 A 
ATOM     82  C   UNL A   1      48.679  26.717  31.072  1.00  0.00     0.135 A 
ATOM     83  F   UNL A   1      48.831  28.041  27.684  1.00  0.00    -0.206 F 
ATOM     84  C   UNL A   1      50.556  27.311  29.101  1.00  0.00     0.059 A 
ATOM     85  C   UNL A   1      50.028  26.502  31.331  1.00  0.00     0.059 A 
ATOM     86  F   UNL A   1      47.794  26.433  32.042  1.00  0.00    -0.206 F 
ATOM     87  C   UNL A   1      50.960  26.802  30.338  1.00  0.00     0.060 A 
BRANCH  87  88
ATOM     88  S   UNL A   1      52.725  26.597  30.657  1.00  0.00     0.124 S 
ATOM     89  O   UNL A   1      52.731  25.440  31.547  1.00  0.00    -0.237 OA
ATOM     90  O   UNL A   1      53.262  26.370  29.320  1.00  0.00    -0.237 OA
ATOM     91  O   UNL A   1      53.108  27.864  31.273  1.00  0.00    -0.744 OA
ENDBRANCH  87  88
ENDBRANCH  55  80
ENDBRANCH  29  30
ENDBRANCH  21  24
ENDBRANCH  19  20
ENDBRANCH   1  19
TORSDOF 16
ENDMDL
MODEL 2
REMARK VINA RESULT:     -11.1      2.436      3.062
REMARK SMILES CC[C@H]1CCCC[C@@H]1C1(C(=O)NCCCCNC(=O)c2ccc(-c3c4nc(c(-c5c(F)cc(S(=O)(=O)[O-])cc5F)c5ccc([nH]5)c(-c5c(F)cc(S(=O)(=O)[O-])cc5F)c5nc(c(-c6c(F)cc(S(=O)(=O)[O-])cc6F)c6ccc3[nH]6)C=C5)C=C4)cc2)CC1
REMARK SMILES IDX 15 1 14 2 13 3 12 4 10 5 11 6 9 8 86 9 87 10 8 11 3 12 4 13
REMARK SMILES IDX 5 14 7 15 6 16 2 17 1 18 16 19 17 20 18 21 19 23 20 24 21 25
REMARK SMILES IDX 85 26 22 27 84 28 23 29 24 30 25 31 78 32 26 33 83 34 77 35
REMARK SMILES IDX 79 36 27 37 82 38 76 39 75 40 28 42 62 43 41 44 61 45 42 46
REMARK SMILES IDX 45 47 60 48 80 49 43 50 44 51 59 53 81 54 46 55 29 56 30 57
REMARK SMILES IDX 39 58 31 59 32 60 38 61 40 62 33 63 34 64 35 65 36 66 37 67
REMARK SMILES IDX 63 68 64 69 73 70 65 71 66 72 72 73 74 74 67 75 68 76 69 77
REMARK SMILES IDX 70 78 71 79 47 80 48 81 57 82 49 83 50 84 56 85 58 86 51 87
REMARK SMILES IDX 52 88 53 89 54 90 55 91
REMARK H PARENT 12 7 17 22 79 41 45 52
REMARK Flexibility Score: inf
ROOT
ATOM      1  C   UNL A   1      33.535  28.608  26.990  1.00  0.00     0.023 C 
ENDROOT
BRANCH   1   2
ATOM      2  C   UNL A   1      33.443  27.285  26.219  1.00  0.00     0.023 C 
BRANCH   2   3
ATOM      3  C   UNL A   1      32.037  26.891  25.766  1.00  0.00     0.116 C 
BRANCH   3   4
ATOM      4  N   UNL A   1      31.479  25.811  26.548  1.00  0.00    -0.356 N 
ATOM      5  C   UNL A   1      31.468  24.450  26.453  1.00  0.00     0.226 C 
ATOM      6  O   UNL A   1      30.983  23.855  27.416  1.00  0.00    -0.274 OA
ATOM      7  H   UNL A   1      30.989  26.135  27.340  1.00  0.00     0.163 HD
BRANCH   5   8
ATOM      8  C   UNL A   1      32.021  23.625  25.285  1.00  0.00     0.052 C 
ATOM      9  C   UNL A   1      31.119  23.630  24.045  1.00  0.00     0.018 C 
ATOM     10  C   UNL A   1      31.376  22.349  24.774  1.00  0.00     0.018 C 
BRANCH   8  11
ATOM     11  C   UNL A   1      33.585  23.752  25.140  1.00  0.00     0.008 C 
ATOM     12  C   UNL A   1      34.335  22.875  24.091  1.00  0.00    -0.007 C 
ATOM     13  C   UNL A   1      34.706  21.474  24.615  1.00  0.00     0.004 C 
ATOM     14  C   UNL A   1      35.335  21.479  26.005  1.00  0.00     0.000 C 
ATOM     15  C   UNL A   1      34.258  23.696  26.526  1.00  0.00     0.005 C 
ATOM     16  C   UNL A   1      34.517  22.276  27.011  1.00  0.00     0.000 C 
BRANCH  12  17
ATOM     17  C   UNL A   1      35.605  23.637  23.606  1.00  0.00     0.000 C 
ATOM     18  C   UNL A   1      36.738  22.728  23.145  1.00  0.00     0.004 C 
ENDBRANCH  12  17
ENDBRANCH   8  11
ENDBRANCH   5   8
ENDBRANCH   3   4
ENDBRANCH   2   3
ENDBRANCH   1   2
BRANCH   1  19
ATOM     19  C   UNL A   1      34.927  29.015  27.460  1.00  0.00     0.116 C 
BRANCH  19  20
ATOM     20  N   UNL A   1      34.919  30.031  28.500  1.00  0.00    -0.352 N 
ATOM     21  C   UNL A   1      35.974  30.456  29.275  1.00  0.00     0.251 C 
ATOM     22  H   UNL A   1      34.054  30.468  28.671  1.00  0.00     0.163 HD
ATOM     23  O   UNL A   1      35.801  31.279  30.166  1.00  0.00    -0.269 OA
BRANCH  21  24
ATOM     24  C   UNL A   1      37.311  29.869  29.046  1.00  0.00     0.039 A 
ATOM     25  C   UNL A   1      37.848  29.894  27.755  1.00  0.00     0.014 A 
ATOM     26  C   UNL A   1      38.052  29.353  30.112  1.00  0.00     0.014 A 
ATOM     27  C   UNL A   1      39.162  29.468  27.545  1.00  0.00     0.010 A 
ATOM     28  C   UNL A   1      39.377  28.982  29.909  1.00  0.00     0.010 A 
ATOM     29  C   UNL A   1      39.948  29.044  28.627  1.00  0.00    -0.014 A 
BRANCH  29  30
ATOM     30  C   UNL A   1      41.369  28.648  28.460  1.00  0.00     0.031 A 
ATOM     31  C   UNL A   1      42.436  29.707  28.474  1.00  0.00     0.074 A 
ATOM     32  C   UNL A   1      41.686  27.366  28.189  1.00  0.00     0.049 A 
ATOM     33  N   UNL A   1      43.699  29.612  28.151  1.00  0.00    -0.248 NA
ATOM     34  C   UNL A   1      42.014  31.060  28.870  1.00  0.00     0.031 C 
ATOM     35  C   UNL A   1      40.736  26.253  28.122  1.00  0.00     0.029 A 
ATOM     36  N   UNL A   1      42.895  26.787  27.891  1.00  0.00    -0.354 N 
ATOM     37  C   UNL A   1      44.215  30.897  28.270  1.00  0.00     0.074 A 
ATOM     38  C   UNL A   1      43.123  31.758  28.670  1.00  0.00     0.031 C 
ATOM     39  C   UNL A   1      41.397  25.128  27.799  1.00  0.00     0.029 A 
ATOM     40  C   UNL A   1      42.808  25.446  27.596  1.00  0.00     0.049 A 
ATOM     41  H   UNL A   1      43.744  27.285  27.889  1.00  0.00     0.167 HD
ATOM     42  C   UNL A   1      45.487  31.316  28.075  1.00  0.00     0.037 A 
ATOM     43  C   UNL A   1      43.753  24.578  27.183  1.00  0.00     0.037 A 
ATOM     44  C   UNL A   1      46.576  30.444  27.723  1.00  0.00     0.049 A 
ATOM     45  C   UNL A   1      45.166  25.063  26.997  1.00  0.00     0.074 A 
ATOM     46  C   UNL A   1      47.912  30.763  27.554  1.00  0.00     0.029 A 
ATOM     47  N   UNL A   1      46.457  29.081  27.500  1.00  0.00    -0.354 N 
ATOM     48  N   UNL A   1      45.645  26.275  27.147  1.00  0.00    -0.248 NA
ATOM     49  C   UNL A   1      46.168  24.068  26.587  1.00  0.00     0.031 C 
ATOM     50  C   UNL A   1      48.597  29.596  27.203  1.00  0.00     0.029 A 
ATOM     51  C   UNL A   1      47.694  28.545  27.191  1.00  0.00     0.049 A 
ATOM     52  H   UNL A   1      45.617  28.570  27.553  1.00  0.00     0.167 HD
ATOM     53  C   UNL A   1      47.008  26.180  26.887  1.00  0.00     0.074 A 
ATOM     54  C   UNL A   1      47.278  24.795  26.565  1.00  0.00     0.031 C 
ATOM     55  C   UNL A   1      47.949  27.154  26.914  1.00  0.00     0.037 A 
BRANCH  42  56
ATOM     56  C   UNL A   1      45.774  32.782  28.239  1.00  0.00     0.058 A 
ATOM     57  C   UNL A   1      45.624  33.683  27.174  1.00  0.00     0.135 A 
ATOM     58  C   UNL A   1      46.163  33.296  29.486  1.00  0.00     0.135 A 
ATOM     59  F   UNL A   1      45.271  33.240  25.958  1.00  0.00    -0.206 F 
ATOM     60  C   UNL A   1      45.873  35.042  27.335  1.00  0.00     0.059 A 
ATOM     61  C   UNL A   1      46.392  34.655  29.675  1.00  0.00     0.059 A 
ATOM     62  F   UNL A   1      46.321  32.475  30.536  1.00  0.00    -0.206 F 
ATOM     63  C   UNL A   1      46.258  35.519  28.589  1.00  0.00     0.060 A 
BRANCH  63  64
ATOM     64  S   UNL A   1      46.565  37.287  28.784  1.00  0.00     0.124 S 
ATOM     65  O   UNL A   1      47.863  37.283  29.452  1.00  0.00    -0.237 OA
ATOM     66  O   UNL A   1      46.565  37.760  27.404  1.00  0.00    -0.237 OA
ATOM     67  O   UNL A   1      45.440  37.739  29.598  1.00  0.00    -0.744 OA
ENDBRANCH  63  64
ENDBRANCH  42  56
BRANCH  43  68
ATOM     68  C   UNL A   1      43.399  23.157  26.923  1.00  0.00     0.058 A 
ATOM     69  C   UNL A   1      43.336  22.659  25.613  1.00  0.00     0.135 A 
ATOM     70  C   UNL A   1      43.116  22.270  27.973  1.00  0.00     0.135 A 
ATOM     71  F   UNL A   1      43.593  23.470  24.575  1.00  0.00    -0.206 F 
ATOM     72  C   UNL A   1      42.986  21.339  25.351  1.00  0.00     0.059 A 
ATOM     73  C   UNL A   1      42.785  20.940  27.737  1.00  0.00     0.059 A 
ATOM     74  F   UNL A   1      43.178  22.693  29.245  1.00  0.00    -0.206 F 
ATOM     75  C   UNL A   1      42.710  20.486  26.421  1.00  0.00     0.060 A 
BRANCH  75  76
ATOM     76  S   UNL A   1      42.292  18.763  26.073  1.00  0.00     0.124 S 
ATOM     77  O   UNL A   1      42.566  18.130  27.358  1.00  0.00    -0.237 OA
ATOM     78  O   UNL A   1      40.885  18.856  25.695  1.00  0.00    -0.237 OA
ATOM     79  O   UNL A   1      43.202  18.412  24.987  1.00  0.00    -0.744 OA
ENDBRANCH  75  76
ENDBRANCH  43  68
BRANCH  55  80
ATOM     80  C   UNL A   1      49.374  26.761  26.655  1.00  0.00     0.058 A 
ATOM     81  C   UNL A   1      50.183  26.214  27.661  1.00  0.00     0.135 A 
ATOM     82  C   UNL A   1      49.896  26.831  25.353  1.00  0.00     0.135 A 
ATOM     83  F   UNL A   1      49.731  26.134  28.923  1.00  0.00    -0.206 F 
ATOM     84  C   UNL A   1      51.462  25.743  27.385  1.00  0.00     0.059 A 
ATOM     85  C   UNL A   1      51.164  26.347  25.050  1.00  0.00     0.059 A 
ATOM     86  F   UNL A   1      49.156  27.340  24.355  1.00  0.00    -0.206 F 
ATOM     87  C   UNL A   1      51.941  25.805  26.073  1.00  0.00     0.060 A 
BRANCH  87  88
ATOM     88  S   UNL A   1      53.567  25.110  25.709  1.00  0.00     0.124 S 
ATOM     89  O   UNL A   1      54.017  25.970  24.620  1.00  0.00    -0.237 OA
ATOM     90  O   UNL A   1      54.269  25.272  26.977  1.00  0.00    -0.237 OA
ATOM     91  O   UNL A   1      53.270  23.730  25.336  1.00  0.00    -0.744 OA
ENDBRANCH  87  88
ENDBRANCH  55  80
ENDBRANCH  29  30
ENDBRANCH  21  24
ENDBRANCH  19  20
ENDBRANCH   1  19
TORSDOF 16
ENDMDL
MODEL 3
REMARK VINA RESULT:     -11.1      3.395      9.544
REMARK SMILES CC[C@H]1CCCC[C@@H]1C1(C(=O)NCCCCNC(=O)c2ccc(-c3c4nc(c(-c5c(F)cc(S(=O)(=O)[O-])cc5F)c5ccc([nH]5)c(-c5c(F)cc(S(=O)(=O)[O-])cc5F)c5nc(c(-c6c(F)cc(S(=O)(=O)[O-])cc6F)c6ccc3[nH]6)C=C5)C=C4)cc2)CC1
REMARK SMILES IDX 15 1 14 2 13 3 12 4 10 5 11 6 9 8 86 9 87 10 8 11 3 12 4 13
REMARK SMILES IDX 5 14 7 15 6 16 2 17 1 18 16 19 17 20 18 21 19 23 20 24 21 25
REMARK SMILES IDX 85 26 22 27 84 28 23 29 24 30 25 31 78 32 26 33 83 34 77 35
REMARK SMILES IDX 79 36 27 37 82 38 76 39 75 40 28 42 62 43 41 44 61 45 42 46
REMARK SMILES IDX 45 47 60 48 80 49 43 50 44 51 59 53 81 54 46 55 29 56 30 57
REMARK SMILES IDX 39 58 31 59 32 60 38 61 40 62 33 63 34 64 35 65 36 66 37 67
REMARK SMILES IDX 63 68 64 69 73 70 65 71 66 72 72 73 74 74 67 75 68 76 69 77
REMARK SMILES IDX 70 78 71 79 47 80 48 81 57 82 49 83 50 84 56 85 58 86 51 87
REMARK SMILES IDX 52 88 53 89 54 90 55 91
REMARK H PARENT 12 7 17 22 79 41 45 52
REMARK Flexibility Score: inf
ROOT
ATOM      1  C   UNL A   1      35.599  23.314  25.598  1.00  0.00     0.023 C 
ENDROOT
BRANCH   1   2
ATOM      2  C   UNL A   1      34.777  22.615  24.509  1.00  0.00     0.023 C 
BRANCH   2   3
ATOM      3  C   UNL A   1      33.278  22.918  24.527  1.00  0.00     0.116 C 
BRANCH   3   4
ATOM      4  N   UNL A   1      32.753  23.067  25.866  1.00  0.00    -0.356 N 
ATOM      5  C   UNL A   1      31.946  23.970  26.495  1.00  0.00     0.226 C 
ATOM      6  O   UNL A   1      31.611  23.672  27.642  1.00  0.00    -0.274 OA
ATOM      7  H   UNL A   1      33.047  22.345  26.468  1.00  0.00     0.163 HD
BRANCH   5   8
ATOM      8  C   UNL A   1      31.416  25.277  25.892  1.00  0.00     0.052 C 
ATOM      9  C   UNL A   1      29.886  25.353  25.831  1.00  0.00     0.018 C 
ATOM     10  C   UNL A   1      30.683  25.356  24.565  1.00  0.00     0.018 C 
BRANCH   8  11
ATOM     11  C   UNL A   1      32.266  26.531  26.323  1.00  0.00     0.008 C 
ATOM     12  C   UNL A   1      31.675  27.963  26.136  1.00  0.00    -0.007 C 
ATOM     13  C   UNL A   1      31.913  28.546  24.729  1.00  0.00     0.004 C 
ATOM     14  C   UNL A   1      33.342  28.377  24.222  1.00  0.00     0.000 C 
ATOM     15  C   UNL A   1      33.702  26.423  25.771  1.00  0.00     0.005 C 
ATOM     16  C   UNL A   1      33.839  26.943  24.347  1.00  0.00     0.000 C 
BRANCH  12  17
ATOM     17  C   UNL A   1      32.265  28.903  27.229  1.00  0.00     0.000 C 
ATOM     18  C   UNL A   1      32.049  30.387  26.957  1.00  0.00     0.004 C 
ENDBRANCH  12  17
ENDBRANCH   8  11
ENDBRANCH   5   8
ENDBRANCH   3   4
ENDBRANCH   2   3
ENDBRANCH   1   2
BRANCH   1  19
ATOM     19  C   UNL A   1      36.970  23.831  25.175  1.00  0.00     0.116 C 
BRANCH  19  20
ATOM     20  N   UNL A   1      38.045  22.873  25.382  1.00  0.00    -0.352 N 
ATOM     21  C   UNL A   1      39.203  23.045  26.105  1.00  0.00     0.251 C 
ATOM     22  H   UNL A   1      37.930  21.995  24.952  1.00  0.00     0.163 HD
ATOM     23  O   UNL A   1      40.055  22.164  26.135  1.00  0.00    -0.269 OA
BRANCH  21  24
ATOM     24  C   UNL A   1      39.423  24.326  26.808  1.00  0.00     0.039 A 
ATOM     25  C   UNL A   1      38.928  24.478  28.106  1.00  0.00     0.014 A 
ATOM     26  C   UNL A   1      40.166  25.346  26.209  1.00  0.00     0.014 A 
ATOM     27  C   UNL A   1      39.242  25.628  28.836  1.00  0.00     0.010 A 
ATOM     28  C   UNL A   1      40.523  26.463  26.956  1.00  0.00     0.010 A 
ATOM     29  C   UNL A   1      40.073  26.611  28.278  1.00  0.00    -0.014 A 
BRANCH  29  30
ATOM     30  C   UNL A   1      40.487  27.816  29.041  1.00  0.00     0.031 A 
ATOM     31  C   UNL A   1      41.778  27.792  29.812  1.00  0.00     0.074 A 
ATOM     32  C   UNL A   1      39.661  28.878  29.129  1.00  0.00     0.049 A 
ATOM     33  N   UNL A   1      42.230  28.645  30.694  1.00  0.00    -0.248 NA
ATOM     34  C   UNL A   1      42.660  26.636  29.583  1.00  0.00     0.031 C 
ATOM     35  C   UNL A   1      38.370  29.007  28.449  1.00  0.00     0.029 A 
ATOM     36  N   UNL A   1      39.772  30.040  29.852  1.00  0.00    -0.354 N 
ATOM     37  C   UNL A   1      43.428  28.111  31.152  1.00  0.00     0.074 A 
ATOM     38  C   UNL A   1      43.621  26.850  30.470  1.00  0.00     0.031 C 
ATOM     39  C   UNL A   1      37.808  30.180  28.791  1.00  0.00     0.029 A 
ATOM     40  C   UNL A   1      38.676  30.865  29.744  1.00  0.00     0.049 A 
ATOM     41  H   UNL A   1      40.562  30.262  30.397  1.00  0.00     0.167 HD
ATOM     42  C   UNL A   1      44.294  28.633  32.053  1.00  0.00     0.037 A 
ATOM     43  C   UNL A   1      38.393  32.029  30.363  1.00  0.00     0.037 A 
ATOM     44  C   UNL A   1      44.116  29.910  32.692  1.00  0.00     0.049 A 
ATOM     45  C   UNL A   1      39.383  32.601  31.341  1.00  0.00     0.074 A 
ATOM     46  C   UNL A   1      44.963  30.552  33.579  1.00  0.00     0.029 A 
ATOM     47  N   UNL A   1      43.026  30.744  32.502  1.00  0.00    -0.354 N 
ATOM     48  N   UNL A   1      40.529  32.102  31.738  1.00  0.00    -0.248 NA
ATOM     49  C   UNL A   1      39.047  33.894  31.957  1.00  0.00     0.031 C 
ATOM     50  C   UNL A   1      44.371  31.764  33.947  1.00  0.00     0.029 A 
ATOM     51  C   UNL A   1      43.175  31.893  33.258  1.00  0.00     0.049 A 
ATOM     52  H   UNL A   1      42.259  30.548  31.917  1.00  0.00     0.167 HD
ATOM     53  C   UNL A   1      41.067  33.034  32.618  1.00  0.00     0.074 A 
ATOM     54  C   UNL A   1      40.120  34.126  32.702  1.00  0.00     0.031 C 
ATOM     55  C   UNL A   1      42.239  32.988  33.295  1.00  0.00     0.037 A 
BRANCH  42  56
ATOM     56  C   UNL A   1      45.513  27.827  32.400  1.00  0.00     0.058 A 
ATOM     57  C   UNL A   1      45.479  26.831  33.388  1.00  0.00     0.135 A 
ATOM     58  C   UNL A   1      46.719  28.026  31.707  1.00  0.00     0.135 A 
ATOM     59  F   UNL A   1      44.357  26.614  34.090  1.00  0.00    -0.206 F 
ATOM     60  C   UNL A   1      46.605  26.075  33.693  1.00  0.00     0.059 A 
ATOM     61  C   UNL A   1      47.850  27.263  31.980  1.00  0.00     0.059 A 
ATOM     62  F   UNL A   1      46.804  28.967  30.754  1.00  0.00    -0.206 F 
ATOM     63  C   UNL A   1      47.787  26.298  32.984  1.00  0.00     0.060 A 
BRANCH  63  64
ATOM     64  S   UNL A   1      49.236  25.300  33.385  1.00  0.00     0.124 S 
ATOM     65  O   UNL A   1      49.712  24.934  32.054  1.00  0.00    -0.237 OA
ATOM     66  O   UNL A   1      50.074  26.241  34.120  1.00  0.00    -0.237 OA
ATOM     67  O   UNL A   1      48.685  24.205  34.178  1.00  0.00    -0.744 OA
ENDBRANCH  63  64
ENDBRANCH  42  56
BRANCH  43  68
ATOM     68  C   UNL A   1      37.118  32.737  30.072  1.00  0.00     0.058 A 
ATOM     69  C   UNL A   1      37.040  33.681  29.036  1.00  0.00     0.135 A 
ATOM     70  C   UNL A   1      35.957  32.489  30.818  1.00  0.00     0.135 A 
ATOM     71  F   UNL A   1      38.125  33.958  28.298  1.00  0.00    -0.206 F 
ATOM     72  C   UNL A   1      35.861  34.368  28.764  1.00  0.00     0.059 A 
ATOM     73  C   UNL A   1      34.760  33.147  30.550  1.00  0.00     0.059 A 
ATOM     74  F   UNL A   1      35.974  31.583  31.809  1.00  0.00    -0.206 F 
ATOM     75  C   UNL A   1      34.726  34.094  29.528  1.00  0.00     0.060 A 
BRANCH  75  76
ATOM     76  S   UNL A   1      33.190  34.964  29.144  1.00  0.00     0.124 S 
ATOM     77  O   UNL A   1      32.611  34.099  28.123  1.00  0.00    -0.237 OA
ATOM     78  O   UNL A   1      32.508  34.973  30.434  1.00  0.00    -0.237 OA
ATOM     79  O   UNL A   1      33.653  36.269  28.680  1.00  0.00    -0.744 OA
ENDBRANCH  75  76
ENDBRANCH  43  68
BRANCH  55  80
ATOM     80  C   UNL A   1      42.611  34.174  34.137  1.00  0.00     0.058 A 
ATOM     81  C   UNL A   1      42.342  34.215  35.513  1.00  0.00     0.135 A 
ATOM     82  C   UNL A   1      43.346  35.231  33.576  1.00  0.00     0.135 A 
ATOM     83  F   UNL A   1      41.636  33.231  36.092  1.00  0.00    -0.206 F 
ATOM     84  C   UNL A   1      42.795  35.262  36.307  1.00  0.00     0.059 A 
ATOM     85  C   UNL A   1      43.827  36.278  34.355  1.00  0.00     0.059 A 
ATOM     86  F   UNL A   1      43.635  35.232  32.265  1.00  0.00    -0.206 F 
ATOM     87  C   UNL A   1      43.546  36.285  35.721  1.00  0.00     0.060 A 
BRANCH  87  88
ATOM     88  S   UNL A   1      44.204  37.593  36.777  1.00  0.00     0.124 S 
ATOM     89  O   UNL A   1      45.493  37.035  37.169  1.00  0.00    -0.237 OA
ATOM     90  O   UNL A   1      44.257  38.734  35.869  1.00  0.00    -0.237 OA
ATOM     91  O   UNL A   1      43.214  37.696  37.845  1.00  0.00    -0.744 OA
ENDBRANCH  87  88
ENDBRANCH  55  80
ENDBRANCH  29  30
ENDBRANCH  21  24
ENDBRANCH  19  20
ENDBRANCH   1  19
TORSDOF 16
ENDMDL
