MODEL 1
REMARK VINA RESULT:     -12.5      0.000      0.000
REMARK SMILES COc1cccc([C@@H]2CN(C(=O)CSc3nc(C)n[nH]3)C[C@H]2C(=O)NCCCCNC(=O)c2ccc(-c3c4nc(c(-c5c(F)cc(S(=O)(=O)[O-])cc5F)c5ccc([nH]5)c(-c5c(F)cc(S(=O)(=O)[O-])cc5F)c5nc(c(-c6c(F)cc(S(=O)(=O)[O-])cc6F)c6ccc3[nH]6)C=C5)C=C4)cc2)c1
REMARK SMILES IDX 27 1 26 2 25 3 23 4 24 5 22 7 8 8 9 9 10 10 21 11 7 12 3 13
REMARK SMILES IDX 4 14 99 15 5 16 6 17 2 18 1 19 11 20 12 21 13 22 14 23 15 24
REMARK SMILES IDX 16 25 20 26 17 27 19 28 18 30 28 31 29 32 30 33 31 34 32 36
REMARK SMILES IDX 33 37 34 38 98 39 35 40 97 41 36 42 37 43 38 44 91 45 39 46
REMARK SMILES IDX 96 47 90 48 92 49 40 50 95 51 89 52 88 53 41 55 75 56 54 57
REMARK SMILES IDX 74 58 55 59 58 60 73 61 93 62 56 63 57 64 72 66 94 67 59 68
REMARK SMILES IDX 42 69 43 70 52 71 44 72 45 73 51 74 53 75 46 76 47 77 48 78
REMARK SMILES IDX 49 79 50 80 76 81 77 82 86 83 78 84 79 85 85 86 87 87 80 88
REMARK SMILES IDX 81 89 82 90 83 91 84 92 60 93 61 94 70 95 62 96 63 97 69 98
REMARK SMILES IDX 71 99 64 100 65 101 66 102 67 103 68 104
REMARK H PARENT 25 6 20 29 30 35 92 54 58 65
REMARK Flexibility Score: inf
ROOT
ATOM      1  C   UNL A   1      32.455  31.164  26.847  1.00  0.00     0.023 C 
ENDROOT
BRANCH   1   2
ATOM      2  C   UNL A   1      32.128  29.901  26.041  1.00  0.00     0.116 C 
BRANCH   2   3
ATOM      3  N   UNL A   1      32.935  29.775  24.841  1.00  0.00    -0.356 N 
ATOM      4  C   UNL A   1      33.040  28.787  23.911  1.00  0.00     0.225 C 
ATOM      5  O   UNL A   1      33.825  28.977  22.977  1.00  0.00    -0.275 OA
ATOM      6  H   UNL A   1      33.515  30.551  24.666  1.00  0.00     0.163 HD
BRANCH   4   7
ATOM      7  C   UNL A   1      32.265  27.482  23.985  1.00  0.00     0.107 C 
ATOM      8  C   UNL A   1      31.379  27.228  22.752  1.00  0.00     0.053 C 
ATOM      9  C   UNL A   1      31.391  25.708  22.599  1.00  0.00     0.128 C 
ATOM     10  N   UNL A   1      32.698  25.317  23.097  1.00  0.00    -0.341 N 
ATOM     11  C   UNL A   1      33.160  26.249  24.118  1.00  0.00     0.133 C 
BRANCH   8  12
ATOM     12  C   UNL A   1      29.995  27.832  22.789  1.00  0.00    -0.039 A 
ATOM     13  C   UNL A   1      28.415  29.601  22.244  1.00  0.00     0.119 A 
ATOM     14  C   UNL A   1      27.424  28.941  22.970  1.00  0.00     0.046 A 
ATOM     15  C   UNL A   1      29.699  29.056  22.166  1.00  0.00     0.050 A 
ATOM     16  C   UNL A   1      27.698  27.719  23.579  1.00  0.00     0.004 A 
ATOM     17  C   UNL A   1      28.973  27.167  23.485  1.00  0.00     0.004 A 
BRANCH  13  18
ATOM     18  O   UNL A   1      28.045  30.800  21.698  1.00  0.00    -0.497 OA
ATOM     19  C   UNL A   1      28.791  31.923  22.157  1.00  0.00     0.278 C 
ENDBRANCH  13  18
ENDBRANCH   8  12
BRANCH  10  20
ATOM     20  C   UNL A   1      33.408  24.179  22.791  1.00  0.00     0.233 C 
ATOM     21  O   UNL A   1      33.516  23.765  21.634  1.00  0.00    -0.274 OA
BRANCH  20  22
ATOM     22  C   UNL A   1      34.031  23.378  23.918  1.00  0.00     0.178 C 
BRANCH  22  23
ATOM     23  S   UNL A   1      32.825  22.460  24.896  1.00  0.00    -0.077 SA
BRANCH  23  24
ATOM     24  C   UNL A   1      33.200  20.805  24.607  1.00  0.00     0.184 A 
ATOM     25  N   UNL A   1      32.533  20.013  23.803  1.00  0.00    -0.206 NA
ATOM     26  N   UNL A   1      34.273  20.144  25.122  1.00  0.00    -0.254 N 
ATOM     27  C   UNL A   1      33.256  18.849  23.855  1.00  0.00     0.148 A 
ATOM     28  N   UNL A   1      34.350  18.896  24.624  1.00  0.00    -0.158 NA
ATOM     29  H   UNL A   1      34.907  20.527  25.771  1.00  0.00     0.192 HD
ATOM     30  C   UNL A   1      32.853  17.645  23.104  1.00  0.00     0.092 C 
ENDBRANCH  23  24
ENDBRANCH  22  23
ENDBRANCH  20  22
ENDBRANCH  10  20
ENDBRANCH   4   7
ENDBRANCH   2   3
ENDBRANCH   1   2
BRANCH   1  31
ATOM     31  C   UNL A   1      33.799  31.165  27.585  1.00  0.00     0.023 C 
BRANCH  31  32
ATOM     32  C   UNL A   1      34.332  32.547  27.937  1.00  0.00     0.116 C 
BRANCH  32  33
ATOM     33  N   UNL A   1      34.200  32.861  29.358  1.00  0.00    -0.352 N 
ATOM     34  C   UNL A   1      34.933  32.331  30.407  1.00  0.00     0.251 C 
ATOM     35  H   UNL A   1      33.513  33.524  29.596  1.00  0.00     0.163 HD
ATOM     36  O   UNL A   1      34.517  32.375  31.550  1.00  0.00    -0.269 OA
BRANCH  34  37
ATOM     37  C   UNL A   1      36.232  31.708  30.090  1.00  0.00     0.039 A 
ATOM     38  C   UNL A   1      37.372  32.485  29.889  1.00  0.00     0.014 A 
ATOM     39  C   UNL A   1      36.301  30.318  30.093  1.00  0.00     0.014 A 
ATOM     40  C   UNL A   1      38.607  31.846  29.794  1.00  0.00     0.010 A 
ATOM     41  C   UNL A   1      37.530  29.700  30.127  1.00  0.00     0.010 A 
ATOM     42  C   UNL A   1      38.689  30.453  29.948  1.00  0.00    -0.014 A 
BRANCH  42  43
ATOM     43  C   UNL A   1      39.996  29.797  30.029  1.00  0.00     0.031 A 
ATOM     44  C   UNL A   1      40.488  29.492  31.407  1.00  0.00     0.074 A 
ATOM     45  C   UNL A   1      40.653  29.297  28.959  1.00  0.00     0.049 A 
ATOM     46  N   UNL A   1      41.503  30.006  32.021  1.00  0.00    -0.248 NA
ATOM     47  C   UNL A   1      39.698  28.573  32.242  1.00  0.00     0.031 C 
ATOM     48  C   UNL A   1      40.204  29.203  27.566  1.00  0.00     0.029 A 
ATOM     49  N   UNL A   1      41.854  28.658  28.929  1.00  0.00    -0.354 N 
ATOM     50  C   UNL A   1      41.607  29.341  33.241  1.00  0.00     0.074 A 
ATOM     51  C   UNL A   1      40.389  28.584  33.385  1.00  0.00     0.031 C 
ATOM     52  C   UNL A   1      41.001  28.346  26.890  1.00  0.00     0.029 A 
ATOM     53  C   UNL A   1      42.115  27.983  27.744  1.00  0.00     0.049 A 
ATOM     54  H   UNL A   1      42.485  28.672  29.684  1.00  0.00     0.167 HD
ATOM     55  C   UNL A   1      42.771  29.309  33.951  1.00  0.00     0.037 A 
ATOM     56  C   UNL A   1      43.167  27.170  27.484  1.00  0.00     0.037 A 
ATOM     57  C   UNL A   1      43.711  30.286  33.462  1.00  0.00     0.049 A 
ATOM     58  C   UNL A   1      44.239  27.524  28.449  1.00  0.00     0.074 A 
ATOM     59  C   UNL A   1      43.705  31.662  33.336  1.00  0.00     0.029 A 
ATOM     60  N   UNL A   1      44.733  29.846  32.657  1.00  0.00    -0.354 N 
ATOM     61  N   UNL A   1      44.861  28.672  28.456  1.00  0.00    -0.248 NA
ATOM     62  C   UNL A   1      44.316  26.769  29.688  1.00  0.00     0.031 C 
ATOM     63  C   UNL A   1      44.363  31.917  32.096  1.00  0.00     0.029 A 
ATOM     64  C   UNL A   1      44.785  30.692  31.578  1.00  0.00     0.049 A 
ATOM     65  H   UNL A   1      45.317  29.070  32.821  1.00  0.00     0.167 HD
ATOM     66  C   UNL A   1      45.033  28.976  29.796  1.00  0.00     0.074 A 
ATOM     67  C   UNL A   1      44.769  27.725  30.504  1.00  0.00     0.031 C 
ATOM     68  C   UNL A   1      45.107  30.271  30.231  1.00  0.00     0.037 A 
BRANCH  55  69
ATOM     69  C   UNL A   1      43.199  28.192  34.874  1.00  0.00     0.058 A 
ATOM     70  C   UNL A   1      43.567  28.485  36.205  1.00  0.00     0.135 A 
ATOM     71  C   UNL A   1      43.525  26.894  34.425  1.00  0.00     0.135 A 
ATOM     72  F   UNL A   1      43.316  29.693  36.734  1.00  0.00    -0.206 F 
ATOM     73  C   UNL A   1      44.264  27.578  37.007  1.00  0.00     0.059 A 
ATOM     74  C   UNL A   1      44.172  25.956  35.225  1.00  0.00     0.059 A 
ATOM     75  F   UNL A   1      43.320  26.510  33.159  1.00  0.00    -0.206 F 
ATOM     76  C   UNL A   1      44.576  26.322  36.500  1.00  0.00     0.060 A 
BRANCH  76  77
ATOM     77  S   UNL A   1      45.568  25.189  37.490  1.00  0.00     0.124 S 
ATOM     78  O   UNL A   1      46.776  25.977  37.711  1.00  0.00    -0.237 OA
ATOM     79  O   UNL A   1      44.718  24.981  38.658  1.00  0.00    -0.237 OA
ATOM     80  O   UNL A   1      45.721  24.027  36.619  1.00  0.00    -0.744 OA
ENDBRANCH  76  77
ENDBRANCH  55  69
BRANCH  56  81
ATOM     81  C   UNL A   1      43.173  25.917  26.686  1.00  0.00     0.058 A 
ATOM     82  C   UNL A   1      43.966  25.795  25.533  1.00  0.00     0.135 A 
ATOM     83  C   UNL A   1      42.625  24.722  27.196  1.00  0.00     0.135 A 
ATOM     84  F   UNL A   1      44.541  26.879  24.991  1.00  0.00    -0.206 F 
ATOM     85  C   UNL A   1      44.247  24.554  24.952  1.00  0.00     0.059 A 
ATOM     86  C   UNL A   1      42.883  23.475  26.628  1.00  0.00     0.059 A 
ATOM     87  F   UNL A   1      41.897  24.720  28.323  1.00  0.00    -0.206 F 
ATOM     88  C   UNL A   1      43.720  23.396  25.523  1.00  0.00     0.060 A 
BRANCH  88  89
ATOM     89  S   UNL A   1      44.238  21.781  24.892  1.00  0.00     0.124 S 
ATOM     90  O   UNL A   1      43.112  20.934  25.270  1.00  0.00    -0.237 OA
ATOM     91  O   UNL A   1      44.390  22.044  23.464  1.00  0.00    -0.237 OA
ATOM     92  O   UNL A   1      45.484  21.521  25.610  1.00  0.00    -0.744 OA
ENDBRANCH  88  89
ENDBRANCH  56  81
BRANCH  68  93
ATOM     93  C   UNL A   1      45.301  31.363  29.209  1.00  0.00     0.058 A 
ATOM     94  C   UNL A   1      46.548  31.774  28.706  1.00  0.00     0.135 A 
ATOM     95  C   UNL A   1      44.159  31.905  28.598  1.00  0.00     0.135 A 
ATOM     96  F   UNL A   1      47.688  31.234  29.155  1.00  0.00    -0.206 F 
ATOM     97  C   UNL A   1      46.654  32.710  27.673  1.00  0.00     0.059 A 
ATOM     98  C   UNL A   1      44.240  32.814  27.547  1.00  0.00     0.059 A 
ATOM     99  F   UNL A   1      42.936  31.508  28.989  1.00  0.00    -0.206 F 
ATOM    100  C   UNL A   1      45.493  33.223  27.097  1.00  0.00     0.060 A 
BRANCH 100 101
ATOM    101  S   UNL A   1      45.630  34.372  25.710  1.00  0.00     0.124 S 
ATOM    102  O   UNL A   1      45.165  35.622  26.299  1.00  0.00    -0.237 OA
ATOM    103  O   UNL A   1      47.053  34.313  25.388  1.00  0.00    -0.237 OA
ATOM    104  O   UNL A   1      44.748  33.793  24.698  1.00  0.00    -0.744 OA
ENDBRANCH 100 101
ENDBRANCH  68  93
ENDBRANCH  42  43
ENDBRANCH  34  37
ENDBRANCH  32  33
ENDBRANCH  31  32
ENDBRANCH   1  31
TORSDOF 20
ENDMDL
MODEL 2
REMARK VINA RESULT:     -12.5      2.626      4.926
REMARK SMILES COc1cccc([C@@H]2CN(C(=O)CSc3nc(C)n[nH]3)C[C@H]2C(=O)NCCCCNC(=O)c2ccc(-c3c4nc(c(-c5c(F)cc(S(=O)(=O)[O-])cc5F)c5ccc([nH]5)c(-c5c(F)cc(S(=O)(=O)[O-])cc5F)c5nc(c(-c6c(F)cc(S(=O)(=O)[O-])cc6F)c6ccc3[nH]6)C=C5)C=C4)cc2)c1
REMARK SMILES IDX 27 1 26 2 25 3 23 4 24 5 22 7 8 8 9 9 10 10 21 11 7 12 3 13
REMARK SMILES IDX 4 14 99 15 5 16 6 17 2 18 1 19 11 20 12 21 13 22 14 23 15 24
REMARK SMILES IDX 16 25 20 26 17 27 19 28 18 30 28 31 29 32 30 33 31 34 32 36
REMARK SMILES IDX 33 37 34 38 98 39 35 40 97 41 36 42 37 43 38 44 91 45 39 46
REMARK SMILES IDX 96 47 90 48 92 49 40 50 95 51 89 52 88 53 41 55 75 56 54 57
REMARK SMILES IDX 74 58 55 59 58 60 73 61 93 62 56 63 57 64 72 66 94 67 59 68
REMARK SMILES IDX 42 69 43 70 52 71 44 72 45 73 51 74 53 75 46 76 47 77 48 78
REMARK SMILES IDX 49 79 50 80 76 81 77 82 86 83 78 84 79 85 85 86 87 87 80 88
REMARK SMILES IDX 81 89 82 90 83 91 84 92 60 93 61 94 70 95 62 96 63 97 69 98
REMARK SMILES IDX 71 99 64 100 65 101 66 102 67 103 68 104
REMARK H PARENT 25 6 20 29 30 35 92 54 58 65
REMARK Flexibility Score: inf
ROOT
ATOM      1  C   UNL A   1      34.050  27.222  25.785  1.00  0.00     0.023 C 
ENDROOT
BRANCH   1   2
ATOM      2  C   UNL A   1      33.442  25.863  25.415  1.00  0.00     0.116 C 
BRANCH   2   3
ATOM      3  N   UNL A   1      34.044  25.282  24.228  1.00  0.00    -0.356 N 
ATOM      4  C   UNL A   1      34.851  24.201  24.051  1.00  0.00     0.225 C 
ATOM      5  O   UNL A   1      35.202  23.947  22.895  1.00  0.00    -0.275 OA
ATOM      6  H   UNL A   1      33.826  25.759  23.395  1.00  0.00     0.163 HD
BRANCH   4   7
ATOM      7  C   UNL A   1      35.345  23.328  25.193  1.00  0.00     0.107 C 
ATOM      8  C   UNL A   1      35.744  21.910  24.747  1.00  0.00     0.053 C 
ATOM      9  C   UNL A   1      36.889  21.540  25.689  1.00  0.00     0.128 C 
ATOM     10  N   UNL A   1      37.532  22.810  25.975  1.00  0.00    -0.341 N 
ATOM     11  C   UNL A   1      36.566  23.900  25.913  1.00  0.00     0.133 C 
BRANCH   8  12
ATOM     12  C   UNL A   1      34.633  20.888  24.697  1.00  0.00    -0.039 A 
ATOM     13  C   UNL A   1      33.841  18.587  24.633  1.00  0.00     0.119 A 
ATOM     14  C   UNL A   1      32.528  19.042  24.512  1.00  0.00     0.046 A 
ATOM     15  C   UNL A   1      34.890  19.507  24.710  1.00  0.00     0.050 A 
ATOM     16  C   UNL A   1      32.256  20.408  24.514  1.00  0.00     0.004 A 
ATOM     17  C   UNL A   1      33.302  21.324  24.610  1.00  0.00     0.004 A 
BRANCH  13  18
ATOM     18  O   UNL A   1      33.998  17.228  24.606  1.00  0.00    -0.497 OA
ATOM     19  C   UNL A   1      34.010  16.652  23.303  1.00  0.00     0.278 C 
ENDBRANCH  13  18
ENDBRANCH   8  12
BRANCH  10  20
ATOM     20  C   UNL A   1      38.830  23.023  26.377  1.00  0.00     0.233 C 
ATOM     21  O   UNL A   1      39.149  23.983  27.083  1.00  0.00    -0.274 OA
BRANCH  20  22
ATOM     22  C   UNL A   1      39.912  22.078  25.891  1.00  0.00     0.178 C 
BRANCH  22  23
ATOM     23  S   UNL A   1      40.757  21.209  27.227  1.00  0.00    -0.077 SA
BRANCH  23  24
ATOM     24  C   UNL A   1      41.744  20.044  26.432  1.00  0.00     0.184 A 
ATOM     25  N   UNL A   1      42.785  20.323  25.688  1.00  0.00    -0.206 NA
ATOM     26  N   UNL A   1      41.603  18.694  26.542  1.00  0.00    -0.254 N 
ATOM     27  C   UNL A   1      43.267  19.082  25.359  1.00  0.00     0.148 A 
ATOM     28  N   UNL A   1      42.592  18.055  25.890  1.00  0.00    -0.158 NA
ATOM     29  H   UNL A   1      40.876  18.245  27.033  1.00  0.00     0.192 HD
ATOM     30  C   UNL A   1      44.448  18.906  24.493  1.00  0.00     0.092 C 
ENDBRANCH  23  24
ENDBRANCH  22  23
ENDBRANCH  20  22
ENDBRANCH  10  20
ENDBRANCH   4   7
ENDBRANCH   2   3
ENDBRANCH   1   2
BRANCH   1  31
ATOM     31  C   UNL A   1      33.065  28.296  26.259  1.00  0.00     0.023 C 
BRANCH  31  32
ATOM     32  C   UNL A   1      33.543  29.118  27.449  1.00  0.00     0.116 C 
BRANCH  32  33
ATOM     33  N   UNL A   1      33.722  30.531  27.126  1.00  0.00    -0.352 N 
ATOM     34  C   UNL A   1      34.686  31.392  27.626  1.00  0.00     0.251 C 
ATOM     35  H   UNL A   1      33.086  30.916  26.481  1.00  0.00     0.163 HD
ATOM     36  O   UNL A   1      34.534  32.599  27.584  1.00  0.00    -0.269 OA
BRANCH  34  37
ATOM     37  C   UNL A   1      35.900  30.795  28.213  1.00  0.00     0.039 A 
ATOM     38  C   UNL A   1      36.215  29.453  28.003  1.00  0.00     0.014 A 
ATOM     39  C   UNL A   1      36.767  31.638  28.903  1.00  0.00     0.014 A 
ATOM     40  C   UNL A   1      37.466  28.990  28.407  1.00  0.00     0.010 A 
ATOM     41  C   UNL A   1      38.045  31.213  29.182  1.00  0.00     0.010 A 
ATOM     42  C   UNL A   1      38.397  29.882  28.967  1.00  0.00    -0.014 A 
BRANCH  42  43
ATOM     43  C   UNL A   1      39.770  29.446  29.226  1.00  0.00     0.031 A 
ATOM     44  C   UNL A   1      40.080  29.074  30.639  1.00  0.00     0.074 A 
ATOM     45  C   UNL A   1      40.672  29.186  28.253  1.00  0.00     0.049 A 
ATOM     46  N   UNL A   1      40.872  29.676  31.465  1.00  0.00    -0.248 NA
ATOM     47  C   UNL A   1      39.347  27.949  31.241  1.00  0.00     0.031 C 
ATOM     48  C   UNL A   1      40.478  29.177  26.799  1.00  0.00     0.029 A 
ATOM     49  N   UNL A   1      41.957  28.762  28.385  1.00  0.00    -0.354 N 
ATOM     50  C   UNL A   1      40.896  28.903  32.625  1.00  0.00     0.074 A 
ATOM     51  C   UNL A   1      39.829  27.944  32.486  1.00  0.00     0.031 C 
ATOM     52  C   UNL A   1      41.517  28.545  26.208  1.00  0.00     0.029 A 
ATOM     53  C   UNL A   1      42.526  28.278  27.215  1.00  0.00     0.049 A 
ATOM     54  H   UNL A   1      42.445  28.795  29.240  1.00  0.00     0.167 HD
ATOM     55  C   UNL A   1      41.916  28.985  33.527  1.00  0.00     0.037 A 
ATOM     56  C   UNL A   1      43.736  27.684  27.081  1.00  0.00     0.037 A 
ATOM     57  C   UNL A   1      42.729  30.152  33.297  1.00  0.00     0.049 A 
ATOM     58  C   UNL A   1      44.555  28.099  28.248  1.00  0.00     0.074 A 
ATOM     59  C   UNL A   1      42.493  31.514  33.286  1.00  0.00     0.029 A 
ATOM     60  N   UNL A   1      43.931  29.980  32.654  1.00  0.00    -0.354 N 
ATOM     61  N   UNL A   1      44.948  29.326  28.461  1.00  0.00    -0.248 NA
ATOM     62  C   UNL A   1      44.567  27.233  29.414  1.00  0.00     0.031 C 
ATOM     63  C   UNL A   1      43.285  32.013  32.210  1.00  0.00     0.029 A 
ATOM     64  C   UNL A   1      44.002  30.940  31.676  1.00  0.00     0.049 A 
ATOM     65  H   UNL A   1      44.612  29.299  32.856  1.00  0.00     0.167 HD
ATOM     66  C   UNL A   1      44.843  29.501  29.832  1.00  0.00     0.074 A 
ATOM     67  C   UNL A   1      44.700  28.152  30.374  1.00  0.00     0.031 C 
ATOM     68  C   UNL A   1      44.608  30.732  30.378  1.00  0.00     0.037 A 
BRANCH  55  69
ATOM     69  C   UNL A   1      42.386  27.857  34.416  1.00  0.00     0.058 A 
ATOM     70  C   UNL A   1      42.367  28.016  35.819  1.00  0.00     0.135 A 
ATOM     71  C   UNL A   1      43.107  26.740  33.941  1.00  0.00     0.135 A 
ATOM     72  F   UNL A   1      41.720  29.049  36.381  1.00  0.00    -0.206 F 
ATOM     73  C   UNL A   1      43.066  27.166  36.678  1.00  0.00     0.059 A 
ATOM     74  C   UNL A   1      43.767  25.850  34.783  1.00  0.00     0.059 A 
ATOM     75  F   UNL A   1      43.287  26.518  32.633  1.00  0.00    -0.206 F 
ATOM     76  C   UNL A   1      43.777  26.095  36.148  1.00  0.00     0.060 A 
BRANCH  76  77
ATOM     77  S   UNL A   1      44.768  25.061  37.242  1.00  0.00     0.124 S 
ATOM     78  O   UNL A   1      44.516  23.733  36.693  1.00  0.00    -0.237 OA
ATOM     79  O   UNL A   1      46.110  25.596  37.034  1.00  0.00    -0.237 OA
ATOM     80  O   UNL A   1      44.194  25.321  38.560  1.00  0.00    -0.744 OA
ENDBRANCH  76  77
ENDBRANCH  55  69
BRANCH  56  81
ATOM     81  C   UNL A   1      44.099  26.548  26.196  1.00  0.00     0.058 A 
ATOM     82  C   UNL A   1      45.346  26.500  25.551  1.00  0.00     0.135 A 
ATOM     83  C   UNL A   1      43.349  25.353  26.193  1.00  0.00     0.135 A 
ATOM     84  F   UNL A   1      46.133  27.586  25.522  1.00  0.00    -0.206 F 
ATOM     85  C   UNL A   1      45.847  25.322  24.986  1.00  0.00     0.059 A 
ATOM     86  C   UNL A   1      43.823  24.171  25.628  1.00  0.00     0.059 A 
ATOM     87  F   UNL A   1      42.169  25.275  26.827  1.00  0.00    -0.206 F 
ATOM     88  C   UNL A   1      45.087  24.155  25.052  1.00  0.00     0.060 A 
BRANCH  88  89
ATOM     89  S   UNL A   1      45.811  22.593  24.497  1.00  0.00     0.124 S 
ATOM     90  O   UNL A   1      44.782  22.086  23.596  1.00  0.00    -0.237 OA
ATOM     91  O   UNL A   1      47.051  23.036  23.866  1.00  0.00    -0.237 OA
ATOM     92  O   UNL A   1      45.982  21.839  25.737  1.00  0.00    -0.744 OA
ENDBRANCH  88  89
ENDBRANCH  56  81
BRANCH  68  93
ATOM     93  C   UNL A   1      44.762  31.950  29.501  1.00  0.00     0.058 A 
ATOM     94  C   UNL A   1      45.989  32.573  29.207  1.00  0.00     0.135 A 
ATOM     95  C   UNL A   1      43.633  32.408  28.803  1.00  0.00     0.135 A 
ATOM     96  F   UNL A   1      47.134  32.134  29.745  1.00  0.00    -0.206 F 
ATOM     97  C   UNL A   1      46.080  33.626  28.292  1.00  0.00     0.059 A 
ATOM     98  C   UNL A   1      43.706  33.434  27.865  1.00  0.00     0.059 A 
ATOM     99  F   UNL A   1      42.442  31.815  28.992  1.00  0.00    -0.206 F 
ATOM    100  C   UNL A   1      44.932  34.048  27.624  1.00  0.00     0.060 A 
BRANCH 100 101
ATOM    101  S   UNL A   1      45.065  35.356  26.384  1.00  0.00     0.124 S 
ATOM    102  O   UNL A   1      45.212  34.594  25.149  1.00  0.00    -0.237 OA
ATOM    103  O   UNL A   1      43.803  36.073  26.541  1.00  0.00    -0.237 OA
ATOM    104  O   UNL A   1      46.251  36.102  26.801  1.00  0.00    -0.744 OA
ENDBRANCH 100 101
ENDBRANCH  68  93
ENDBRANCH  42  43
ENDBRANCH  34  37
ENDBRANCH  32  33
ENDBRANCH  31  32
ENDBRANCH   1  31
TORSDOF 20
ENDMDL
MODEL 3
REMARK VINA RESULT:     -11.9      3.791      9.033
REMARK SMILES COc1cccc([C@@H]2CN(C(=O)CSc3nc(C)n[nH]3)C[C@H]2C(=O)NCCCCNC(=O)c2ccc(-c3c4nc(c(-c5c(F)cc(S(=O)(=O)[O-])cc5F)c5ccc([nH]5)c(-c5c(F)cc(S(=O)(=O)[O-])cc5F)c5nc(c(-c6c(F)cc(S(=O)(=O)[O-])cc6F)c6ccc3[nH]6)C=C5)C=C4)cc2)c1
REMARK SMILES IDX 27 1 26 2 25 3 23 4 24 5 22 7 8 8 9 9 10 10 21 11 7 12 3 13
REMARK SMILES IDX 4 14 99 15 5 16 6 17 2 18 1 19 11 20 12 21 13 22 14 23 15 24
REMARK SMILES IDX 16 25 20 26 17 27 19 28 18 30 28 31 29 32 30 33 31 34 32 36
REMARK SMILES IDX 33 37 34 38 98 39 35 40 97 41 36 42 37 43 38 44 91 45 39 46
REMARK SMILES IDX 96 47 90 48 92 49 40 50 95 51 89 52 88 53 41 55 75 56 54 57
REMARK SMILES IDX 74 58 55 59 58 60 73 61 93 62 56 63 57 64 72 66 94 67 59 68
REMARK SMILES IDX 42 69 43 70 52 71 44 72 45 73 51 74 53 75 46 76 47 77 48 78
REMARK SMILES IDX 49 79 50 80 76 81 77 82 86 83 78 84 79 85 85 86 87 87 80 88
REMARK SMILES IDX 81 89 82 90 83 91 84 92 60 93 61 94 70 95 62 96 63 97 69 98
REMARK SMILES IDX 71 99 64 100 65 101 66 102 67 103 68 104
REMARK H PARENT 25 6 20 29 30 35 92 54 58 65
REMARK Flexibility Score: inf
ROOT
ATOM      1  C   UNL A   1      32.418  26.641  25.451  1.00  0.00     0.023 C 
ENDROOT
BRANCH   1   2
ATOM      2  C   UNL A   1      32.434  25.150  25.091  1.00  0.00     0.116 C 
BRANCH   2   3
ATOM      3  N   UNL A   1      33.325  24.849  23.984  1.00  0.00    -0.356 N 
ATOM      4  C   UNL A   1      34.427  24.058  23.889  1.00  0.00     0.225 C 
ATOM      5  O   UNL A   1      34.980  23.996  22.787  1.00  0.00    -0.275 OA
ATOM      6  H   UNL A   1      33.084  25.301  23.143  1.00  0.00     0.163 HD
BRANCH   4   7
ATOM      7  C   UNL A   1      35.006  23.283  25.062  1.00  0.00     0.107 C 
ATOM      8  C   UNL A   1      35.572  21.908  24.664  1.00  0.00     0.053 C 
ATOM      9  C   UNL A   1      36.741  21.702  25.626  1.00  0.00     0.128 C 
ATOM     10  N   UNL A   1      37.229  23.046  25.877  1.00  0.00    -0.341 N 
ATOM     11  C   UNL A   1      36.144  24.015  25.773  1.00  0.00     0.133 C 
BRANCH   8  12
ATOM     12  C   UNL A   1      34.587  20.763  24.638  1.00  0.00    -0.039 A 
ATOM     13  C   UNL A   1      34.068  18.385  24.631  1.00  0.00     0.119 A 
ATOM     14  C   UNL A   1      32.711  18.681  24.496  1.00  0.00     0.046 A 
ATOM     15  C   UNL A   1      35.002  19.422  24.687  1.00  0.00     0.050 A 
ATOM     16  C   UNL A   1      32.283  20.005  24.462  1.00  0.00     0.004 A 
ATOM     17  C   UNL A   1      33.214  21.039  24.537  1.00  0.00     0.004 A 
BRANCH  13  18
ATOM     18  O   UNL A   1      34.382  17.053  24.639  1.00  0.00    -0.497 OA
ATOM     19  C   UNL A   1      33.278  16.176  24.437  1.00  0.00     0.278 C 
ENDBRANCH  13  18
ENDBRANCH   8  12
BRANCH  10  20
ATOM     20  C   UNL A   1      38.489  23.421  26.282  1.00  0.00     0.233 C 
ATOM     21  O   UNL A   1      38.769  24.590  26.557  1.00  0.00    -0.274 OA
BRANCH  20  22
ATOM     22  C   UNL A   1      39.582  22.371  26.339  1.00  0.00     0.178 C 
BRANCH  22  23
ATOM     23  S   UNL A   1      41.193  23.041  26.798  1.00  0.00    -0.077 SA
BRANCH  23  24
ATOM     24  C   UNL A   1      42.331  21.956  26.095  1.00  0.00     0.184 A 
ATOM     25  N   UNL A   1      42.426  20.680  26.375  1.00  0.00    -0.206 NA
ATOM     26  N   UNL A   1      43.218  22.281  25.113  1.00  0.00    -0.254 N 
ATOM     27  C   UNL A   1      43.404  20.251  25.516  1.00  0.00     0.148 A 
ATOM     28  N   UNL A   1      43.893  21.193  24.701  1.00  0.00    -0.158 NA
ATOM     29  H   UNL A   1      43.347  23.189  24.754  1.00  0.00     0.192 HD
ATOM     30  C   UNL A   1      43.867  18.851  25.495  1.00  0.00     0.092 C 
ENDBRANCH  23  24
ENDBRANCH  22  23
ENDBRANCH  20  22
ENDBRANCH  10  20
ENDBRANCH   4   7
ENDBRANCH   2   3
ENDBRANCH   1   2
BRANCH   1  31
ATOM     31  C   UNL A   1      33.758  27.246  25.884  1.00  0.00     0.023 C 
BRANCH  31  32
ATOM     32  C   UNL A   1      34.042  28.633  25.323  1.00  0.00     0.116 C 
BRANCH  32  33
ATOM     33  N   UNL A   1      33.004  29.604  25.660  1.00  0.00    -0.352 N 
ATOM     34  C   UNL A   1      32.917  30.379  26.804  1.00  0.00     0.251 C 
ATOM     35  H   UNL A   1      32.285  29.720  24.998  1.00  0.00     0.163 HD
ATOM     36  O   UNL A   1      31.859  30.870  27.153  1.00  0.00    -0.269 OA
BRANCH  34  37
ATOM     37  C   UNL A   1      34.149  30.585  27.588  1.00  0.00     0.039 A 
ATOM     38  C   UNL A   1      34.794  29.516  28.209  1.00  0.00     0.014 A 
ATOM     39  C   UNL A   1      34.697  31.865  27.607  1.00  0.00     0.014 A 
ATOM     40  C   UNL A   1      36.055  29.729  28.764  1.00  0.00     0.010 A 
ATOM     41  C   UNL A   1      35.991  32.041  28.039  1.00  0.00     0.010 A 
ATOM     42  C   UNL A   1      36.669  30.987  28.648  1.00  0.00    -0.014 A 
BRANCH  42  43
ATOM     43  C   UNL A   1      38.061  31.168  29.066  1.00  0.00     0.031 A 
ATOM     44  C   UNL A   1      38.971  30.008  28.824  1.00  0.00     0.074 A 
ATOM     45  C   UNL A   1      38.579  32.353  29.458  1.00  0.00     0.049 A 
ATOM     46  N   UNL A   1      39.551  29.256  29.701  1.00  0.00    -0.248 NA
ATOM     47  C   UNL A   1      39.186  29.568  27.436  1.00  0.00     0.031 C 
ATOM     48  C   UNL A   1      37.947  33.677  29.461  1.00  0.00     0.029 A 
ATOM     49  N   UNL A   1      39.853  32.631  29.846  1.00  0.00    -0.354 N 
ATOM     50  C   UNL A   1      40.362  28.372  28.990  1.00  0.00     0.074 A 
ATOM     51  C   UNL A   1      39.982  28.509  27.607  1.00  0.00     0.031 C 
ATOM     52  C   UNL A   1      38.895  34.630  29.598  1.00  0.00     0.029 A 
ATOM     53  C   UNL A   1      40.161  33.984  29.880  1.00  0.00     0.049 A 
ATOM     54  H   UNL A   1      40.504  31.930  30.082  1.00  0.00     0.167 HD
ATOM     55  C   UNL A   1      41.420  27.736  29.570  1.00  0.00     0.037 A 
ATOM     56  C   UNL A   1      41.376  34.538  30.108  1.00  0.00     0.037 A 
ATOM     57  C   UNL A   1      41.369  27.834  31.007  1.00  0.00     0.049 A 
ATOM     58  C   UNL A   1      42.190  33.520  30.821  1.00  0.00     0.074 A 
ATOM     59  C   UNL A   1      40.468  27.439  31.976  1.00  0.00     0.029 A 
ATOM     60  N   UNL A   1      42.186  28.755  31.616  1.00  0.00    -0.354 N 
ATOM     61  N   UNL A   1      41.927  33.091  32.026  1.00  0.00    -0.248 NA
ATOM     62  C   UNL A   1      43.042  32.652  30.026  1.00  0.00     0.031 C 
ATOM     63  C   UNL A   1      40.468  28.499  32.930  1.00  0.00     0.029 A 
ATOM     64  C   UNL A   1      41.413  29.441  32.518  1.00  0.00     0.049 A 
ATOM     65  H   UNL A   1      43.145  28.896  31.440  1.00  0.00     0.167 HD
ATOM     66  C   UNL A   1      42.210  31.736  31.992  1.00  0.00     0.074 A 
ATOM     67  C   UNL A   1      42.986  31.543  30.768  1.00  0.00     0.031 C 
ATOM     68  C   UNL A   1      41.564  30.851  32.809  1.00  0.00     0.037 A 
BRANCH  55  69
ATOM     69  C   UNL A   1      42.675  27.300  28.851  1.00  0.00     0.058 A 
ATOM     70  C   UNL A   1      43.410  28.237  28.092  1.00  0.00     0.135 A 
ATOM     71  C   UNL A   1      43.029  25.947  28.653  1.00  0.00     0.135 A 
ATOM     72  F   UNL A   1      43.152  29.551  28.192  1.00  0.00    -0.206 F 
ATOM     73  C   UNL A   1      44.376  27.854  27.160  1.00  0.00     0.059 A 
ATOM     74  C   UNL A   1      44.026  25.547  27.768  1.00  0.00     0.059 A 
ATOM     75  F   UNL A   1      42.356  24.947  29.235  1.00  0.00    -0.206 F 
ATOM     76  C   UNL A   1      44.665  26.504  26.994  1.00  0.00     0.060 A 
BRANCH  76  77
ATOM     77  S   UNL A   1      45.832  25.998  25.717  1.00  0.00     0.124 S 
ATOM     78  O   UNL A   1      47.102  26.105  26.427  1.00  0.00    -0.237 OA
ATOM     79  O   UNL A   1      45.382  24.643  25.412  1.00  0.00    -0.237 OA
ATOM     80  O   UNL A   1      45.615  26.978  24.657  1.00  0.00    -0.744 OA
ENDBRANCH  76  77
ENDBRANCH  55  69
BRANCH  56  81
ATOM     81  C   UNL A   1      41.961  35.745  29.471  1.00  0.00     0.058 A 
ATOM     82  C   UNL A   1      42.945  36.506  30.123  1.00  0.00     0.135 A 
ATOM     83  C   UNL A   1      41.774  36.011  28.098  1.00  0.00     0.135 A 
ATOM     84  F   UNL A   1      43.200  36.305  31.425  1.00  0.00    -0.206 F 
ATOM     85  C   UNL A   1      43.739  37.435  29.443  1.00  0.00     0.059 A 
ATOM     86  C   UNL A   1      42.546  36.939  27.402  1.00  0.00     0.059 A 
ATOM     87  F   UNL A   1      40.897  35.304  27.369  1.00  0.00    -0.206 F 
ATOM     88  C   UNL A   1      43.548  37.627  28.074  1.00  0.00     0.060 A 
BRANCH  88  89
ATOM     89  S   UNL A   1      44.697  38.681  27.158  1.00  0.00     0.124 S 
ATOM     90  O   UNL A   1      45.352  39.419  28.231  1.00  0.00    -0.237 OA
ATOM     91  O   UNL A   1      45.523  37.700  26.459  1.00  0.00    -0.237 OA
ATOM     92  O   UNL A   1      43.818  39.473  26.300  1.00  0.00    -0.744 OA
ENDBRANCH  88  89
ENDBRANCH  56  81
BRANCH  68  93
ATOM     93  C   UNL A   1      40.755  31.393  33.961  1.00  0.00     0.058 A 
ATOM     94  C   UNL A   1      39.401  31.766  33.880  1.00  0.00     0.135 A 
ATOM     95  C   UNL A   1      41.336  31.383  35.239  1.00  0.00     0.135 A 
ATOM     96  F   UNL A   1      38.734  31.706  32.721  1.00  0.00    -0.206 F 
ATOM     97  C   UNL A   1      38.674  32.150  35.011  1.00  0.00     0.059 A 
ATOM     98  C   UNL A   1      40.622  31.730  36.382  1.00  0.00     0.059 A 
ATOM     99  F   UNL A   1      42.608  30.977  35.394  1.00  0.00    -0.206 F 
ATOM    100  C   UNL A   1      39.293  32.126  36.259  1.00  0.00     0.060 A 
BRANCH 100 101
ATOM    101  S   UNL A   1      38.329  32.545  37.729  1.00  0.00     0.124 S 
ATOM    102  O   UNL A   1      37.641  33.761  37.308  1.00  0.00    -0.237 OA
ATOM    103  O   UNL A   1      37.486  31.367  37.903  1.00  0.00    -0.237 OA
ATOM    104  O   UNL A   1      39.346  32.730  38.763  1.00  0.00    -0.744 OA
ENDBRANCH 100 101
ENDBRANCH  68  93
ENDBRANCH  42  43
ENDBRANCH  34  37
ENDBRANCH  32  33
ENDBRANCH  31  32
ENDBRANCH   1  31
TORSDOF 20
ENDMDL
