MODEL 1
REMARK VINA RESULT:     -13.0      0.000      0.000
REMARK SMILES O=C(CN1CC2(CCC1=O)CC[NH+](Cc1nc3ccccc3[nH]1)CC2)NCCCCNC(=O)c1ccc(-c2c3nc(c(-c4c(F)cc(S(=O)(=O)[O-])cc4F)c4ccc([nH]4)c(-c4c(F)cc(S(=O)(=O)[O-])cc4F)c4nc(c(-c5c(F)cc(S(=O)(=O)[O-])cc5F)c5ccc2[nH]5)C=C4)C=C3)cc1
REMARK SMILES IDX 28 1 27 2 26 3 1 4 2 5 3 7 4 8 5 9 9 10 6 11 8 12 10 13 7 14
REMARK SMILES IDX 11 15 25 16 12 17 24 18 13 19 14 21 15 22 16 23 23 24 17 25
REMARK SMILES IDX 22 26 18 28 21 29 19 30 20 31 29 32 30 33 31 34 32 35 33 37
REMARK SMILES IDX 34 38 35 39 99 40 36 41 98 42 37 43 38 44 39 45 92 46 40 47
REMARK SMILES IDX 97 48 91 49 93 50 41 51 96 52 90 53 89 54 42 56 76 57 55 58
REMARK SMILES IDX 75 59 56 60 59 61 74 62 94 63 57 64 58 65 73 67 95 68 60 69
REMARK SMILES IDX 43 70 44 71 53 72 45 73 46 74 52 75 54 76 47 77 48 78 49 79
REMARK SMILES IDX 50 80 51 81 77 82 78 83 87 84 79 85 80 86 86 87 88 88 81 89
REMARK SMILES IDX 82 90 83 91 84 92 85 93 61 94 62 95 71 96 63 97 64 98 70 99
REMARK SMILES IDX 72 100 65 101 66 102 67 103 68 104 69 105
REMARK H PARENT 26 6 13 20 23 27 31 36 93 55 59 66
REMARK Flexibility Score: inf
ROOT
ATOM      1  C   UNL A   1      35.936  23.961  25.750  1.00  0.00     0.023 C 
ENDROOT
BRANCH   1   2
ATOM      2  C   UNL A   1      35.246  22.794  26.446  1.00  0.00     0.116 C 
BRANCH   2   3
ATOM      3  N   UNL A   1      33.827  22.783  26.168  1.00  0.00    -0.355 N 
ATOM      4  O   UNL A   1      33.935  21.661  24.161  1.00  0.00    -0.273 OA
ATOM      5  C   UNL A   1      33.276  22.175  25.061  1.00  0.00     0.239 C 
ATOM      6  H   UNL A   1      33.223  23.234  26.802  1.00  0.00     0.163 HD
BRANCH   5   7
ATOM      7  C   UNL A   1      31.753  22.064  25.149  1.00  0.00     0.219 C 
BRANCH   7   8
ATOM      8  N   UNL A   1      31.027  23.340  25.099  1.00  0.00    -0.333 N 
ATOM      9  C   UNL A   1      30.721  24.018  23.835  1.00  0.00     0.127 C 
ATOM     10  C   UNL A   1      30.606  23.872  26.309  1.00  0.00     0.223 C 
ATOM     11  C   UNL A   1      31.153  25.486  23.909  1.00  0.00    -0.001 C 
ATOM     12  C   UNL A   1      30.429  25.379  26.364  1.00  0.00     0.101 C 
ATOM     13  O   UNL A   1      30.546  23.202  27.340  1.00  0.00    -0.275 OA
ATOM     14  C   UNL A   1      30.275  26.089  25.028  1.00  0.00     0.019 C 
ATOM     15  C   UNL A   1      32.665  25.556  24.247  1.00  0.00     0.070 C 
ATOM     16  C   UNL A   1      30.842  26.239  22.592  1.00  0.00     0.070 C 
ATOM     17  C   UNL A   1      33.590  25.372  23.043  1.00  0.00     0.263 C 
ATOM     18  C   UNL A   1      31.877  26.058  21.478  1.00  0.00     0.263 C 
ATOM     19  N   UNL A   1      33.269  26.201  21.892  1.00  0.00    -0.329 N 
ATOM     20  H   UNL A   1      33.817  25.802  21.131  1.00  0.00     0.348 HD
BRANCH  19  21
ATOM     21  C   UNL A   1      33.826  27.563  21.871  1.00  0.00     0.338 C 
BRANCH  21  22
ATOM     22  C   UNL A   1      33.562  28.414  23.072  1.00  0.00     0.162 A 
ATOM     23  N   UNL A   1      32.448  29.058  23.368  1.00  0.00    -0.227 NA
ATOM     24  N   UNL A   1      34.484  28.580  24.080  1.00  0.00    -0.337 N 
ATOM     25  C   UNL A   1      32.555  29.365  24.702  1.00  0.00     0.089 A 
ATOM     26  C   UNL A   1      33.803  29.003  25.195  1.00  0.00     0.066 A 
ATOM     27  H   UNL A   1      35.454  28.426  24.014  1.00  0.00     0.168 HD
ATOM     28  C   UNL A   1      31.593  29.875  25.584  1.00  0.00     0.030 A 
ATOM     29  C   UNL A   1      34.138  29.040  26.550  1.00  0.00     0.028 A 
ATOM     30  C   UNL A   1      31.897  29.917  26.952  1.00  0.00     0.002 A 
ATOM     31  C   UNL A   1      33.140  29.487  27.425  1.00  0.00     0.002 A 
ENDBRANCH  21  22
ENDBRANCH  19  21
ENDBRANCH   7   8
ENDBRANCH   5   7
ENDBRANCH   2   3
ENDBRANCH   1   2
BRANCH   1  32
ATOM     32  C   UNL A   1      37.429  23.750  25.471  1.00  0.00     0.023 C 
BRANCH  32  33
ATOM     33  C   UNL A   1      38.357  24.053  26.644  1.00  0.00     0.116 C 
BRANCH  33  34
ATOM     34  N   UNL A   1      39.758  23.946  26.275  1.00  0.00    -0.352 N 
ATOM     35  C   UNL A   1      40.811  24.776  26.585  1.00  0.00     0.251 C 
ATOM     36  H   UNL A   1      39.988  23.165  25.722  1.00  0.00     0.163 HD
ATOM     37  O   UNL A   1      41.883  24.635  26.010  1.00  0.00    -0.269 OA
BRANCH  35  38
ATOM     38  C   UNL A   1      40.643  25.851  27.592  1.00  0.00     0.039 A 
ATOM     39  C   UNL A   1      39.685  25.689  28.597  1.00  0.00     0.014 A 
ATOM     40  C   UNL A   1      41.411  27.017  27.543  1.00  0.00     0.014 A 
ATOM     41  C   UNL A   1      39.546  26.665  29.589  1.00  0.00     0.010 A 
ATOM     42  C   UNL A   1      41.323  27.952  28.575  1.00  0.00     0.010 A 
ATOM     43  C   UNL A   1      40.391  27.787  29.610  1.00  0.00    -0.014 A 
BRANCH  43  44
ATOM     44  C   UNL A   1      40.320  28.787  30.711  1.00  0.00     0.031 A 
ATOM     45  C   UNL A   1      41.212  28.657  31.917  1.00  0.00     0.074 A 
ATOM     46  C   UNL A   1      39.408  29.779  30.653  1.00  0.00     0.049 A 
ATOM     47  N   UNL A   1      41.250  29.392  32.999  1.00  0.00    -0.248 NA
ATOM     48  C   UNL A   1      42.173  27.542  31.919  1.00  0.00     0.031 C 
ATOM     49  C   UNL A   1      38.457  29.990  29.560  1.00  0.00     0.029 A 
ATOM     50  N   UNL A   1      39.123  30.790  31.538  1.00  0.00    -0.354 N 
ATOM     51  C   UNL A   1      42.223  28.822  33.814  1.00  0.00     0.074 A 
ATOM     52  C   UNL A   1      42.715  27.650  33.123  1.00  0.00     0.031 C 
ATOM     53  C   UNL A   1      37.713  31.076  29.826  1.00  0.00     0.029 A 
ATOM     54  C   UNL A   1      38.100  31.613  31.127  1.00  0.00     0.049 A 
ATOM     55  H   UNL A   1      39.607  30.915  32.386  1.00  0.00     0.167 HD
ATOM     56  C   UNL A   1      42.678  29.248  35.017  1.00  0.00     0.037 A 
ATOM     57  C   UNL A   1      37.530  32.674  31.731  1.00  0.00     0.037 A 
ATOM     58  C   UNL A   1      42.199  30.429  35.690  1.00  0.00     0.049 A 
ATOM     59  C   UNL A   1      38.043  33.118  33.075  1.00  0.00     0.074 A 
ATOM     60  C   UNL A   1      42.641  30.977  36.882  1.00  0.00     0.029 A 
ATOM     61  N   UNL A   1      41.168  31.240  35.238  1.00  0.00    -0.354 N 
ATOM     62  N   UNL A   1      39.010  32.606  33.798  1.00  0.00    -0.248 NA
ATOM     63  C   UNL A   1      37.390  34.286  33.684  1.00  0.00     0.031 C 
ATOM     64  C   UNL A   1      41.840  32.083  37.179  1.00  0.00     0.029 A 
ATOM     65  C   UNL A   1      40.940  32.265  36.142  1.00  0.00     0.049 A 
ATOM     66  H   UNL A   1      40.671  31.105  34.399  1.00  0.00     0.167 HD
ATOM     67  C   UNL A   1      39.104  33.410  34.931  1.00  0.00     0.074 A 
ATOM     68  C   UNL A   1      38.102  34.446  34.790  1.00  0.00     0.031 C 
ATOM     69  C   UNL A   1      39.946  33.298  35.989  1.00  0.00     0.037 A 
BRANCH  56  70
ATOM     70  C   UNL A   1      43.750  28.433  35.691  1.00  0.00     0.058 A 
ATOM     71  C   UNL A   1      45.114  28.647  35.436  1.00  0.00     0.135 A 
ATOM     72  C   UNL A   1      43.411  27.458  36.643  1.00  0.00     0.135 A 
ATOM     73  F   UNL A   1      45.498  29.557  34.526  1.00  0.00    -0.206 F 
ATOM     74  C   UNL A   1      46.100  27.903  36.076  1.00  0.00     0.059 A 
ATOM     75  C   UNL A   1      44.381  26.724  37.319  1.00  0.00     0.059 A 
ATOM     76  F   UNL A   1      42.123  27.210  36.928  1.00  0.00    -0.206 F 
ATOM     77  C   UNL A   1      45.724  26.945  37.017  1.00  0.00     0.060 A 
BRANCH  77  78
ATOM     78  S   UNL A   1      47.018  25.996  37.845  1.00  0.00     0.124 S 
ATOM     79  O   UNL A   1      46.471  25.873  39.193  1.00  0.00    -0.237 OA
ATOM     80  O   UNL A   1      47.054  24.767  37.061  1.00  0.00    -0.237 OA
ATOM     81  O   UNL A   1      48.197  26.849  37.723  1.00  0.00    -0.744 OA
ENDBRANCH  77  78
ENDBRANCH  56  70
BRANCH  57  82
ATOM     82  C   UNL A   1      36.418  33.405  31.063  1.00  0.00     0.058 A 
ATOM     83  C   UNL A   1      36.657  34.218  29.945  1.00  0.00     0.135 A 
ATOM     84  C   UNL A   1      35.096  33.305  31.525  1.00  0.00     0.135 A 
ATOM     85  F   UNL A   1      37.904  34.354  29.469  1.00  0.00    -0.206 F 
ATOM     86  C   UNL A   1      35.632  34.921  29.320  1.00  0.00     0.059 A 
ATOM     87  C   UNL A   1      34.049  33.974  30.899  1.00  0.00     0.059 A 
ATOM     88  F   UNL A   1      34.809  32.528  32.581  1.00  0.00    -0.206 F 
ATOM     89  C   UNL A   1      34.329  34.791  29.805  1.00  0.00     0.060 A 
BRANCH  89  90
ATOM     90  S   UNL A   1      33.000  35.674  28.959  1.00  0.00     0.124 S 
ATOM     91  O   UNL A   1      32.220  36.177  30.084  1.00  0.00    -0.237 OA
ATOM     92  O   UNL A   1      33.736  36.673  28.192  1.00  0.00    -0.237 OA
ATOM     93  O   UNL A   1      32.359  34.630  28.164  1.00  0.00    -0.744 OA
ENDBRANCH  89  90
ENDBRANCH  57  82
BRANCH  69  94
ATOM     94  C   UNL A   1      39.853  34.347  37.065  1.00  0.00     0.058 A 
ATOM     95  C   UNL A   1      40.562  35.556  36.987  1.00  0.00     0.135 A 
ATOM     96  C   UNL A   1      39.001  34.158  38.167  1.00  0.00     0.135 A 
ATOM     97  F   UNL A   1      41.395  35.785  35.960  1.00  0.00    -0.206 F 
ATOM     98  C   UNL A   1      40.448  36.530  37.973  1.00  0.00     0.059 A 
ATOM     99  C   UNL A   1      38.847  35.132  39.148  1.00  0.00     0.059 A 
ATOM    100  F   UNL A   1      38.293  33.024  38.287  1.00  0.00    -0.206 F 
ATOM    101  C   UNL A   1      39.585  36.310  39.049  1.00  0.00     0.060 A 
BRANCH 101 102
ATOM    102  S   UNL A   1      39.419  37.599  40.303  1.00  0.00     0.124 S 
ATOM    103  O   UNL A   1      40.650  38.358  40.108  1.00  0.00    -0.237 OA
ATOM    104  O   UNL A   1      38.188  38.271  39.899  1.00  0.00    -0.237 OA
ATOM    105  O   UNL A   1      39.336  36.849  41.553  1.00  0.00    -0.744 OA
ENDBRANCH 101 102
ENDBRANCH  69  94
ENDBRANCH  43  44
ENDBRANCH  35  38
ENDBRANCH  33  34
ENDBRANCH  32  33
ENDBRANCH   1  32
TORSDOF 17
ENDMDL
MODEL 2
REMARK VINA RESULT:     -12.8      4.611     10.240
REMARK SMILES O=C(CN1CC2(CCC1=O)CC[NH+](Cc1nc3ccccc3[nH]1)CC2)NCCCCNC(=O)c1ccc(-c2c3nc(c(-c4c(F)cc(S(=O)(=O)[O-])cc4F)c4ccc([nH]4)c(-c4c(F)cc(S(=O)(=O)[O-])cc4F)c4nc(c(-c5c(F)cc(S(=O)(=O)[O-])cc5F)c5ccc2[nH]5)C=C4)C=C3)cc1
REMARK SMILES IDX 28 1 27 2 26 3 1 4 2 5 3 7 4 8 5 9 9 10 6 11 8 12 10 13 7 14
REMARK SMILES IDX 11 15 25 16 12 17 24 18 13 19 14 21 15 22 16 23 23 24 17 25
REMARK SMILES IDX 22 26 18 28 21 29 19 30 20 31 29 32 30 33 31 34 32 35 33 37
REMARK SMILES IDX 34 38 35 39 99 40 36 41 98 42 37 43 38 44 39 45 92 46 40 47
REMARK SMILES IDX 97 48 91 49 93 50 41 51 96 52 90 53 89 54 42 56 76 57 55 58
REMARK SMILES IDX 75 59 56 60 59 61 74 62 94 63 57 64 58 65 73 67 95 68 60 69
REMARK SMILES IDX 43 70 44 71 53 72 45 73 46 74 52 75 54 76 47 77 48 78 49 79
REMARK SMILES IDX 50 80 51 81 77 82 78 83 87 84 79 85 80 86 86 87 88 88 81 89
REMARK SMILES IDX 82 90 83 91 84 92 85 93 61 94 62 95 71 96 63 97 64 98 70 99
REMARK SMILES IDX 72 100 65 101 66 102 67 103 68 104 69 105
REMARK H PARENT 26 6 13 20 23 27 31 36 93 55 59 66
REMARK Flexibility Score: inf
ROOT
ATOM      1  C   UNL A   1      34.024  28.870  25.129  1.00  0.00     0.023 C 
ENDROOT
BRANCH   1   2
ATOM      2  C   UNL A   1      32.756  29.204  24.352  1.00  0.00     0.116 C 
BRANCH   2   3
ATOM      3  N   UNL A   1      32.401  28.135  23.445  1.00  0.00    -0.355 N 
ATOM      4  O   UNL A   1      30.673  27.262  24.690  1.00  0.00    -0.273 OA
ATOM      5  C   UNL A   1      31.353  27.269  23.667  1.00  0.00     0.239 C 
ATOM      6  H   UNL A   1      32.938  28.019  22.627  1.00  0.00     0.163 HD
BRANCH   5   7
ATOM      7  C   UNL A   1      31.019  26.423  22.436  1.00  0.00     0.219 C 
BRANCH   7   8
ATOM      8  N   UNL A   1      31.632  25.089  22.407  1.00  0.00    -0.333 N 
ATOM      9  C   UNL A   1      31.058  23.947  23.126  1.00  0.00     0.127 C 
ATOM     10  C   UNL A   1      32.774  24.939  21.634  1.00  0.00     0.223 C 
ATOM     11  C   UNL A   1      32.139  23.260  23.967  1.00  0.00    -0.001 C 
ATOM     12  C   UNL A   1      33.732  23.835  22.045  1.00  0.00     0.101 C 
ATOM     13  O   UNL A   1      33.100  25.755  20.772  1.00  0.00    -0.275 OA
ATOM     14  C   UNL A   1      33.158  22.739  22.930  1.00  0.00     0.019 C 
ATOM     15  C   UNL A   1      32.764  24.295  24.938  1.00  0.00     0.070 C 
ATOM     16  C   UNL A   1      31.572  22.044  24.740  1.00  0.00     0.070 C 
ATOM     17  C   UNL A   1      31.958  24.529  26.216  1.00  0.00     0.263 C 
ATOM     18  C   UNL A   1      30.857  22.381  26.052  1.00  0.00     0.263 C 
ATOM     19  N   UNL A   1      31.560  23.321  26.919  1.00  0.00    -0.329 N 
ATOM     20  H   UNL A   1      30.863  23.636  27.592  1.00  0.00     0.348 HD
BRANCH  19  21
ATOM     21  C   UNL A   1      32.531  22.745  27.865  1.00  0.00     0.338 C 
BRANCH  21  22
ATOM     22  C   UNL A   1      33.863  22.360  27.307  1.00  0.00     0.162 A 
ATOM     23  N   UNL A   1      34.178  21.239  26.686  1.00  0.00    -0.227 NA
ATOM     24  N   UNL A   1      34.950  23.205  27.332  1.00  0.00    -0.337 N 
ATOM     25  C   UNL A   1      35.363  21.504  26.044  1.00  0.00     0.089 A 
ATOM     26  C   UNL A   1      35.832  22.769  26.375  1.00  0.00     0.066 A 
ATOM     27  H   UNL A   1      35.072  23.979  27.928  1.00  0.00     0.168 HD
ATOM     28  C   UNL A   1      36.055  20.744  25.092  1.00  0.00     0.030 A 
ATOM     29  C   UNL A   1      36.923  23.375  25.748  1.00  0.00     0.028 A 
ATOM     30  C   UNL A   1      37.149  21.328  24.440  1.00  0.00     0.002 A 
ATOM     31  C   UNL A   1      37.560  22.628  24.750  1.00  0.00     0.002 A 
ENDBRANCH  21  22
ENDBRANCH  19  21
ENDBRANCH   7   8
ENDBRANCH   5   7
ENDBRANCH   2   3
ENDBRANCH   1   2
BRANCH   1  32
ATOM     32  C   UNL A   1      33.853  27.791  26.204  1.00  0.00     0.023 C 
BRANCH  32  33
ATOM     33  C   UNL A   1      33.393  28.300  27.568  1.00  0.00     0.116 C 
BRANCH  33  34
ATOM     34  N   UNL A   1      33.373  29.751  27.632  1.00  0.00    -0.352 N 
ATOM     35  C   UNL A   1      34.351  30.622  28.052  1.00  0.00     0.251 C 
ATOM     36  H   UNL A   1      32.536  30.173  27.330  1.00  0.00     0.163 HD
ATOM     37  O   UNL A   1      34.076  31.802  28.230  1.00  0.00    -0.269 OA
BRANCH  35  38
ATOM     38  C   UNL A   1      35.726  30.132  28.311  1.00  0.00     0.039 A 
ATOM     39  C   UNL A   1      36.643  30.110  27.256  1.00  0.00     0.014 A 
ATOM     40  C   UNL A   1      36.109  29.683  29.577  1.00  0.00     0.014 A 
ATOM     41  C   UNL A   1      37.961  29.703  27.489  1.00  0.00     0.010 A 
ATOM     42  C   UNL A   1      37.441  29.350  29.824  1.00  0.00     0.010 A 
ATOM     43  C   UNL A   1      38.383  29.356  28.783  1.00  0.00    -0.014 A 
BRANCH  43  44
ATOM     44  C   UNL A   1      39.803  29.012  29.066  1.00  0.00     0.031 A 
ATOM     45  C   UNL A   1      40.736  30.041  29.649  1.00  0.00     0.074 A 
ATOM     46  C   UNL A   1      40.270  27.789  28.741  1.00  0.00     0.049 A 
ATOM     47  N   UNL A   1      42.016  29.945  29.905  1.00  0.00    -0.248 NA
ATOM     48  C   UNL A   1      40.161  31.358  29.965  1.00  0.00     0.031 C 
ATOM     49  C   UNL A   1      39.480  26.717  28.132  1.00  0.00     0.029 A 
ATOM     50  N   UNL A   1      41.525  27.244  28.866  1.00  0.00    -0.354 N 
ATOM     51  C   UNL A   1      42.402  31.188  30.395  1.00  0.00     0.074 A 
ATOM     52  C   UNL A   1      41.231  32.037  30.354  1.00  0.00     0.031 C 
ATOM     53  C   UNL A   1      40.260  25.637  27.961  1.00  0.00     0.029 A 
ATOM     54  C   UNL A   1      41.615  25.951  28.405  1.00  0.00     0.049 A 
ATOM     55  H   UNL A   1      42.287  27.732  29.252  1.00  0.00     0.167 HD
ATOM     56  C   UNL A   1      43.614  31.578  30.857  1.00  0.00     0.037 A 
ATOM     57  C   UNL A   1      42.669  25.114  28.336  1.00  0.00     0.037 A 
ATOM     58  C   UNL A   1      44.770  30.721  30.916  1.00  0.00     0.049 A 
ATOM     59  C   UNL A   1      44.010  25.578  28.840  1.00  0.00     0.074 A 
ATOM     60  C   UNL A   1      46.026  31.007  31.426  1.00  0.00     0.029 A 
ATOM     61  N   UNL A   1      44.819  29.417  30.446  1.00  0.00    -0.354 N 
ATOM     62  N   UNL A   1      44.338  26.735  29.364  1.00  0.00    -0.248 NA
ATOM     63  C   UNL A   1      45.122  24.622  28.749  1.00  0.00     0.031 C 
ATOM     64  C   UNL A   1      46.849  29.897  31.211  1.00  0.00     0.029 A 
ATOM     65  C   UNL A   1      46.091  28.895  30.626  1.00  0.00     0.049 A 
ATOM     66  H   UNL A   1      44.062  28.933  30.044  1.00  0.00     0.167 HD
ATOM     67  C   UNL A   1      45.686  26.633  29.695  1.00  0.00     0.074 A 
ATOM     68  C   UNL A   1      46.107  25.299  29.322  1.00  0.00     0.031 C 
ATOM     69  C   UNL A   1      46.498  27.562  30.259  1.00  0.00     0.037 A 
BRANCH  56  70
ATOM     70  C   UNL A   1      43.758  32.999  31.336  1.00  0.00     0.058 A 
ATOM     71  C   UNL A   1      44.072  34.049  30.459  1.00  0.00     0.135 A 
ATOM     72  C   UNL A   1      43.530  33.323  32.684  1.00  0.00     0.135 A 
ATOM     73  F   UNL A   1      44.314  33.797  29.162  1.00  0.00    -0.206 F 
ATOM     74  C   UNL A   1      44.185  35.362  30.904  1.00  0.00     0.059 A 
ATOM     75  C   UNL A   1      43.606  34.633  33.146  1.00  0.00     0.059 A 
ATOM     76  F   UNL A   1      43.225  32.360  33.568  1.00  0.00    -0.206 F 
ATOM     77  C   UNL A   1      43.949  35.644  32.250  1.00  0.00     0.060 A 
BRANCH  77  78
ATOM     78  S   UNL A   1      44.091  37.356  32.808  1.00  0.00     0.124 S 
ATOM     79  O   UNL A   1      43.014  37.431  33.790  1.00  0.00    -0.237 OA
ATOM     80  O   UNL A   1      45.446  37.396  33.349  1.00  0.00    -0.237 OA
ATOM     81  O   UNL A   1      43.882  38.131  31.589  1.00  0.00    -0.744 OA
ENDBRANCH  77  78
ENDBRANCH  56  70
BRANCH  57  82
ATOM     82  C   UNL A   1      42.499  23.742  27.782  1.00  0.00     0.058 A 
ATOM     83  C   UNL A   1      42.454  23.523  26.397  1.00  0.00     0.135 A 
ATOM     84  C   UNL A   1      42.380  22.624  28.622  1.00  0.00     0.135 A 
ATOM     85  F   UNL A   1      42.556  24.560  25.551  1.00  0.00    -0.206 F 
ATOM     86  C   UNL A   1      42.279  22.250  25.864  1.00  0.00     0.059 A 
ATOM     87  C   UNL A   1      42.233  21.338  28.114  1.00  0.00     0.059 A 
ATOM     88  F   UNL A   1      42.431  22.776  29.956  1.00  0.00    -0.206 F 
ATOM     89  C   UNL A   1      42.170  21.162  26.733  1.00  0.00     0.060 A 
BRANCH  89  90
ATOM     90  S   UNL A   1      41.986  19.509  26.028  1.00  0.00     0.124 S 
ATOM     91  O   UNL A   1      42.906  19.568  24.898  1.00  0.00    -0.237 OA
ATOM     92  O   UNL A   1      42.392  18.656  27.140  1.00  0.00    -0.237 OA
ATOM     93  O   UNL A   1      40.568  19.448  25.686  1.00  0.00    -0.744 OA
ENDBRANCH  89  90
ENDBRANCH  57  82
BRANCH  69  94
ATOM     94  C   UNL A   1      47.920  27.159  30.549  1.00  0.00     0.058 A 
ATOM     95  C   UNL A   1      48.937  27.281  29.590  1.00  0.00     0.135 A 
ATOM     96  C   UNL A   1      48.277  26.692  31.825  1.00  0.00     0.135 A 
ATOM     97  F   UNL A   1      48.649  27.715  28.353  1.00  0.00    -0.206 F 
ATOM     98  C   UNL A   1      50.252  26.932  29.877  1.00  0.00     0.059 A 
ATOM     99  C   UNL A   1      49.592  26.367  32.144  1.00  0.00     0.059 A 
ATOM    100  F   UNL A   1      47.345  26.564  32.784  1.00  0.00    -0.206 F 
ATOM    101  C   UNL A   1      50.571  26.479  31.159  1.00  0.00     0.060 A 
BRANCH 101 102
ATOM    102  S   UNL A   1      52.289  26.065  31.528  1.00  0.00     0.124 S 
ATOM    103  O   UNL A   1      52.600  27.018  32.588  1.00  0.00    -0.237 OA
ATOM    104  O   UNL A   1      52.191  24.668  31.941  1.00  0.00    -0.237 OA
ATOM    105  O   UNL A   1      52.975  26.291  30.259  1.00  0.00    -0.744 OA
ENDBRANCH 101 102
ENDBRANCH  69  94
ENDBRANCH  43  44
ENDBRANCH  35  38
ENDBRANCH  33  34
ENDBRANCH  32  33
ENDBRANCH   1  32
TORSDOF 17
ENDMDL
MODEL 3
REMARK VINA RESULT:     -12.7      6.595     12.067
REMARK SMILES O=C(CN1CC2(CCC1=O)CC[NH+](Cc1nc3ccccc3[nH]1)CC2)NCCCCNC(=O)c1ccc(-c2c3nc(c(-c4c(F)cc(S(=O)(=O)[O-])cc4F)c4ccc([nH]4)c(-c4c(F)cc(S(=O)(=O)[O-])cc4F)c4nc(c(-c5c(F)cc(S(=O)(=O)[O-])cc5F)c5ccc2[nH]5)C=C4)C=C3)cc1
REMARK SMILES IDX 28 1 27 2 26 3 1 4 2 5 3 7 4 8 5 9 9 10 6 11 8 12 10 13 7 14
REMARK SMILES IDX 11 15 25 16 12 17 24 18 13 19 14 21 15 22 16 23 23 24 17 25
REMARK SMILES IDX 22 26 18 28 21 29 19 30 20 31 29 32 30 33 31 34 32 35 33 37
REMARK SMILES IDX 34 38 35 39 99 40 36 41 98 42 37 43 38 44 39 45 92 46 40 47
REMARK SMILES IDX 97 48 91 49 93 50 41 51 96 52 90 53 89 54 42 56 76 57 55 58
REMARK SMILES IDX 75 59 56 60 59 61 74 62 94 63 57 64 58 65 73 67 95 68 60 69
REMARK SMILES IDX 43 70 44 71 53 72 45 73 46 74 52 75 54 76 47 77 48 78 49 79
REMARK SMILES IDX 50 80 51 81 77 82 78 83 87 84 79 85 80 86 86 87 88 88 81 89
REMARK SMILES IDX 82 90 83 91 84 92 85 93 61 94 62 95 71 96 63 97 64 98 70 99
REMARK SMILES IDX 72 100 65 101 66 102 67 103 68 104 69 105
REMARK H PARENT 26 6 13 20 23 27 31 36 93 55 59 66
REMARK Flexibility Score: inf
ROOT
ATOM      1  C   UNL A   1      34.746  32.494  28.471  1.00  0.00     0.023 C 
ENDROOT
BRANCH   1   2
ATOM      2  C   UNL A   1      34.902  31.191  27.697  1.00  0.00     0.116 C 
BRANCH   2   3
ATOM      3  N   UNL A   1      33.647  30.476  27.617  1.00  0.00    -0.355 N 
ATOM      4  O   UNL A   1      34.503  28.476  26.866  1.00  0.00    -0.273 OA
ATOM      5  C   UNL A   1      33.551  29.153  27.246  1.00  0.00     0.239 C 
ATOM      6  H   UNL A   1      32.819  30.961  27.837  1.00  0.00     0.163 HD
BRANCH   5   7
ATOM      7  C   UNL A   1      32.163  28.568  27.513  1.00  0.00     0.219 C 
BRANCH   7   8
ATOM      8  N   UNL A   1      31.468  28.037  26.333  1.00  0.00    -0.333 N 
ATOM      9  C   UNL A   1      30.928  26.674  26.289  1.00  0.00     0.127 C 
ATOM     10  C   UNL A   1      31.311  28.898  25.256  1.00  0.00     0.223 C 
ATOM     11  C   UNL A   1      31.396  25.965  25.014  1.00  0.00    -0.001 C 
ATOM     12  C   UNL A   1      31.179  28.255  23.887  1.00  0.00     0.101 C 
ATOM     13  O   UNL A   1      31.446  30.116  25.360  1.00  0.00    -0.275 OA
ATOM     14  C   UNL A   1      30.774  26.789  23.865  1.00  0.00     0.019 C 
ATOM     15  C   UNL A   1      32.946  25.970  24.968  1.00  0.00     0.070 C 
ATOM     16  C   UNL A   1      30.842  24.522  24.928  1.00  0.00     0.070 C 
ATOM     17  C   UNL A   1      33.606  24.864  25.793  1.00  0.00     0.263 C 
ATOM     18  C   UNL A   1      31.627  23.473  25.722  1.00  0.00     0.263 C 
ATOM     19  N   UNL A   1      33.076  23.530  25.562  1.00  0.00    -0.329 N 
ATOM     20  H   UNL A   1      33.451  22.971  26.328  1.00  0.00     0.348 HD
BRANCH  19  21
ATOM     21  C   UNL A   1      33.646  22.768  24.439  1.00  0.00     0.338 C 
BRANCH  21  22
ATOM     22  C   UNL A   1      33.465  21.284  24.475  1.00  0.00     0.162 A 
ATOM     23  N   UNL A   1      32.512  20.579  23.895  1.00  0.00    -0.227 NA
ATOM     24  N   UNL A   1      34.354  20.444  25.106  1.00  0.00    -0.337 N 
ATOM     25  C   UNL A   1      32.973  19.286  23.891  1.00  0.00     0.089 A 
ATOM     26  C   UNL A   1      34.175  19.187  24.582  1.00  0.00     0.066 A 
ATOM     27  H   UNL A   1      35.000  20.697  25.804  1.00  0.00     0.168 HD
ATOM     28  C   UNL A   1      32.464  18.154  23.240  1.00  0.00     0.030 A 
ATOM     29  C   UNL A   1      34.961  18.033  24.602  1.00  0.00     0.028 A 
ATOM     30  C   UNL A   1      33.234  16.983  23.235  1.00  0.00     0.002 A 
ATOM     31  C   UNL A   1      34.470  16.934  23.888  1.00  0.00     0.002 A 
ENDBRANCH  21  22
ENDBRANCH  19  21
ENDBRANCH   7   8
ENDBRANCH   5   7
ENDBRANCH   2   3
ENDBRANCH   1   2
BRANCH   1  32
ATOM     32  C   UNL A   1      36.054  33.256  28.717  1.00  0.00     0.023 C 
BRANCH  32  33
ATOM     33  C   UNL A   1      36.618  33.136  30.130  1.00  0.00     0.116 C 
BRANCH  33  34
ATOM     34  N   UNL A   1      36.105  31.970  30.828  1.00  0.00    -0.352 N 
ATOM     35  C   UNL A   1      36.619  30.696  30.898  1.00  0.00     0.251 C 
ATOM     36  H   UNL A   1      35.266  32.113  31.323  1.00  0.00     0.163 HD
ATOM     37  O   UNL A   1      35.936  29.792  31.363  1.00  0.00    -0.269 OA
BRANCH  35  38
ATOM     38  C   UNL A   1      37.983  30.412  30.392  1.00  0.00     0.039 A 
ATOM     39  C   UNL A   1      39.032  30.296  31.310  1.00  0.00     0.014 A 
ATOM     40  C   UNL A   1      38.236  30.274  29.025  1.00  0.00     0.014 A 
ATOM     41  C   UNL A   1      40.316  29.975  30.861  1.00  0.00     0.010 A 
ATOM     42  C   UNL A   1      39.500  29.881  28.587  1.00  0.00     0.010 A 
ATOM     43  C   UNL A   1      40.555  29.726  29.499  1.00  0.00    -0.014 A 
BRANCH  43  44
ATOM     44  C   UNL A   1      41.895  29.291  29.016  1.00  0.00     0.031 A 
ATOM     45  C   UNL A   1      43.022  30.283  28.900  1.00  0.00     0.074 A 
ATOM     46  C   UNL A   1      42.079  28.015  28.623  1.00  0.00     0.049 A 
ATOM     47  N   UNL A   1      44.236  30.104  28.443  1.00  0.00    -0.248 NA
ATOM     48  C   UNL A   1      42.745  31.662  29.334  1.00  0.00     0.031 C 
ATOM     49  C   UNL A   1      41.056  26.966  28.644  1.00  0.00     0.029 A 
ATOM     50  N   UNL A   1      43.189  27.381  28.117  1.00  0.00    -0.354 N 
ATOM     51  C   UNL A   1      44.859  31.345  28.519  1.00  0.00     0.074 A 
ATOM     52  C   UNL A   1      43.874  32.279  29.019  1.00  0.00     0.031 C 
ATOM     53  C   UNL A   1      41.592  25.818  28.200  1.00  0.00     0.029 A 
ATOM     54  C   UNL A   1      42.980  26.055  27.818  1.00  0.00     0.049 A 
ATOM     55  H   UNL A   1      44.052  27.834  27.983  1.00  0.00     0.167 HD
ATOM     56  C   UNL A   1      46.140  31.670  28.221  1.00  0.00     0.037 A 
ATOM     57  C   UNL A   1      43.808  25.134  27.286  1.00  0.00     0.037 A 
ATOM     58  C   UNL A   1      47.122  30.730  27.745  1.00  0.00     0.049 A 
ATOM     59  C   UNL A   1      45.222  25.525  26.947  1.00  0.00     0.074 A 
ATOM     60  C   UNL A   1      48.462  30.951  27.474  1.00  0.00     0.029 A 
ATOM     61  N   UNL A   1      46.875  29.395  27.461  1.00  0.00    -0.354 N 
ATOM     62  N   UNL A   1      45.812  26.687  27.091  1.00  0.00    -0.248 NA
ATOM     63  C   UNL A   1      46.084  24.479  26.379  1.00  0.00     0.031 C 
ATOM     64  C   UNL A   1      49.009  29.767  26.972  1.00  0.00     0.029 A 
ATOM     65  C   UNL A   1      48.029  28.788  26.990  1.00  0.00     0.049 A 
ATOM     66  H   UNL A   1      46.007  28.945  27.577  1.00  0.00     0.167 HD
ATOM     67  C   UNL A   1      47.124  26.503  26.662  1.00  0.00     0.074 A 
ATOM     68  C   UNL A   1      47.241  25.116  26.264  1.00  0.00     0.031 C 
ATOM     69  C   UNL A   1      48.137  27.403  26.605  1.00  0.00     0.037 A 
BRANCH  56  70
ATOM     70  C   UNL A   1      46.559  33.106  28.397  1.00  0.00     0.058 A 
ATOM     71  C   UNL A   1      47.078  33.584  29.611  1.00  0.00     0.135 A 
ATOM     72  C   UNL A   1      46.486  34.006  27.320  1.00  0.00     0.135 A 
ATOM     73  F   UNL A   1      47.158  32.773  30.678  1.00  0.00    -0.206 F 
ATOM     74  C   UNL A   1      47.480  34.907  29.760  1.00  0.00     0.059 A 
ATOM     75  C   UNL A   1      46.913  35.325  27.438  1.00  0.00     0.059 A 
ATOM     76  F   UNL A   1      46.000  33.605  26.135  1.00  0.00    -0.206 F 
ATOM     77  C   UNL A   1      47.395  35.770  28.668  1.00  0.00     0.060 A 
BRANCH  77  78
ATOM     78  S   UNL A   1      47.932  37.481  28.878  1.00  0.00     0.124 S 
ATOM     79  O   UNL A   1      46.714  38.108  29.384  1.00  0.00    -0.237 OA
ATOM     80  O   UNL A   1      49.022  37.350  29.839  1.00  0.00    -0.237 OA
ATOM     81  O   UNL A   1      48.330  37.882  27.532  1.00  0.00    -0.744 OA
ENDBRANCH  77  78
ENDBRANCH  56  70
BRANCH  57  82
ATOM     82  C   UNL A   1      43.329  23.743  27.056  1.00  0.00     0.058 A 
ATOM     83  C   UNL A   1      42.962  23.308  25.774  1.00  0.00     0.135 A 
ATOM     84  C   UNL A   1      43.230  22.820  28.109  1.00  0.00     0.135 A 
ATOM     85  F   UNL A   1      43.032  24.154  24.734  1.00  0.00    -0.206 F 
ATOM     86  C   UNL A   1      42.496  22.017  25.545  1.00  0.00     0.059 A 
ATOM     87  C   UNL A   1      42.795  21.515  27.902  1.00  0.00     0.059 A 
ATOM     88  F   UNL A   1      43.583  23.179  29.354  1.00  0.00    -0.206 F 
ATOM     89  C   UNL A   1      42.418  21.127  26.617  1.00  0.00     0.060 A 
BRANCH  89  90
ATOM     90  S   UNL A   1      41.853  19.441  26.301  1.00  0.00     0.124 S 
ATOM     91  O   UNL A   1      42.260  18.761  27.525  1.00  0.00    -0.237 OA
ATOM     92  O   UNL A   1      40.417  19.628  26.120  1.00  0.00    -0.237 OA
ATOM     93  O   UNL A   1      42.585  19.064  25.095  1.00  0.00    -0.744 OA
ENDBRANCH  89  90
ENDBRANCH  57  82
BRANCH  69  94
ATOM     94  C   UNL A   1      49.480  26.910  26.134  1.00  0.00     0.058 A 
ATOM     95  C   UNL A   1      49.918  27.095  24.813  1.00  0.00     0.135 A 
ATOM     96  C   UNL A   1      50.363  26.290  27.035  1.00  0.00     0.135 A 
ATOM     97  F   UNL A   1      49.112  27.675  23.910  1.00  0.00    -0.206 F 
ATOM     98  C   UNL A   1      51.171  26.660  24.395  1.00  0.00     0.059 A 
ATOM     99  C   UNL A   1      51.633  25.876  26.647  1.00  0.00     0.059 A 
ATOM    100  F   UNL A   1      49.999  26.096  28.313  1.00  0.00    -0.206 F 
ATOM    101  C   UNL A   1      52.024  26.055  25.321  1.00  0.00     0.060 A 
BRANCH 101 102
ATOM    102  S   UNL A   1      53.662  25.529  24.774  1.00  0.00     0.124 S 
ATOM    103  O   UNL A   1      54.513  26.554  25.368  1.00  0.00    -0.237 OA
ATOM    104  O   UNL A   1      53.773  24.196  25.357  1.00  0.00    -0.237 OA
ATOM    105  O   UNL A   1      53.562  25.563  23.317  1.00  0.00    -0.744 OA
ENDBRANCH 101 102
ENDBRANCH  69  94
ENDBRANCH  43  44
ENDBRANCH  35  38
ENDBRANCH  33  34
ENDBRANCH  32  33
ENDBRANCH   1  32
TORSDOF 17
ENDMDL
