MODEL 1
REMARK VINA RESULT:     -10.6      0.000      0.000
REMARK SMILES C[C@@](NC(=O)COc1ccccc1C#N)(C(=O)NCCCCNC(=O)c1ccc(-c2c3nc(c(-c4c(F)cc(S(=O)(=O)[O-])cc4F)c4ccc([nH]4)c(-c4c(F)cc(S(=O)(=O)[O-])cc4F)c4nc(c(-c5c(F)cc(S(=O)(=O)[O-])cc5F)c5ccc2[nH]5)C=C4)C=C3)cc1)C1CC1
REMARK SMILES IDX 19 1 18 2 16 3 17 4 2 6 1 7 3 8 4 9 5 11 6 12 7 13 8 14 9 15
REMARK SMILES IDX 13 16 10 17 12 18 11 19 14 20 15 21 92 22 93 23 94 24 20 25
REMARK SMILES IDX 21 26 22 27 23 28 24 29 25 31 26 32 27 33 91 34 28 35 90 36
REMARK SMILES IDX 29 37 30 38 31 39 84 40 32 41 89 42 83 43 85 44 33 45 88 46
REMARK SMILES IDX 82 47 81 48 34 50 68 51 47 52 67 53 48 54 51 55 66 56 86 57
REMARK SMILES IDX 49 58 50 59 65 61 87 62 52 63 35 64 36 65 45 66 37 67 38 68
REMARK SMILES IDX 44 69 46 70 39 71 40 72 41 73 42 74 43 75 69 76 70 77 79 78
REMARK SMILES IDX 71 79 72 80 78 81 80 82 73 83 74 84 75 85 76 86 77 87 53 88
REMARK SMILES IDX 54 89 63 90 55 91 56 92 62 93 64 94 57 95 58 96 59 97 60 98
REMARK SMILES IDX 61 99
REMARK H PARENT 18 5 3 10 23 30 85 49 51 60
REMARK Flexibility Score: inf
ROOT
ATOM      1  C   UNL A   1      32.147  29.822  25.318  1.00  0.00     0.116 C 
ENDROOT
BRANCH   1   2
ATOM      2  N   UNL A   1      33.288  29.537  24.467  1.00  0.00    -0.354 N 
ATOM      3  C   UNL A   1      33.380  28.498  23.561  1.00  0.00     0.245 C 
ATOM      4  O   UNL A   1      33.717  28.834  22.421  1.00  0.00    -0.272 OA
ATOM      5  H   UNL A   1      34.065  30.136  24.543  1.00  0.00     0.163 HD
BRANCH   3   6
ATOM      6  C   UNL A   1      33.001  26.996  23.922  1.00  0.00     0.119 C 
ATOM      7  C   UNL A   1      31.465  26.833  23.765  1.00  0.00     0.046 C 
BRANCH   6   8
ATOM      8  N   UNL A   1      33.640  25.966  23.069  1.00  0.00    -0.339 N 
ATOM      9  C   UNL A   1      33.014  25.346  22.016  1.00  0.00     0.258 C 
ATOM     10  H   UNL A   1      34.569  25.712  23.269  1.00  0.00     0.164 HD
ATOM     11  O   UNL A   1      33.275  25.687  20.864  1.00  0.00    -0.271 OA
BRANCH   9  12
ATOM     12  C   UNL A   1      32.231  24.080  22.333  1.00  0.00     0.329 C 
BRANCH  12  13
ATOM     13  O   UNL A   1      33.106  22.940  22.408  1.00  0.00    -0.482 OA
BRANCH  13  14
ATOM     14  C   UNL A   1      33.319  22.442  23.668  1.00  0.00     0.137 A 
ATOM     15  C   UNL A   1      32.241  22.056  24.456  1.00  0.00     0.048 A 
ATOM     16  C   UNL A   1      34.613  22.186  24.135  1.00  0.00     0.094 A 
ATOM     17  C   UNL A   1      32.458  21.517  25.736  1.00  0.00     0.004 A 
ATOM     18  C   UNL A   1      34.805  21.531  25.367  1.00  0.00     0.023 A 
ATOM     19  C   UNL A   1      33.730  21.209  26.172  1.00  0.00     0.002 A 
BRANCH  16  20
ATOM     20  C   UNL A   1      35.770  22.623  23.437  1.00  0.00     0.103 C 
ATOM     21  N   UNL A   1      36.650  22.996  22.757  1.00  0.00    -0.192 NA
ENDBRANCH  16  20
ENDBRANCH  13  14
ENDBRANCH  12  13
ENDBRANCH   9  12
ENDBRANCH   6   8
BRANCH   6  22
ATOM     22  C   UNL A   1      33.290  26.563  25.387  1.00  0.00     0.024 C 
ATOM     23  C   UNL A   1      32.624  25.387  26.066  1.00  0.00     0.007 C 
ATOM     24  C   UNL A   1      34.107  25.361  25.810  1.00  0.00     0.007 C 
ENDBRANCH   6  22
ENDBRANCH   3   6
ENDBRANCH   1   2
BRANCH   1  25
ATOM     25  C   UNL A   1      32.419  29.961  26.820  1.00  0.00     0.023 C 
BRANCH  25  26
ATOM     26  C   UNL A   1      33.648  30.794  27.255  1.00  0.00     0.023 C 
BRANCH  26  27
ATOM     27  C   UNL A   1      34.831  30.135  27.995  1.00  0.00     0.116 C 
BRANCH  27  28
ATOM     28  N   UNL A   1      35.187  30.768  29.254  1.00  0.00    -0.352 N 
ATOM     29  C   UNL A   1      36.259  30.666  30.104  1.00  0.00     0.251 C 
ATOM     30  H   UNL A   1      34.511  31.414  29.564  1.00  0.00     0.163 HD
ATOM     31  O   UNL A   1      36.248  31.188  31.212  1.00  0.00    -0.269 OA
BRANCH  29  32
ATOM     32  C   UNL A   1      37.460  30.013  29.599  1.00  0.00     0.039 A 
ATOM     33  C   UNL A   1      37.836  30.137  28.263  1.00  0.00     0.014 A 
ATOM     34  C   UNL A   1      38.233  29.315  30.528  1.00  0.00     0.014 A 
ATOM     35  C   UNL A   1      39.091  29.677  27.892  1.00  0.00     0.010 A 
ATOM     36  C   UNL A   1      39.513  28.950  30.184  1.00  0.00     0.010 A 
ATOM     37  C   UNL A   1      39.954  29.158  28.872  1.00  0.00    -0.014 A 
BRANCH  37  38
ATOM     38  C   UNL A   1      41.369  28.894  28.576  1.00  0.00     0.031 A 
ATOM     39  C   UNL A   1      41.789  27.518  28.171  1.00  0.00     0.074 A 
ATOM     40  C   UNL A   1      42.252  29.885  28.801  1.00  0.00     0.049 A 
ATOM     41  N   UNL A   1      42.988  27.066  27.935  1.00  0.00    -0.248 NA
ATOM     42  C   UNL A   1      40.727  26.501  28.063  1.00  0.00     0.031 C 
ATOM     43  C   UNL A   1      41.912  31.225  29.300  1.00  0.00     0.029 A 
ATOM     44  N   UNL A   1      43.609  29.928  28.649  1.00  0.00    -0.354 N 
ATOM     45  C   UNL A   1      42.827  25.716  27.656  1.00  0.00     0.074 A 
ATOM     46  C   UNL A   1      41.427  25.402  27.832  1.00  0.00     0.031 C 
ATOM     47  C   UNL A   1      43.026  31.969  29.365  1.00  0.00     0.029 A 
ATOM     48  C   UNL A   1      44.158  31.152  28.954  1.00  0.00     0.049 A 
ATOM     49  H   UNL A   1      44.143  29.158  28.349  1.00  0.00     0.167 HD
ATOM     50  C   UNL A   1      43.767  24.833  27.252  1.00  0.00     0.037 A 
ATOM     51  C   UNL A   1      45.440  31.557  28.898  1.00  0.00     0.037 A 
ATOM     52  C   UNL A   1      45.147  25.197  27.071  1.00  0.00     0.049 A 
ATOM     53  C   UNL A   1      46.461  30.565  28.416  1.00  0.00     0.074 A 
ATOM     54  C   UNL A   1      46.192  24.420  26.612  1.00  0.00     0.029 A 
ATOM     55  N   UNL A   1      45.669  26.456  27.348  1.00  0.00    -0.354 N 
ATOM     56  N   UNL A   1      46.286  29.310  28.068  1.00  0.00    -0.248 NA
ATOM     57  C   UNL A   1      47.844  31.037  28.306  1.00  0.00     0.031 C 
ATOM     58  C   UNL A   1      47.356  25.194  26.659  1.00  0.00     0.029 A 
ATOM     59  C   UNL A   1      47.027  26.472  27.088  1.00  0.00     0.049 A 
ATOM     60  H   UNL A   1      45.148  27.223  27.680  1.00  0.00     0.167 HD
ATOM     61  C   UNL A   1      47.533  28.847  27.673  1.00  0.00     0.074 A 
ATOM     62  C   UNL A   1      48.448  29.966  27.810  1.00  0.00     0.031 C 
ATOM     63  C   UNL A   1      47.897  27.614  27.238  1.00  0.00     0.037 A 
BRANCH  50  64
ATOM     64  C   UNL A   1      43.326  23.423  26.976  1.00  0.00     0.058 A 
ATOM     65  C   UNL A   1      43.030  22.525  28.016  1.00  0.00     0.135 A 
ATOM     66  C   UNL A   1      43.195  22.959  25.658  1.00  0.00     0.135 A 
ATOM     67  F   UNL A   1      43.161  22.905  29.297  1.00  0.00    -0.206 F 
ATOM     68  C   UNL A   1      42.651  21.211  27.761  1.00  0.00     0.059 A 
ATOM     69  C   UNL A   1      42.785  21.658  25.378  1.00  0.00     0.059 A 
ATOM     70  F   UNL A   1      43.475  23.768  24.624  1.00  0.00    -0.206 F 
ATOM     71  C   UNL A   1      42.529  20.788  26.436  1.00  0.00     0.060 A 
BRANCH  71  72
ATOM     72  S   UNL A   1      42.024  19.084  26.124  1.00  0.00     0.124 S 
ATOM     73  O   UNL A   1      42.914  18.712  25.029  1.00  0.00    -0.237 OA
ATOM     74  O   UNL A   1      42.296  18.441  27.406  1.00  0.00    -0.237 OA
ATOM     75  O   UNL A   1      40.613  19.205  25.773  1.00  0.00    -0.744 OA
ENDBRANCH  71  72
ENDBRANCH  50  64
BRANCH  51  76
ATOM     76  C   UNL A   1      45.799  32.954  29.258  1.00  0.00     0.058 A 
ATOM     77  C   UNL A   1      46.181  33.289  30.566  1.00  0.00     0.135 A 
ATOM     78  C   UNL A   1      45.811  33.977  28.295  1.00  0.00     0.135 A 
ATOM     79  F   UNL A   1      46.195  32.348  31.521  1.00  0.00    -0.206 F 
ATOM     80  C   UNL A   1      46.540  34.589  30.913  1.00  0.00     0.059 A 
ATOM     81  C   UNL A   1      46.191  35.278  28.612  1.00  0.00     0.059 A 
ATOM     82  F   UNL A   1      45.483  33.706  27.022  1.00  0.00    -0.206 F 
ATOM     83  C   UNL A   1      46.544  35.577  29.926  1.00  0.00     0.060 A 
BRANCH  83  84
ATOM     84  S   UNL A   1      47.052  37.250  30.379  1.00  0.00     0.124 S 
ATOM     85  O   UNL A   1      47.250  37.118  31.817  1.00  0.00    -0.237 OA
ATOM     86  O   UNL A   1      48.260  37.428  29.580  1.00  0.00    -0.237 OA
ATOM     87  O   UNL A   1      45.913  38.069  29.970  1.00  0.00    -0.744 OA
ENDBRANCH  83  84
ENDBRANCH  51  76
BRANCH  63  88
ATOM     88  C   UNL A   1      49.336  27.428  26.855  1.00  0.00     0.058 A 
ATOM     89  C   UNL A   1      50.314  27.104  27.807  1.00  0.00     0.135 A 
ATOM     90  C   UNL A   1      49.724  27.516  25.510  1.00  0.00     0.135 A 
ATOM     91  F   UNL A   1      49.992  27.017  29.107  1.00  0.00    -0.206 F 
ATOM     92  C   UNL A   1      51.638  26.898  27.440  1.00  0.00     0.059 A 
ATOM     93  C   UNL A   1      51.034  27.279  25.115  1.00  0.00     0.059 A 
ATOM     94  F   UNL A   1      48.820  27.810  24.561  1.00  0.00    -0.206 F 
ATOM     95  C   UNL A   1      51.987  26.983  26.090  1.00  0.00     0.060 A 
BRANCH  95  96
ATOM     96  S   UNL A   1      53.700  26.674  25.623  1.00  0.00     0.124 S 
ATOM     97  O   UNL A   1      54.251  26.146  26.867  1.00  0.00    -0.237 OA
ATOM     98  O   UNL A   1      53.556  25.713  24.534  1.00  0.00    -0.237 OA
ATOM     99  O   UNL A   1      54.188  27.992  25.229  1.00  0.00    -0.744 OA
ENDBRANCH  95  96
ENDBRANCH  63  88
ENDBRANCH  37  38
ENDBRANCH  29  32
ENDBRANCH  27  28
ENDBRANCH  26  27
ENDBRANCH  25  26
ENDBRANCH   1  25
TORSDOF 20
ENDMDL
MODEL 2
REMARK VINA RESULT:     -10.5      6.319     11.556
REMARK SMILES C[C@@](NC(=O)COc1ccccc1C#N)(C(=O)NCCCCNC(=O)c1ccc(-c2c3nc(c(-c4c(F)cc(S(=O)(=O)[O-])cc4F)c4ccc([nH]4)c(-c4c(F)cc(S(=O)(=O)[O-])cc4F)c4nc(c(-c5c(F)cc(S(=O)(=O)[O-])cc5F)c5ccc2[nH]5)C=C4)C=C3)cc1)C1CC1
REMARK SMILES IDX 19 1 18 2 16 3 17 4 2 6 1 7 3 8 4 9 5 11 6 12 7 13 8 14 9 15
REMARK SMILES IDX 13 16 10 17 12 18 11 19 14 20 15 21 92 22 93 23 94 24 20 25
REMARK SMILES IDX 21 26 22 27 23 28 24 29 25 31 26 32 27 33 91 34 28 35 90 36
REMARK SMILES IDX 29 37 30 38 31 39 84 40 32 41 89 42 83 43 85 44 33 45 88 46
REMARK SMILES IDX 82 47 81 48 34 50 68 51 47 52 67 53 48 54 51 55 66 56 86 57
REMARK SMILES IDX 49 58 50 59 65 61 87 62 52 63 35 64 36 65 45 66 37 67 38 68
REMARK SMILES IDX 44 69 46 70 39 71 40 72 41 73 42 74 43 75 69 76 70 77 79 78
REMARK SMILES IDX 71 79 72 80 78 81 80 82 73 83 74 84 75 85 76 86 77 87 53 88
REMARK SMILES IDX 54 89 63 90 55 91 56 92 62 93 64 94 57 95 58 96 59 97 60 98
REMARK SMILES IDX 61 99
REMARK H PARENT 18 5 3 10 23 30 85 49 51 60
REMARK Flexibility Score: inf
ROOT
ATOM      1  C   UNL A   1      36.493  21.936  25.038  1.00  0.00     0.116 C 
ENDROOT
BRANCH   1   2
ATOM      2  N   UNL A   1      35.622  20.896  25.557  1.00  0.00    -0.354 N 
ATOM      3  C   UNL A   1      34.333  20.635  25.133  1.00  0.00     0.245 C 
ATOM      4  O   UNL A   1      34.116  19.457  24.833  1.00  0.00    -0.272 OA
ATOM      5  H   UNL A   1      35.983  20.327  26.275  1.00  0.00     0.163 HD
BRANCH   3   6
ATOM      6  C   UNL A   1      33.232  21.769  24.958  1.00  0.00     0.119 C 
ATOM      7  C   UNL A   1      31.833  21.098  25.015  1.00  0.00     0.046 C 
BRANCH   6   8
ATOM      8  N   UNL A   1      33.252  22.828  25.994  1.00  0.00    -0.339 N 
ATOM      9  C   UNL A   1      32.337  22.921  27.013  1.00  0.00     0.258 C 
ATOM     10  H   UNL A   1      33.965  23.505  25.948  1.00  0.00     0.164 HD
ATOM     11  O   UNL A   1      32.646  22.561  28.146  1.00  0.00    -0.271 OA
BRANCH   9  12
ATOM     12  C   UNL A   1      31.076  23.727  26.730  1.00  0.00     0.329 C 
BRANCH  12  13
ATOM     13  O   UNL A   1      31.321  25.136  26.886  1.00  0.00    -0.482 OA
BRANCH  13  14
ATOM     14  C   UNL A   1      30.954  25.919  25.821  1.00  0.00     0.137 A 
ATOM     15  C   UNL A   1      29.846  25.579  25.054  1.00  0.00     0.048 A 
ATOM     16  C   UNL A   1      31.594  27.136  25.565  1.00  0.00     0.094 A 
ATOM     17  C   UNL A   1      29.451  26.396  23.981  1.00  0.00     0.004 A 
ATOM     18  C   UNL A   1      31.104  27.999  24.565  1.00  0.00     0.023 A 
ATOM     19  C   UNL A   1      30.042  27.624  23.766  1.00  0.00     0.002 A 
BRANCH  16  20
ATOM     20  C   UNL A   1      32.783  27.523  26.240  1.00  0.00     0.103 C 
ATOM     21  N   UNL A   1      33.800  27.899  26.687  1.00  0.00    -0.192 NA
ENDBRANCH  16  20
ENDBRANCH  13  14
ENDBRANCH  12  13
ENDBRANCH   9  12
ENDBRANCH   6   8
BRANCH   6  22
ATOM     22  C   UNL A   1      33.248  22.516  23.595  1.00  0.00     0.024 C 
ATOM     23  C   UNL A   1      32.173  23.483  23.150  1.00  0.00     0.007 C 
ATOM     24  C   UNL A   1      33.572  23.981  23.393  1.00  0.00     0.007 C 
ENDBRANCH   6  22
ENDBRANCH   3   6
ENDBRANCH   1   2
BRANCH   1  25
ATOM     25  C   UNL A   1      36.746  23.145  25.944  1.00  0.00     0.023 C 
BRANCH  25  26
ATOM     26  C   UNL A   1      38.128  23.835  25.856  1.00  0.00     0.023 C 
BRANCH  26  27
ATOM     27  C   UNL A   1      39.270  23.453  26.822  1.00  0.00     0.116 C 
BRANCH  27  28
ATOM     28  N   UNL A   1      40.594  23.866  26.387  1.00  0.00    -0.352 N 
ATOM     29  C   UNL A   1      41.313  25.030  26.494  1.00  0.00     0.251 C 
ATOM     30  H   UNL A   1      41.082  23.155  25.913  1.00  0.00     0.163 HD
ATOM     31  O   UNL A   1      42.363  25.191  25.884  1.00  0.00    -0.269 OA
BRANCH  29  32
ATOM     32  C   UNL A   1      40.846  26.026  27.450  1.00  0.00     0.039 A 
ATOM     33  C   UNL A   1      39.906  25.698  28.425  1.00  0.00     0.014 A 
ATOM     34  C   UNL A   1      41.427  27.292  27.372  1.00  0.00     0.014 A 
ATOM     35  C   UNL A   1      39.663  26.619  29.433  1.00  0.00     0.010 A 
ATOM     36  C   UNL A   1      41.260  28.163  28.423  1.00  0.00     0.010 A 
ATOM     37  C   UNL A   1      40.400  27.815  29.470  1.00  0.00    -0.014 A 
BRANCH  37  38
ATOM     38  C   UNL A   1      40.359  28.698  30.644  1.00  0.00     0.031 A 
ATOM     39  C   UNL A   1      39.372  29.820  30.682  1.00  0.00     0.074 A 
ATOM     40  C   UNL A   1      41.301  28.528  31.591  1.00  0.00     0.049 A 
ATOM     41  N   UNL A   1      39.221  30.745  31.588  1.00  0.00    -0.248 NA
ATOM     42  C   UNL A   1      38.465  29.950  29.527  1.00  0.00     0.031 C 
ATOM     43  C   UNL A   1      42.361  27.511  31.557  1.00  0.00     0.029 A 
ATOM     44  N   UNL A   1      41.530  29.200  32.758  1.00  0.00    -0.354 N 
ATOM     45  C   UNL A   1      38.209  31.567  31.112  1.00  0.00     0.074 A 
ATOM     46  C   UNL A   1      37.839  31.083  29.802  1.00  0.00     0.031 C 
ATOM     47  C   UNL A   1      43.095  27.599  32.676  1.00  0.00     0.029 A 
ATOM     48  C   UNL A   1      42.585  28.698  33.483  1.00  0.00     0.049 A 
ATOM     49  H   UNL A   1      40.992  29.969  33.052  1.00  0.00     0.167 HD
ATOM     50  C   UNL A   1      37.623  32.611  31.739  1.00  0.00     0.037 A 
ATOM     51  C   UNL A   1      43.075  29.091  34.673  1.00  0.00     0.037 A 
ATOM     52  C   UNL A   1      38.014  33.045  33.054  1.00  0.00     0.049 A 
ATOM     53  C   UNL A   1      42.386  30.233  35.364  1.00  0.00     0.074 A 
ATOM     54  C   UNL A   1      37.468  34.048  33.829  1.00  0.00     0.029 A 
ATOM     55  N   UNL A   1      39.059  32.491  33.784  1.00  0.00    -0.354 N 
ATOM     56  N   UNL A   1      41.369  30.953  34.946  1.00  0.00    -0.248 NA
ATOM     57  C   UNL A   1      42.893  30.614  36.685  1.00  0.00     0.031 C 
ATOM     58  C   UNL A   1      38.216  34.136  35.009  1.00  0.00     0.029 A 
ATOM     59  C   UNL A   1      39.189  33.146  34.996  1.00  0.00     0.049 A 
ATOM     60  H   UNL A   1      39.625  31.744  33.483  1.00  0.00     0.167 HD
ATOM     61  C   UNL A   1      41.097  31.856  35.963  1.00  0.00     0.074 A 
ATOM     62  C   UNL A   1      42.048  31.577  37.023  1.00  0.00     0.031 C 
ATOM     63  C   UNL A   1      40.153  32.829  36.022  1.00  0.00     0.037 A 
BRANCH  50  64
ATOM     64  C   UNL A   1      36.514  33.324  31.018  1.00  0.00     0.058 A 
ATOM     65  C   UNL A   1      36.772  34.224  29.970  1.00  0.00     0.135 A 
ATOM     66  C   UNL A   1      35.173  33.107  31.375  1.00  0.00     0.135 A 
ATOM     67  F   UNL A   1      38.035  34.489  29.602  1.00  0.00    -0.206 F 
ATOM     68  C   UNL A   1      35.746  34.906  29.324  1.00  0.00     0.059 A 
ATOM     69  C   UNL A   1      34.128  33.753  30.719  1.00  0.00     0.059 A 
ATOM     70  F   UNL A   1      34.866  32.266  32.375  1.00  0.00    -0.206 F 
ATOM     71  C   UNL A   1      34.426  34.661  29.705  1.00  0.00     0.060 A 
BRANCH  71  72
ATOM     72  S   UNL A   1      33.108  35.545  28.846  1.00  0.00     0.124 S 
ATOM     73  O   UNL A   1      32.421  34.454  28.164  1.00  0.00    -0.237 OA
ATOM     74  O   UNL A   1      32.378  36.161  29.950  1.00  0.00    -0.237 OA
ATOM     75  O   UNL A   1      33.829  36.472  27.980  1.00  0.00    -0.744 OA
ENDBRANCH  71  72
ENDBRANCH  50  64
BRANCH  51  76
ATOM     76  C   UNL A   1      44.225  28.372  35.283  1.00  0.00     0.058 A 
ATOM     77  C   UNL A   1      45.546  28.701  34.944  1.00  0.00     0.135 A 
ATOM     78  C   UNL A   1      44.032  27.371  36.249  1.00  0.00     0.135 A 
ATOM     79  F   UNL A   1      45.786  29.656  34.033  1.00  0.00    -0.206 F 
ATOM     80  C   UNL A   1      46.632  28.051  35.523  1.00  0.00     0.059 A 
ATOM     81  C   UNL A   1      45.102  26.725  36.861  1.00  0.00     0.059 A 
ATOM     82  F   UNL A   1      42.789  27.037  36.632  1.00  0.00    -0.206 F 
ATOM     83  C   UNL A   1      46.400  27.065  36.483  1.00  0.00     0.060 A 
BRANCH  83  84
ATOM     84  S   UNL A   1      47.818  26.258  37.257  1.00  0.00     0.124 S 
ATOM     85  O   UNL A   1      48.310  25.421  36.170  1.00  0.00    -0.237 OA
ATOM     86  O   UNL A   1      48.656  27.397  37.618  1.00  0.00    -0.237 OA
ATOM     87  O   UNL A   1      47.224  25.544  38.384  1.00  0.00    -0.744 OA
ENDBRANCH  83  84
ENDBRANCH  51  76
BRANCH  63  88
ATOM     88  C   UNL A   1      40.091  33.637  37.286  1.00  0.00     0.058 A 
ATOM     89  C   UNL A   1      39.237  33.286  38.342  1.00  0.00     0.135 A 
ATOM     90  C   UNL A   1      40.943  34.738  37.461  1.00  0.00     0.135 A 
ATOM     91  F   UNL A   1      38.398  32.244  38.218  1.00  0.00    -0.206 F 
ATOM     92  C   UNL A   1      39.210  34.017  39.522  1.00  0.00     0.059 A 
ATOM     93  C   UNL A   1      40.959  35.462  38.646  1.00  0.00     0.059 A 
ATOM     94  F   UNL A   1      41.787  35.104  36.483  1.00  0.00    -0.206 F 
ATOM     95  C   UNL A   1      40.080  35.100  39.667  1.00  0.00     0.060 A 
BRANCH  95  96
ATOM     96  S   UNL A   1      40.063  36.016  41.219  1.00  0.00     0.124 S 
ATOM     97  O   UNL A   1      38.726  36.601  41.199  1.00  0.00    -0.237 OA
ATOM     98  O   UNL A   1      40.279  34.961  42.204  1.00  0.00    -0.237 OA
ATOM     99  O   UNL A   1      41.165  36.962  41.068  1.00  0.00    -0.744 OA
ENDBRANCH  95  96
ENDBRANCH  63  88
ENDBRANCH  37  38
ENDBRANCH  29  32
ENDBRANCH  27  28
ENDBRANCH  26  27
ENDBRANCH  25  26
ENDBRANCH   1  25
TORSDOF 20
ENDMDL
MODEL 3
REMARK VINA RESULT:      -9.4      3.217      9.120
REMARK SMILES C[C@@](NC(=O)COc1ccccc1C#N)(C(=O)NCCCCNC(=O)c1ccc(-c2c3nc(c(-c4c(F)cc(S(=O)(=O)[O-])cc4F)c4ccc([nH]4)c(-c4c(F)cc(S(=O)(=O)[O-])cc4F)c4nc(c(-c5c(F)cc(S(=O)(=O)[O-])cc5F)c5ccc2[nH]5)C=C4)C=C3)cc1)C1CC1
REMARK SMILES IDX 19 1 18 2 16 3 17 4 2 6 1 7 3 8 4 9 5 11 6 12 7 13 8 14 9 15
REMARK SMILES IDX 13 16 10 17 12 18 11 19 14 20 15 21 92 22 93 23 94 24 20 25
REMARK SMILES IDX 21 26 22 27 23 28 24 29 25 31 26 32 27 33 91 34 28 35 90 36
REMARK SMILES IDX 29 37 30 38 31 39 84 40 32 41 89 42 83 43 85 44 33 45 88 46
REMARK SMILES IDX 82 47 81 48 34 50 68 51 47 52 67 53 48 54 51 55 66 56 86 57
REMARK SMILES IDX 49 58 50 59 65 61 87 62 52 63 35 64 36 65 45 66 37 67 38 68
REMARK SMILES IDX 44 69 46 70 39 71 40 72 41 73 42 74 43 75 69 76 70 77 79 78
REMARK SMILES IDX 71 79 72 80 78 81 80 82 73 83 74 84 75 85 76 86 77 87 53 88
REMARK SMILES IDX 54 89 63 90 55 91 56 92 62 93 64 94 57 95 58 96 59 97 60 98
REMARK SMILES IDX 61 99
REMARK H PARENT 18 5 3 10 23 30 85 49 51 60
REMARK Flexibility Score: inf
ROOT
ATOM      1  C   UNL A   1      36.424  22.099  25.730  1.00  0.00     0.116 C 
ENDROOT
BRANCH   1   2
ATOM      2  N   UNL A   1      35.346  21.726  26.628  1.00  0.00    -0.354 N 
ATOM      3  C   UNL A   1      34.050  21.428  26.255  1.00  0.00     0.245 C 
ATOM      4  O   UNL A   1      33.618  20.357  26.694  1.00  0.00    -0.272 OA
ATOM      5  H   UNL A   1      35.558  21.683  27.589  1.00  0.00     0.163 HD
BRANCH   3   6
ATOM      6  C   UNL A   1      33.200  22.341  25.267  1.00  0.00     0.119 C 
ATOM      7  C   UNL A   1      31.795  21.701  25.105  1.00  0.00     0.046 C 
BRANCH   6   8
ATOM      8  N   UNL A   1      32.996  23.736  25.724  1.00  0.00    -0.339 N 
ATOM      9  C   UNL A   1      31.776  24.254  26.083  1.00  0.00     0.258 C 
ATOM     10  H   UNL A   1      33.782  24.326  25.772  1.00  0.00     0.164 HD
ATOM     11  O   UNL A   1      31.500  24.397  27.272  1.00  0.00    -0.271 OA
BRANCH   9  12
ATOM     12  C   UNL A   1      30.942  24.878  24.973  1.00  0.00     0.329 C 
BRANCH  12  13
ATOM     13  O   UNL A   1      31.064  26.311  24.981  1.00  0.00    -0.482 OA
BRANCH  13  14
ATOM     14  C   UNL A   1      32.049  26.823  24.176  1.00  0.00     0.137 A 
ATOM     15  C   UNL A   1      32.027  26.582  22.808  1.00  0.00     0.048 A 
ATOM     16  C   UNL A   1      33.012  27.703  24.683  1.00  0.00     0.094 A 
ATOM     17  C   UNL A   1      33.019  27.131  21.976  1.00  0.00     0.004 A 
ATOM     18  C   UNL A   1      33.919  28.340  23.813  1.00  0.00     0.023 A 
ATOM     19  C   UNL A   1      33.930  28.045  22.464  1.00  0.00     0.002 A 
BRANCH  16  20
ATOM     20  C   UNL A   1      33.163  27.940  26.075  1.00  0.00     0.103 C 
ATOM     21  N   UNL A   1      33.389  28.208  27.195  1.00  0.00    -0.192 NA
ENDBRANCH  16  20
ENDBRANCH  13  14
ENDBRANCH  12  13
ENDBRANCH   9  12
ENDBRANCH   6   8
BRANCH   6  22
ATOM     22  C   UNL A   1      33.747  22.451  23.816  1.00  0.00     0.024 C 
ATOM     23  C   UNL A   1      32.964  23.037  22.662  1.00  0.00     0.007 C 
ATOM     24  C   UNL A   1      34.216  23.722  23.142  1.00  0.00     0.007 C 
ENDBRANCH   6  22
ENDBRANCH   3   6
ENDBRANCH   1   2
BRANCH   1  25
ATOM     25  C   UNL A   1      36.875  23.563  25.759  1.00  0.00     0.023 C 
BRANCH  25  26
ATOM     26  C   UNL A   1      38.362  23.854  26.076  1.00  0.00     0.023 C 
BRANCH  26  27
ATOM     27  C   UNL A   1      39.252  22.788  26.750  1.00  0.00     0.116 C 
BRANCH  27  28
ATOM     28  N   UNL A   1      40.571  22.640  26.158  1.00  0.00    -0.352 N 
ATOM     29  C   UNL A   1      41.634  23.487  25.971  1.00  0.00     0.251 C 
ATOM     30  H   UNL A   1      40.740  21.732  25.817  1.00  0.00     0.163 HD
ATOM     31  O   UNL A   1      42.592  23.168  25.279  1.00  0.00    -0.269 OA
BRANCH  29  32
ATOM     32  C   UNL A   1      41.640  24.737  26.721  1.00  0.00     0.039 A 
ATOM     33  C   UNL A   1      41.869  24.747  28.095  1.00  0.00     0.014 A 
ATOM     34  C   UNL A   1      41.463  25.911  25.987  1.00  0.00     0.014 A 
ATOM     35  C   UNL A   1      42.075  25.972  28.714  1.00  0.00     0.010 A 
ATOM     36  C   UNL A   1      41.766  27.113  26.579  1.00  0.00     0.010 A 
ATOM     37  C   UNL A   1      42.101  27.143  27.938  1.00  0.00    -0.014 A 
BRANCH  37  38
ATOM     38  C   UNL A   1      42.561  28.419  28.502  1.00  0.00     0.031 A 
ATOM     39  C   UNL A   1      44.027  28.698  28.582  1.00  0.00     0.074 A 
ATOM     40  C   UNL A   1      41.636  29.238  29.038  1.00  0.00     0.049 A 
ATOM     41  N   UNL A   1      44.636  29.726  29.105  1.00  0.00    -0.248 NA
ATOM     42  C   UNL A   1      44.933  27.665  28.050  1.00  0.00     0.031 C 
ATOM     43  C   UNL A   1      40.192  28.969  29.084  1.00  0.00     0.029 A 
ATOM     44  N   UNL A   1      41.761  30.453  29.648  1.00  0.00    -0.354 N 
ATOM     45  C   UNL A   1      45.991  29.462  28.967  1.00  0.00     0.074 A 
ATOM     46  C   UNL A   1      46.119  28.144  28.390  1.00  0.00     0.031 C 
ATOM     47  C   UNL A   1      39.564  30.012  29.646  1.00  0.00     0.029 A 
ATOM     48  C   UNL A   1      40.560  31.000  30.036  1.00  0.00     0.049 A 
ATOM     49  H   UNL A   1      42.627  30.896  29.796  1.00  0.00     0.167 HD
ATOM     50  C   UNL A   1      47.029  30.274  29.267  1.00  0.00     0.037 A 
ATOM     51  C   UNL A   1      40.305  32.177  30.636  1.00  0.00     0.037 A 
ATOM     52  C   UNL A   1      46.852  31.589  29.823  1.00  0.00     0.049 A 
ATOM     53  C   UNL A   1      41.474  33.074  30.930  1.00  0.00     0.074 A 
ATOM     54  C   UNL A   1      47.810  32.537  30.121  1.00  0.00     0.029 A 
ATOM     55  N   UNL A   1      45.620  32.135  30.168  1.00  0.00    -0.354 N 
ATOM     56  N   UNL A   1      42.752  32.854  30.716  1.00  0.00    -0.248 NA
ATOM     57  C   UNL A   1      41.176  34.377  31.532  1.00  0.00     0.031 C 
ATOM     58  C   UNL A   1      47.163  33.638  30.692  1.00  0.00     0.029 A 
ATOM     59  C   UNL A   1      45.795  33.402  30.694  1.00  0.00     0.049 A 
ATOM     60  H   UNL A   1      44.752  31.686  30.054  1.00  0.00     0.167 HD
ATOM     61  C   UNL A   1      43.411  34.002  31.134  1.00  0.00     0.074 A 
ATOM     62  C   UNL A   1      42.385  34.918  31.596  1.00  0.00     0.031 C 
ATOM     63  C   UNL A   1      44.739  34.279  31.140  1.00  0.00     0.037 A 
BRANCH  50  64
ATOM     64  C   UNL A   1      48.415  29.764  28.988  1.00  0.00     0.058 A 
ATOM     65  C   UNL A   1      49.141  29.034  29.946  1.00  0.00     0.135 A 
ATOM     66  C   UNL A   1      49.031  30.004  27.749  1.00  0.00     0.135 A 
ATOM     67  F   UNL A   1      48.613  28.796  31.157  1.00  0.00    -0.206 F 
ATOM     68  C   UNL A   1      50.435  28.589  29.698  1.00  0.00     0.059 A 
ATOM     69  C   UNL A   1      50.312  29.539  27.467  1.00  0.00     0.059 A 
ATOM     70  F   UNL A   1      48.390  30.704  26.800  1.00  0.00    -0.206 F 
ATOM     71  C   UNL A   1      51.012  28.844  28.453  1.00  0.00     0.060 A 
BRANCH  71  72
ATOM     72  S   UNL A   1      52.686  28.248  28.145  1.00  0.00     0.124 S 
ATOM     73  O   UNL A   1      53.374  28.669  29.360  1.00  0.00    -0.237 OA
ATOM     74  O   UNL A   1      52.481  26.810  27.999  1.00  0.00    -0.237 OA
ATOM     75  O   UNL A   1      53.078  28.948  26.927  1.00  0.00    -0.744 OA
ENDBRANCH  71  72
ENDBRANCH  50  64
BRANCH  51  76
ATOM     76  C   UNL A   1      38.904  32.573  30.942  1.00  0.00     0.058 A 
ATOM     77  C   UNL A   1      38.310  32.240  32.168  1.00  0.00     0.135 A 
ATOM     78  C   UNL A   1      38.143  33.327  30.034  1.00  0.00     0.135 A 
ATOM     79  F   UNL A   1      38.996  31.528  33.074  1.00  0.00    -0.206 F 
ATOM     80  C   UNL A   1      37.007  32.622  32.477  1.00  0.00     0.059 A 
ATOM     81  C   UNL A   1      36.849  33.743  30.330  1.00  0.00     0.059 A 
ATOM     82  F   UNL A   1      38.673  33.698  28.858  1.00  0.00    -0.206 F 
ATOM     83  C   UNL A   1      36.284  33.376  31.550  1.00  0.00     0.060 A 
BRANCH  83  84
ATOM     84  S   UNL A   1      34.611  33.902  31.979  1.00  0.00     0.124 S 
ATOM     85  O   UNL A   1      34.232  34.669  30.798  1.00  0.00    -0.237 OA
ATOM     86  O   UNL A   1      33.927  32.625  32.158  1.00  0.00    -0.237 OA
ATOM     87  O   UNL A   1      34.805  34.677  33.201  1.00  0.00    -0.744 OA
ENDBRANCH  83  84
ENDBRANCH  51  76
BRANCH  63  88
ATOM     88  C   UNL A   1      45.146  35.636  31.636  1.00  0.00     0.058 A 
ATOM     89  C   UNL A   1      45.203  36.745  30.779  1.00  0.00     0.135 A 
ATOM     90  C   UNL A   1      45.420  35.835  32.997  1.00  0.00     0.135 A 
ATOM     91  F   UNL A   1      44.956  36.601  29.467  1.00  0.00    -0.206 F 
ATOM     92  C   UNL A   1      45.546  38.005  31.252  1.00  0.00     0.059 A 
ATOM     93  C   UNL A   1      45.730  37.093  33.499  1.00  0.00     0.059 A 
ATOM     94  F   UNL A   1      45.364  34.806  33.858  1.00  0.00    -0.206 F 
ATOM     95  C   UNL A   1      45.802  38.170  32.615  1.00  0.00     0.060 A 
BRANCH  95  96
ATOM     96  S   UNL A   1      46.207  39.818  33.221  1.00  0.00     0.124 S 
ATOM     97  O   UNL A   1      47.180  40.264  32.229  1.00  0.00    -0.237 OA
ATOM     98  O   UNL A   1      44.911  40.489  33.185  1.00  0.00    -0.237 OA
ATOM     99  O   UNL A   1      46.741  39.568  34.556  1.00  0.00    -0.744 OA
ENDBRANCH  95  96
ENDBRANCH  63  88
ENDBRANCH  37  38
ENDBRANCH  29  32
ENDBRANCH  27  28
ENDBRANCH  26  27
ENDBRANCH  25  26
ENDBRANCH   1  25
TORSDOF 20
ENDMDL
