MODEL 1
REMARK VINA RESULT:     -11.9      0.000      0.000
REMARK SMILES CC(=O)N1CCC(C(=O)Nc2sccc2C(=O)NCCCCNC(=O)c2ccc(-c3c4nc(c(-c5c(F)cc(S(=O)(=O)[O-])cc5F)c5ccc([nH]5)c(-c5c(F)cc(S(=O)(=O)[O-])cc5F)c5nc(c(-c6c(F)cc(S(=O)(=O)[O-])cc6F)c6ccc3[nH]6)C=C5)C=C4)cc2)CC1
REMARK SMILES IDX 21 1 20 2 19 3 18 4 16 5 17 6 15 8 11 9 12 10 13 11 14 12
REMARK SMILES IDX 10 13 8 14 9 15 7 17 1 18 2 19 3 20 4 21 5 22 93 23 6 24
REMARK SMILES IDX 92 25 22 26 23 27 24 28 25 30 26 31 27 32 91 33 28 34 90 35
REMARK SMILES IDX 29 36 30 37 31 38 84 39 32 40 89 41 83 42 85 43 33 44 88 45
REMARK SMILES IDX 82 46 81 47 34 49 68 50 47 51 67 52 48 53 51 54 66 55 86 56
REMARK SMILES IDX 49 57 50 58 65 60 87 61 52 62 35 63 36 64 45 65 37 66 38 67
REMARK SMILES IDX 44 68 46 69 39 70 40 71 41 72 42 73 43 74 69 75 70 76 79 77
REMARK SMILES IDX 71 78 72 79 78 80 80 81 73 82 74 83 75 84 76 85 77 86 53 87
REMARK SMILES IDX 54 88 63 89 55 90 56 91 62 92 64 93 57 94 58 95 59 96 60 97
REMARK SMILES IDX 61 98
REMARK H PARENT 18 7 10 16 23 29 85 48 51 59
REMARK Flexibility Score: inf
ROOT
ATOM      1  C   UNL A   1      33.415  28.115  25.748  1.00  0.00     0.023 C 
ENDROOT
BRANCH   1   2
ATOM      2  C   UNL A   1      33.293  29.305  24.789  1.00  0.00     0.023 C 
BRANCH   2   3
ATOM      3  C   UNL A   1      33.362  28.952  23.308  1.00  0.00     0.116 C 
BRANCH   3   4
ATOM      4  N   UNL A   1      32.158  29.218  22.563  1.00  0.00    -0.352 N 
ATOM      5  C   UNL A   1      30.988  28.500  22.480  1.00  0.00     0.254 C 
ATOM      6  O   UNL A   1      30.145  28.942  21.696  1.00  0.00    -0.269 OA
ATOM      7  H   UNL A   1      32.174  30.045  22.030  1.00  0.00     0.163 HD
BRANCH   5   8
ATOM      8  C   UNL A   1      30.729  27.249  23.222  1.00  0.00     0.074 A 
ATOM      9  C   UNL A   1      31.043  25.920  22.969  1.00  0.00     0.108 A 
ATOM     10  S   UNL A   1      30.164  24.837  23.965  1.00  0.00    -0.126 S 
ATOM     11  C   UNL A   1      29.715  26.086  25.026  1.00  0.00     0.068 A 
ATOM     12  C   UNL A   1      30.061  27.313  24.514  1.00  0.00     0.028 A 
BRANCH   9  13
ATOM     13  N   UNL A   1      31.787  25.214  22.057  1.00  0.00    -0.317 N 
ATOM     14  C   UNL A   1      32.897  24.438  22.203  1.00  0.00     0.228 C 
ATOM     15  O   UNL A   1      33.477  24.111  21.158  1.00  0.00    -0.274 OA
ATOM     16  H   UNL A   1      31.459  25.280  21.131  1.00  0.00     0.170 HD
BRANCH  14  17
ATOM     17  C   UNL A   1      33.366  23.825  23.523  1.00  0.00     0.082 C 
ATOM     18  C   UNL A   1      37.793  23.754  25.745  1.00  0.00     0.114 C 
ATOM     19  C   UNL A   1      36.881  22.813  25.000  1.00  0.00     0.219 C 
ATOM     20  O   UNL A   1      37.356  21.920  24.299  1.00  0.00    -0.275 OA
ATOM     21  N   UNL A   1      35.517  22.972  25.204  1.00  0.00    -0.343 N 
ATOM     22  C   UNL A   1      34.596  21.945  24.736  1.00  0.00     0.120 C 
ATOM     23  C   UNL A   1      34.878  24.241  25.519  1.00  0.00     0.120 C 
ATOM     24  C   UNL A   1      33.918  22.404  23.455  1.00  0.00     0.035 C 
ATOM     25  C   UNL A   1      34.302  24.824  24.231  1.00  0.00     0.035 C 
ENDBRANCH  14  17
ENDBRANCH   9  13
ENDBRANCH   5   8
ENDBRANCH   3   4
ENDBRANCH   2   3
ENDBRANCH   1   2
BRANCH   1  26
ATOM     26  C   UNL A   1      33.392  28.441  27.244  1.00  0.00     0.116 C 
BRANCH  26  27
ATOM     27  N   UNL A   1      33.415  29.869  27.534  1.00  0.00    -0.352 N 
ATOM     28  C   UNL A   1      34.409  30.654  28.079  1.00  0.00     0.251 C 
ATOM     29  H   UNL A   1      32.586  30.350  27.305  1.00  0.00     0.163 HD
ATOM     30  O   UNL A   1      34.171  31.813  28.395  1.00  0.00    -0.269 OA
BRANCH  28  31
ATOM     31  C   UNL A   1      35.759  30.091  28.306  1.00  0.00     0.039 A 
ATOM     32  C   UNL A   1      36.677  30.077  27.253  1.00  0.00     0.014 A 
ATOM     33  C   UNL A   1      36.120  29.570  29.551  1.00  0.00     0.014 A 
ATOM     34  C   UNL A   1      37.986  29.635  27.479  1.00  0.00     0.010 A 
ATOM     35  C   UNL A   1      37.443  29.211  29.797  1.00  0.00     0.010 A 
ATOM     36  C   UNL A   1      38.395  29.249  28.767  1.00  0.00    -0.014 A 
BRANCH  36  37
ATOM     37  C   UNL A   1      39.818  28.920  29.059  1.00  0.00     0.031 A 
ATOM     38  C   UNL A   1      40.745  29.956  29.636  1.00  0.00     0.074 A 
ATOM     39  C   UNL A   1      40.298  27.703  28.730  1.00  0.00     0.049 A 
ATOM     40  N   UNL A   1      42.023  29.864  29.903  1.00  0.00    -0.248 NA
ATOM     41  C   UNL A   1      40.167  31.278  29.925  1.00  0.00     0.031 C 
ATOM     42  C   UNL A   1      39.521  26.630  28.105  1.00  0.00     0.029 A 
ATOM     43  N   UNL A   1      41.555  27.165  28.862  1.00  0.00    -0.354 N 
ATOM     44  C   UNL A   1      42.405  31.115  30.375  1.00  0.00     0.074 A 
ATOM     45  C   UNL A   1      41.235  31.965  30.305  1.00  0.00     0.031 C 
ATOM     46  C   UNL A   1      40.309  25.558  27.931  1.00  0.00     0.029 A 
ATOM     47  C   UNL A   1      41.658  25.877  28.391  1.00  0.00     0.049 A 
ATOM     48  H   UNL A   1      42.312  27.655  29.258  1.00  0.00     0.167 HD
ATOM     49  C   UNL A   1      43.613  31.515  30.842  1.00  0.00     0.037 A 
ATOM     50  C   UNL A   1      42.718  25.046  28.322  1.00  0.00     0.037 A 
ATOM     51  C   UNL A   1      44.770  30.659  30.924  1.00  0.00     0.049 A 
ATOM     52  C   UNL A   1      44.047  25.507  28.851  1.00  0.00     0.074 A 
ATOM     53  C   UNL A   1      46.016  30.948  31.451  1.00  0.00     0.029 A 
ATOM     54  N   UNL A   1      44.827  29.353  30.458  1.00  0.00    -0.354 N 
ATOM     55  N   UNL A   1      44.369  26.667  29.374  1.00  0.00    -0.248 NA
ATOM     56  C   UNL A   1      45.157  24.546  28.793  1.00  0.00     0.031 C 
ATOM     57  C   UNL A   1      46.845  29.838  31.250  1.00  0.00     0.029 A 
ATOM     58  C   UNL A   1      46.098  28.834  30.655  1.00  0.00     0.049 A 
ATOM     59  H   UNL A   1      44.077  28.867  30.046  1.00  0.00     0.167 HD
ATOM     60  C   UNL A   1      45.710  26.567  29.726  1.00  0.00     0.074 A 
ATOM     61  C   UNL A   1      46.135  25.228  29.371  1.00  0.00     0.031 C 
ATOM     62  C   UNL A   1      46.514  27.500  30.295  1.00  0.00     0.037 A 
BRANCH  49  63
ATOM     63  C   UNL A   1      43.749  32.945  31.295  1.00  0.00     0.058 A 
ATOM     64  C   UNL A   1      43.496  33.331  32.623  1.00  0.00     0.135 A 
ATOM     65  C   UNL A   1      44.159  33.942  30.395  1.00  0.00     0.135 A 
ATOM     66  F   UNL A   1      43.090  32.424  33.525  1.00  0.00    -0.206 F 
ATOM     67  C   UNL A   1      43.605  34.657  33.029  1.00  0.00     0.059 A 
ATOM     68  C   UNL A   1      44.307  35.269  30.789  1.00  0.00     0.059 A 
ATOM     69  F   UNL A   1      44.419  33.633  29.115  1.00  0.00    -0.206 F 
ATOM     70  C   UNL A   1      44.007  35.620  32.104  1.00  0.00     0.060 A 
BRANCH  70  71
ATOM     71  S   UNL A   1      44.130  37.338  32.645  1.00  0.00     0.124 S 
ATOM     72  O   UNL A   1      43.916  38.053  31.390  1.00  0.00    -0.237 OA
ATOM     73  O   UNL A   1      43.050  37.436  33.622  1.00  0.00    -0.237 OA
ATOM     74  O   UNL A   1      45.479  37.427  33.195  1.00  0.00    -0.744 OA
ENDBRANCH  70  71
ENDBRANCH  49  63
BRANCH  50  75
ATOM     75  C   UNL A   1      42.549  23.684  27.747  1.00  0.00     0.058 A 
ATOM     76  C   UNL A   1      42.580  23.474  26.360  1.00  0.00     0.135 A 
ATOM     77  C   UNL A   1      42.391  22.560  28.573  1.00  0.00     0.135 A 
ATOM     78  F   UNL A   1      42.720  24.517  25.528  1.00  0.00    -0.206 F 
ATOM     79  C   UNL A   1      42.457  22.202  25.811  1.00  0.00     0.059 A 
ATOM     80  C   UNL A   1      42.294  21.274  28.049  1.00  0.00     0.059 A 
ATOM     81  F   UNL A   1      42.371  22.704  29.907  1.00  0.00    -0.206 F 
ATOM     82  C   UNL A   1      42.323  21.106  26.666  1.00  0.00     0.060 A 
BRANCH  82  83
ATOM     83  S   UNL A   1      42.241  19.452  25.946  1.00  0.00     0.124 S 
ATOM     84  O   UNL A   1      43.115  19.591  24.787  1.00  0.00    -0.237 OA
ATOM     85  O   UNL A   1      42.749  18.621  27.033  1.00  0.00    -0.237 OA
ATOM     86  O   UNL A   1      40.821  19.284  25.649  1.00  0.00    -0.744 OA
ENDBRANCH  82  83
ENDBRANCH  50  75
BRANCH  62  87
ATOM     87  C   UNL A   1      47.934  27.103  30.598  1.00  0.00     0.058 A 
ATOM     88  C   UNL A   1      48.962  27.245  29.652  1.00  0.00     0.135 A 
ATOM     89  C   UNL A   1      48.281  26.622  31.871  1.00  0.00     0.135 A 
ATOM     90  F   UNL A   1      48.688  27.694  28.418  1.00  0.00    -0.206 F 
ATOM     91  C   UNL A   1      50.277  26.903  29.951  1.00  0.00     0.059 A 
ATOM     92  C   UNL A   1      49.594  26.302  32.202  1.00  0.00     0.059 A 
ATOM     93  F   UNL A   1      47.339  26.474  32.818  1.00  0.00    -0.206 F 
ATOM     94  C   UNL A   1      50.585  26.435  31.230  1.00  0.00     0.060 A 
BRANCH  94  95
ATOM     95  S   UNL A   1      52.301  26.026  31.613  1.00  0.00     0.124 S 
ATOM     96  O   UNL A   1      52.957  26.278  30.335  1.00  0.00    -0.237 OA
ATOM     97  O   UNL A   1      52.613  26.968  32.684  1.00  0.00    -0.237 OA
ATOM     98  O   UNL A   1      52.235  24.625  32.020  1.00  0.00    -0.744 OA
ENDBRANCH  94  95
ENDBRANCH  62  87
ENDBRANCH  36  37
ENDBRANCH  28  31
ENDBRANCH  26  27
ENDBRANCH   1  26
TORSDOF 16
ENDMDL
MODEL 2
REMARK VINA RESULT:     -11.5      0.620      8.179
REMARK SMILES CC(=O)N1CCC(C(=O)Nc2sccc2C(=O)NCCCCNC(=O)c2ccc(-c3c4nc(c(-c5c(F)cc(S(=O)(=O)[O-])cc5F)c5ccc([nH]5)c(-c5c(F)cc(S(=O)(=O)[O-])cc5F)c5nc(c(-c6c(F)cc(S(=O)(=O)[O-])cc6F)c6ccc3[nH]6)C=C5)C=C4)cc2)CC1
REMARK SMILES IDX 21 1 20 2 19 3 18 4 16 5 17 6 15 8 11 9 12 10 13 11 14 12
REMARK SMILES IDX 10 13 8 14 9 15 7 17 1 18 2 19 3 20 4 21 5 22 93 23 6 24
REMARK SMILES IDX 92 25 22 26 23 27 24 28 25 30 26 31 27 32 91 33 28 34 90 35
REMARK SMILES IDX 29 36 30 37 31 38 84 39 32 40 89 41 83 42 85 43 33 44 88 45
REMARK SMILES IDX 82 46 81 47 34 49 68 50 47 51 67 52 48 53 51 54 66 55 86 56
REMARK SMILES IDX 49 57 50 58 65 60 87 61 52 62 35 63 36 64 45 65 37 66 38 67
REMARK SMILES IDX 44 68 46 69 39 70 40 71 41 72 42 73 43 74 69 75 70 76 79 77
REMARK SMILES IDX 71 78 72 79 78 80 80 81 73 82 74 83 75 84 76 85 77 86 53 87
REMARK SMILES IDX 54 88 63 89 55 90 56 91 62 92 64 93 57 94 58 95 59 96 60 97
REMARK SMILES IDX 61 98
REMARK H PARENT 18 7 10 16 23 29 85 48 51 59
REMARK Flexibility Score: inf
ROOT
ATOM      1  C   UNL A   1      34.032  28.046  25.816  1.00  0.00     0.023 C 
ENDROOT
BRANCH   1   2
ATOM      2  C   UNL A   1      33.633  29.060  24.738  1.00  0.00     0.023 C 
BRANCH   2   3
ATOM      3  C   UNL A   1      33.621  28.519  23.314  1.00  0.00     0.116 C 
BRANCH   3   4
ATOM      4  N   UNL A   1      32.353  28.619  22.636  1.00  0.00    -0.352 N 
ATOM      5  C   UNL A   1      31.234  27.825  22.723  1.00  0.00     0.254 C 
ATOM      6  O   UNL A   1      30.310  28.117  21.961  1.00  0.00    -0.269 OA
ATOM      7  H   UNL A   1      32.275  29.376  22.013  1.00  0.00     0.163 HD
BRANCH   5   8
ATOM      8  C   UNL A   1      31.114  26.657  23.621  1.00  0.00     0.074 A 
ATOM      9  C   UNL A   1      31.505  25.330  23.499  1.00  0.00     0.108 A 
ATOM     10  S   UNL A   1      30.773  24.319  24.674  1.00  0.00    -0.126 S 
ATOM     11  C   UNL A   1      30.308  25.655  25.616  1.00  0.00     0.068 A 
ATOM     12  C   UNL A   1      30.530  26.832  24.943  1.00  0.00     0.028 A 
BRANCH   9  13
ATOM     13  N   UNL A   1      32.235  24.569  22.621  1.00  0.00    -0.317 N 
ATOM     14  C   UNL A   1      33.364  23.826  22.791  1.00  0.00     0.228 C 
ATOM     15  O   UNL A   1      33.919  23.429  21.756  1.00  0.00    -0.274 OA
ATOM     16  H   UNL A   1      31.879  24.557  21.703  1.00  0.00     0.170 HD
BRANCH  14  17
ATOM     17  C   UNL A   1      33.885  23.326  24.139  1.00  0.00     0.082 C 
ATOM     18  C   UNL A   1      38.449  23.142  26.057  1.00  0.00     0.114 C 
ATOM     19  C   UNL A   1      37.418  22.202  25.487  1.00  0.00     0.219 C 
ATOM     20  O   UNL A   1      37.773  21.203  24.863  1.00  0.00    -0.275 OA
ATOM     21  N   UNL A   1      36.088  22.491  25.760  1.00  0.00    -0.343 N 
ATOM     22  C   UNL A   1      35.063  21.496  25.475  1.00  0.00     0.120 C 
ATOM     23  C   UNL A   1      35.567  23.834  25.970  1.00  0.00     0.120 C 
ATOM     24  C   UNL A   1      34.326  21.866  24.197  1.00  0.00     0.035 C 
ATOM     25  C   UNL A   1      34.941  24.317  24.664  1.00  0.00     0.035 C 
ENDBRANCH  14  17
ENDBRANCH   9  13
ENDBRANCH   5   8
ENDBRANCH   3   4
ENDBRANCH   2   3
ENDBRANCH   1   2
BRANCH   1  26
ATOM     26  C   UNL A   1      33.535  28.331  27.237  1.00  0.00     0.116 C 
BRANCH  26  27
ATOM     27  N   UNL A   1      33.495  29.749  27.571  1.00  0.00    -0.352 N 
ATOM     28  C   UNL A   1      34.460  30.564  28.123  1.00  0.00     0.251 C 
ATOM     29  H   UNL A   1      32.640  30.196  27.370  1.00  0.00     0.163 HD
ATOM     30  O   UNL A   1      34.173  31.700  28.479  1.00  0.00    -0.269 OA
BRANCH  28  31
ATOM     31  C   UNL A   1      35.839  30.060  28.310  1.00  0.00     0.039 A 
ATOM     32  C   UNL A   1      36.725  30.083  27.230  1.00  0.00     0.014 A 
ATOM     33  C   UNL A   1      36.259  29.558  29.545  1.00  0.00     0.014 A 
ATOM     34  C   UNL A   1      38.058  29.697  27.418  1.00  0.00     0.010 A 
ATOM     35  C   UNL A   1      37.604  29.257  29.751  1.00  0.00     0.010 A 
ATOM     36  C   UNL A   1      38.522  29.333  28.693  1.00  0.00    -0.014 A 
BRANCH  36  37
ATOM     37  C   UNL A   1      39.966  29.066  28.943  1.00  0.00     0.031 A 
ATOM     38  C   UNL A   1      40.573  27.732  28.602  1.00  0.00     0.074 A 
ATOM     39  C   UNL A   1      40.717  30.007  29.553  1.00  0.00     0.049 A 
ATOM     40  N   UNL A   1      41.794  27.306  28.798  1.00  0.00    -0.248 NA
ATOM     41  C   UNL A   1      39.684  26.736  27.984  1.00  0.00     0.031 C 
ATOM     42  C   UNL A   1      40.234  31.317  29.994  1.00  0.00     0.029 A 
ATOM     43  N   UNL A   1      42.040  30.003  29.920  1.00  0.00    -0.354 N 
ATOM     44  C   UNL A   1      41.818  25.992  28.346  1.00  0.00     0.074 A 
ATOM     45  C   UNL A   1      40.473  25.673  27.915  1.00  0.00     0.031 C 
ATOM     46  C   UNL A   1      41.249  31.998  30.548  1.00  0.00     0.029 A 
ATOM     47  C   UNL A   1      42.445  31.161  30.542  1.00  0.00     0.049 A 
ATOM     48  H   UNL A   1      42.643  29.243  29.753  1.00  0.00     0.167 HD
ATOM     49  C   UNL A   1      42.867  25.136  28.276  1.00  0.00     0.037 A 
ATOM     50  C   UNL A   1      43.639  31.510  31.062  1.00  0.00     0.037 A 
ATOM     51  C   UNL A   1      44.207  25.465  28.692  1.00  0.00     0.049 A 
ATOM     52  C   UNL A   1      44.791  30.548  30.969  1.00  0.00     0.074 A 
ATOM     53  C   UNL A   1      45.351  24.694  28.592  1.00  0.00     0.029 A 
ATOM     54  N   UNL A   1      44.581  26.657  29.296  1.00  0.00    -0.354 N 
ATOM     55  N   UNL A   1      44.814  29.339  30.458  1.00  0.00    -0.248 NA
ATOM     56  C   UNL A   1      46.080  30.997  31.512  1.00  0.00     0.031 C 
ATOM     57  C   UNL A   1      46.405  25.393  29.189  1.00  0.00     0.029 A 
ATOM     58  C   UNL A   1      45.933  26.628  29.605  1.00  0.00     0.049 A 
ATOM     59  H   UNL A   1      43.976  27.411  29.480  1.00  0.00     0.167 HD
ATOM     60  C   UNL A   1      46.124  28.893  30.599  1.00  0.00     0.074 A 
ATOM     61  C   UNL A   1      46.865  29.967  31.228  1.00  0.00     0.031 C 
ATOM     62  C   UNL A   1      46.663  27.702  30.236  1.00  0.00     0.037 A 
BRANCH  49  63
ATOM     63  C   UNL A   1      42.605  23.754  27.736  1.00  0.00     0.058 A 
ATOM     64  C   UNL A   1      42.412  22.649  28.582  1.00  0.00     0.135 A 
ATOM     65  C   UNL A   1      42.523  23.534  26.350  1.00  0.00     0.135 A 
ATOM     66  F   UNL A   1      42.491  22.796  29.914  1.00  0.00    -0.206 F 
ATOM     67  C   UNL A   1      42.191  21.373  28.075  1.00  0.00     0.059 A 
ATOM     68  C   UNL A   1      42.268  22.271  25.823  1.00  0.00     0.059 A 
ATOM     69  F   UNL A   1      42.694  24.552  25.493  1.00  0.00    -0.206 F 
ATOM     70  C   UNL A   1      42.123  21.193  26.693  1.00  0.00     0.060 A 
BRANCH  70  71
ATOM     71  S   UNL A   1      41.848  19.528  26.053  1.00  0.00     0.124 S 
ATOM     72  O   UNL A   1      40.423  19.570  25.739  1.00  0.00    -0.237 OA
ATOM     73  O   UNL A   1      42.748  19.482  24.905  1.00  0.00    -0.237 OA
ATOM     74  O   UNL A   1      42.219  18.666  27.172  1.00  0.00    -0.744 OA
ENDBRANCH  70  71
ENDBRANCH  49  63
BRANCH  50  75
ATOM     75  C   UNL A   1      43.803  32.846  31.698  1.00  0.00     0.058 A 
ATOM     76  C   UNL A   1      44.038  33.992  30.924  1.00  0.00     0.135 A 
ATOM     77  C   UNL A   1      43.688  33.009  33.087  1.00  0.00     0.135 A 
ATOM     78  F   UNL A   1      44.165  33.888  29.592  1.00  0.00    -0.206 F 
ATOM     79  C   UNL A   1      44.159  35.251  31.503  1.00  0.00     0.059 A 
ATOM     80  C   UNL A   1      43.778  34.262  33.687  1.00  0.00     0.059 A 
ATOM     81  F   UNL A   1      43.446  31.947  33.871  1.00  0.00    -0.206 F 
ATOM     82  C   UNL A   1      44.019  35.377  32.886  1.00  0.00     0.060 A 
BRANCH  82  83
ATOM     83  S   UNL A   1      44.102  37.026  33.619  1.00  0.00     0.124 S 
ATOM     84  O   UNL A   1      44.715  37.795  32.543  1.00  0.00    -0.237 OA
ATOM     85  O   UNL A   1      42.695  37.311  33.888  1.00  0.00    -0.237 OA
ATOM     86  O   UNL A   1      44.930  36.826  34.804  1.00  0.00    -0.744 OA
ENDBRANCH  82  83
ENDBRANCH  50  75
BRANCH  62  87
ATOM     87  C   UNL A   1      48.133  27.500  30.482  1.00  0.00     0.058 A 
ATOM     88  C   UNL A   1      48.613  26.905  31.661  1.00  0.00     0.135 A 
ATOM     89  C   UNL A   1      49.074  27.857  29.502  1.00  0.00     0.135 A 
ATOM     90  F   UNL A   1      47.760  26.550  32.634  1.00  0.00    -0.206 F 
ATOM     91  C   UNL A   1      49.972  26.696  31.868  1.00  0.00     0.059 A 
ATOM     92  C   UNL A   1      50.436  27.629  29.675  1.00  0.00     0.059 A 
ATOM     93  F   UNL A   1      48.671  28.420  28.351  1.00  0.00    -0.206 F 
ATOM     94  C   UNL A   1      50.877  27.058  30.868  1.00  0.00     0.060 A 
BRANCH  94  95
ATOM     95  S   UNL A   1      52.636  26.749  31.136  1.00  0.00     0.124 S 
ATOM     96  O   UNL A   1      53.110  26.544  29.772  1.00  0.00    -0.237 OA
ATOM     97  O   UNL A   1      53.073  27.983  31.782  1.00  0.00    -0.237 OA
ATOM     98  O   UNL A   1      52.648  25.565  31.990  1.00  0.00    -0.744 OA
ENDBRANCH  94  95
ENDBRANCH  62  87
ENDBRANCH  36  37
ENDBRANCH  28  31
ENDBRANCH  26  27
ENDBRANCH   1  26
TORSDOF 16
ENDMDL
MODEL 3
REMARK VINA RESULT:     -11.3      2.275      2.771
REMARK SMILES CC(=O)N1CCC(C(=O)Nc2sccc2C(=O)NCCCCNC(=O)c2ccc(-c3c4nc(c(-c5c(F)cc(S(=O)(=O)[O-])cc5F)c5ccc([nH]5)c(-c5c(F)cc(S(=O)(=O)[O-])cc5F)c5nc(c(-c6c(F)cc(S(=O)(=O)[O-])cc6F)c6ccc3[nH]6)C=C5)C=C4)cc2)CC1
REMARK SMILES IDX 21 1 20 2 19 3 18 4 16 5 17 6 15 8 11 9 12 10 13 11 14 12
REMARK SMILES IDX 10 13 8 14 9 15 7 17 1 18 2 19 3 20 4 21 5 22 93 23 6 24
REMARK SMILES IDX 92 25 22 26 23 27 24 28 25 30 26 31 27 32 91 33 28 34 90 35
REMARK SMILES IDX 29 36 30 37 31 38 84 39 32 40 89 41 83 42 85 43 33 44 88 45
REMARK SMILES IDX 82 46 81 47 34 49 68 50 47 51 67 52 48 53 51 54 66 55 86 56
REMARK SMILES IDX 49 57 50 58 65 60 87 61 52 62 35 63 36 64 45 65 37 66 38 67
REMARK SMILES IDX 44 68 46 69 39 70 40 71 41 72 42 73 43 74 69 75 70 76 79 77
REMARK SMILES IDX 71 78 72 79 78 80 80 81 73 82 74 83 75 84 76 85 77 86 53 87
REMARK SMILES IDX 54 88 63 89 55 90 56 91 62 92 64 93 57 94 58 95 59 96 60 97
REMARK SMILES IDX 61 98
REMARK H PARENT 18 7 10 16 23 29 85 48 51 59
REMARK Flexibility Score: inf
ROOT
ATOM      1  C   UNL A   1      33.734  27.772  25.560  1.00  0.00     0.023 C 
ENDROOT
BRANCH   1   2
ATOM      2  C   UNL A   1      33.905  28.772  24.411  1.00  0.00     0.023 C 
BRANCH   2   3
ATOM      3  C   UNL A   1      33.677  28.200  23.017  1.00  0.00     0.116 C 
BRANCH   3   4
ATOM      4  N   UNL A   1      32.387  28.491  22.444  1.00  0.00    -0.352 N 
ATOM      5  C   UNL A   1      31.188  27.831  22.574  1.00  0.00     0.254 C 
ATOM      6  O   UNL A   1      30.256  28.277  21.900  1.00  0.00    -0.269 OA
ATOM      7  H   UNL A   1      32.359  29.289  21.870  1.00  0.00     0.163 HD
BRANCH   5   8
ATOM      8  C   UNL A   1      30.988  26.631  23.414  1.00  0.00     0.074 A 
ATOM      9  C   UNL A   1      31.371  25.304  23.269  1.00  0.00     0.108 A 
ATOM     10  S   UNL A   1      30.543  24.261  24.348  1.00  0.00    -0.126 S 
ATOM     11  C   UNL A   1      30.026  25.567  25.305  1.00  0.00     0.068 A 
ATOM     12  C   UNL A   1      30.312  26.765  24.696  1.00  0.00     0.028 A 
BRANCH   9  13
ATOM     13  N   UNL A   1      32.154  24.566  22.418  1.00  0.00    -0.317 N 
ATOM     14  C   UNL A   1      33.306  23.869  22.624  1.00  0.00     0.228 C 
ATOM     15  O   UNL A   1      33.904  23.487  21.608  1.00  0.00    -0.274 OA
ATOM     16  H   UNL A   1      31.823  24.534  21.490  1.00  0.00     0.170 HD
BRANCH  14  17
ATOM     17  C   UNL A   1      33.808  23.399  23.990  1.00  0.00     0.082 C 
ATOM     18  C   UNL A   1      38.241  23.736  26.175  1.00  0.00     0.114 C 
ATOM     19  C   UNL A   1      37.373  22.690  25.524  1.00  0.00     0.219 C 
ATOM     20  O   UNL A   1      37.888  21.763  24.901  1.00  0.00    -0.275 OA
ATOM     21  N   UNL A   1      36.004  22.801  25.723  1.00  0.00    -0.343 N 
ATOM     22  C   UNL A   1      35.132  21.695  25.355  1.00  0.00     0.120 C 
ATOM     23  C   UNL A   1      35.305  24.062  25.930  1.00  0.00     0.120 C 
ATOM     24  C   UNL A   1      34.428  22.005  24.043  1.00  0.00     0.035 C 
ATOM     25  C   UNL A   1      34.697  24.500  24.600  1.00  0.00     0.035 C 
ENDBRANCH  14  17
ENDBRANCH   9  13
ENDBRANCH   5   8
ENDBRANCH   3   4
ENDBRANCH   2   3
ENDBRANCH   1   2
BRANCH   1  26
ATOM     26  C   UNL A   1      33.342  28.358  26.920  1.00  0.00     0.116 C 
BRANCH  26  27
ATOM     27  N   UNL A   1      33.380  29.813  26.965  1.00  0.00    -0.352 N 
ATOM     28  C   UNL A   1      34.296  30.665  27.543  1.00  0.00     0.251 C 
ATOM     29  H   UNL A   1      32.629  30.260  26.510  1.00  0.00     0.163 HD
ATOM     30  O   UNL A   1      34.062  31.865  27.611  1.00  0.00    -0.269 OA
BRANCH  28  31
ATOM     31  C   UNL A   1      35.557  30.129  28.107  1.00  0.00     0.039 A 
ATOM     32  C   UNL A   1      36.711  30.135  27.320  1.00  0.00     0.014 A 
ATOM     33  C   UNL A   1      35.601  29.613  29.404  1.00  0.00     0.014 A 
ATOM     34  C   UNL A   1      37.929  29.719  27.871  1.00  0.00     0.010 A 
ATOM     35  C   UNL A   1      36.826  29.280  29.977  1.00  0.00     0.010 A 
ATOM     36  C   UNL A   1      38.007  29.339  29.221  1.00  0.00    -0.014 A 
BRANCH  36  37
ATOM     37  C   UNL A   1      39.316  29.039  29.865  1.00  0.00     0.031 A 
ATOM     38  C   UNL A   1      39.821  29.874  31.011  1.00  0.00     0.074 A 
ATOM     39  C   UNL A   1      40.091  28.054  29.363  1.00  0.00     0.049 A 
ATOM     40  N   UNL A   1      40.957  29.792  31.655  1.00  0.00    -0.248 NA
ATOM     41  C   UNL A   1      38.946  30.963  31.475  1.00  0.00     0.031 C 
ATOM     42  C   UNL A   1      39.747  27.213  28.214  1.00  0.00     0.029 A 
ATOM     43  N   UNL A   1      41.331  27.603  29.743  1.00  0.00    -0.354 N 
ATOM     44  C   UNL A   1      40.942  30.824  32.587  1.00  0.00     0.074 A 
ATOM     45  C   UNL A   1      39.707  31.551  32.387  1.00  0.00     0.031 C 
ATOM     46  C   UNL A   1      40.738  26.334  27.999  1.00  0.00     0.029 A 
ATOM     47  C   UNL A   1      41.807  26.574  28.964  1.00  0.00     0.049 A 
ATOM     48  H   UNL A   1      41.832  27.979  30.502  1.00  0.00     0.167 HD
ATOM     49  C   UNL A   1      41.862  31.125  33.536  1.00  0.00     0.037 A 
ATOM     50  C   UNL A   1      42.976  25.903  29.010  1.00  0.00     0.037 A 
ATOM     51  C   UNL A   1      43.082  30.386  33.740  1.00  0.00     0.049 A 
ATOM     52  C   UNL A   1      43.981  26.249  30.074  1.00  0.00     0.074 A 
ATOM     53  C   UNL A   1      44.041  30.566  34.722  1.00  0.00     0.029 A 
ATOM     54  N   UNL A   1      43.518  29.335  32.946  1.00  0.00    -0.354 N 
ATOM     55  N   UNL A   1      43.910  27.173  31.003  1.00  0.00    -0.248 NA
ATOM     56  C   UNL A   1      45.218  25.458  30.105  1.00  0.00     0.031 C 
ATOM     57  C   UNL A   1      45.085  29.664  34.485  1.00  0.00     0.029 A 
ATOM     58  C   UNL A   1      44.748  28.879  33.394  1.00  0.00     0.049 A 
ATOM     59  H   UNL A   1      43.027  28.968  32.175  1.00  0.00     0.167 HD
ATOM     60  C   UNL A   1      45.083  27.059  31.742  1.00  0.00     0.074 A 
ATOM     61  C   UNL A   1      45.837  25.967  31.161  1.00  0.00     0.031 C 
ATOM     62  C   UNL A   1      45.494  27.791  32.807  1.00  0.00     0.037 A 
BRANCH  49  63
ATOM     63  C   UNL A   1      41.588  32.311  34.423  1.00  0.00     0.058 A 
ATOM     64  C   UNL A   1      40.834  32.198  35.604  1.00  0.00     0.135 A 
ATOM     65  C   UNL A   1      42.105  33.577  34.101  1.00  0.00     0.135 A 
ATOM     66  F   UNL A   1      40.305  31.015  35.957  1.00  0.00    -0.206 F 
ATOM     67  C   UNL A   1      40.568  33.301  36.408  1.00  0.00     0.059 A 
ATOM     68  C   UNL A   1      41.880  34.688  34.909  1.00  0.00     0.059 A 
ATOM     69  F   UNL A   1      42.835  33.746  32.988  1.00  0.00    -0.206 F 
ATOM     70  C   UNL A   1      41.093  34.544  36.051  1.00  0.00     0.060 A 
BRANCH  70  71
ATOM     71  S   UNL A   1      40.727  35.967  37.098  1.00  0.00     0.124 S 
ATOM     72  O   UNL A   1      40.142  35.322  38.270  1.00  0.00    -0.237 OA
ATOM     73  O   UNL A   1      42.046  36.559  37.293  1.00  0.00    -0.237 OA
ATOM     74  O   UNL A   1      39.802  36.757  36.290  1.00  0.00    -0.744 OA
ENDBRANCH  70  71
ENDBRANCH  49  63
BRANCH  50  75
ATOM     75  C   UNL A   1      43.243  24.821  28.023  1.00  0.00     0.058 A 
ATOM     76  C   UNL A   1      43.970  25.073  26.850  1.00  0.00     0.135 A 
ATOM     77  C   UNL A   1      42.808  23.506  28.252  1.00  0.00     0.135 A 
ATOM     78  F   UNL A   1      44.399  26.315  26.582  1.00  0.00    -0.206 F 
ATOM     79  C   UNL A   1      44.254  24.062  25.937  1.00  0.00     0.059 A 
ATOM     80  C   UNL A   1      43.104  22.473  27.368  1.00  0.00     0.059 A 
ATOM     81  F   UNL A   1      42.123  23.208  29.367  1.00  0.00    -0.206 F 
ATOM     82  C   UNL A   1      43.824  22.763  26.210  1.00  0.00     0.060 A 
BRANCH  82  83
ATOM     83  S   UNL A   1      44.264  21.445  25.055  1.00  0.00     0.124 S 
ATOM     84  O   UNL A   1      45.641  21.163  25.441  1.00  0.00    -0.237 OA
ATOM     85  O   UNL A   1      43.285  20.413  25.383  1.00  0.00    -0.237 OA
ATOM     86  O   UNL A   1      44.090  22.071  23.748  1.00  0.00    -0.744 OA
ENDBRANCH  82  83
ENDBRANCH  50  75
BRANCH  62  87
ATOM     87  C   UNL A   1      46.810  27.423  33.438  1.00  0.00     0.058 A 
ATOM     88  C   UNL A   1      48.014  28.036  33.055  1.00  0.00     0.135 A 
ATOM     89  C   UNL A   1      46.860  26.481  34.479  1.00  0.00     0.135 A 
ATOM     90  F   UNL A   1      48.027  28.939  32.062  1.00  0.00    -0.206 F 
ATOM     91  C   UNL A   1      49.221  27.710  33.664  1.00  0.00     0.059 A 
ATOM     92  C   UNL A   1      48.051  26.162  35.123  1.00  0.00     0.059 A 
ATOM     93  F   UNL A   1      45.737  25.870  34.893  1.00  0.00    -0.206 F 
ATOM     94  C   UNL A   1      49.231  26.774  34.699  1.00  0.00     0.060 A 
BRANCH  94  95
ATOM     95  S   UNL A   1      50.800  26.386  35.503  1.00  0.00     0.124 S 
ATOM     96  O   UNL A   1      50.730  27.215  36.701  1.00  0.00    -0.237 OA
ATOM     97  O   UNL A   1      50.690  24.946  35.720  1.00  0.00    -0.237 OA
ATOM     98  O   UNL A   1      51.798  26.790  34.517  1.00  0.00    -0.744 OA
ENDBRANCH  94  95
ENDBRANCH  62  87
ENDBRANCH  36  37
ENDBRANCH  28  31
ENDBRANCH  26  27
ENDBRANCH   1  26
TORSDOF 16
ENDMDL
