MODEL 1
REMARK VINA RESULT:     -11.9      0.000      0.000
REMARK SMILES CC(C)SCC(=O)N1Cc2ccccc2C[C@H]1C(=O)NCCCCNC(=O)c1ccc(-c2c3nc(c(-c4c(F)cc(S(=O)(=O)[O-])cc4F)c4ccc([nH]4)c(-c4c(F)cc(S(=O)(=O)[O-])cc4F)c4nc(c(-c5c(F)cc(S(=O)(=O)[O-])cc5F)c5ccc2[nH]5)C=C4)C=C3)cc1
REMARK SMILES IDX 22 1 21 2 20 3 18 4 19 5 17 7 8 8 9 9 10 10 16 11 11 12
REMARK SMILES IDX 15 13 12 14 14 15 13 16 6 17 7 18 5 19 4 20 2 21 1 22 3 23
REMARK SMILES IDX 23 24 24 25 25 26 26 27 27 29 28 30 29 31 93 32 30 33 92 34
REMARK SMILES IDX 31 35 32 36 33 37 86 38 34 39 91 40 85 41 87 42 35 43 90 44
REMARK SMILES IDX 84 45 83 46 36 48 70 49 49 50 69 51 50 52 53 53 68 54 88 55
REMARK SMILES IDX 51 56 52 57 67 59 89 60 54 61 37 62 38 63 47 64 39 65 40 66
REMARK SMILES IDX 46 67 48 68 41 69 42 70 43 71 44 72 45 73 71 74 72 75 81 76
REMARK SMILES IDX 73 77 74 78 80 79 82 80 75 81 76 82 77 83 78 84 79 85 55 86
REMARK SMILES IDX 56 87 65 88 57 89 58 90 64 91 66 92 59 93 60 94 61 95 62 96
REMARK SMILES IDX 63 97
REMARK H PARENT 20 6 25 28 87 47 53 58
REMARK Flexibility Score: inf
ROOT
ATOM      1  C   UNL A   1      37.909  21.930  25.395  1.00  0.00     0.023 C 
ENDROOT
BRANCH   1   2
ATOM      2  C   UNL A   1      36.477  21.429  25.270  1.00  0.00     0.116 C 
BRANCH   2   3
ATOM      3  N   UNL A   1      35.693  21.642  26.465  1.00  0.00    -0.354 N 
ATOM      4  C   UNL A   1      34.490  22.265  26.591  1.00  0.00     0.243 C 
ATOM      5  O   UNL A   1      33.778  21.919  27.539  1.00  0.00    -0.273 OA
ATOM      6  H   UNL A   1      36.081  21.292  27.298  1.00  0.00     0.163 HD
BRANCH   4   7
ATOM      7  C   UNL A   1      33.936  23.185  25.486  1.00  0.00     0.179 C 
ATOM      8  N   UNL A   1      32.677  22.781  24.797  1.00  0.00    -0.325 N 
ATOM      9  C   UNL A   1      31.583  23.764  24.695  1.00  0.00     0.156 C 
ATOM     10  C   UNL A   1      31.987  25.212  24.735  1.00  0.00    -0.025 A 
ATOM     11  C   UNL A   1      33.927  24.576  26.161  1.00  0.00     0.071 C 
ATOM     12  C   UNL A   1      31.162  26.193  24.162  1.00  0.00     0.006 A 
ATOM     13  C   UNL A   1      33.121  25.611  25.444  1.00  0.00    -0.040 A 
ATOM     14  C   UNL A   1      31.472  27.547  24.290  1.00  0.00     0.000 A 
ATOM     15  C   UNL A   1      33.424  26.972  25.581  1.00  0.00     0.004 A 
ATOM     16  C   UNL A   1      32.603  27.937  25.001  1.00  0.00     0.000 A 
BRANCH   8  17
ATOM     17  C   UNL A   1      32.547  21.647  23.984  1.00  0.00     0.233 C 
ATOM     18  O   UNL A   1      32.538  21.763  22.749  1.00  0.00    -0.274 OA
BRANCH  17  19
ATOM     19  C   UNL A   1      32.200  20.269  24.540  1.00  0.00     0.169 C 
BRANCH  19  20
ATOM     20  S   UNL A   1      33.495  19.028  24.721  1.00  0.00    -0.149 SA
BRANCH  20  21
ATOM     21  C   UNL A   1      32.976  17.656  23.644  1.00  0.00     0.041 C 
ATOM     22  C   UNL A   1      32.379  18.145  22.332  1.00  0.00     0.019 C 
ATOM     23  C   UNL A   1      34.071  16.621  23.441  1.00  0.00     0.019 C 
ENDBRANCH  20  21
ENDBRANCH  19  20
ENDBRANCH  17  19
ENDBRANCH   8  17
ENDBRANCH   4   7
ENDBRANCH   2   3
ENDBRANCH   1   2
BRANCH   1  24
ATOM     24  C   UNL A   1      38.033  23.365  25.910  1.00  0.00     0.023 C 
BRANCH  24  25
ATOM     25  C   UNL A   1      39.205  23.605  26.855  1.00  0.00     0.116 C 
BRANCH  25  26
ATOM     26  N   UNL A   1      40.435  23.930  26.149  1.00  0.00    -0.352 N 
ATOM     27  C   UNL A   1      41.241  25.030  26.269  1.00  0.00     0.251 C 
ATOM     28  H   UNL A   1      40.730  23.262  25.489  1.00  0.00     0.163 HD
ATOM     29  O   UNL A   1      42.168  25.193  25.476  1.00  0.00    -0.269 OA
BRANCH  27  30
ATOM     30  C   UNL A   1      40.972  26.029  27.320  1.00  0.00     0.039 A 
ATOM     31  C   UNL A   1      40.073  25.699  28.336  1.00  0.00     0.014 A 
ATOM     32  C   UNL A   1      41.605  27.276  27.314  1.00  0.00     0.014 A 
ATOM     33  C   UNL A   1      39.854  26.600  29.377  1.00  0.00     0.010 A 
ATOM     34  C   UNL A   1      41.445  28.140  28.395  1.00  0.00     0.010 A 
ATOM     35  C   UNL A   1      40.565  27.811  29.435  1.00  0.00    -0.014 A 
BRANCH  35  36
ATOM     36  C   UNL A   1      40.398  28.723  30.595  1.00  0.00     0.031 A 
ATOM     37  C   UNL A   1      41.271  28.581  31.812  1.00  0.00     0.074 A 
ATOM     38  C   UNL A   1      39.445  29.675  30.546  1.00  0.00     0.049 A 
ATOM     39  N   UNL A   1      41.285  29.303  32.902  1.00  0.00    -0.248 NA
ATOM     40  C   UNL A   1      42.240  27.471  31.818  1.00  0.00     0.031 C 
ATOM     41  C   UNL A   1      38.498  29.869  29.443  1.00  0.00     0.029 A 
ATOM     42  N   UNL A   1      39.117  30.665  31.438  1.00  0.00    -0.354 N 
ATOM     43  C   UNL A   1      42.265  28.747  33.716  1.00  0.00     0.074 A 
ATOM     44  C   UNL A   1      42.777  27.584  33.025  1.00  0.00     0.031 C 
ATOM     45  C   UNL A   1      37.726  30.934  29.706  1.00  0.00     0.029 A 
ATOM     46  C   UNL A   1      38.095  31.479  31.007  1.00  0.00     0.049 A 
ATOM     47  H   UNL A   1      39.569  30.779  32.304  1.00  0.00     0.167 HD
ATOM     48  C   UNL A   1      42.720  29.185  34.913  1.00  0.00     0.037 A 
ATOM     49  C   UNL A   1      37.523  32.547  31.597  1.00  0.00     0.037 A 
ATOM     50  C   UNL A   1      42.214  30.352  35.589  1.00  0.00     0.049 A 
ATOM     51  C   UNL A   1      38.045  33.004  32.933  1.00  0.00     0.074 A 
ATOM     52  C   UNL A   1      42.630  30.899  36.791  1.00  0.00     0.029 A 
ATOM     53  N   UNL A   1      41.182  31.154  35.122  1.00  0.00    -0.354 N 
ATOM     54  N   UNL A   1      39.019  32.502  33.655  1.00  0.00    -0.248 NA
ATOM     55  C   UNL A   1      37.396  34.179  33.529  1.00  0.00     0.031 C 
ATOM     56  C   UNL A   1      41.822  32.007  37.072  1.00  0.00     0.029 A 
ATOM     57  C   UNL A   1      40.939  32.182  36.019  1.00  0.00     0.049 A 
ATOM     58  H   UNL A   1      40.696  31.015  34.279  1.00  0.00     0.167 HD
ATOM     59  C   UNL A   1      39.117  33.318  34.778  1.00  0.00     0.074 A 
ATOM     60  C   UNL A   1      38.123  34.361  34.622  1.00  0.00     0.031 C 
ATOM     61  C   UNL A   1      39.946  33.213  35.846  1.00  0.00     0.037 A 
BRANCH  48  62
ATOM     62  C   UNL A   1      43.841  28.419  35.564  1.00  0.00     0.058 A 
ATOM     63  C   UNL A   1      45.185  28.732  35.306  1.00  0.00     0.135 A 
ATOM     64  C   UNL A   1      43.573  27.416  36.508  1.00  0.00     0.135 A 
ATOM     65  F   UNL A   1      45.499  29.670  34.398  1.00  0.00    -0.206 F 
ATOM     66  C   UNL A   1      46.224  28.074  35.955  1.00  0.00     0.059 A 
ATOM     67  C   UNL A   1      44.595  26.762  37.190  1.00  0.00     0.059 A 
ATOM     68  F   UNL A   1      42.306  27.071  36.789  1.00  0.00    -0.206 F 
ATOM     69  C   UNL A   1      45.919  27.095  36.903  1.00  0.00     0.060 A 
BRANCH  69  70
ATOM     70  S   UNL A   1      47.281  26.286  37.769  1.00  0.00     0.124 S 
ATOM     71  O   UNL A   1      47.960  27.427  38.376  1.00  0.00    -0.237 OA
ATOM     72  O   UNL A   1      46.579  25.400  38.692  1.00  0.00    -0.237 OA
ATOM     73  O   UNL A   1      48.015  25.618  36.699  1.00  0.00    -0.744 OA
ENDBRANCH  69  70
ENDBRANCH  48  62
BRANCH  49  74
ATOM     74  C   UNL A   1      36.404  33.269  30.932  1.00  0.00     0.058 A 
ATOM     75  C   UNL A   1      36.634  34.105  29.827  1.00  0.00     0.135 A 
ATOM     76  C   UNL A   1      35.088  33.168  31.409  1.00  0.00     0.135 A 
ATOM     77  F   UNL A   1      37.875  34.236  29.332  1.00  0.00    -0.206 F 
ATOM     78  C   UNL A   1      35.611  34.850  29.251  1.00  0.00     0.059 A 
ATOM     79  C   UNL A   1      34.043  33.878  30.829  1.00  0.00     0.059 A 
ATOM     80  F   UNL A   1      34.809  32.365  32.447  1.00  0.00    -0.206 F 
ATOM     81  C   UNL A   1      34.319  34.735  29.764  1.00  0.00     0.060 A 
BRANCH  81  82
ATOM     82  S   UNL A   1      32.996  35.709  29.014  1.00  0.00     0.124 S 
ATOM     83  O   UNL A   1      32.211  36.084  30.185  1.00  0.00    -0.237 OA
ATOM     84  O   UNL A   1      33.736  36.788  28.369  1.00  0.00    -0.237 OA
ATOM     85  O   UNL A   1      32.359  34.762  28.103  1.00  0.00    -0.744 OA
ENDBRANCH  81  82
ENDBRANCH  49  74
BRANCH  61  86
ATOM     86  C   UNL A   1      39.831  34.272  36.907  1.00  0.00     0.058 A 
ATOM     87  C   UNL A   1      39.056  34.079  38.062  1.00  0.00     0.135 A 
ATOM     88  C   UNL A   1      40.507  35.495  36.769  1.00  0.00     0.135 A 
ATOM     89  F   UNL A   1      38.386  32.930  38.243  1.00  0.00    -0.206 F 
ATOM     90  C   UNL A   1      38.913  35.081  39.018  1.00  0.00     0.059 A 
ATOM     91  C   UNL A   1      40.407  36.497  37.730  1.00  0.00     0.059 A 
ATOM     92  F   UNL A   1      41.274  35.728  35.693  1.00  0.00    -0.206 F 
ATOM     93  C   UNL A   1      39.588  36.289  38.839  1.00  0.00     0.060 A 
BRANCH  93  94
ATOM     94  S   UNL A   1      39.388  37.583  40.080  1.00  0.00     0.124 S 
ATOM     95  O   UNL A   1      39.112  36.798  41.279  1.00  0.00    -0.237 OA
ATOM     96  O   UNL A   1      40.685  38.252  40.045  1.00  0.00    -0.237 OA
ATOM     97  O   UNL A   1      38.268  38.370  39.574  1.00  0.00    -0.744 OA
ENDBRANCH  93  94
ENDBRANCH  61  86
ENDBRANCH  35  36
ENDBRANCH  27  30
ENDBRANCH  25  26
ENDBRANCH  24  25
ENDBRANCH   1  24
TORSDOF 18
ENDMDL
MODEL 2
REMARK VINA RESULT:     -11.5      6.215      8.296
REMARK SMILES CC(C)SCC(=O)N1Cc2ccccc2C[C@H]1C(=O)NCCCCNC(=O)c1ccc(-c2c3nc(c(-c4c(F)cc(S(=O)(=O)[O-])cc4F)c4ccc([nH]4)c(-c4c(F)cc(S(=O)(=O)[O-])cc4F)c4nc(c(-c5c(F)cc(S(=O)(=O)[O-])cc5F)c5ccc2[nH]5)C=C4)C=C3)cc1
REMARK SMILES IDX 22 1 21 2 20 3 18 4 19 5 17 7 8 8 9 9 10 10 16 11 11 12
REMARK SMILES IDX 15 13 12 14 14 15 13 16 6 17 7 18 5 19 4 20 2 21 1 22 3 23
REMARK SMILES IDX 23 24 24 25 25 26 26 27 27 29 28 30 29 31 93 32 30 33 92 34
REMARK SMILES IDX 31 35 32 36 33 37 86 38 34 39 91 40 85 41 87 42 35 43 90 44
REMARK SMILES IDX 84 45 83 46 36 48 70 49 49 50 69 51 50 52 53 53 68 54 88 55
REMARK SMILES IDX 51 56 52 57 67 59 89 60 54 61 37 62 38 63 47 64 39 65 40 66
REMARK SMILES IDX 46 67 48 68 41 69 42 70 43 71 44 72 45 73 71 74 72 75 81 76
REMARK SMILES IDX 73 77 74 78 80 79 82 80 75 81 76 82 77 83 78 84 79 85 55 86
REMARK SMILES IDX 56 87 65 88 57 89 58 90 64 91 66 92 59 93 60 94 61 95 62 96
REMARK SMILES IDX 63 97
REMARK H PARENT 20 6 25 28 87 47 53 58
REMARK Flexibility Score: inf
ROOT
ATOM      1  C   UNL A   1      37.725  21.549  24.659  1.00  0.00     0.023 C 
ENDROOT
BRANCH   1   2
ATOM      2  C   UNL A   1      36.210  21.673  24.723  1.00  0.00     0.116 C 
BRANCH   2   3
ATOM      3  N   UNL A   1      35.718  21.948  26.054  1.00  0.00    -0.354 N 
ATOM      4  C   UNL A   1      34.539  22.520  26.421  1.00  0.00     0.243 C 
ATOM      5  O   UNL A   1      34.096  22.222  27.535  1.00  0.00    -0.273 OA
ATOM      6  H   UNL A   1      36.314  21.689  26.792  1.00  0.00     0.163 HD
BRANCH   4   7
ATOM      7  C   UNL A   1      33.679  23.314  25.420  1.00  0.00     0.179 C 
ATOM      8  N   UNL A   1      32.442  22.674  24.888  1.00  0.00    -0.325 N 
ATOM      9  C   UNL A   1      31.176  23.425  24.951  1.00  0.00     0.156 C 
ATOM     10  C   UNL A   1      31.295  24.924  24.975  1.00  0.00    -0.025 A 
ATOM     11  C   UNL A   1      33.490  24.678  26.125  1.00  0.00     0.071 C 
ATOM     12  C   UNL A   1      30.229  25.726  24.538  1.00  0.00     0.006 A 
ATOM     13  C   UNL A   1      32.413  25.536  25.543  1.00  0.00    -0.040 A 
ATOM     14  C   UNL A   1      30.287  27.115  24.658  1.00  0.00     0.000 A 
ATOM     15  C   UNL A   1      32.464  26.931  25.673  1.00  0.00     0.004 A 
ATOM     16  C   UNL A   1      31.405  27.717  25.227  1.00  0.00     0.000 A 
BRANCH   8  17
ATOM     17  C   UNL A   1      32.428  21.536  24.071  1.00  0.00     0.233 C 
ATOM     18  O   UNL A   1      32.443  21.654  22.836  1.00  0.00    -0.274 OA
BRANCH  17  19
ATOM     19  C   UNL A   1      32.180  20.132  24.615  1.00  0.00     0.169 C 
BRANCH  19  20
ATOM     20  S   UNL A   1      33.577  19.037  24.929  1.00  0.00    -0.149 SA
BRANCH  20  21
ATOM     21  C   UNL A   1      33.054  17.419  24.280  1.00  0.00     0.041 C 
ATOM     22  C   UNL A   1      33.933  16.945  23.132  1.00  0.00     0.019 C 
ATOM     23  C   UNL A   1      32.895  16.371  25.370  1.00  0.00     0.019 C 
ENDBRANCH  20  21
ENDBRANCH  19  20
ENDBRANCH  17  19
ENDBRANCH   8  17
ENDBRANCH   4   7
ENDBRANCH   2   3
ENDBRANCH   1   2
BRANCH   1  24
ATOM     24  C   UNL A   1      38.284  20.278  25.301  1.00  0.00     0.023 C 
BRANCH  24  25
ATOM     25  C   UNL A   1      39.467  20.501  26.237  1.00  0.00     0.116 C 
BRANCH  25  26
ATOM     26  N   UNL A   1      40.484  19.468  26.107  1.00  0.00    -0.352 N 
ATOM     27  C   UNL A   1      41.848  19.587  26.125  1.00  0.00     0.251 C 
ATOM     28  H   UNL A   1      40.142  18.553  25.987  1.00  0.00     0.163 HD
ATOM     29  O   UNL A   1      42.545  18.609  25.854  1.00  0.00    -0.269 OA
BRANCH  27  30
ATOM     30  C   UNL A   1      42.470  20.888  26.434  1.00  0.00     0.039 A 
ATOM     31  C   UNL A   1      42.782  21.743  25.376  1.00  0.00     0.014 A 
ATOM     32  C   UNL A   1      42.736  21.268  27.753  1.00  0.00     0.014 A 
ATOM     33  C   UNL A   1      43.309  23.005  25.646  1.00  0.00     0.010 A 
ATOM     34  C   UNL A   1      43.187  22.558  28.024  1.00  0.00     0.010 A 
ATOM     35  C   UNL A   1      43.481  23.438  26.973  1.00  0.00    -0.014 A 
BRANCH  35  36
ATOM     36  C   UNL A   1      43.952  24.817  27.256  1.00  0.00     0.031 A 
ATOM     37  C   UNL A   1      45.401  25.181  27.082  1.00  0.00     0.074 A 
ATOM     38  C   UNL A   1      43.063  25.736  27.681  1.00  0.00     0.049 A 
ATOM     39  N   UNL A   1      45.984  26.339  27.254  1.00  0.00    -0.248 NA
ATOM     40  C   UNL A   1      46.322  24.102  26.684  1.00  0.00     0.031 C 
ATOM     41  C   UNL A   1      41.643  25.483  27.945  1.00  0.00     0.029 A 
ATOM     42  N   UNL A   1      43.215  27.071  27.960  1.00  0.00    -0.354 N 
ATOM     43  C   UNL A   1      47.330  26.134  26.976  1.00  0.00     0.074 A 
ATOM     44  C   UNL A   1      47.492  24.725  26.692  1.00  0.00     0.031 C 
ATOM     45  C   UNL A   1      41.050  26.631  28.306  1.00  0.00     0.029 A 
ATOM     46  C   UNL A   1      42.048  27.694  28.335  1.00  0.00     0.049 A 
ATOM     47  H   UNL A   1      44.079  27.539  27.897  1.00  0.00     0.167 HD
ATOM     48  C   UNL A   1      48.333  27.041  26.930  1.00  0.00     0.037 A 
ATOM     49  C   UNL A   1      41.810  28.978  28.664  1.00  0.00     0.037 A 
ATOM     50  C   UNL A   1      48.161  28.446  27.203  1.00  0.00     0.049 A 
ATOM     51  C   UNL A   1      42.948  29.963  28.611  1.00  0.00     0.074 A 
ATOM     52  C   UNL A   1      49.108  29.455  27.150  1.00  0.00     0.029 A 
ATOM     53  N   UNL A   1      46.965  29.041  27.576  1.00  0.00    -0.354 N 
ATOM     54  N   UNL A   1      44.201  29.760  28.281  1.00  0.00    -0.248 NA
ATOM     55  C   UNL A   1      42.635  31.353  28.967  1.00  0.00     0.031 C 
ATOM     56  C   UNL A   1      48.493  30.653  27.533  1.00  0.00     0.029 A 
ATOM     57  C   UNL A   1      47.152  30.400  27.772  1.00  0.00     0.049 A 
ATOM     58  H   UNL A   1      46.109  28.568  27.685  1.00  0.00     0.167 HD
ATOM     59  C   UNL A   1      44.820  31.003  28.363  1.00  0.00     0.074 A 
ATOM     60  C   UNL A   1      43.796  31.954  28.745  1.00  0.00     0.031 C 
ATOM     61  C   UNL A   1      46.120  31.331  28.150  1.00  0.00     0.037 A 
BRANCH  48  62
ATOM     62  C   UNL A   1      49.705  26.557  26.545  1.00  0.00     0.058 A 
ATOM     63  C   UNL A   1      50.600  26.059  27.505  1.00  0.00     0.135 A 
ATOM     64  C   UNL A   1      50.103  26.519  25.199  1.00  0.00     0.135 A 
ATOM     65  F   UNL A   1      50.279  26.089  28.809  1.00  0.00    -0.206 F 
ATOM     66  C   UNL A   1      51.843  25.548  27.147  1.00  0.00     0.059 A 
ATOM     67  C   UNL A   1      51.331  25.988  24.814  1.00  0.00     0.059 A 
ATOM     68  F   UNL A   1      49.289  26.988  24.239  1.00  0.00    -0.206 F 
ATOM     69  C   UNL A   1      52.196  25.509  25.797  1.00  0.00     0.060 A 
BRANCH  69  70
ATOM     70  S   UNL A   1      53.794  24.798  25.349  1.00  0.00     0.124 S 
ATOM     71  O   UNL A   1      54.551  24.979  26.584  1.00  0.00    -0.237 OA
ATOM     72  O   UNL A   1      53.440  23.421  25.019  1.00  0.00    -0.237 OA
ATOM     73  O   UNL A   1      54.229  25.618  24.223  1.00  0.00    -0.744 OA
ENDBRANCH  69  70
ENDBRANCH  48  62
BRANCH  49  74
ATOM     74  C   UNL A   1      40.443  29.419  29.057  1.00  0.00     0.058 A 
ATOM     75  C   UNL A   1      39.433  29.596  28.099  1.00  0.00     0.135 A 
ATOM     76  C   UNL A   1      40.130  29.706  30.394  1.00  0.00     0.135 A 
ATOM     77  F   UNL A   1      39.682  29.335  26.806  1.00  0.00    -0.206 F 
ATOM     78  C   UNL A   1      38.178  30.087  28.443  1.00  0.00     0.059 A 
ATOM     79  C   UNL A   1      38.872  30.167  30.769  1.00  0.00     0.059 A 
ATOM     80  F   UNL A   1      41.051  29.531  31.354  1.00  0.00    -0.206 F 
ATOM     81  C   UNL A   1      37.910  30.377  29.781  1.00  0.00     0.060 A 
BRANCH  81  82
ATOM     82  S   UNL A   1      36.280  31.019  30.221  1.00  0.00     0.124 S 
ATOM     83  O   UNL A   1      36.585  32.417  30.503  1.00  0.00    -0.237 OA
ATOM     84  O   UNL A   1      35.512  30.764  29.008  1.00  0.00    -0.237 OA
ATOM     85  O   UNL A   1      35.903  30.209  31.376  1.00  0.00    -0.744 OA
ENDBRANCH  81  82
ENDBRANCH  49  74
BRANCH  61  86
ATOM     86  C   UNL A   1      46.490  32.782  28.295  1.00  0.00     0.058 A 
ATOM     87  C   UNL A   1      46.394  33.679  27.220  1.00  0.00     0.135 A 
ATOM     88  C   UNL A   1      46.943  33.281  29.527  1.00  0.00     0.135 A 
ATOM     89  F   UNL A   1      45.970  33.254  26.019  1.00  0.00    -0.206 F 
ATOM     90  C   UNL A   1      46.783  35.009  27.346  1.00  0.00     0.059 A 
ATOM     91  C   UNL A   1      47.304  34.616  29.685  1.00  0.00     0.059 A 
ATOM     92  F   UNL A   1      47.039  32.471  30.593  1.00  0.00    -0.206 F 
ATOM     93  C   UNL A   1      47.243  35.466  28.582  1.00  0.00     0.060 A 
BRANCH  93  94
ATOM     94  S   UNL A   1      47.753  37.191  28.731  1.00  0.00     0.124 S 
ATOM     95  O   UNL A   1      49.036  37.177  28.036  1.00  0.00    -0.237 OA
ATOM     96  O   UNL A   1      46.672  37.897  28.051  1.00  0.00    -0.237 OA
ATOM     97  O   UNL A   1      47.823  37.401  30.173  1.00  0.00    -0.744 OA
ENDBRANCH  93  94
ENDBRANCH  61  86
ENDBRANCH  35  36
ENDBRANCH  27  30
ENDBRANCH  25  26
ENDBRANCH  24  25
ENDBRANCH   1  24
TORSDOF 18
ENDMDL
MODEL 3
REMARK VINA RESULT:     -11.5      5.423     12.440
REMARK SMILES CC(C)SCC(=O)N1Cc2ccccc2C[C@H]1C(=O)NCCCCNC(=O)c1ccc(-c2c3nc(c(-c4c(F)cc(S(=O)(=O)[O-])cc4F)c4ccc([nH]4)c(-c4c(F)cc(S(=O)(=O)[O-])cc4F)c4nc(c(-c5c(F)cc(S(=O)(=O)[O-])cc5F)c5ccc2[nH]5)C=C4)C=C3)cc1
REMARK SMILES IDX 22 1 21 2 20 3 18 4 19 5 17 7 8 8 9 9 10 10 16 11 11 12
REMARK SMILES IDX 15 13 12 14 14 15 13 16 6 17 7 18 5 19 4 20 2 21 1 22 3 23
REMARK SMILES IDX 23 24 24 25 25 26 26 27 27 29 28 30 29 31 93 32 30 33 92 34
REMARK SMILES IDX 31 35 32 36 33 37 86 38 34 39 91 40 85 41 87 42 35 43 90 44
REMARK SMILES IDX 84 45 83 46 36 48 70 49 49 50 69 51 50 52 53 53 68 54 88 55
REMARK SMILES IDX 51 56 52 57 67 59 89 60 54 61 37 62 38 63 47 64 39 65 40 66
REMARK SMILES IDX 46 67 48 68 41 69 42 70 43 71 44 72 45 73 71 74 72 75 81 76
REMARK SMILES IDX 73 77 74 78 80 79 82 80 75 81 76 82 77 83 78 84 79 85 55 86
REMARK SMILES IDX 56 87 65 88 57 89 58 90 64 91 66 92 59 93 60 94 61 95 62 96
REMARK SMILES IDX 63 97
REMARK H PARENT 20 6 25 28 87 47 53 58
REMARK Flexibility Score: inf
ROOT
ATOM      1  C   UNL A   1      35.002  33.968  31.590  1.00  0.00     0.023 C 
ENDROOT
BRANCH   1   2
ATOM      2  C   UNL A   1      36.307  33.918  32.371  1.00  0.00     0.116 C 
BRANCH   2   3
ATOM      3  N   UNL A   1      36.200  33.185  33.611  1.00  0.00    -0.354 N 
ATOM      4  C   UNL A   1      37.161  32.478  34.265  1.00  0.00     0.243 C 
ATOM      5  O   UNL A   1      37.035  32.360  35.488  1.00  0.00    -0.273 OA
ATOM      6  H   UNL A   1      35.315  33.199  34.041  1.00  0.00     0.163 HD
BRANCH   4   7
ATOM      7  C   UNL A   1      38.462  32.042  33.563  1.00  0.00     0.179 C 
ATOM      8  N   UNL A   1      39.746  32.654  34.011  1.00  0.00    -0.325 N 
ATOM      9  C   UNL A   1      40.873  31.765  34.342  1.00  0.00     0.156 C 
ATOM     10  C   UNL A   1      40.877  30.421  33.668  1.00  0.00    -0.025 A 
ATOM     11  C   UNL A   1      38.389  30.498  33.618  1.00  0.00     0.071 C 
ATOM     12  C   UNL A   1      42.081  29.719  33.495  1.00  0.00     0.006 A 
ATOM     13  C   UNL A   1      39.677  29.803  33.316  1.00  0.00    -0.040 A 
ATOM     14  C   UNL A   1      42.083  28.426  32.972  1.00  0.00     0.000 A 
ATOM     15  C   UNL A   1      39.680  28.499  32.800  1.00  0.00     0.004 A 
ATOM     16  C   UNL A   1      40.881  27.816  32.625  1.00  0.00     0.000 A 
BRANCH   8  17
ATOM     17  C   UNL A   1      40.068  34.011  33.870  1.00  0.00     0.233 C 
ATOM     18  O   UNL A   1      41.045  34.352  33.186  1.00  0.00    -0.274 OA
BRANCH  17  19
ATOM     19  C   UNL A   1      39.399  35.107  34.694  1.00  0.00     0.169 C 
BRANCH  19  20
ATOM     20  S   UNL A   1      40.391  36.106  35.821  1.00  0.00    -0.149 SA
BRANCH  20  21
ATOM     21  C   UNL A   1      40.379  35.184  37.391  1.00  0.00     0.041 C 
ATOM     22  C   UNL A   1      40.939  36.002  38.546  1.00  0.00     0.019 C 
ATOM     23  C   UNL A   1      39.022  34.575  37.706  1.00  0.00     0.019 C 
ENDBRANCH  20  21
ENDBRANCH  19  20
ENDBRANCH  17  19
ENDBRANCH   8  17
ENDBRANCH   4   7
ENDBRANCH   2   3
ENDBRANCH   1   2
BRANCH   1  24
ATOM     24  C   UNL A   1      34.625  32.653  30.906  1.00  0.00     0.023 C 
BRANCH  24  25
ATOM     25  C   UNL A   1      34.988  32.573  29.427  1.00  0.00     0.116 C 
BRANCH  25  26
ATOM     26  N   UNL A   1      34.225  31.556  28.719  1.00  0.00    -0.352 N 
ATOM     27  C   UNL A   1      34.650  30.372  28.179  1.00  0.00     0.251 C 
ATOM     28  H   UNL A   1      33.265  31.748  28.612  1.00  0.00     0.163 HD
ATOM     29  O   UNL A   1      33.877  29.709  27.488  1.00  0.00    -0.269 OA
BRANCH  27  30
ATOM     30  C   UNL A   1      36.037  29.918  28.397  1.00  0.00     0.039 A 
ATOM     31  C   UNL A   1      36.943  30.018  27.340  1.00  0.00     0.014 A 
ATOM     32  C   UNL A   1      36.445  29.408  29.633  1.00  0.00     0.014 A 
ATOM     33  C   UNL A   1      38.274  29.659  27.542  1.00  0.00     0.010 A 
ATOM     34  C   UNL A   1      37.791  29.126  29.855  1.00  0.00     0.010 A 
ATOM     35  C   UNL A   1      38.718  29.245  28.810  1.00  0.00    -0.014 A 
BRANCH  35  36
ATOM     36  C   UNL A   1      40.155  28.956  29.043  1.00  0.00     0.031 A 
ATOM     37  C   UNL A   1      40.729  27.607  28.703  1.00  0.00     0.074 A 
ATOM     38  C   UNL A   1      40.937  29.916  29.575  1.00  0.00     0.049 A 
ATOM     39  N   UNL A   1      41.963  27.188  28.812  1.00  0.00    -0.248 NA
ATOM     40  C   UNL A   1      39.794  26.589  28.194  1.00  0.00     0.031 C 
ATOM     41  C   UNL A   1      40.479  31.242  30.002  1.00  0.00     0.029 A 
ATOM     42  N   UNL A   1      42.284  29.933  29.840  1.00  0.00    -0.354 N 
ATOM     43  C   UNL A   1      41.957  25.867  28.377  1.00  0.00     0.074 A 
ATOM     44  C   UNL A   1      40.585  25.531  28.068  1.00  0.00     0.031 C 
ATOM     45  C   UNL A   1      41.530  31.954  30.436  1.00  0.00     0.029 A 
ATOM     46  C   UNL A   1      42.730  31.129  30.353  1.00  0.00     0.049 A 
ATOM     47  H   UNL A   1      42.873  29.162  29.680  1.00  0.00     0.167 HD
ATOM     48  C   UNL A   1      43.003  25.024  28.219  1.00  0.00     0.037 A 
ATOM     49  C   UNL A   1      43.969  31.516  30.714  1.00  0.00     0.037 A 
ATOM     50  C   UNL A   1      44.369  25.370  28.517  1.00  0.00     0.049 A 
ATOM     51  C   UNL A   1      45.111  30.551  30.534  1.00  0.00     0.074 A 
ATOM     52  C   UNL A   1      45.508  24.598  28.359  1.00  0.00     0.029 A 
ATOM     53  N   UNL A   1      44.784  26.590  29.031  1.00  0.00    -0.354 N 
ATOM     54  N   UNL A   1      45.093  29.329  30.058  1.00  0.00    -0.248 NA
ATOM     55  C   UNL A   1      46.443  31.024  30.931  1.00  0.00     0.031 C 
ATOM     56  C   UNL A   1      46.605  25.335  28.818  1.00  0.00     0.029 A 
ATOM     57  C   UNL A   1      46.158  26.586  29.211  1.00  0.00     0.049 A 
ATOM     58  H   UNL A   1      44.191  27.348  29.237  1.00  0.00     0.167 HD
ATOM     59  C   UNL A   1      46.415  28.897  30.073  1.00  0.00     0.074 A 
ATOM     60  C   UNL A   1      47.207  30.001  30.578  1.00  0.00     0.031 C 
ATOM     61  C   UNL A   1      46.930  27.695  29.712  1.00  0.00     0.037 A 
BRANCH  48  62
ATOM     62  C   UNL A   1      42.724  23.649  27.673  1.00  0.00     0.058 A 
ATOM     63  C   UNL A   1      42.730  23.397  26.291  1.00  0.00     0.135 A 
ATOM     64  C   UNL A   1      42.522  22.560  28.535  1.00  0.00     0.135 A 
ATOM     65  F   UNL A   1      42.899  24.405  25.420  1.00  0.00    -0.206 F 
ATOM     66  C   UNL A   1      42.539  22.116  25.783  1.00  0.00     0.059 A 
ATOM     67  C   UNL A   1      42.356  21.265  28.051  1.00  0.00     0.059 A 
ATOM     68  F   UNL A   1      42.501  22.744  29.865  1.00  0.00    -0.206 F 
ATOM     69  C   UNL A   1      42.362  21.054  26.673  1.00  0.00     0.060 A 
BRANCH  69  70
ATOM     70  S   UNL A   1      42.163  19.393  25.994  1.00  0.00     0.124 S 
ATOM     71  O   UNL A   1      40.726  19.351  25.739  1.00  0.00    -0.237 OA
ATOM     72  O   UNL A   1      43.016  19.437  24.812  1.00  0.00    -0.237 OA
ATOM     73  O   UNL A   1      42.633  18.527  27.071  1.00  0.00    -0.744 OA
ENDBRANCH  69  70
ENDBRANCH  48  62
BRANCH  49  74
ATOM     74  C   UNL A   1      44.205  32.878  31.267  1.00  0.00     0.058 A 
ATOM     75  C   UNL A   1      44.285  33.096  32.651  1.00  0.00     0.135 A 
ATOM     76  C   UNL A   1      44.320  33.994  30.424  1.00  0.00     0.135 A 
ATOM     77  F   UNL A   1      44.181  32.061  33.500  1.00  0.00    -0.206 F 
ATOM     78  C   UNL A   1      44.421  34.375  33.182  1.00  0.00     0.059 A 
ATOM     79  C   UNL A   1      44.490  35.278  30.929  1.00  0.00     0.059 A 
ATOM     80  F   UNL A   1      44.275  33.839  29.092  1.00  0.00    -0.206 F 
ATOM     81  C   UNL A   1      44.516  35.461  32.312  1.00  0.00     0.060 A 
BRANCH  81  82
ATOM     82  S   UNL A   1      44.688  37.119  33.007  1.00  0.00     0.124 S 
ATOM     83  O   UNL A   1      44.039  37.932  31.985  1.00  0.00    -0.237 OA
ATOM     84  O   UNL A   1      43.975  36.996  34.274  1.00  0.00    -0.237 OA
ATOM     85  O   UNL A   1      46.134  37.284  33.123  1.00  0.00    -0.744 OA
ENDBRANCH  81  82
ENDBRANCH  49  74
BRANCH  61  86
ATOM     86  C   UNL A   1      48.421  27.531  29.820  1.00  0.00     0.058 A 
ATOM     87  C   UNL A   1      49.029  27.067  30.998  1.00  0.00     0.135 A 
ATOM     88  C   UNL A   1      49.253  27.838  28.731  1.00  0.00     0.135 A 
ATOM     89  F   UNL A   1      48.282  26.762  32.070  1.00  0.00    -0.206 F 
ATOM     90  C   UNL A   1      50.412  26.963  31.109  1.00  0.00     0.059 A 
ATOM     91  C   UNL A   1      50.636  27.707  28.809  1.00  0.00     0.059 A 
ATOM     92  F   UNL A   1      48.724  28.271  27.575  1.00  0.00    -0.206 F 
ATOM     93  C   UNL A   1      51.207  27.291  30.010  1.00  0.00     0.060 A 
BRANCH  93  94
ATOM     94  S   UNL A   1      53.000  27.160  30.170  1.00  0.00     0.124 S 
ATOM     95  O   UNL A   1      53.425  27.243  28.776  1.00  0.00    -0.237 OA
ATOM     96  O   UNL A   1      53.325  28.315  31.001  1.00  0.00    -0.237 OA
ATOM     97  O   UNL A   1      53.191  25.862  30.808  1.00  0.00    -0.744 OA
ENDBRANCH  93  94
ENDBRANCH  61  86
ENDBRANCH  35  36
ENDBRANCH  27  30
ENDBRANCH  25  26
ENDBRANCH  24  25
ENDBRANCH   1  24
TORSDOF 18
ENDMDL
