MODEL 1
REMARK VINA RESULT:     -12.7      0.000      0.000
REMARK SMILES O=C(NCCCCNC(=O)c1ccc(-n2cc(CSc3nc4ccccc4c(=O)n3-c3ccc(Br)cc3)nn2)cc1)c1ccc(-c2c3nc(c(-c4c(F)cc(S(=O)(=O)[O-])cc4F)c4ccc([nH]4)c(-c4c(F)cc(S(=O)(=O)[O-])cc4F)c4nc(c(-c5c(F)cc(S(=O)(=O)[O-])cc5F)c5ccc2[nH]5)C=C4)C=C3)cc1
REMARK SMILES IDX 6 1 5 2 4 3 3 4 1 5 2 6 42 8 43 9 107 10 44 11 106 12 45 13
REMARK SMILES IDX 46 14 47 15 100 16 48 17 105 18 99 19 101 20 49 21 104 22
REMARK SMILES IDX 98 23 97 24 50 26 84 27 63 28 83 29 64 30 67 31 82 32 102 33
REMARK SMILES IDX 65 34 66 35 81 37 103 38 68 39 51 40 52 41 61 42 53 43 54 44
REMARK SMILES IDX 60 45 62 46 55 47 56 48 57 49 58 50 59 51 85 52 86 53 95 54
REMARK SMILES IDX 87 55 88 56 94 57 96 58 89 59 90 60 91 61 92 62 93 63 69 64
REMARK SMILES IDX 70 65 79 66 71 67 72 68 78 69 80 70 73 71 74 72 75 73 76 74
REMARK SMILES IDX 77 75 7 76 8 77 9 78 10 80 11 81 12 82 41 83 13 84 40 85
REMARK SMILES IDX 14 86 15 87 16 88 39 89 17 90 38 91 18 92 19 93 20 94 21 95
REMARK SMILES IDX 30 96 22 97 28 98 23 99 27 100 29 101 24 102 26 103 25 104
REMARK SMILES IDX 31 105 32 106 37 107 33 108 36 109 34 110 35 111
REMARK H PARENT 3 7 101 25 67 36 8 79
REMARK Flexibility Score: inf
ROOT
ATOM      1  C   UNL A   1      42.360  41.173  31.249  1.00  0.00     0.023 C 
ENDROOT
BRANCH   1   2
ATOM      2  C   UNL A   1      42.921  42.068  32.355  1.00  0.00     0.023 C 
BRANCH   2   3
ATOM      3  C   UNL A   1      42.992  41.424  33.740  1.00  0.00     0.116 C 
BRANCH   3   4
ATOM      4  N   UNL A   1      44.300  40.945  34.131  1.00  0.00    -0.352 N 
ATOM      5  O   UNL A   1      46.081  39.666  34.432  1.00  0.00    -0.269 OA
ATOM      6  C   UNL A   1      44.867  39.702  34.221  1.00  0.00     0.251 C 
ATOM      7  H   UNL A   1      44.916  41.669  34.386  1.00  0.00     0.163 HD
BRANCH   6   8
ATOM      8  C   UNL A   1      44.098  38.432  34.175  1.00  0.00     0.039 A 
ATOM      9  C   UNL A   1      43.671  37.788  33.011  1.00  0.00     0.014 A 
ATOM     10  C   UNL A   1      43.744  37.889  35.421  1.00  0.00     0.014 A 
ATOM     11  C   UNL A   1      42.782  36.725  33.080  1.00  0.00     0.010 A 
ATOM     12  C   UNL A   1      42.891  36.800  35.498  1.00  0.00     0.010 A 
ATOM     13  C   UNL A   1      42.361  36.265  34.323  1.00  0.00    -0.014 A 
BRANCH  13  14
ATOM     14  C   UNL A   1      41.414  35.157  34.365  1.00  0.00     0.031 A 
ATOM     15  C   UNL A   1      41.777  33.961  33.539  1.00  0.00     0.074 A 
ATOM     16  C   UNL A   1      40.402  35.169  35.258  1.00  0.00     0.049 A 
ATOM     17  N   UNL A   1      41.055  33.285  32.701  1.00  0.00    -0.248 NA
ATOM     18  C   UNL A   1      43.181  33.512  33.602  1.00  0.00     0.031 C 
ATOM     19  C   UNL A   1      40.145  36.167  36.304  1.00  0.00     0.029 A 
ATOM     20  N   UNL A   1      39.475  34.213  35.522  1.00  0.00    -0.354 N 
ATOM     21  C   UNL A   1      41.850  32.213  32.285  1.00  0.00     0.074 A 
ATOM     22  C   UNL A   1      43.182  32.480  32.760  1.00  0.00     0.031 C 
ATOM     23  C   UNL A   1      39.322  35.633  37.232  1.00  0.00     0.029 A 
ATOM     24  C   UNL A   1      38.906  34.316  36.785  1.00  0.00     0.049 A 
ATOM     25  H   UNL A   1      39.228  33.511  34.878  1.00  0.00     0.167 HD
ATOM     26  C   UNL A   1      41.335  31.070  31.753  1.00  0.00     0.037 A 
ATOM     27  C   UNL A   1      38.255  33.334  37.458  1.00  0.00     0.037 A 
ATOM     28  C   UNL A   1      40.013  31.262  31.230  1.00  0.00     0.049 A 
ATOM     29  C   UNL A   1      37.854  32.308  36.460  1.00  0.00     0.074 A 
ATOM     30  C   UNL A   1      39.470  32.045  30.231  1.00  0.00     0.029 A 
ATOM     31  N   UNL A   1      38.944  30.825  31.974  1.00  0.00    -0.354 N 
ATOM     32  N   UNL A   1      36.996  32.520  35.496  1.00  0.00    -0.248 NA
ATOM     33  C   UNL A   1      38.751  31.181  36.253  1.00  0.00     0.031 C 
ATOM     34  C   UNL A   1      38.195  32.446  30.728  1.00  0.00     0.029 A 
ATOM     35  C   UNL A   1      38.028  31.847  31.978  1.00  0.00     0.049 A 
ATOM     36  H   UNL A   1      38.853  29.951  32.418  1.00  0.00     0.167 HD
ATOM     37  C   UNL A   1      37.497  31.823  34.405  1.00  0.00     0.074 A 
ATOM     38  C   UNL A   1      38.538  30.958  34.954  1.00  0.00     0.031 C 
ATOM     39  C   UNL A   1      37.219  32.205  33.122  1.00  0.00     0.037 A 
BRANCH  26  40
ATOM     40  C   UNL A   1      41.922  29.701  32.001  1.00  0.00     0.058 A 
ATOM     41  C   UNL A   1      41.903  29.143  33.294  1.00  0.00     0.135 A 
ATOM     42  C   UNL A   1      42.753  29.044  31.064  1.00  0.00     0.135 A 
ATOM     43  F   UNL A   1      41.160  29.695  34.265  1.00  0.00    -0.206 F 
ATOM     44  C   UNL A   1      42.701  28.051  33.646  1.00  0.00     0.059 A 
ATOM     45  C   UNL A   1      43.513  27.924  31.377  1.00  0.00     0.059 A 
ATOM     46  F   UNL A   1      42.940  29.521  29.825  1.00  0.00    -0.206 F 
ATOM     47  C   UNL A   1      43.517  27.462  32.683  1.00  0.00     0.060 A 
BRANCH  47  48
ATOM     48  S   UNL A   1      44.650  26.144  33.163  1.00  0.00     0.124 S 
ATOM     49  O   UNL A   1      45.943  26.789  32.964  1.00  0.00    -0.237 OA
ATOM     50  O   UNL A   1      44.264  25.899  34.548  1.00  0.00    -0.237 OA
ATOM     51  O   UNL A   1      44.329  25.069  32.229  1.00  0.00    -0.744 OA
ENDBRANCH  47  48
ENDBRANCH  26  40
BRANCH  27  52
ATOM     52  C   UNL A   1      38.372  33.054  38.916  1.00  0.00     0.058 A 
ATOM     53  C   UNL A   1      37.258  32.693  39.691  1.00  0.00     0.135 A 
ATOM     54  C   UNL A   1      39.632  32.899  39.536  1.00  0.00     0.135 A 
ATOM     55  F   UNL A   1      36.024  32.769  39.171  1.00  0.00    -0.206 F 
ATOM     56  C   UNL A   1      37.385  32.194  40.994  1.00  0.00     0.059 A 
ATOM     57  C   UNL A   1      39.783  32.421  40.835  1.00  0.00     0.059 A 
ATOM     58  F   UNL A   1      40.770  33.125  38.864  1.00  0.00    -0.206 F 
ATOM     59  C   UNL A   1      38.656  32.052  41.555  1.00  0.00     0.060 A 
BRANCH  59  60
ATOM     60  S   UNL A   1      38.841  31.282  43.180  1.00  0.00     0.124 S 
ATOM     61  O   UNL A   1      38.325  32.321  44.066  1.00  0.00    -0.237 OA
ATOM     62  O   UNL A   1      38.015  30.087  43.051  1.00  0.00    -0.237 OA
ATOM     63  O   UNL A   1      40.277  31.037  43.280  1.00  0.00    -0.744 OA
ENDBRANCH  59  60
ENDBRANCH  27  52
BRANCH  39  64
ATOM     64  C   UNL A   1      36.183  33.279  32.903  1.00  0.00     0.058 A 
ATOM     65  C   UNL A   1      36.414  34.642  33.165  1.00  0.00     0.135 A 
ATOM     66  C   UNL A   1      34.996  32.952  32.235  1.00  0.00     0.135 A 
ATOM     67  F   UNL A   1      37.572  35.055  33.692  1.00  0.00    -0.206 F 
ATOM     68  C   UNL A   1      35.492  35.630  32.815  1.00  0.00     0.059 A 
ATOM     69  C   UNL A   1      34.075  33.924  31.847  1.00  0.00     0.059 A 
ATOM     70  F   UNL A   1      34.749  31.678  31.889  1.00  0.00    -0.206 F 
ATOM     71  C   UNL A   1      34.326  35.261  32.150  1.00  0.00     0.060 A 
BRANCH  71  72
ATOM     72  S   UNL A   1      33.189  36.555  31.603  1.00  0.00     0.124 S 
ATOM     73  O   UNL A   1      33.853  37.766  32.071  1.00  0.00    -0.237 OA
ATOM     74  O   UNL A   1      33.164  36.364  30.155  1.00  0.00    -0.237 OA
ATOM     75  O   UNL A   1      31.942  36.221  32.287  1.00  0.00    -0.744 OA
ENDBRANCH  71  72
ENDBRANCH  39  64
ENDBRANCH  13  14
ENDBRANCH   6   8
ENDBRANCH   3   4
ENDBRANCH   2   3
ENDBRANCH   1   2
BRANCH   1  76
ATOM     76  C   UNL A   1      43.375  40.688  30.221  1.00  0.00     0.116 C 
BRANCH  76  77
ATOM     77  N   UNL A   1      43.214  39.284  29.877  1.00  0.00    -0.352 N 
ATOM     78  C   UNL A   1      42.981  38.716  28.643  1.00  0.00     0.251 C 
ATOM     79  H   UNL A   1      43.281  38.652  30.629  1.00  0.00     0.163 HD
ATOM     80  O   UNL A   1      42.836  37.521  28.511  1.00  0.00    -0.269 OA
BRANCH  78  81
ATOM     81  C   UNL A   1      42.889  39.609  27.472  1.00  0.00     0.039 A 
ATOM     82  C   UNL A   1      41.622  40.012  27.037  1.00  0.00     0.016 A 
ATOM     83  C   UNL A   1      44.048  40.062  26.837  1.00  0.00     0.016 A 
ATOM     84  C   UNL A   1      41.505  40.941  26.001  1.00  0.00     0.029 A 
ATOM     85  C   UNL A   1      43.936  40.959  25.782  1.00  0.00     0.029 A 
ATOM     86  C   UNL A   1      42.663  41.400  25.370  1.00  0.00     0.066 A 
BRANCH  86  87
ATOM     87  N   UNL A   1      42.560  42.232  24.242  1.00  0.00    -0.220 N 
ATOM     88  C   UNL A   1      41.765  41.986  23.158  1.00  0.00     0.141 A 
ATOM     89  N   UNL A   1      43.213  43.398  24.063  1.00  0.00    -0.062 NA
ATOM     90  C   UNL A   1      41.969  43.024  22.288  1.00  0.00     0.093 A 
ATOM     91  N   UNL A   1      42.915  43.852  22.843  1.00  0.00    -0.134 NA
BRANCH  90  92
ATOM     92  C   UNL A   1      41.523  43.150  20.883  1.00  0.00     0.138 C 
BRANCH  92  93
ATOM     93  S   UNL A   1      42.630  43.052  19.473  1.00  0.00    -0.081 SA
BRANCH  93  94
ATOM     94  C   UNL A   1      43.252  44.601  18.970  1.00  0.00     0.176 A 
ATOM     95  N   UNL A   1      42.362  45.284  18.308  1.00  0.00    -0.223 NA
ATOM     96  N   UNL A   1      44.513  45.118  19.241  1.00  0.00    -0.255 N 
ATOM     97  C   UNL A   1      42.729  46.518  17.763  1.00  0.00     0.079 A 
ATOM     98  C   UNL A   1      45.027  45.917  18.208  1.00  0.00     0.266 A 
ATOM     99  C   UNL A   1      41.768  47.434  17.334  1.00  0.00     0.029 A 
ATOM    100  C   UNL A   1      44.066  46.809  17.549  1.00  0.00     0.066 A 
ATOM    101  O   UNL A   1      46.189  45.924  17.805  1.00  0.00    -0.268 OA
ATOM    102  C   UNL A   1      42.153  48.593  16.649  1.00  0.00     0.002 A 
ATOM    103  C   UNL A   1      44.467  47.932  16.820  1.00  0.00     0.016 A 
ATOM    104  C   UNL A   1      43.500  48.825  16.361  1.00  0.00     0.001 A 
BRANCH  96 105
ATOM    105  C   UNL A   1      45.352  44.871  20.401  1.00  0.00     0.051 A 
ATOM    106  C   UNL A   1      45.942  43.602  20.590  1.00  0.00     0.028 A 
ATOM    107  C   UNL A   1      45.621  45.814  21.402  1.00  0.00     0.028 A 
ATOM    108  C   UNL A   1      46.516  43.215  21.806  1.00  0.00     0.018 A 
ATOM    109  C   UNL A   1      46.148  45.426  22.646  1.00  0.00     0.018 A 
ATOM    110  C   UNL A   1      46.550  44.114  22.856  1.00  0.00     0.018 A 
ATOM    111  Br  UNL A   1      47.102  43.546  24.567  1.00  0.00    -0.051 Br
ENDBRANCH  96 105
ENDBRANCH  93  94
ENDBRANCH  92  93
ENDBRANCH  90  92
ENDBRANCH  86  87
ENDBRANCH  78  81
ENDBRANCH  76  77
ENDBRANCH   1  76
TORSDOF 19
ENDMDL
MODEL 2
REMARK VINA RESULT:     -12.3      5.268      9.831
REMARK SMILES O=C(NCCCCNC(=O)c1ccc(-n2cc(CSc3nc4ccccc4c(=O)n3-c3ccc(Br)cc3)nn2)cc1)c1ccc(-c2c3nc(c(-c4c(F)cc(S(=O)(=O)[O-])cc4F)c4ccc([nH]4)c(-c4c(F)cc(S(=O)(=O)[O-])cc4F)c4nc(c(-c5c(F)cc(S(=O)(=O)[O-])cc5F)c5ccc2[nH]5)C=C4)C=C3)cc1
REMARK SMILES IDX 6 1 5 2 4 3 3 4 1 5 2 6 42 8 43 9 107 10 44 11 106 12 45 13
REMARK SMILES IDX 46 14 47 15 100 16 48 17 105 18 99 19 101 20 49 21 104 22
REMARK SMILES IDX 98 23 97 24 50 26 84 27 63 28 83 29 64 30 67 31 82 32 102 33
REMARK SMILES IDX 65 34 66 35 81 37 103 38 68 39 51 40 52 41 61 42 53 43 54 44
REMARK SMILES IDX 60 45 62 46 55 47 56 48 57 49 58 50 59 51 85 52 86 53 95 54
REMARK SMILES IDX 87 55 88 56 94 57 96 58 89 59 90 60 91 61 92 62 93 63 69 64
REMARK SMILES IDX 70 65 79 66 71 67 72 68 78 69 80 70 73 71 74 72 75 73 76 74
REMARK SMILES IDX 77 75 7 76 8 77 9 78 10 80 11 81 12 82 41 83 13 84 40 85
REMARK SMILES IDX 14 86 15 87 16 88 39 89 17 90 38 91 18 92 19 93 20 94 21 95
REMARK SMILES IDX 30 96 22 97 28 98 23 99 27 100 29 101 24 102 26 103 25 104
REMARK SMILES IDX 31 105 32 106 37 107 33 108 36 109 34 110 35 111
REMARK H PARENT 3 7 101 25 67 36 8 79
REMARK Flexibility Score: inf
ROOT
ATOM      1  C   UNL A   1      45.371  39.159  30.139  1.00  0.00     0.023 C 
ENDROOT
BRANCH   1   2
ATOM      2  C   UNL A   1      45.600  40.357  31.062  1.00  0.00     0.023 C 
BRANCH   2   3
ATOM      3  C   UNL A   1      44.601  40.493  32.212  1.00  0.00     0.116 C 
BRANCH   3   4
ATOM      4  N   UNL A   1      45.163  40.337  33.537  1.00  0.00    -0.352 N 
ATOM      5  O   UNL A   1      45.919  39.461  35.424  1.00  0.00    -0.269 OA
ATOM      6  C   UNL A   1      45.196  39.306  34.437  1.00  0.00     0.251 C 
ATOM      7  H   UNL A   1      45.618  41.147  33.861  1.00  0.00     0.163 HD
BRANCH   6   8
ATOM      8  C   UNL A   1      44.358  38.084  34.334  1.00  0.00     0.039 A 
ATOM      9  C   UNL A   1      43.870  37.536  33.146  1.00  0.00     0.014 A 
ATOM     10  C   UNL A   1      44.001  37.487  35.555  1.00  0.00     0.014 A 
ATOM     11  C   UNL A   1      42.925  36.520  33.173  1.00  0.00     0.010 A 
ATOM     12  C   UNL A   1      43.091  36.443  35.588  1.00  0.00     0.010 A 
ATOM     13  C   UNL A   1      42.507  36.009  34.397  1.00  0.00    -0.014 A 
BRANCH  13  14
ATOM     14  C   UNL A   1      41.500  34.953  34.398  1.00  0.00     0.031 A 
ATOM     15  C   UNL A   1      41.861  33.714  33.638  1.00  0.00     0.074 A 
ATOM     16  C   UNL A   1      40.426  35.048  35.208  1.00  0.00     0.049 A 
ATOM     17  N   UNL A   1      41.169  33.048  32.766  1.00  0.00    -0.248 NA
ATOM     18  C   UNL A   1      43.230  33.195  33.824  1.00  0.00     0.031 C 
ATOM     19  C   UNL A   1      40.144  36.092  36.201  1.00  0.00     0.029 A 
ATOM     20  N   UNL A   1      39.430  34.150  35.427  1.00  0.00    -0.354 N 
ATOM     21  C   UNL A   1      41.935  31.923  32.445  1.00  0.00     0.074 A 
ATOM     22  C   UNL A   1      43.239  32.137  33.015  1.00  0.00     0.031 C 
ATOM     23  C   UNL A   1      39.224  35.633  37.076  1.00  0.00     0.029 A 
ATOM     24  C   UNL A   1      38.773  34.324  36.637  1.00  0.00     0.049 A 
ATOM     25  H   UNL A   1      39.196  33.440  34.786  1.00  0.00     0.167 HD
ATOM     26  C   UNL A   1      41.402  30.791  31.908  1.00  0.00     0.037 A 
ATOM     27  C   UNL A   1      38.020  33.400  37.286  1.00  0.00     0.037 A 
ATOM     28  C   UNL A   1      40.136  31.033  31.278  1.00  0.00     0.049 A 
ATOM     29  C   UNL A   1      37.642  32.363  36.289  1.00  0.00     0.074 A 
ATOM     30  C   UNL A   1      39.714  31.810  30.216  1.00  0.00     0.029 A 
ATOM     31  N   UNL A   1      38.991  30.677  31.948  1.00  0.00    -0.354 N 
ATOM     32  N   UNL A   1      36.873  32.587  35.256  1.00  0.00    -0.248 NA
ATOM     33  C   UNL A   1      38.490  31.185  36.187  1.00  0.00     0.031 C 
ATOM     34  C   UNL A   1      38.429  32.292  30.601  1.00  0.00     0.029 A 
ATOM     35  C   UNL A   1      38.133  31.744  31.850  1.00  0.00     0.049 A 
ATOM     36  H   UNL A   1      38.819  29.824  32.409  1.00  0.00     0.167 HD
ATOM     37  C   UNL A   1      37.418  31.829  34.228  1.00  0.00     0.074 A 
ATOM     38  C   UNL A   1      38.365  30.930  34.882  1.00  0.00     0.031 C 
ATOM     39  C   UNL A   1      37.260  32.181  32.917  1.00  0.00     0.037 A 
BRANCH  26  40
ATOM     40  C   UNL A   1      41.893  29.402  32.241  1.00  0.00     0.058 A 
ATOM     41  C   UNL A   1      41.780  28.904  33.553  1.00  0.00     0.135 A 
ATOM     42  C   UNL A   1      42.726  28.658  31.374  1.00  0.00     0.135 A 
ATOM     43  F   UNL A   1      41.028  29.542  34.463  1.00  0.00    -0.206 F 
ATOM     44  C   UNL A   1      42.494  27.785  33.989  1.00  0.00     0.059 A 
ATOM     45  C   UNL A   1      43.402  27.511  31.771  1.00  0.00     0.059 A 
ATOM     46  F   UNL A   1      42.999  29.067  30.128  1.00  0.00    -0.206 F 
ATOM     47  C   UNL A   1      43.317  27.108  33.093  1.00  0.00     0.060 A 
BRANCH  47  48
ATOM     48  S   UNL A   1      44.346  25.749  33.683  1.00  0.00     0.124 S 
ATOM     49  O   UNL A   1      43.495  25.172  34.718  1.00  0.00    -0.237 OA
ATOM     50  O   UNL A   1      44.516  24.949  32.476  1.00  0.00    -0.237 OA
ATOM     51  O   UNL A   1      45.551  26.423  34.158  1.00  0.00    -0.744 OA
ENDBRANCH  47  48
ENDBRANCH  26  40
BRANCH  27  52
ATOM     52  C   UNL A   1      38.010  33.164  38.756  1.00  0.00     0.058 A 
ATOM     53  C   UNL A   1      36.828  32.844  39.445  1.00  0.00     0.135 A 
ATOM     54  C   UNL A   1      39.211  33.008  39.484  1.00  0.00     0.135 A 
ATOM     55  F   UNL A   1      35.644  32.924  38.821  1.00  0.00    -0.206 F 
ATOM     56  C   UNL A   1      36.837  32.384  40.768  1.00  0.00     0.059 A 
ATOM     57  C   UNL A   1      39.244  32.567  40.805  1.00  0.00     0.059 A 
ATOM     58  F   UNL A   1      40.404  33.195  38.903  1.00  0.00    -0.206 F 
ATOM     59  C   UNL A   1      38.054  32.239  41.437  1.00  0.00     0.060 A 
BRANCH  59  60
ATOM     60  S   UNL A   1      38.088  31.516  43.095  1.00  0.00     0.124 S 
ATOM     61  O   UNL A   1      37.055  32.286  43.780  1.00  0.00    -0.237 OA
ATOM     62  O   UNL A   1      37.770  30.118  42.828  1.00  0.00    -0.237 OA
ATOM     63  O   UNL A   1      39.454  31.767  43.548  1.00  0.00    -0.744 OA
ENDBRANCH  59  60
ENDBRANCH  27  52
BRANCH  39  64
ATOM     64  C   UNL A   1      36.304  33.300  32.586  1.00  0.00     0.058 A 
ATOM     65  C   UNL A   1      34.987  33.085  32.138  1.00  0.00     0.135 A 
ATOM     66  C   UNL A   1      36.658  34.616  32.910  1.00  0.00     0.135 A 
ATOM     67  F   UNL A   1      34.528  31.848  31.920  1.00  0.00    -0.206 F 
ATOM     68  C   UNL A   1      34.078  34.132  31.982  1.00  0.00     0.059 A 
ATOM     69  C   UNL A   1      35.758  35.674  32.792  1.00  0.00     0.059 A 
ATOM     70  F   UNL A   1      37.876  34.878  33.413  1.00  0.00    -0.206 F 
ATOM     71  C   UNL A   1      34.471  35.425  32.319  1.00  0.00     0.060 A 
BRANCH  71  72
ATOM     72  S   UNL A   1      33.257  36.760  32.218  1.00  0.00     0.124 S 
ATOM     73  O   UNL A   1      33.866  37.793  33.048  1.00  0.00    -0.237 OA
ATOM     74  O   UNL A   1      33.214  37.041  30.785  1.00  0.00    -0.237 OA
ATOM     75  O   UNL A   1      32.043  36.156  32.761  1.00  0.00    -0.744 OA
ENDBRANCH  71  72
ENDBRANCH  39  64
ENDBRANCH  13  14
ENDBRANCH   6   8
ENDBRANCH   3   4
ENDBRANCH   2   3
ENDBRANCH   1   2
BRANCH   1  76
ATOM     76  C   UNL A   1      43.933  38.948  29.684  1.00  0.00     0.116 C 
BRANCH  76  77
ATOM     77  N   UNL A   1      43.620  39.634  28.441  1.00  0.00    -0.352 N 
ATOM     78  C   UNL A   1      43.536  39.119  27.165  1.00  0.00     0.251 C 
ATOM     79  H   UNL A   1      43.443  40.600  28.521  1.00  0.00     0.163 HD
ATOM     80  O   UNL A   1      43.294  39.824  26.211  1.00  0.00    -0.269 OA
BRANCH  78  81
ATOM     81  C   UNL A   1      43.771  37.674  26.981  1.00  0.00     0.039 A 
ATOM     82  C   UNL A   1      45.092  37.214  26.933  1.00  0.00     0.016 A 
ATOM     83  C   UNL A   1      42.694  36.789  26.888  1.00  0.00     0.016 A 
ATOM     84  C   UNL A   1      45.348  35.843  26.868  1.00  0.00     0.029 A 
ATOM     85  C   UNL A   1      42.944  35.426  26.787  1.00  0.00     0.029 A 
ATOM     86  C   UNL A   1      44.273  34.957  26.782  1.00  0.00     0.066 A 
BRANCH  86  87
ATOM     87  N   UNL A   1      44.512  33.585  26.585  1.00  0.00    -0.220 N 
ATOM     88  C   UNL A   1      43.820  32.575  27.192  1.00  0.00     0.141 A 
ATOM     89  N   UNL A   1      45.444  33.060  25.763  1.00  0.00    -0.062 NA
ATOM     90  C   UNL A   1      44.373  31.406  26.741  1.00  0.00     0.093 A 
ATOM     91  N   UNL A   1      45.415  31.733  25.907  1.00  0.00    -0.134 NA
BRANCH  90  92
ATOM     92  C   UNL A   1      44.146  30.030  27.234  1.00  0.00     0.138 C 
BRANCH  92  93
ATOM     93  S   UNL A   1      43.157  28.809  26.365  1.00  0.00    -0.081 SA
BRANCH  93  94
ATOM     94  C   UNL A   1      42.794  27.399  27.325  1.00  0.00     0.176 A 
ATOM     95  N   UNL A   1      43.869  26.717  27.600  1.00  0.00    -0.223 NA
ATOM     96  N   UNL A   1      41.547  27.016  27.800  1.00  0.00    -0.255 N 
ATOM     97  C   UNL A   1      43.740  25.511  28.296  1.00  0.00     0.079 A 
ATOM     98  C   UNL A   1      41.367  25.625  27.854  1.00  0.00     0.266 A 
ATOM     99  C   UNL A   1      44.842  24.903  28.900  1.00  0.00     0.029 A 
ATOM    100  C   UNL A   1      42.525  24.848  28.311  1.00  0.00     0.066 A 
ATOM    101  O   UNL A   1      40.348  25.012  27.542  1.00  0.00    -0.268 OA
ATOM    102  C   UNL A   1      44.725  23.623  29.455  1.00  0.00     0.002 A 
ATOM    103  C   UNL A   1      42.402  23.547  28.810  1.00  0.00     0.016 A 
ATOM    104  C   UNL A   1      43.515  22.931  29.378  1.00  0.00     0.001 A 
BRANCH  96 105
ATOM    105  C   UNL A   1      40.427  27.867  28.164  1.00  0.00     0.051 A 
ATOM    106  C   UNL A   1      39.741  27.650  29.380  1.00  0.00     0.028 A 
ATOM    107  C   UNL A   1      39.933  28.913  27.374  1.00  0.00     0.028 A 
ATOM    108  C   UNL A   1      38.501  28.236  29.656  1.00  0.00     0.018 A 
ATOM    109  C   UNL A   1      38.665  29.471  27.612  1.00  0.00     0.018 A 
ATOM    110  C   UNL A   1      37.934  29.092  28.730  1.00  0.00     0.018 A 
ATOM    111  Br  UNL A   1      36.167  29.707  28.970  1.00  0.00    -0.051 Br
ENDBRANCH  96 105
ENDBRANCH  93  94
ENDBRANCH  92  93
ENDBRANCH  90  92
ENDBRANCH  86  87
ENDBRANCH  78  81
ENDBRANCH  76  77
ENDBRANCH   1  76
TORSDOF 19
ENDMDL
MODEL 3
REMARK VINA RESULT:     -12.3     10.010     15.877
REMARK SMILES O=C(NCCCCNC(=O)c1ccc(-n2cc(CSc3nc4ccccc4c(=O)n3-c3ccc(Br)cc3)nn2)cc1)c1ccc(-c2c3nc(c(-c4c(F)cc(S(=O)(=O)[O-])cc4F)c4ccc([nH]4)c(-c4c(F)cc(S(=O)(=O)[O-])cc4F)c4nc(c(-c5c(F)cc(S(=O)(=O)[O-])cc5F)c5ccc2[nH]5)C=C4)C=C3)cc1
REMARK SMILES IDX 6 1 5 2 4 3 3 4 1 5 2 6 42 8 43 9 107 10 44 11 106 12 45 13
REMARK SMILES IDX 46 14 47 15 100 16 48 17 105 18 99 19 101 20 49 21 104 22
REMARK SMILES IDX 98 23 97 24 50 26 84 27 63 28 83 29 64 30 67 31 82 32 102 33
REMARK SMILES IDX 65 34 66 35 81 37 103 38 68 39 51 40 52 41 61 42 53 43 54 44
REMARK SMILES IDX 60 45 62 46 55 47 56 48 57 49 58 50 59 51 85 52 86 53 95 54
REMARK SMILES IDX 87 55 88 56 94 57 96 58 89 59 90 60 91 61 92 62 93 63 69 64
REMARK SMILES IDX 70 65 79 66 71 67 72 68 78 69 80 70 73 71 74 72 75 73 76 74
REMARK SMILES IDX 77 75 7 76 8 77 9 78 10 80 11 81 12 82 41 83 13 84 40 85
REMARK SMILES IDX 14 86 15 87 16 88 39 89 17 90 38 91 18 92 19 93 20 94 21 95
REMARK SMILES IDX 30 96 22 97 28 98 23 99 27 100 29 101 24 102 26 103 25 104
REMARK SMILES IDX 31 105 32 106 37 107 33 108 36 109 34 110 35 111
REMARK H PARENT 3 7 101 25 67 36 8 79
REMARK Flexibility Score: inf
ROOT
ATOM      1  C   UNL A   1      35.934  22.643  25.038  1.00  0.00     0.023 C 
ENDROOT
BRANCH   1   2
ATOM      2  C   UNL A   1      36.491  23.758  25.925  1.00  0.00     0.023 C 
BRANCH   2   3
ATOM      3  C   UNL A   1      38.015  23.783  26.059  1.00  0.00     0.116 C 
BRANCH   3   4
ATOM      4  N   UNL A   1      38.656  22.485  26.043  1.00  0.00    -0.352 N 
ATOM      5  O   UNL A   1      40.005  20.787  26.483  1.00  0.00    -0.269 OA
ATOM      6  C   UNL A   1      39.845  22.009  26.525  1.00  0.00     0.251 C 
ATOM      7  H   UNL A   1      38.121  21.796  25.588  1.00  0.00     0.163 HD
BRANCH   6   8
ATOM      8  C   UNL A   1      40.959  22.873  26.993  1.00  0.00     0.039 A 
ATOM      9  C   UNL A   1      42.318  22.616  26.800  1.00  0.00     0.014 A 
ATOM     10  C   UNL A   1      40.580  24.005  27.734  1.00  0.00     0.014 A 
ATOM     11  C   UNL A   1      43.279  23.370  27.457  1.00  0.00     0.010 A 
ATOM     12  C   UNL A   1      41.537  24.790  28.358  1.00  0.00     0.010 A 
ATOM     13  C   UNL A   1      42.881  24.427  28.269  1.00  0.00    -0.014 A 
BRANCH  13  14
ATOM     14  C   UNL A   1      43.911  25.193  28.961  1.00  0.00     0.031 A 
ATOM     15  C   UNL A   1      44.078  24.886  30.418  1.00  0.00     0.074 A 
ATOM     16  C   UNL A   1      44.767  25.962  28.257  1.00  0.00     0.049 A 
ATOM     17  N   UNL A   1      44.155  25.694  31.429  1.00  0.00    -0.248 NA
ATOM     18  C   UNL A   1      44.074  23.461  30.802  1.00  0.00     0.031 C 
ATOM     19  C   UNL A   1      44.859  26.090  26.796  1.00  0.00     0.029 A 
ATOM     20  N   UNL A   1      45.839  26.676  28.688  1.00  0.00    -0.354 N 
ATOM     21  C   UNL A   1      44.406  24.890  32.545  1.00  0.00     0.074 A 
ATOM     22  C   UNL A   1      44.210  23.529  32.125  1.00  0.00     0.031 C 
ATOM     23  C   UNL A   1      46.065  26.602  26.473  1.00  0.00     0.029 A 
ATOM     24  C   UNL A   1      46.772  26.943  27.694  1.00  0.00     0.049 A 
ATOM     25  H   UNL A   1      45.945  26.977  29.619  1.00  0.00     0.167 HD
ATOM     26  C   UNL A   1      44.960  25.368  33.694  1.00  0.00     0.037 A 
ATOM     27  C   UNL A   1      48.070  27.292  27.881  1.00  0.00     0.037 A 
ATOM     28  C   UNL A   1      44.807  26.790  33.820  1.00  0.00     0.049 A 
ATOM     29  C   UNL A   1      48.196  27.784  29.279  1.00  0.00     0.074 A 
ATOM     30  C   UNL A   1      43.725  27.644  33.912  1.00  0.00     0.029 A 
ATOM     31  N   UNL A   1      45.884  27.593  33.536  1.00  0.00    -0.354 N 
ATOM     32  N   UNL A   1      47.611  28.862  29.730  1.00  0.00    -0.248 NA
ATOM     33  C   UNL A   1      48.603  26.827  30.296  1.00  0.00     0.031 C 
ATOM     34  C   UNL A   1      44.111  28.807  33.184  1.00  0.00     0.029 A 
ATOM     35  C   UNL A   1      45.416  28.603  32.733  1.00  0.00     0.049 A 
ATOM     36  H   UNL A   1      46.810  27.469  33.847  1.00  0.00     0.167 HD
ATOM     37  C   UNL A   1      47.220  28.547  31.025  1.00  0.00     0.074 A 
ATOM     38  C   UNL A   1      47.925  27.307  31.342  1.00  0.00     0.031 C 
ATOM     39  C   UNL A   1      46.154  29.161  31.621  1.00  0.00     0.037 A 
BRANCH  26  40
ATOM     40  C   UNL A   1      45.921  24.575  34.546  1.00  0.00     0.058 A 
ATOM     41  C   UNL A   1      47.226  24.310  34.088  1.00  0.00     0.135 A 
ATOM     42  C   UNL A   1      45.506  23.828  35.673  1.00  0.00     0.135 A 
ATOM     43  F   UNL A   1      47.716  24.952  33.016  1.00  0.00    -0.206 F 
ATOM     44  C   UNL A   1      48.035  23.329  34.668  1.00  0.00     0.059 A 
ATOM     45  C   UNL A   1      46.314  22.886  36.299  1.00  0.00     0.059 A 
ATOM     46  F   UNL A   1      44.259  23.908  36.157  1.00  0.00    -0.206 F 
ATOM     47  C   UNL A   1      47.560  22.610  35.761  1.00  0.00     0.060 A 
BRANCH  47  48
ATOM     48  S   UNL A   1      48.540  21.251  36.426  1.00  0.00     0.124 S 
ATOM     49  O   UNL A   1      49.556  21.095  35.391  1.00  0.00    -0.237 OA
ATOM     50  O   UNL A   1      49.001  21.799  37.696  1.00  0.00    -0.237 OA
ATOM     51  O   UNL A   1      47.574  20.161  36.533  1.00  0.00    -0.744 OA
ENDBRANCH  47  48
ENDBRANCH  26  40
BRANCH  27  52
ATOM     52  C   UNL A   1      49.225  26.805  27.078  1.00  0.00     0.058 A 
ATOM     53  C   UNL A   1      50.076  27.690  26.395  1.00  0.00     0.135 A 
ATOM     54  C   UNL A   1      49.665  25.465  27.162  1.00  0.00     0.135 A 
ATOM     55  F   UNL A   1      49.758  28.989  26.301  1.00  0.00    -0.206 F 
ATOM     56  C   UNL A   1      51.295  27.276  25.842  1.00  0.00     0.059 A 
ATOM     57  C   UNL A   1      50.865  25.026  26.607  1.00  0.00     0.059 A 
ATOM     58  F   UNL A   1      48.982  24.552  27.866  1.00  0.00    -0.206 F 
ATOM     59  C   UNL A   1      51.686  25.941  25.963  1.00  0.00     0.060 A 
BRANCH  59  60
ATOM     60  S   UNL A   1      53.317  25.425  25.376  1.00  0.00     0.124 S 
ATOM     61  O   UNL A   1      53.402  26.104  24.087  1.00  0.00    -0.237 OA
ATOM     62  O   UNL A   1      54.196  25.932  26.423  1.00  0.00    -0.237 OA
ATOM     63  O   UNL A   1      53.210  23.970  25.306  1.00  0.00    -0.744 OA
ENDBRANCH  59  60
ENDBRANCH  27  52
BRANCH  39  64
ATOM     64  C   UNL A   1      45.530  30.345  30.926  1.00  0.00     0.058 A 
ATOM     65  C   UNL A   1      44.484  30.231  29.991  1.00  0.00     0.135 A 
ATOM     66  C   UNL A   1      45.862  31.637  31.353  1.00  0.00     0.135 A 
ATOM     67  F   UNL A   1      44.023  29.032  29.618  1.00  0.00    -0.206 F 
ATOM     68  C   UNL A   1      43.826  31.348  29.476  1.00  0.00     0.059 A 
ATOM     69  C   UNL A   1      45.198  32.767  30.876  1.00  0.00     0.059 A 
ATOM     70  F   UNL A   1      46.800  31.811  32.299  1.00  0.00    -0.206 F 
ATOM     71  C   UNL A   1      44.186  32.614  29.930  1.00  0.00     0.060 A 
BRANCH  71  72
ATOM     72  S   UNL A   1      43.258  34.048  29.341  1.00  0.00     0.124 S 
ATOM     73  O   UNL A   1      43.902  35.145  30.055  1.00  0.00    -0.237 OA
ATOM     74  O   UNL A   1      43.492  34.007  27.900  1.00  0.00    -0.237 OA
ATOM     75  O   UNL A   1      41.887  33.756  29.749  1.00  0.00    -0.744 OA
ENDBRANCH  71  72
ENDBRANCH  39  64
ENDBRANCH  13  14
ENDBRANCH   6   8
ENDBRANCH   3   4
ENDBRANCH   2   3
ENDBRANCH   1   2
BRANCH   1  76
ATOM     76  C   UNL A   1      35.607  23.048  23.606  1.00  0.00     0.116 C 
BRANCH  76  77
ATOM     77  N   UNL A   1      34.291  22.605  23.173  1.00  0.00    -0.352 N 
ATOM     78  C   UNL A   1      33.086  23.271  23.246  1.00  0.00     0.251 C 
ATOM     79  H   UNL A   1      34.256  21.707  22.772  1.00  0.00     0.163 HD
ATOM     80  O   UNL A   1      32.055  22.761  22.871  1.00  0.00    -0.269 OA
BRANCH  78  81
ATOM     81  C   UNL A   1      33.076  24.631  23.820  1.00  0.00     0.039 A 
ATOM     82  C   UNL A   1      32.663  24.792  25.147  1.00  0.00     0.016 A 
ATOM     83  C   UNL A   1      33.501  25.722  23.058  1.00  0.00     0.016 A 
ATOM     84  C   UNL A   1      32.744  26.048  25.753  1.00  0.00     0.029 A 
ATOM     85  C   UNL A   1      33.549  26.980  23.645  1.00  0.00     0.029 A 
ATOM     86  C   UNL A   1      33.174  27.138  24.995  1.00  0.00     0.066 A 
BRANCH  86  87
ATOM     87  N   UNL A   1      33.138  28.431  25.547  1.00  0.00    -0.220 N 
ATOM     88  C   UNL A   1      33.990  28.894  26.510  1.00  0.00     0.141 A 
ATOM     89  N   UNL A   1      32.274  29.408  25.205  1.00  0.00    -0.062 NA
ATOM     90  C   UNL A   1      33.607  30.182  26.775  1.00  0.00     0.093 A 
ATOM     91  N   UNL A   1      32.505  30.456  25.999  1.00  0.00    -0.134 NA
BRANCH  90  92
ATOM     92  C   UNL A   1      34.051  31.068  27.873  1.00  0.00     0.138 C 
BRANCH  92  93
ATOM     93  S   UNL A   1      35.658  31.865  27.925  1.00  0.00    -0.081 SA
BRANCH  93  94
ATOM     94  C   UNL A   1      36.798  31.061  28.970  1.00  0.00     0.176 A 
ATOM     95  N   UNL A   1      37.711  30.429  28.289  1.00  0.00    -0.223 NA
ATOM     96  N   UNL A   1      36.811  31.083  30.359  1.00  0.00    -0.255 N 
ATOM     97  C   UNL A   1      38.657  29.665  28.979  1.00  0.00     0.079 A 
ATOM     98  C   UNL A   1      37.259  29.885  30.938  1.00  0.00     0.266 A 
ATOM     99  C   UNL A   1      39.832  29.237  28.360  1.00  0.00     0.029 A 
ATOM    100  C   UNL A   1      38.391  29.235  30.268  1.00  0.00     0.066 A 
ATOM    101  O   UNL A   1      36.783  29.335  31.929  1.00  0.00    -0.268 OA
ATOM    102  C   UNL A   1      40.689  28.343  29.013  1.00  0.00     0.002 A 
ATOM    103  C   UNL A   1      39.206  28.301  30.915  1.00  0.00     0.016 A 
ATOM    104  C   UNL A   1      40.359  27.848  30.277  1.00  0.00     0.001 A 
BRANCH  96 105
ATOM    105  C   UNL A   1      36.362  32.146  31.243  1.00  0.00     0.051 A 
ATOM    106  C   UNL A   1      35.010  32.203  31.649  1.00  0.00     0.028 A 
ATOM    107  C   UNL A   1      37.179  33.174  31.730  1.00  0.00     0.028 A 
ATOM    108  C   UNL A   1      34.457  33.336  32.255  1.00  0.00     0.018 A 
ATOM    109  C   UNL A   1      36.629  34.339  32.291  1.00  0.00     0.018 A 
ATOM    110  C   UNL A   1      35.261  34.432  32.507  1.00  0.00     0.018 A 
ATOM    111  Br  UNL A   1      34.495  36.048  33.104  1.00  0.00    -0.051 Br
ENDBRANCH  96 105
ENDBRANCH  93  94
ENDBRANCH  92  93
ENDBRANCH  90  92
ENDBRANCH  86  87
ENDBRANCH  78  81
ENDBRANCH  76  77
ENDBRANCH   1  76
TORSDOF 19
ENDMDL
