MODEL 1
REMARK VINA RESULT:     -11.6      0.000      0.000
REMARK SMILES O=C(Cn1cccc1C(=O)NCCC(=O)NC1CC1)NCCCCNC(=O)c1ccc(-c2c3nc(c(-c4c(F)cc(S(=O)(=O)[O-])cc4F)c4ccc([nH]4)c(-c4c(F)cc(S(=O)(=O)[O-])cc4F)c4nc(c(-c5c(F)cc(S(=O)(=O)[O-])cc5F)c5ccc2[nH]5)C=C4)C=C3)cc1
REMARK SMILES IDX 21 1 20 2 1 3 2 4 3 6 4 7 5 8 8 9 6 10 7 11 9 12 10 13 11 14
REMARK SMILES IDX 12 16 13 17 14 18 15 19 16 20 17 22 18 23 19 24 22 25 23 26
REMARK SMILES IDX 24 27 25 28 26 29 27 31 28 32 29 33 93 34 30 35 92 36 31 37
REMARK SMILES IDX 32 38 33 39 86 40 34 41 91 42 85 43 87 44 35 45 90 46 84 47
REMARK SMILES IDX 83 48 36 50 70 51 49 52 69 53 50 54 53 55 68 56 88 57 51 58
REMARK SMILES IDX 52 59 67 61 89 62 54 63 37 64 38 65 47 66 39 67 40 68 46 69
REMARK SMILES IDX 48 70 41 71 42 72 43 73 44 74 45 75 71 76 72 77 81 78 73 79
REMARK SMILES IDX 74 80 80 81 82 82 75 83 76 84 77 85 78 86 79 87 55 88 56 89
REMARK SMILES IDX 65 90 57 91 58 92 64 93 66 94 59 95 60 96 61 97 62 98 63 99
REMARK H PARENT 20 5 11 15 16 21 25 30 87 49 53 60
REMARK Flexibility Score: inf
ROOT
ATOM      1  C   UNL A   1      30.968  27.087  26.358  1.00  0.00     0.116 C 
ENDROOT
BRANCH   1   2
ATOM      2  N   UNL A   1      31.701  25.849  26.553  1.00  0.00    -0.355 N 
ATOM      3  O   UNL A   1      29.868  24.492  26.440  1.00  0.00    -0.273 OA
ATOM      4  C   UNL A   1      31.090  24.612  26.569  1.00  0.00     0.239 C 
ATOM      5  H   UNL A   1      32.676  25.894  26.679  1.00  0.00     0.163 HD
BRANCH   4   6
ATOM      6  C   UNL A   1      31.928  23.385  26.908  1.00  0.00     0.222 C 
BRANCH   6   7
ATOM      7  N   UNL A   1      32.449  22.599  25.802  1.00  0.00    -0.334 N 
ATOM      8  C   UNL A   1      31.805  21.428  25.441  1.00  0.00     0.087 A 
ATOM      9  C   UNL A   1      33.589  22.773  25.030  1.00  0.00     0.107 A 
ATOM     10  C   UNL A   1      32.484  20.847  24.407  1.00  0.00     0.020 A 
ATOM     11  C   UNL A   1      33.585  21.680  24.150  1.00  0.00     0.033 A 
BRANCH   9  12
ATOM     12  C   UNL A   1      34.609  23.804  24.901  1.00  0.00     0.267 C 
ATOM     13  O   UNL A   1      35.555  23.850  25.700  1.00  0.00    -0.268 OA
ATOM     14  N   UNL A   1      34.712  24.791  23.971  1.00  0.00    -0.350 N 
ATOM     15  H   UNL A   1      35.524  25.320  24.142  1.00  0.00     0.163 HD
BRANCH  14  16
ATOM     16  C   UNL A   1      34.023  25.324  22.812  1.00  0.00     0.126 C 
BRANCH  16  17
ATOM     17  C   UNL A   1      32.792  26.141  23.138  1.00  0.00     0.121 C 
BRANCH  17  18
ATOM     18  C   UNL A   1      31.962  26.342  21.896  1.00  0.00     0.221 C 
ATOM     19  O   UNL A   1      32.147  25.639  20.899  1.00  0.00    -0.275 OA
ATOM     20  N   UNL A   1      31.029  27.332  21.833  1.00  0.00    -0.353 N 
ATOM     21  H   UNL A   1      30.528  27.363  20.986  1.00  0.00     0.163 HD
BRANCH  20  22
ATOM     22  C   UNL A   1      30.651  28.331  22.776  1.00  0.00     0.082 C 
ATOM     23  C   UNL A   1      30.096  29.620  22.220  1.00  0.00     0.027 C 
ATOM     24  C   UNL A   1      29.261  28.777  23.126  1.00  0.00     0.027 C 
ENDBRANCH  20  22
ENDBRANCH  17  18
ENDBRANCH  16  17
ENDBRANCH  14  16
ENDBRANCH   9  12
ENDBRANCH   6   7
ENDBRANCH   4   6
ENDBRANCH   1   2
BRANCH   1  25
ATOM     25  C   UNL A   1      31.848  28.343  26.405  1.00  0.00     0.023 C 
BRANCH  25  26
ATOM     26  C   UNL A   1      33.078  28.309  27.326  1.00  0.00     0.023 C 
BRANCH  26  27
ATOM     27  C   UNL A   1      34.400  28.753  26.708  1.00  0.00     0.116 C 
BRANCH  27  28
ATOM     28  N   UNL A   1      34.693  30.142  27.001  1.00  0.00    -0.352 N 
ATOM     29  C   UNL A   1      35.684  30.670  27.798  1.00  0.00     0.251 C 
ATOM     30  H   UNL A   1      34.103  30.801  26.569  1.00  0.00     0.163 HD
ATOM     31  O   UNL A   1      35.533  31.801  28.246  1.00  0.00    -0.269 OA
BRANCH  29  32
ATOM     32  C   UNL A   1      36.910  29.904  28.134  1.00  0.00     0.039 A 
ATOM     33  C   UNL A   1      37.995  29.977  27.249  1.00  0.00     0.014 A 
ATOM     34  C   UNL A   1      36.978  29.052  29.242  1.00  0.00     0.014 A 
ATOM     35  C   UNL A   1      39.155  29.248  27.505  1.00  0.00     0.010 A 
ATOM     36  C   UNL A   1      38.148  28.352  29.522  1.00  0.00     0.010 A 
ATOM     37  C   UNL A   1      39.241  28.455  28.658  1.00  0.00    -0.014 A 
BRANCH  37  38
ATOM     38  C   UNL A   1      40.563  27.895  29.044  1.00  0.00     0.031 A 
ATOM     39  C   UNL A   1      40.822  26.568  28.276  1.00  0.00     0.074 A 
ATOM     40  C   UNL A   1      41.277  28.583  29.990  1.00  0.00     0.049 A 
ATOM     41  N   UNL A   1      41.329  25.435  28.667  1.00  0.00    -0.248 NA
ATOM     42  C   UNL A   1      40.295  26.457  26.883  1.00  0.00     0.031 C 
ATOM     43  C   UNL A   1      40.891  29.893  30.568  1.00  0.00     0.029 A 
ATOM     44  N   UNL A   1      42.459  28.351  30.663  1.00  0.00    -0.354 N 
ATOM     45  C   UNL A   1      41.351  24.565  27.544  1.00  0.00     0.074 A 
ATOM     46  C   UNL A   1      40.576  25.202  26.525  1.00  0.00     0.031 C 
ATOM     47  C   UNL A   1      41.750  30.276  31.540  1.00  0.00     0.029 A 
ATOM     48  C   UNL A   1      42.769  29.264  31.715  1.00  0.00     0.049 A 
ATOM     49  H   UNL A   1      43.052  27.600  30.431  1.00  0.00     0.167 HD
ATOM     50  C   UNL A   1      42.140  23.449  27.464  1.00  0.00     0.037 A 
ATOM     51  C   UNL A   1      43.710  29.147  32.712  1.00  0.00     0.037 A 
ATOM     52  C   UNL A   1      42.931  23.341  28.640  1.00  0.00     0.049 A 
ATOM     53  C   UNL A   1      44.320  27.836  32.449  1.00  0.00     0.074 A 
ATOM     54  C   UNL A   1      42.832  22.746  29.868  1.00  0.00     0.029 A 
ATOM     55  N   UNL A   1      44.093  24.065  28.604  1.00  0.00    -0.354 N 
ATOM     56  N   UNL A   1      45.132  27.546  31.482  1.00  0.00    -0.248 NA
ATOM     57  C   UNL A   1      43.756  26.714  33.197  1.00  0.00     0.031 C 
ATOM     58  C   UNL A   1      43.883  23.304  30.637  1.00  0.00     0.029 A 
ATOM     59  C   UNL A   1      44.448  24.340  29.894  1.00  0.00     0.049 A 
ATOM     60  H   UNL A   1      44.583  24.336  27.794  1.00  0.00     0.167 HD
ATOM     61  C   UNL A   1      44.967  26.188  31.319  1.00  0.00     0.074 A 
ATOM     62  C   UNL A   1      44.231  25.711  32.475  1.00  0.00     0.031 C 
ATOM     63  C   UNL A   1      45.124  25.592  30.114  1.00  0.00     0.037 A 
BRANCH  50  64
ATOM     64  C   UNL A   1      42.595  22.559  26.313  1.00  0.00     0.058 A 
ATOM     65  C   UNL A   1      42.249  21.179  26.374  1.00  0.00     0.135 A 
ATOM     66  C   UNL A   1      43.640  22.874  25.431  1.00  0.00     0.135 A 
ATOM     67  F   UNL A   1      41.201  20.765  27.105  1.00  0.00    -0.206 F 
ATOM     68  C   UNL A   1      43.001  20.178  25.766  1.00  0.00     0.059 A 
ATOM     69  C   UNL A   1      44.373  21.883  24.758  1.00  0.00     0.059 A 
ATOM     70  F   UNL A   1      44.030  24.142  25.249  1.00  0.00    -0.206 F 
ATOM     71  C   UNL A   1      44.088  20.537  24.986  1.00  0.00     0.060 A 
BRANCH  71  72
ATOM     72  S   UNL A   1      45.113  19.219  24.294  1.00  0.00     0.124 S 
ATOM     73  O   UNL A   1      44.859  18.122  25.219  1.00  0.00    -0.237 OA
ATOM     74  O   UNL A   1      44.549  19.058  22.956  1.00  0.00    -0.237 OA
ATOM     75  O   UNL A   1      46.458  19.786  24.329  1.00  0.00    -0.744 OA
ENDBRANCH  71  72
ENDBRANCH  50  64
BRANCH  51  76
ATOM     76  C   UNL A   1      44.023  29.785  34.060  1.00  0.00     0.058 A 
ATOM     77  C   UNL A   1      43.160  29.878  35.159  1.00  0.00     0.135 A 
ATOM     78  C   UNL A   1      45.350  30.242  34.333  1.00  0.00     0.135 A 
ATOM     79  F   UNL A   1      41.846  29.658  35.018  1.00  0.00    -0.206 F 
ATOM     80  C   UNL A   1      43.615  30.204  36.455  1.00  0.00     0.059 A 
ATOM     81  C   UNL A   1      45.837  30.520  35.611  1.00  0.00     0.059 A 
ATOM     82  F   UNL A   1      46.253  30.403  33.355  1.00  0.00    -0.206 F 
ATOM     83  C   UNL A   1      44.969  30.458  36.681  1.00  0.00     0.060 A 
BRANCH  83  84
ATOM     84  S   UNL A   1      45.627  30.580  38.363  1.00  0.00     0.124 S 
ATOM     85  O   UNL A   1      45.256  31.938  38.741  1.00  0.00    -0.237 OA
ATOM     86  O   UNL A   1      44.919  29.509  39.057  1.00  0.00    -0.237 OA
ATOM     87  O   UNL A   1      47.058  30.347  38.178  1.00  0.00    -0.744 OA
ENDBRANCH  83  84
ENDBRANCH  51  76
BRANCH  63  88
ATOM     88  C   UNL A   1      45.647  26.494  29.005  1.00  0.00     0.058 A 
ATOM     89  C   UNL A   1      47.014  26.747  28.875  1.00  0.00     0.135 A 
ATOM     90  C   UNL A   1      44.805  27.157  28.085  1.00  0.00     0.135 A 
ATOM     91  F   UNL A   1      47.881  26.176  29.726  1.00  0.00    -0.206 F 
ATOM     92  C   UNL A   1      47.523  27.573  27.864  1.00  0.00     0.059 A 
ATOM     93  C   UNL A   1      45.283  27.977  27.060  1.00  0.00     0.059 A 
ATOM     94  F   UNL A   1      43.480  26.999  28.152  1.00  0.00    -0.206 F 
ATOM     95  C   UNL A   1      46.652  28.176  26.953  1.00  0.00     0.060 A 
BRANCH  95  96
ATOM     96  S   UNL A   1      47.336  29.199  25.625  1.00  0.00     0.124 S 
ATOM     97  O   UNL A   1      48.665  29.525  26.135  1.00  0.00    -0.237 OA
ATOM     98  O   UNL A   1      47.305  28.286  24.487  1.00  0.00    -0.237 OA
ATOM     99  O   UNL A   1      46.413  30.328  25.542  1.00  0.00    -0.744 OA
ENDBRANCH  95  96
ENDBRANCH  63  88
ENDBRANCH  37  38
ENDBRANCH  29  32
ENDBRANCH  27  28
ENDBRANCH  26  27
ENDBRANCH  25  26
ENDBRANCH   1  25
TORSDOF 20
ENDMDL
MODEL 2
REMARK VINA RESULT:     -11.2      2.854      9.046
REMARK SMILES O=C(Cn1cccc1C(=O)NCCC(=O)NC1CC1)NCCCCNC(=O)c1ccc(-c2c3nc(c(-c4c(F)cc(S(=O)(=O)[O-])cc4F)c4ccc([nH]4)c(-c4c(F)cc(S(=O)(=O)[O-])cc4F)c4nc(c(-c5c(F)cc(S(=O)(=O)[O-])cc5F)c5ccc2[nH]5)C=C4)C=C3)cc1
REMARK SMILES IDX 21 1 20 2 1 3 2 4 3 6 4 7 5 8 8 9 6 10 7 11 9 12 10 13 11 14
REMARK SMILES IDX 12 16 13 17 14 18 15 19 16 20 17 22 18 23 19 24 22 25 23 26
REMARK SMILES IDX 24 27 25 28 26 29 27 31 28 32 29 33 93 34 30 35 92 36 31 37
REMARK SMILES IDX 32 38 33 39 86 40 34 41 91 42 85 43 87 44 35 45 90 46 84 47
REMARK SMILES IDX 83 48 36 50 70 51 49 52 69 53 50 54 53 55 68 56 88 57 51 58
REMARK SMILES IDX 52 59 67 61 89 62 54 63 37 64 38 65 47 66 39 67 40 68 46 69
REMARK SMILES IDX 48 70 41 71 42 72 43 73 44 74 45 75 71 76 72 77 81 78 73 79
REMARK SMILES IDX 74 80 80 81 82 82 75 83 76 84 77 85 78 86 79 87 55 88 56 89
REMARK SMILES IDX 65 90 57 91 58 92 64 93 66 94 59 95 60 96 61 97 62 98 63 99
REMARK H PARENT 20 5 11 15 16 21 25 30 87 49 53 60
REMARK Flexibility Score: inf
ROOT
ATOM      1  C   UNL A   1      32.334  26.134  26.387  1.00  0.00     0.116 C 
ENDROOT
BRANCH   1   2
ATOM      2  N   UNL A   1      31.755  24.806  26.276  1.00  0.00    -0.355 N 
ATOM      3  O   UNL A   1      33.653  23.690  26.881  1.00  0.00    -0.273 OA
ATOM      4  C   UNL A   1      32.464  23.655  26.548  1.00  0.00     0.239 C 
ATOM      5  H   UNL A   1      30.815  24.725  25.995  1.00  0.00     0.163 HD
BRANCH   4   6
ATOM      6  C   UNL A   1      31.805  22.308  26.279  1.00  0.00     0.222 C 
BRANCH   6   7
ATOM      7  N   UNL A   1      32.547  21.342  25.484  1.00  0.00    -0.334 N 
ATOM      8  C   UNL A   1      33.140  20.261  26.113  1.00  0.00     0.087 A 
ATOM      9  C   UNL A   1      32.857  21.335  24.132  1.00  0.00     0.107 A 
ATOM     10  C   UNL A   1      33.804  19.513  25.182  1.00  0.00     0.020 A 
ATOM     11  C   UNL A   1      33.624  20.174  23.956  1.00  0.00     0.033 A 
BRANCH   9  12
ATOM     12  C   UNL A   1      32.491  22.145  22.978  1.00  0.00     0.267 C 
ATOM     13  O   UNL A   1      31.580  21.779  22.223  1.00  0.00    -0.268 OA
ATOM     14  N   UNL A   1      33.013  23.331  22.567  1.00  0.00    -0.350 N 
ATOM     15  H   UNL A   1      32.541  23.635  21.759  1.00  0.00     0.163 HD
BRANCH  14  16
ATOM     16  C   UNL A   1      34.034  24.297  22.923  1.00  0.00     0.126 C 
BRANCH  16  17
ATOM     17  C   UNL A   1      33.562  25.734  22.920  1.00  0.00     0.121 C 
BRANCH  17  18
ATOM     18  C   UNL A   1      32.797  26.023  21.654  1.00  0.00     0.221 C 
ATOM     19  O   UNL A   1      33.258  25.699  20.555  1.00  0.00    -0.275 OA
ATOM     20  N   UNL A   1      31.609  26.688  21.692  1.00  0.00    -0.353 N 
ATOM     21  H   UNL A   1      31.181  26.805  20.813  1.00  0.00     0.163 HD
BRANCH  20  22
ATOM     22  C   UNL A   1      30.876  27.244  22.780  1.00  0.00     0.082 C 
ATOM     23  C   UNL A   1      31.052  28.721  23.038  1.00  0.00     0.027 C 
ATOM     24  C   UNL A   1      29.701  28.176  22.710  1.00  0.00     0.027 C 
ENDBRANCH  20  22
ENDBRANCH  17  18
ENDBRANCH  16  17
ENDBRANCH  14  16
ENDBRANCH   9  12
ENDBRANCH   6   7
ENDBRANCH   4   6
ENDBRANCH   1   2
BRANCH   1  25
ATOM     25  C   UNL A   1      31.300  27.245  26.611  1.00  0.00     0.023 C 
BRANCH  25  26
ATOM     26  C   UNL A   1      31.723  28.438  27.483  1.00  0.00     0.023 C 
BRANCH  26  27
ATOM     27  C   UNL A   1      33.154  28.934  27.305  1.00  0.00     0.116 C 
BRANCH  27  28
ATOM     28  N   UNL A   1      33.252  30.371  27.469  1.00  0.00    -0.352 N 
ATOM     29  C   UNL A   1      34.193  31.103  28.158  1.00  0.00     0.251 C 
ATOM     30  H   UNL A   1      32.548  30.897  27.026  1.00  0.00     0.163 HD
ATOM     31  O   UNL A   1      33.898  32.234  28.525  1.00  0.00    -0.269 OA
BRANCH  29  32
ATOM     32  C   UNL A   1      35.535  30.553  28.473  1.00  0.00     0.039 A 
ATOM     33  C   UNL A   1      36.516  30.596  27.473  1.00  0.00     0.014 A 
ATOM     34  C   UNL A   1      35.816  29.920  29.689  1.00  0.00     0.014 A 
ATOM     35  C   UNL A   1      37.781  30.062  27.711  1.00  0.00     0.010 A 
ATOM     36  C   UNL A   1      37.090  29.420  29.946  1.00  0.00     0.010 A 
ATOM     37  C   UNL A   1      38.075  29.497  28.959  1.00  0.00    -0.014 A 
BRANCH  37  38
ATOM     38  C   UNL A   1      39.489  29.169  29.280  1.00  0.00     0.031 A 
ATOM     39  C   UNL A   1      40.197  30.412  29.890  1.00  0.00     0.074 A 
ATOM     40  C   UNL A   1      39.922  27.906  28.966  1.00  0.00     0.049 A 
ATOM     41  N   UNL A   1      41.386  30.905  29.693  1.00  0.00    -0.248 NA
ATOM     42  C   UNL A   1      39.384  31.322  30.750  1.00  0.00     0.031 C 
ATOM     43  C   UNL A   1      39.065  26.814  28.444  1.00  0.00     0.029 A 
ATOM     44  N   UNL A   1      41.143  27.266  29.014  1.00  0.00    -0.354 N 
ATOM     45  C   UNL A   1      41.519  32.046  30.528  1.00  0.00     0.074 A 
ATOM     46  C   UNL A   1      40.214  32.328  31.039  1.00  0.00     0.031 C 
ATOM     47  C   UNL A   1      39.794  25.713  28.148  1.00  0.00     0.029 A 
ATOM     48  C   UNL A   1      41.192  25.968  28.423  1.00  0.00     0.049 A 
ATOM     49  H   UNL A   1      41.932  27.680  29.431  1.00  0.00     0.167 HD
ATOM     50  C   UNL A   1      42.724  32.594  30.878  1.00  0.00     0.037 A 
ATOM     51  C   UNL A   1      42.291  25.212  28.086  1.00  0.00     0.037 A 
ATOM     52  C   UNL A   1      43.778  31.825  30.313  1.00  0.00     0.049 A 
ATOM     53  C   UNL A   1      43.421  26.071  28.467  1.00  0.00     0.074 A 
ATOM     54  C   UNL A   1      44.517  31.824  29.161  1.00  0.00     0.029 A 
ATOM     55  N   UNL A   1      44.146  30.740  31.062  1.00  0.00    -0.354 N 
ATOM     56  N   UNL A   1      43.818  26.330  29.672  1.00  0.00    -0.248 NA
ATOM     57  C   UNL A   1      43.977  26.897  27.397  1.00  0.00     0.031 C 
ATOM     58  C   UNL A   1      45.201  30.584  29.160  1.00  0.00     0.029 A 
ATOM     59  C   UNL A   1      44.700  29.822  30.215  1.00  0.00     0.049 A 
ATOM     60  H   UNL A   1      44.032  30.640  32.035  1.00  0.00     0.167 HD
ATOM     61  C   UNL A   1      44.465  27.539  29.546  1.00  0.00     0.074 A 
ATOM     62  C   UNL A   1      44.657  27.769  28.125  1.00  0.00     0.031 C 
ATOM     63  C   UNL A   1      44.499  28.438  30.557  1.00  0.00     0.037 A 
BRANCH  50  64
ATOM     64  C   UNL A   1      43.166  33.564  31.968  1.00  0.00     0.058 A 
ATOM     65  C   UNL A   1      42.703  33.317  33.292  1.00  0.00     0.135 A 
ATOM     66  C   UNL A   1      43.632  34.865  31.731  1.00  0.00     0.135 A 
ATOM     67  F   UNL A   1      42.324  32.085  33.670  1.00  0.00    -0.206 F 
ATOM     68  C   UNL A   1      42.532  34.324  34.238  1.00  0.00     0.059 A 
ATOM     69  C   UNL A   1      43.528  35.883  32.694  1.00  0.00     0.059 A 
ATOM     70  F   UNL A   1      44.137  35.211  30.540  1.00  0.00    -0.206 F 
ATOM     71  C   UNL A   1      42.916  35.617  33.918  1.00  0.00     0.060 A 
BRANCH  71  72
ATOM     72  S   UNL A   1      42.588  36.926  35.121  1.00  0.00     0.124 S 
ATOM     73  O   UNL A   1      41.287  36.532  35.648  1.00  0.00    -0.237 OA
ATOM     74  O   UNL A   1      43.710  36.784  36.045  1.00  0.00    -0.237 OA
ATOM     75  O   UNL A   1      42.608  38.140  34.310  1.00  0.00    -0.744 OA
ENDBRANCH  71  72
ENDBRANCH  50  64
BRANCH  51  76
ATOM     76  C   UNL A   1      42.617  24.005  27.214  1.00  0.00     0.058 A 
ATOM     77  C   UNL A   1      42.715  23.987  25.818  1.00  0.00     0.135 A 
ATOM     78  C   UNL A   1      42.988  22.770  27.830  1.00  0.00     0.135 A 
ATOM     79  F   UNL A   1      42.236  25.002  25.085  1.00  0.00    -0.206 F 
ATOM     80  C   UNL A   1      43.311  22.920  25.113  1.00  0.00     0.059 A 
ATOM     81  C   UNL A   1      43.626  21.722  27.166  1.00  0.00     0.059 A 
ATOM     82  F   UNL A   1      42.778  22.544  29.135  1.00  0.00    -0.206 F 
ATOM     83  C   UNL A   1      43.824  21.820  25.804  1.00  0.00     0.060 A 
BRANCH  83  84
ATOM     84  S   UNL A   1      44.853  20.589  24.967  1.00  0.00     0.124 S 
ATOM     85  O   UNL A   1      44.296  19.336  25.462  1.00  0.00    -0.237 OA
ATOM     86  O   UNL A   1      44.612  20.881  23.558  1.00  0.00    -0.237 OA
ATOM     87  O   UNL A   1      46.200  20.907  25.436  1.00  0.00    -0.744 OA
ENDBRANCH  83  84
ENDBRANCH  51  76
BRANCH  63  88
ATOM     88  C   UNL A   1      43.916  27.954  31.877  1.00  0.00     0.058 A 
ATOM     89  C   UNL A   1      44.693  27.216  32.773  1.00  0.00     0.135 A 
ATOM     90  C   UNL A   1      42.573  28.171  32.256  1.00  0.00     0.135 A 
ATOM     91  F   UNL A   1      45.973  26.943  32.476  1.00  0.00    -0.206 F 
ATOM     92  C   UNL A   1      44.182  26.757  33.994  1.00  0.00     0.059 A 
ATOM     93  C   UNL A   1      42.039  27.737  33.473  1.00  0.00     0.059 A 
ATOM     94  F   UNL A   1      41.747  28.842  31.449  1.00  0.00    -0.206 F 
ATOM     95  C   UNL A   1      42.857  27.032  34.343  1.00  0.00     0.060 A 
BRANCH  95  96
ATOM     96  S   UNL A   1      42.235  26.472  35.948  1.00  0.00     0.124 S 
ATOM     97  O   UNL A   1      40.887  26.016  35.619  1.00  0.00    -0.237 OA
ATOM     98  O   UNL A   1      43.187  25.425  36.299  1.00  0.00    -0.237 OA
ATOM     99  O   UNL A   1      42.293  27.671  36.782  1.00  0.00    -0.744 OA
ENDBRANCH  95  96
ENDBRANCH  63  88
ENDBRANCH  37  38
ENDBRANCH  29  32
ENDBRANCH  27  28
ENDBRANCH  26  27
ENDBRANCH  25  26
ENDBRANCH   1  25
TORSDOF 20
ENDMDL
MODEL 3
REMARK VINA RESULT:     -11.1      3.018      9.783
REMARK SMILES O=C(Cn1cccc1C(=O)NCCC(=O)NC1CC1)NCCCCNC(=O)c1ccc(-c2c3nc(c(-c4c(F)cc(S(=O)(=O)[O-])cc4F)c4ccc([nH]4)c(-c4c(F)cc(S(=O)(=O)[O-])cc4F)c4nc(c(-c5c(F)cc(S(=O)(=O)[O-])cc5F)c5ccc2[nH]5)C=C4)C=C3)cc1
REMARK SMILES IDX 21 1 20 2 1 3 2 4 3 6 4 7 5 8 8 9 6 10 7 11 9 12 10 13 11 14
REMARK SMILES IDX 12 16 13 17 14 18 15 19 16 20 17 22 18 23 19 24 22 25 23 26
REMARK SMILES IDX 24 27 25 28 26 29 27 31 28 32 29 33 93 34 30 35 92 36 31 37
REMARK SMILES IDX 32 38 33 39 86 40 34 41 91 42 85 43 87 44 35 45 90 46 84 47
REMARK SMILES IDX 83 48 36 50 70 51 49 52 69 53 50 54 53 55 68 56 88 57 51 58
REMARK SMILES IDX 52 59 67 61 89 62 54 63 37 64 38 65 47 66 39 67 40 68 46 69
REMARK SMILES IDX 48 70 41 71 42 72 43 73 44 74 45 75 71 76 72 77 81 78 73 79
REMARK SMILES IDX 74 80 80 81 82 82 75 83 76 84 77 85 78 86 79 87 55 88 56 89
REMARK SMILES IDX 65 90 57 91 58 92 64 93 66 94 59 95 60 96 61 97 62 98 63 99
REMARK H PARENT 20 5 11 15 16 21 25 30 87 49 53 60
REMARK Flexibility Score: inf
ROOT
ATOM      1  C   UNL A   1      33.960  28.034  26.675  1.00  0.00     0.116 C 
ENDROOT
BRANCH   1   2
ATOM      2  N   UNL A   1      33.833  26.964  25.702  1.00  0.00    -0.355 N 
ATOM      3  O   UNL A   1      33.943  28.321  23.870  1.00  0.00    -0.273 OA
ATOM      4  C   UNL A   1      33.846  27.184  24.340  1.00  0.00     0.239 C 
ATOM      5  H   UNL A   1      33.735  26.040  26.029  1.00  0.00     0.163 HD
BRANCH   4   6
ATOM      6  C   UNL A   1      33.578  26.011  23.406  1.00  0.00     0.222 C 
BRANCH   6   7
ATOM      7  N   UNL A   1      32.381  25.221  23.643  1.00  0.00    -0.334 N 
ATOM      8  C   UNL A   1      31.217  25.535  22.962  1.00  0.00     0.087 A 
ATOM      9  C   UNL A   1      32.147  24.186  24.536  1.00  0.00     0.107 A 
ATOM     10  C   UNL A   1      30.224  24.687  23.366  1.00  0.00     0.020 A 
ATOM     11  C   UNL A   1      30.799  23.850  24.335  1.00  0.00     0.033 A 
BRANCH   9  12
ATOM     12  C   UNL A   1      32.960  23.402  25.456  1.00  0.00     0.267 C 
ATOM     13  O   UNL A   1      33.799  23.959  26.177  1.00  0.00    -0.268 OA
ATOM     14  N   UNL A   1      32.942  22.061  25.680  1.00  0.00    -0.350 N 
ATOM     15  H   UNL A   1      33.601  21.836  26.375  1.00  0.00     0.163 HD
BRANCH  14  16
ATOM     16  C   UNL A   1      32.275  20.852  25.237  1.00  0.00     0.126 C 
BRANCH  16  17
ATOM     17  C   UNL A   1      33.019  20.085  24.168  1.00  0.00     0.121 C 
BRANCH  17  18
ATOM     18  C   UNL A   1      34.351  19.618  24.699  1.00  0.00     0.221 C 
ATOM     19  O   UNL A   1      35.251  20.430  24.932  1.00  0.00    -0.275 OA
ATOM     20  N   UNL A   1      34.603  18.293  24.886  1.00  0.00    -0.353 N 
ATOM     21  H   UNL A   1      35.494  18.098  25.257  1.00  0.00     0.163 HD
BRANCH  20  22
ATOM     22  C   UNL A   1      33.805  17.139  24.639  1.00  0.00     0.082 C 
ATOM     23  C   UNL A   1      34.281  15.838  25.238  1.00  0.00     0.027 C 
ATOM     24  C   UNL A   1      32.948  16.393  25.620  1.00  0.00     0.027 C 
ENDBRANCH  20  22
ENDBRANCH  17  18
ENDBRANCH  16  17
ENDBRANCH  14  16
ENDBRANCH   9  12
ENDBRANCH   6   7
ENDBRANCH   4   6
ENDBRANCH   1   2
BRANCH   1  25
ATOM     25  C   UNL A   1      32.617  28.591  27.164  1.00  0.00     0.023 C 
BRANCH  25  26
ATOM     26  C   UNL A   1      32.466  30.119  27.229  1.00  0.00     0.023 C 
BRANCH  26  27
ATOM     27  C   UNL A   1      33.754  30.931  27.137  1.00  0.00     0.116 C 
BRANCH  27  28
ATOM     28  N   UNL A   1      33.727  32.085  28.014  1.00  0.00    -0.352 N 
ATOM     29  C   UNL A   1      34.465  32.328  29.151  1.00  0.00     0.251 C 
ATOM     30  H   UNL A   1      33.094  32.796  27.761  1.00  0.00     0.163 HD
ATOM     31  O   UNL A   1      34.033  33.135  29.966  1.00  0.00    -0.269 OA
BRANCH  29  32
ATOM     32  C   UNL A   1      35.748  31.631  29.415  1.00  0.00     0.039 A 
ATOM     33  C   UNL A   1      36.867  32.003  28.655  1.00  0.00     0.014 A 
ATOM     34  C   UNL A   1      35.850  30.569  30.320  1.00  0.00     0.014 A 
ATOM     35  C   UNL A   1      38.086  31.354  28.844  1.00  0.00     0.010 A 
ATOM     36  C   UNL A   1      37.074  29.944  30.539  1.00  0.00     0.010 A 
ATOM     37  C   UNL A   1      38.195  30.340  29.806  1.00  0.00    -0.014 A 
BRANCH  37  38
ATOM     38  C   UNL A   1      39.548  29.843  30.170  1.00  0.00     0.031 A 
ATOM     39  C   UNL A   1      40.302  30.917  31.005  1.00  0.00     0.074 A 
ATOM     40  C   UNL A   1      39.902  28.604  29.701  1.00  0.00     0.049 A 
ATOM     41  N   UNL A   1      41.537  31.322  30.966  1.00  0.00    -0.248 NA
ATOM     42  C   UNL A   1      39.497  31.765  31.934  1.00  0.00     0.031 C 
ATOM     43  C   UNL A   1      39.005  27.680  28.965  1.00  0.00     0.029 A 
ATOM     44  N   UNL A   1      41.060  27.855  29.737  1.00  0.00    -0.354 N 
ATOM     45  C   UNL A   1      41.694  32.317  31.968  1.00  0.00     0.074 A 
ATOM     46  C   UNL A   1      40.378  32.639  32.425  1.00  0.00     0.031 C 
ATOM     47  C   UNL A   1      39.666  26.571  28.559  1.00  0.00     0.029 A 
ATOM     48  C   UNL A   1      41.053  26.656  28.963  1.00  0.00     0.049 A 
ATOM     49  H   UNL A   1      41.844  28.132  30.264  1.00  0.00     0.167 HD
ATOM     50  C   UNL A   1      42.907  32.696  32.477  1.00  0.00     0.037 A 
ATOM     51  C   UNL A   1      42.112  25.859  28.593  1.00  0.00     0.037 A 
ATOM     52  C   UNL A   1      43.938  31.924  31.877  1.00  0.00     0.049 A 
ATOM     53  C   UNL A   1      43.272  26.548  29.174  1.00  0.00     0.074 A 
ATOM     54  C   UNL A   1      44.765  32.020  30.791  1.00  0.00     0.029 A 
ATOM     55  N   UNL A   1      44.156  30.714  32.479  1.00  0.00    -0.354 N 
ATOM     56  N   UNL A   1      43.590  26.595  30.429  1.00  0.00    -0.248 NA
ATOM     57  C   UNL A   1      43.976  27.465  28.279  1.00  0.00     0.031 C 
ATOM     58  C   UNL A   1      45.345  30.735  30.651  1.00  0.00     0.029 A 
ATOM     59  C   UNL A   1      44.702  29.879  31.545  1.00  0.00     0.049 A 
ATOM     60  H   UNL A   1      43.957  30.487  33.416  1.00  0.00     0.167 HD
ATOM     61  C   UNL A   1      44.340  27.746  30.528  1.00  0.00     0.074 A 
ATOM     62  C   UNL A   1      44.664  28.158  29.174  1.00  0.00     0.031 C 
ATOM     63  C   UNL A   1      44.364  28.485  31.662  1.00  0.00     0.037 A 
BRANCH  50  64
ATOM     64  C   UNL A   1      43.335  33.457  33.727  1.00  0.00     0.058 A 
ATOM     65  C   UNL A   1      42.887  32.959  34.984  1.00  0.00     0.135 A 
ATOM     66  C   UNL A   1      43.772  34.790  33.735  1.00  0.00     0.135 A 
ATOM     67  F   UNL A   1      42.537  31.670  35.127  1.00  0.00    -0.206 F 
ATOM     68  C   UNL A   1      42.702  33.768  36.101  1.00  0.00     0.059 A 
ATOM     69  C   UNL A   1      43.653  35.609  34.870  1.00  0.00     0.059 A 
ATOM     70  F   UNL A   1      44.260  35.363  32.627  1.00  0.00    -0.206 F 
ATOM     71  C   UNL A   1      43.055  35.106  36.025  1.00  0.00     0.060 A 
BRANCH  71  72
ATOM     72  S   UNL A   1      42.708  36.161  37.451  1.00  0.00     0.124 S 
ATOM     73  O   UNL A   1      41.261  36.320  37.365  1.00  0.00    -0.237 OA
ATOM     74  O   UNL A   1      43.185  35.345  38.564  1.00  0.00    -0.237 OA
ATOM     75  O   UNL A   1      43.499  37.359  37.183  1.00  0.00    -0.744 OA
ENDBRANCH  71  72
ENDBRANCH  50  64
BRANCH  51  76
ATOM     76  C   UNL A   1      42.409  24.764  27.576  1.00  0.00     0.058 A 
ATOM     77  C   UNL A   1      42.475  24.914  26.185  1.00  0.00     0.135 A 
ATOM     78  C   UNL A   1      42.785  23.462  28.030  1.00  0.00     0.135 A 
ATOM     79  F   UNL A   1      41.988  26.011  25.590  1.00  0.00    -0.206 F 
ATOM     80  C   UNL A   1      43.048  23.936  25.343  1.00  0.00     0.059 A 
ATOM     81  C   UNL A   1      43.400  22.499  27.230  1.00  0.00     0.059 A 
ATOM     82  F   UNL A   1      42.603  23.082  29.303  1.00  0.00    -0.206 F 
ATOM     83  C   UNL A   1      43.568  22.759  25.885  1.00  0.00     0.060 A 
BRANCH  83  84
ATOM     84  S   UNL A   1      44.570  21.633  24.883  1.00  0.00     0.124 S 
ATOM     85  O   UNL A   1      45.863  21.693  25.554  1.00  0.00    -0.237 OA
ATOM     86  O   UNL A   1      43.846  20.372  25.006  1.00  0.00    -0.237 OA
ATOM     87  O   UNL A   1      44.522  22.238  23.554  1.00  0.00    -0.744 OA
ENDBRANCH  83  84
ENDBRANCH  51  76
BRANCH  63  88
ATOM     88  C   UNL A   1      43.639  27.872  32.852  1.00  0.00     0.058 A 
ATOM     89  C   UNL A   1      44.278  26.944  33.677  1.00  0.00     0.135 A 
ATOM     90  C   UNL A   1      42.292  28.157  33.169  1.00  0.00     0.135 A 
ATOM     91  F   UNL A   1      45.551  26.599  33.429  1.00  0.00    -0.206 F 
ATOM     92  C   UNL A   1      43.636  26.364  34.779  1.00  0.00     0.059 A 
ATOM     93  C   UNL A   1      41.629  27.604  34.268  1.00  0.00     0.059 A 
ATOM     94  F   UNL A   1      41.591  29.010  32.418  1.00  0.00    -0.206 F 
ATOM     95  C   UNL A   1      42.315  26.708  35.075  1.00  0.00     0.060 A 
BRANCH  95  96
ATOM     96  S   UNL A   1      41.522  25.984  36.533  1.00  0.00     0.124 S 
ATOM     97  O   UNL A   1      40.567  25.052  35.939  1.00  0.00    -0.237 OA
ATOM     98  O   UNL A   1      42.651  25.374  37.225  1.00  0.00    -0.237 OA
ATOM     99  O   UNL A   1      40.923  27.132  37.210  1.00  0.00    -0.744 OA
ENDBRANCH  95  96
ENDBRANCH  63  88
ENDBRANCH  37  38
ENDBRANCH  29  32
ENDBRANCH  27  28
ENDBRANCH  26  27
ENDBRANCH  25  26
ENDBRANCH   1  25
TORSDOF 20
ENDMDL
