MODEL 1
REMARK VINA RESULT:     -12.6      0.000      0.000
REMARK SMILES C[C@H](NC(=O)N1CC[C@@H](C(=O)NCCCCNC(=O)c2ccc(-c3c4nc(c(-c5c(F)cc(S(=O)(=O)[O-])cc5F)c5ccc([nH]5)c(-c5c(F)cc(S(=O)(=O)[O-])cc5F)c5nc(c(-c6c(F)cc(S(=O)(=O)[O-])cc6F)c6ccc3[nH]6)C=C5)C=C4)cc2)[C@@H]1C)c1cccc(Cl)c1
REMARK SMILES IDX 14 1 13 2 12 3 10 4 11 5 9 7 6 8 7 9 86 10 8 11 87 12 4 13
REMARK SMILES IDX 3 14 5 16 2 17 1 18 88 19 89 20 94 21 90 22 92 23 91 24
REMARK SMILES IDX 93 25 15 26 16 27 17 28 18 29 19 31 20 32 21 33 85 34 22 35
REMARK SMILES IDX 84 36 23 37 24 38 25 39 78 40 26 41 83 42 77 43 79 44 27 45
REMARK SMILES IDX 82 46 76 47 75 48 28 50 62 51 41 52 61 53 42 54 45 55 60 56
REMARK SMILES IDX 80 57 43 58 44 59 59 61 81 62 46 63 29 64 30 65 39 66 31 67
REMARK SMILES IDX 32 68 38 69 40 70 33 71 34 72 35 73 36 74 37 75 63 76 64 77
REMARK SMILES IDX 73 78 65 79 66 80 72 81 74 82 67 83 68 84 69 85 70 86 71 87
REMARK SMILES IDX 47 88 48 89 57 90 49 91 50 92 56 93 58 94 51 95 52 96 53 97
REMARK SMILES IDX 54 98 55 99
REMARK H PARENT 12 6 3 15 17 30 79 49 45 60
REMARK Flexibility Score: inf
ROOT
ATOM      1  C   UNL A   1      38.729  22.671  26.200  1.00  0.00     0.023 C 
ENDROOT
BRANCH   1   2
ATOM      2  C   UNL A   1      37.856  21.746  25.354  1.00  0.00     0.116 C 
BRANCH   2   3
ATOM      3  N   UNL A   1      37.218  22.483  24.276  1.00  0.00    -0.356 N 
ATOM      4  C   UNL A   1      35.932  22.697  23.906  1.00  0.00     0.225 C 
ATOM      5  O   UNL A   1      35.780  23.270  22.818  1.00  0.00    -0.275 OA
ATOM      6  H   UNL A   1      37.865  22.928  23.681  1.00  0.00     0.163 HD
BRANCH   4   7
ATOM      7  C   UNL A   1      34.681  22.269  24.672  1.00  0.00     0.102 C 
ATOM      8  N   UNL A   1      32.895  23.468  25.718  1.00  0.00    -0.321 N 
ATOM      9  C   UNL A   1      32.303  22.412  24.920  1.00  0.00     0.122 C 
ATOM     10  C   UNL A   1      34.331  23.180  25.871  1.00  0.00     0.096 C 
ATOM     11  C   UNL A   1      33.378  22.058  23.905  1.00  0.00     0.037 C 
ATOM     12  C   UNL A   1      34.624  22.470  27.199  1.00  0.00     0.032 C 
BRANCH   8  13
ATOM     13  C   UNL A   1      32.068  24.243  26.473  1.00  0.00     0.318 C 
ATOM     14  N   UNL A   1      31.880  25.561  26.276  1.00  0.00    -0.331 N 
ATOM     15  H   UNL A   1      31.567  25.999  27.101  1.00  0.00     0.165 HD
ATOM     16  O   UNL A   1      31.398  23.741  27.383  1.00  0.00    -0.249 OA
BRANCH  14  17
ATOM     17  C   UNL A   1      32.010  26.529  25.188  1.00  0.00     0.111 C 
ATOM     18  C   UNL A   1      30.761  26.867  24.412  1.00  0.00     0.036 C 
BRANCH  17  19
ATOM     19  C   UNL A   1      32.538  27.904  25.613  1.00  0.00    -0.024 A 
ATOM     20  C   UNL A   1      31.621  28.981  25.598  1.00  0.00     0.006 A 
ATOM     21  C   UNL A   1      33.742  28.059  26.314  1.00  0.00     0.026 A 
ATOM     22  C   UNL A   1      31.841  30.124  26.363  1.00  0.00     0.002 A 
ATOM     23  C   UNL A   1      33.970  29.225  27.052  1.00  0.00     0.041 A 
ATOM     24  C   UNL A   1      33.011  30.237  27.109  1.00  0.00     0.020 A 
ATOM     25  Cl  UNL A   1      35.419  29.377  27.970  1.00  0.00    -0.084 Cl
ENDBRANCH  17  19
ENDBRANCH  14  17
ENDBRANCH   8  13
ENDBRANCH   4   7
ENDBRANCH   2   3
ENDBRANCH   1   2
BRANCH   1  26
ATOM     26  C   UNL A   1      39.989  22.083  26.804  1.00  0.00     0.023 C 
BRANCH  26  27
ATOM     27  C   UNL A   1      41.067  23.110  27.122  1.00  0.00     0.116 C 
BRANCH  27  28
ATOM     28  N   UNL A   1      41.369  24.051  26.040  1.00  0.00    -0.352 N 
ATOM     29  C   UNL A   1      41.585  25.410  26.077  1.00  0.00     0.251 C 
ATOM     30  H   UNL A   1      41.425  23.647  25.145  1.00  0.00     0.163 HD
ATOM     31  O   UNL A   1      41.760  26.037  25.034  1.00  0.00    -0.269 OA
BRANCH  29  32
ATOM     32  C   UNL A   1      41.549  26.122  27.368  1.00  0.00     0.039 A 
ATOM     33  C   UNL A   1      42.555  27.042  27.672  1.00  0.00     0.014 A 
ATOM     34  C   UNL A   1      40.472  25.946  28.233  1.00  0.00     0.014 A 
ATOM     35  C   UNL A   1      42.411  27.867  28.787  1.00  0.00     0.010 A 
ATOM     36  C   UNL A   1      40.253  26.871  29.239  1.00  0.00     0.010 A 
ATOM     37  C   UNL A   1      41.226  27.832  29.540  1.00  0.00    -0.014 A 
BRANCH  37  38
ATOM     38  C   UNL A   1      40.983  28.766  30.665  1.00  0.00     0.031 A 
ATOM     39  C   UNL A   1      41.825  28.658  31.909  1.00  0.00     0.074 A 
ATOM     40  C   UNL A   1      39.952  29.633  30.601  1.00  0.00     0.049 A 
ATOM     41  N   UNL A   1      41.710  29.296  33.043  1.00  0.00    -0.248 NA
ATOM     42  C   UNL A   1      42.903  27.652  31.900  1.00  0.00     0.031 C 
ATOM     43  C   UNL A   1      39.007  29.753  29.486  1.00  0.00     0.029 A 
ATOM     44  N   UNL A   1      39.522  30.578  31.496  1.00  0.00    -0.354 N 
ATOM     45  C   UNL A   1      42.664  28.738  33.887  1.00  0.00     0.074 A 
ATOM     46  C   UNL A   1      43.293  27.658  33.164  1.00  0.00     0.031 C 
ATOM     47  C   UNL A   1      38.140  30.745  29.745  1.00  0.00     0.029 A 
ATOM     48  C   UNL A   1      38.443  31.309  31.054  1.00  0.00     0.049 A 
ATOM     49  H   UNL A   1      39.946  30.720  32.374  1.00  0.00     0.167 HD
ATOM     50  C   UNL A   1      43.014  29.119  35.137  1.00  0.00     0.037 A 
ATOM     51  C   UNL A   1      37.785  32.327  31.640  1.00  0.00     0.037 A 
ATOM     52  C   UNL A   1      42.430  30.248  35.808  1.00  0.00     0.049 A 
ATOM     53  C   UNL A   1      38.263  32.806  32.984  1.00  0.00     0.074 A 
ATOM     54  C   UNL A   1      42.763  30.791  37.035  1.00  0.00     0.029 A 
ATOM     55  N   UNL A   1      41.400  31.022  35.290  1.00  0.00    -0.354 N 
ATOM     56  N   UNL A   1      39.216  32.314  33.741  1.00  0.00    -0.248 NA
ATOM     57  C   UNL A   1      37.593  33.985  33.545  1.00  0.00     0.031 C 
ATOM     58  C   UNL A   1      41.915  31.878  37.272  1.00  0.00     0.029 A 
ATOM     59  C   UNL A   1      41.082  32.037  36.174  1.00  0.00     0.049 A 
ATOM     60  H   UNL A   1      40.962  30.870  34.422  1.00  0.00     0.167 HD
ATOM     61  C   UNL A   1      39.276  33.137  34.859  1.00  0.00     0.074 A 
ATOM     62  C   UNL A   1      38.275  34.168  34.668  1.00  0.00     0.031 C 
ATOM     63  C   UNL A   1      40.081  33.049  35.948  1.00  0.00     0.037 A 
BRANCH  50  64
ATOM     64  C   UNL A   1      44.085  28.322  35.833  1.00  0.00     0.058 A 
ATOM     65  C   UNL A   1      45.451  28.600  35.653  1.00  0.00     0.135 A 
ATOM     66  C   UNL A   1      43.744  27.259  36.685  1.00  0.00     0.135 A 
ATOM     67  F   UNL A   1      45.836  29.591  34.833  1.00  0.00    -0.206 F 
ATOM     68  C   UNL A   1      46.438  27.827  36.254  1.00  0.00     0.059 A 
ATOM     69  C   UNL A   1      44.716  26.494  37.324  1.00  0.00     0.059 A 
ATOM     70  F   UNL A   1      42.456  26.945  36.894  1.00  0.00    -0.206 F 
ATOM     71  C   UNL A   1      46.061  26.773  37.085  1.00  0.00     0.060 A 
BRANCH  71  72
ATOM     72  S   UNL A   1      47.354  25.774  37.854  1.00  0.00     0.124 S 
ATOM     73  O   UNL A   1      47.569  24.748  36.837  1.00  0.00    -0.237 OA
ATOM     74  O   UNL A   1      48.438  26.739  38.019  1.00  0.00    -0.237 OA
ATOM     75  O   UNL A   1      46.736  25.313  39.092  1.00  0.00    -0.744 OA
ENDBRANCH  71  72
ENDBRANCH  50  64
BRANCH  51  76
ATOM     76  C   UNL A   1      36.657  32.991  30.932  1.00  0.00     0.058 A 
ATOM     77  C   UNL A   1      35.337  32.844  31.383  1.00  0.00     0.135 A 
ATOM     78  C   UNL A   1      36.877  33.814  29.817  1.00  0.00     0.135 A 
ATOM     79  F   UNL A   1      35.073  32.067  32.446  1.00  0.00    -0.206 F 
ATOM     80  C   UNL A   1      34.273  33.477  30.747  1.00  0.00     0.059 A 
ATOM     81  C   UNL A   1      35.832  34.477  29.179  1.00  0.00     0.059 A 
ATOM     82  F   UNL A   1      38.123  34.008  29.359  1.00  0.00    -0.206 F 
ATOM     83  C   UNL A   1      34.531  34.295  29.647  1.00  0.00     0.060 A 
BRANCH  83  84
ATOM     84  S   UNL A   1      33.151  35.164  28.869  1.00  0.00     0.124 S 
ATOM     85  O   UNL A   1      32.701  34.184  27.888  1.00  0.00    -0.237 OA
ATOM     86  O   UNL A   1      32.256  35.395  29.999  1.00  0.00    -0.237 OA
ATOM     87  O   UNL A   1      33.777  36.364  28.322  1.00  0.00    -0.744 OA
ENDBRANCH  83  84
ENDBRANCH  51  76
BRANCH  63  88
ATOM     88  C   UNL A   1      39.928  34.115  36.993  1.00  0.00     0.058 A 
ATOM     89  C   UNL A   1      39.113  33.928  38.120  1.00  0.00     0.135 A 
ATOM     90  C   UNL A   1      40.631  35.324  36.880  1.00  0.00     0.135 A 
ATOM     91  F   UNL A   1      38.418  32.788  38.270  1.00  0.00    -0.206 F 
ATOM     92  C   UNL A   1      38.971  34.920  39.083  1.00  0.00     0.059 A 
ATOM     93  C   UNL A   1      40.528  36.319  37.845  1.00  0.00     0.059 A 
ATOM     94  F   UNL A   1      41.436  35.544  35.828  1.00  0.00    -0.206 F 
ATOM     95  C   UNL A   1      39.681  36.114  38.934  1.00  0.00     0.060 A 
BRANCH  95  96
ATOM     96  S   UNL A   1      39.496  37.393  40.193  1.00  0.00     0.124 S 
ATOM     97  O   UNL A   1      40.873  37.846  40.353  1.00  0.00    -0.237 OA
ATOM     98  O   UNL A   1      38.587  38.338  39.550  1.00  0.00    -0.237 OA
ATOM     99  O   UNL A   1      38.935  36.668  41.330  1.00  0.00    -0.744 OA
ENDBRANCH  95  96
ENDBRANCH  63  88
ENDBRANCH  37  38
ENDBRANCH  29  32
ENDBRANCH  27  28
ENDBRANCH  26  27
ENDBRANCH   1  26
TORSDOF 17
ENDMDL
MODEL 2
REMARK VINA RESULT:     -12.5      6.448     12.121
REMARK SMILES C[C@H](NC(=O)N1CC[C@@H](C(=O)NCCCCNC(=O)c2ccc(-c3c4nc(c(-c5c(F)cc(S(=O)(=O)[O-])cc5F)c5ccc([nH]5)c(-c5c(F)cc(S(=O)(=O)[O-])cc5F)c5nc(c(-c6c(F)cc(S(=O)(=O)[O-])cc6F)c6ccc3[nH]6)C=C5)C=C4)cc2)[C@@H]1C)c1cccc(Cl)c1
REMARK SMILES IDX 14 1 13 2 12 3 10 4 11 5 9 7 6 8 7 9 86 10 8 11 87 12 4 13
REMARK SMILES IDX 3 14 5 16 2 17 1 18 88 19 89 20 94 21 90 22 92 23 91 24
REMARK SMILES IDX 93 25 15 26 16 27 17 28 18 29 19 31 20 32 21 33 85 34 22 35
REMARK SMILES IDX 84 36 23 37 24 38 25 39 78 40 26 41 83 42 77 43 79 44 27 45
REMARK SMILES IDX 82 46 76 47 75 48 28 50 62 51 41 52 61 53 42 54 45 55 60 56
REMARK SMILES IDX 80 57 43 58 44 59 59 61 81 62 46 63 29 64 30 65 39 66 31 67
REMARK SMILES IDX 32 68 38 69 40 70 33 71 34 72 35 73 36 74 37 75 63 76 64 77
REMARK SMILES IDX 73 78 65 79 66 80 72 81 74 82 67 83 68 84 69 85 70 86 71 87
REMARK SMILES IDX 47 88 48 89 57 90 49 91 50 92 56 93 58 94 51 95 52 96 53 97
REMARK SMILES IDX 54 98 55 99
REMARK H PARENT 12 6 3 15 17 30 79 49 45 60
REMARK Flexibility Score: inf
ROOT
ATOM      1  C   UNL A   1      33.657  30.340  26.764  1.00  0.00     0.023 C 
ENDROOT
BRANCH   1   2
ATOM      2  C   UNL A   1      32.144  30.234  26.945  1.00  0.00     0.116 C 
BRANCH   2   3
ATOM      3  N   UNL A   1      31.745  28.854  27.160  1.00  0.00    -0.356 N 
ATOM      4  C   UNL A   1      31.492  27.802  26.344  1.00  0.00     0.225 C 
ATOM      5  O   UNL A   1      31.021  26.799  26.898  1.00  0.00    -0.275 OA
ATOM      6  H   UNL A   1      31.635  28.631  28.113  1.00  0.00     0.163 HD
BRANCH   4   7
ATOM      7  C   UNL A   1      31.691  27.756  24.829  1.00  0.00     0.102 C 
ATOM      8  N   UNL A   1      32.640  26.146  23.337  1.00  0.00    -0.321 N 
ATOM      9  C   UNL A   1      31.372  26.570  22.774  1.00  0.00     0.122 C 
ATOM     10  C   UNL A   1      33.021  27.106  24.386  1.00  0.00     0.096 C 
ATOM     11  C   UNL A   1      30.603  27.134  23.957  1.00  0.00     0.037 C 
ATOM     12  C   UNL A   1      33.995  28.165  23.851  1.00  0.00     0.032 C 
BRANCH   8  13
ATOM     13  C   UNL A   1      33.404  25.278  22.617  1.00  0.00     0.318 C 
ATOM     14  N   UNL A   1      33.990  24.182  23.132  1.00  0.00    -0.331 N 
ATOM     15  H   UNL A   1      34.764  23.907  22.588  1.00  0.00     0.165 HD
ATOM     16  O   UNL A   1      33.568  25.448  21.404  1.00  0.00    -0.249 OA
BRANCH  14  17
ATOM     17  C   UNL A   1      33.806  23.282  24.270  1.00  0.00     0.111 C 
ATOM     18  C   UNL A   1      33.056  21.997  24.019  1.00  0.00     0.036 C 
BRANCH  17  19
ATOM     19  C   UNL A   1      35.107  22.803  24.925  1.00  0.00    -0.024 A 
ATOM     20  C   UNL A   1      35.632  21.564  24.488  1.00  0.00     0.006 A 
ATOM     21  C   UNL A   1      35.940  23.665  25.653  1.00  0.00     0.026 A 
ATOM     22  C   UNL A   1      36.980  21.254  24.659  1.00  0.00     0.002 A 
ATOM     23  C   UNL A   1      37.283  23.330  25.849  1.00  0.00     0.041 A 
ATOM     24  C   UNL A   1      37.812  22.149  25.324  1.00  0.00     0.020 A 
ATOM     25  Cl  UNL A   1      38.317  24.427  26.680  1.00  0.00    -0.084 Cl
ENDBRANCH  17  19
ENDBRANCH  14  17
ENDBRANCH   8  13
ENDBRANCH   4   7
ENDBRANCH   2   3
ENDBRANCH   1   2
BRANCH   1  26
ATOM     26  C   UNL A   1      34.517  29.298  27.451  1.00  0.00     0.023 C 
BRANCH  26  27
ATOM     27  C   UNL A   1      35.742  29.865  28.156  1.00  0.00     0.116 C 
BRANCH  27  28
ATOM     28  N   UNL A   1      35.617  29.996  29.610  1.00  0.00    -0.352 N 
ATOM     29  C   UNL A   1      36.585  30.011  30.589  1.00  0.00     0.251 C 
ATOM     30  H   UNL A   1      34.695  30.087  29.940  1.00  0.00     0.163 HD
ATOM     31  O   UNL A   1      36.265  30.064  31.774  1.00  0.00    -0.269 OA
BRANCH  29  32
ATOM     32  C   UNL A   1      38.008  29.906  30.213  1.00  0.00     0.039 A 
ATOM     33  C   UNL A   1      38.933  29.449  31.154  1.00  0.00     0.014 A 
ATOM     34  C   UNL A   1      38.407  30.171  28.906  1.00  0.00     0.014 A 
ATOM     35  C   UNL A   1      40.231  29.147  30.745  1.00  0.00     0.010 A 
ATOM     36  C   UNL A   1      39.640  29.718  28.469  1.00  0.00     0.010 A 
ATOM     37  C   UNL A   1      40.573  29.216  29.385  1.00  0.00    -0.014 A 
BRANCH  37  38
ATOM     38  C   UNL A   1      41.906  28.800  28.889  1.00  0.00     0.031 A 
ATOM     39  C   UNL A   1      43.009  29.822  28.785  1.00  0.00     0.074 A 
ATOM     40  C   UNL A   1      42.089  27.539  28.446  1.00  0.00     0.049 A 
ATOM     41  N   UNL A   1      44.206  29.697  28.278  1.00  0.00    -0.248 NA
ATOM     42  C   UNL A   1      42.701  31.184  29.255  1.00  0.00     0.031 C 
ATOM     43  C   UNL A   1      41.061  26.493  28.403  1.00  0.00     0.029 A 
ATOM     44  N   UNL A   1      43.204  26.921  27.942  1.00  0.00    -0.354 N 
ATOM     45  C   UNL A   1      44.769  30.967  28.329  1.00  0.00     0.074 A 
ATOM     46  C   UNL A   1      43.758  31.862  28.839  1.00  0.00     0.031 C 
ATOM     47  C   UNL A   1      41.607  25.355  27.945  1.00  0.00     0.029 A 
ATOM     48  C   UNL A   1      43.009  25.595  27.630  1.00  0.00     0.049 A 
ATOM     49  H   UNL A   1      44.065  27.383  27.815  1.00  0.00     0.167 HD
ATOM     50  C   UNL A   1      46.031  31.346  28.019  1.00  0.00     0.037 A 
ATOM     51  C   UNL A   1      43.873  24.678  27.153  1.00  0.00     0.037 A 
ATOM     52  C   UNL A   1      47.046  30.424  27.589  1.00  0.00     0.049 A 
ATOM     53  C   UNL A   1      45.299  25.096  26.921  1.00  0.00     0.074 A 
ATOM     54  C   UNL A   1      48.383  30.667  27.335  1.00  0.00     0.029 A 
ATOM     55  N   UNL A   1      46.834  29.069  27.372  1.00  0.00    -0.354 N 
ATOM     56  N   UNL A   1      45.838  26.287  27.043  1.00  0.00    -0.248 NA
ATOM     57  C   UNL A   1      46.239  24.048  26.504  1.00  0.00     0.031 C 
ATOM     58  C   UNL A   1      48.975  29.464  26.936  1.00  0.00     0.029 A 
ATOM     59  C   UNL A   1      48.015  28.463  26.982  1.00  0.00     0.049 A 
ATOM     60  H   UNL A   1      45.971  28.609  27.478  1.00  0.00     0.167 HD
ATOM     61  C   UNL A   1      47.185  26.128  26.741  1.00  0.00     0.074 A 
ATOM     62  C   UNL A   1      47.380  24.721  26.448  1.00  0.00     0.031 C 
ATOM     63  C   UNL A   1      48.172  27.058  26.703  1.00  0.00     0.037 A 
BRANCH  50  64
ATOM     64  C   UNL A   1      46.374  32.805  28.161  1.00  0.00     0.058 A 
ATOM     65  C   UNL A   1      46.871  33.337  29.362  1.00  0.00     0.135 A 
ATOM     66  C   UNL A   1      46.194  33.688  27.083  1.00  0.00     0.135 A 
ATOM     67  F   UNL A   1      47.043  32.544  30.432  1.00  0.00    -0.206 F 
ATOM     68  C   UNL A   1      47.134  34.695  29.506  1.00  0.00     0.059 A 
ATOM     69  C   UNL A   1      46.484  35.046  27.194  1.00  0.00     0.059 A 
ATOM     70  F   UNL A   1      45.720  33.239  25.911  1.00  0.00    -0.206 F 
ATOM     71  C   UNL A   1      46.934  35.542  28.418  1.00  0.00     0.060 A 
BRANCH  71  72
ATOM     72  S   UNL A   1      47.273  37.304  28.620  1.00  0.00     0.124 S 
ATOM     73  O   UNL A   1      46.700  37.559  29.938  1.00  0.00    -0.237 OA
ATOM     74  O   UNL A   1      48.731  37.352  28.544  1.00  0.00    -0.237 OA
ATOM     75  O   UNL A   1      46.570  37.917  27.499  1.00  0.00    -0.744 OA
ENDBRANCH  71  72
ENDBRANCH  50  64
BRANCH  51  76
ATOM     76  C   UNL A   1      43.425  23.277  26.931  1.00  0.00     0.058 A 
ATOM     77  C   UNL A   1      43.289  22.761  25.634  1.00  0.00     0.135 A 
ATOM     78  C   UNL A   1      43.161  22.414  28.006  1.00  0.00     0.135 A 
ATOM     79  F   UNL A   1      43.529  23.546  24.571  1.00  0.00    -0.206 F 
ATOM     80  C   UNL A   1      42.894  21.446  25.407  1.00  0.00     0.059 A 
ATOM     81  C   UNL A   1      42.789  21.088  27.805  1.00  0.00     0.059 A 
ATOM     82  F   UNL A   1      43.299  22.850  29.267  1.00  0.00    -0.206 F 
ATOM     83  C   UNL A   1      42.649  20.615  26.500  1.00  0.00     0.060 A 
BRANCH  83  84
ATOM     84  S   UNL A   1      42.201  18.891  26.197  1.00  0.00     0.124 S 
ATOM     85  O   UNL A   1      43.149  18.519  25.154  1.00  0.00    -0.237 OA
ATOM     86  O   UNL A   1      42.417  18.282  27.506  1.00  0.00    -0.237 OA
ATOM     87  O   UNL A   1      40.804  18.977  25.780  1.00  0.00    -0.744 OA
ENDBRANCH  83  84
ENDBRANCH  51  76
BRANCH  63  88
ATOM     88  C   UNL A   1      49.551  26.571  26.365  1.00  0.00     0.058 A 
ATOM     89  C   UNL A   1      50.059  26.652  25.059  1.00  0.00     0.135 A 
ATOM     90  C   UNL A   1      50.383  26.048  27.366  1.00  0.00     0.135 A 
ATOM     91  F   UNL A   1      49.299  27.142  24.067  1.00  0.00    -0.206 F 
ATOM     92  C   UNL A   1      51.335  26.195  24.750  1.00  0.00     0.059 A 
ATOM     93  C   UNL A   1      51.673  25.612  27.086  1.00  0.00     0.059 A 
ATOM     94  F   UNL A   1      49.948  25.965  28.634  1.00  0.00    -0.206 F 
ATOM     95  C   UNL A   1      52.133  25.674  25.771  1.00  0.00     0.060 A 
BRANCH  95  96
ATOM     96  S   UNL A   1      53.790  25.090  25.361  1.00  0.00     0.124 S 
ATOM     97  O   UNL A   1      54.566  25.603  26.485  1.00  0.00    -0.237 OA
ATOM     98  O   UNL A   1      53.613  23.642  25.322  1.00  0.00    -0.237 OA
ATOM     99  O   UNL A   1      54.060  25.718  24.071  1.00  0.00    -0.744 OA
ENDBRANCH  95  96
ENDBRANCH  63  88
ENDBRANCH  37  38
ENDBRANCH  29  32
ENDBRANCH  27  28
ENDBRANCH  26  27
ENDBRANCH   1  26
TORSDOF 17
ENDMDL
MODEL 3
REMARK VINA RESULT:     -12.5      1.294      2.198
REMARK SMILES C[C@H](NC(=O)N1CC[C@@H](C(=O)NCCCCNC(=O)c2ccc(-c3c4nc(c(-c5c(F)cc(S(=O)(=O)[O-])cc5F)c5ccc([nH]5)c(-c5c(F)cc(S(=O)(=O)[O-])cc5F)c5nc(c(-c6c(F)cc(S(=O)(=O)[O-])cc6F)c6ccc3[nH]6)C=C5)C=C4)cc2)[C@@H]1C)c1cccc(Cl)c1
REMARK SMILES IDX 14 1 13 2 12 3 10 4 11 5 9 7 6 8 7 9 86 10 8 11 87 12 4 13
REMARK SMILES IDX 3 14 5 16 2 17 1 18 88 19 89 20 94 21 90 22 92 23 91 24
REMARK SMILES IDX 93 25 15 26 16 27 17 28 18 29 19 31 20 32 21 33 85 34 22 35
REMARK SMILES IDX 84 36 23 37 24 38 25 39 78 40 26 41 83 42 77 43 79 44 27 45
REMARK SMILES IDX 82 46 76 47 75 48 28 50 62 51 41 52 61 53 42 54 45 55 60 56
REMARK SMILES IDX 80 57 43 58 44 59 59 61 81 62 46 63 29 64 30 65 39 66 31 67
REMARK SMILES IDX 32 68 38 69 40 70 33 71 34 72 35 73 36 74 37 75 63 76 64 77
REMARK SMILES IDX 73 78 65 79 66 80 72 81 74 82 67 83 68 84 69 85 70 86 71 87
REMARK SMILES IDX 47 88 48 89 57 90 49 91 50 92 56 93 58 94 51 95 52 96 53 97
REMARK SMILES IDX 54 98 55 99
REMARK H PARENT 12 6 3 15 17 30 79 49 45 60
REMARK Flexibility Score: inf
ROOT
ATOM      1  C   UNL A   1      38.369  21.773  25.653  1.00  0.00     0.023 C 
ENDROOT
BRANCH   1   2
ATOM      2  C   UNL A   1      37.349  21.173  24.686  1.00  0.00     0.116 C 
BRANCH   2   3
ATOM      3  N   UNL A   1      36.684  22.217  23.925  1.00  0.00    -0.356 N 
ATOM      4  C   UNL A   1      35.396  22.619  23.793  1.00  0.00     0.225 C 
ATOM      5  O   UNL A   1      35.193  23.471  22.916  1.00  0.00    -0.275 OA
ATOM      6  H   UNL A   1      37.308  22.753  23.384  1.00  0.00     0.163 HD
BRANCH   4   7
ATOM      7  C   UNL A   1      34.194  22.100  24.581  1.00  0.00     0.102 C 
ATOM      8  N   UNL A   1      32.469  23.162  25.850  1.00  0.00    -0.321 N 
ATOM      9  C   UNL A   1      31.835  22.190  24.979  1.00  0.00     0.122 C 
ATOM     10  C   UNL A   1      33.912  22.876  25.887  1.00  0.00     0.096 C 
ATOM     11  C   UNL A   1      32.849  21.957  23.872  1.00  0.00     0.037 C 
ATOM     12  C   UNL A   1      34.286  22.032  27.114  1.00  0.00     0.032 C 
BRANCH   8  13
ATOM     13  C   UNL A   1      31.683  23.845  26.729  1.00  0.00     0.318 C 
ATOM     14  N   UNL A   1      31.727  25.179  26.903  1.00  0.00    -0.331 N 
ATOM     15  H   UNL A   1      31.385  25.430  27.791  1.00  0.00     0.165 HD
ATOM     16  O   UNL A   1      30.837  23.248  27.405  1.00  0.00    -0.249 OA
BRANCH  14  17
ATOM     17  C   UNL A   1      32.137  26.362  26.148  1.00  0.00     0.111 C 
ATOM     18  C   UNL A   1      33.614  26.541  25.894  1.00  0.00     0.036 C 
BRANCH  17  19
ATOM     19  C   UNL A   1      31.526  26.472  24.746  1.00  0.00    -0.024 A 
ATOM     20  C   UNL A   1      30.552  27.478  24.544  1.00  0.00     0.006 A 
ATOM     21  C   UNL A   1      32.116  25.874  23.624  1.00  0.00     0.026 A 
ATOM     22  C   UNL A   1      30.273  27.961  23.267  1.00  0.00     0.002 A 
ATOM     23  C   UNL A   1      31.804  26.343  22.343  1.00  0.00     0.041 A 
ATOM     24  C   UNL A   1      30.916  27.405  22.165  1.00  0.00     0.020 A 
ATOM     25  Cl  UNL A   1      32.589  25.654  20.975  1.00  0.00    -0.084 Cl
ENDBRANCH  17  19
ENDBRANCH  14  17
ENDBRANCH   8  13
ENDBRANCH   4   7
ENDBRANCH   2   3
ENDBRANCH   1   2
BRANCH   1  26
ATOM     26  C   UNL A   1      37.956  23.010  26.424  1.00  0.00     0.023 C 
BRANCH  26  27
ATOM     27  C   UNL A   1      38.809  24.239  26.139  1.00  0.00     0.116 C 
BRANCH  27  28
ATOM     28  N   UNL A   1      40.257  24.015  26.184  1.00  0.00    -0.352 N 
ATOM     29  C   UNL A   1      41.240  24.687  26.874  1.00  0.00     0.251 C 
ATOM     30  H   UNL A   1      40.577  23.264  25.634  1.00  0.00     0.163 HD
ATOM     31  O   UNL A   1      42.421  24.380  26.723  1.00  0.00    -0.269 OA
BRANCH  29  32
ATOM     32  C   UNL A   1      40.878  25.817  27.750  1.00  0.00     0.039 A 
ATOM     33  C   UNL A   1      39.810  25.680  28.640  1.00  0.00     0.014 A 
ATOM     34  C   UNL A   1      41.652  26.974  27.754  1.00  0.00     0.014 A 
ATOM     35  C   UNL A   1      39.600  26.658  29.611  1.00  0.00     0.010 A 
ATOM     36  C   UNL A   1      41.545  27.857  28.814  1.00  0.00     0.010 A 
ATOM     37  C   UNL A   1      40.508  27.721  29.746  1.00  0.00    -0.014 A 
BRANCH  37  38
ATOM     38  C   UNL A   1      40.388  28.722  30.832  1.00  0.00     0.031 A 
ATOM     39  C   UNL A   1      41.269  28.602  32.049  1.00  0.00     0.074 A 
ATOM     40  C   UNL A   1      39.429  29.668  30.764  1.00  0.00     0.049 A 
ATOM     41  N   UNL A   1      41.252  29.299  33.153  1.00  0.00    -0.248 NA
ATOM     42  C   UNL A   1      42.260  27.511  32.049  1.00  0.00     0.031 C 
ATOM     43  C   UNL A   1      38.451  29.813  29.681  1.00  0.00     0.029 A 
ATOM     44  N   UNL A   1      39.113  30.685  31.628  1.00  0.00    -0.354 N 
ATOM     45  C   UNL A   1      42.191  28.703  33.987  1.00  0.00     0.074 A 
ATOM     46  C   UNL A   1      42.701  27.543  33.296  1.00  0.00     0.031 C 
ATOM     47  C   UNL A   1      37.678  30.885  29.923  1.00  0.00     0.029 A 
ATOM     48  C   UNL A   1      38.080  31.481  31.190  1.00  0.00     0.049 A 
ATOM     49  H   UNL A   1      39.582  30.832  32.481  1.00  0.00     0.167 HD
ATOM     50  C   UNL A   1      42.622  29.111  35.204  1.00  0.00     0.037 A 
ATOM     51  C   UNL A   1      37.530  32.576  31.749  1.00  0.00     0.037 A 
ATOM     52  C   UNL A   1      42.159  30.314  35.839  1.00  0.00     0.049 A 
ATOM     53  C   UNL A   1      38.100  33.075  33.049  1.00  0.00     0.074 A 
ATOM     54  C   UNL A   1      42.585  30.884  37.025  1.00  0.00     0.029 A 
ATOM     55  N   UNL A   1      41.175  31.146  35.322  1.00  0.00    -0.354 N 
ATOM     56  N   UNL A   1      39.040  32.542  33.794  1.00  0.00    -0.248 NA
ATOM     57  C   UNL A   1      37.551  34.330  33.577  1.00  0.00     0.031 C 
ATOM     58  C   UNL A   1      41.838  32.047  37.240  1.00  0.00     0.029 A 
ATOM     59  C   UNL A   1      40.976  32.223  36.166  1.00  0.00     0.049 A 
ATOM     60  H   UNL A   1      40.691  30.991  34.480  1.00  0.00     0.167 HD
ATOM     61  C   UNL A   1      39.213  33.407  34.867  1.00  0.00     0.074 A 
ATOM     62  C   UNL A   1      38.291  34.508  34.663  1.00  0.00     0.031 C 
ATOM     63  C   UNL A   1      40.052  33.303  35.928  1.00  0.00     0.037 A 
BRANCH  50  64
ATOM     64  C   UNL A   1      43.653  28.261  35.898  1.00  0.00     0.058 A 
ATOM     65  C   UNL A   1      43.292  27.218  36.766  1.00  0.00     0.135 A 
ATOM     66  C   UNL A   1      45.023  28.499  35.700  1.00  0.00     0.135 A 
ATOM     67  F   UNL A   1      41.997  26.959  37.010  1.00  0.00    -0.206 F 
ATOM     68  C   UNL A   1      44.247  26.472  37.448  1.00  0.00     0.059 A 
ATOM     69  C   UNL A   1      45.997  27.742  36.346  1.00  0.00     0.059 A 
ATOM     70  F   UNL A   1      45.429  29.484  34.884  1.00  0.00    -0.206 F 
ATOM     71  C   UNL A   1      45.598  26.743  37.234  1.00  0.00     0.060 A 
BRANCH  71  72
ATOM     72  S   UNL A   1      46.827  25.772  38.131  1.00  0.00     0.124 S 
ATOM     73  O   UNL A   1      47.961  26.690  38.155  1.00  0.00    -0.237 OA
ATOM     74  O   UNL A   1      46.169  25.545  39.415  1.00  0.00    -0.237 OA
ATOM     75  O   UNL A   1      46.995  24.585  37.299  1.00  0.00    -0.744 OA
ENDBRANCH  71  72
ENDBRANCH  50  64
BRANCH  51  76
ATOM     76  C   UNL A   1      36.432  33.297  31.052  1.00  0.00     0.058 A 
ATOM     77  C   UNL A   1      35.126  33.291  31.564  1.00  0.00     0.135 A 
ATOM     78  C   UNL A   1      36.669  34.038  29.884  1.00  0.00     0.135 A 
ATOM     79  F   UNL A   1      34.846  32.597  32.679  1.00  0.00    -0.206 F 
ATOM     80  C   UNL A   1      34.091  33.980  30.938  1.00  0.00     0.059 A 
ATOM     81  C   UNL A   1      35.656  34.755  29.253  1.00  0.00     0.059 A 
ATOM     82  F   UNL A   1      37.905  34.098  29.365  1.00  0.00    -0.206 F 
ATOM     83  C   UNL A   1      34.367  34.713  29.784  1.00  0.00     0.060 A 
BRANCH  83  84
ATOM     84  S   UNL A   1      33.032  35.656  29.015  1.00  0.00     0.124 S 
ATOM     85  O   UNL A   1      33.773  36.693  28.308  1.00  0.00    -0.237 OA
ATOM     86  O   UNL A   1      32.384  34.649  28.180  1.00  0.00    -0.237 OA
ATOM     87  O   UNL A   1      32.243  36.111  30.157  1.00  0.00    -0.744 OA
ENDBRANCH  83  84
ENDBRANCH  51  76
BRANCH  63  88
ATOM     88  C   UNL A   1      40.028  34.425  36.925  1.00  0.00     0.058 A 
ATOM     89  C   UNL A   1      40.897  35.522  36.818  1.00  0.00     0.135 A 
ATOM     90  C   UNL A   1      39.101  34.417  37.979  1.00  0.00     0.135 A 
ATOM     91  F   UNL A   1      41.802  35.573  35.828  1.00  0.00    -0.206 F 
ATOM     92  C   UNL A   1      40.873  36.556  37.746  1.00  0.00     0.059 A 
ATOM     93  C   UNL A   1      39.039  35.454  38.902  1.00  0.00     0.059 A 
ATOM     94  F   UNL A   1      38.238  33.397  38.113  1.00  0.00    -0.206 F 
ATOM     95  C   UNL A   1      39.942  36.511  38.787  1.00  0.00     0.060 A 
BRANCH  95  96
ATOM     96  S   UNL A   1      39.914  37.862  39.982  1.00  0.00     0.124 S 
ATOM     97  O   UNL A   1      38.691  38.561  39.604  1.00  0.00    -0.237 OA
ATOM     98  O   UNL A   1      39.871  37.153  41.257  1.00  0.00    -0.237 OA
ATOM     99  O   UNL A   1      41.157  38.578  39.711  1.00  0.00    -0.744 OA
ENDBRANCH  95  96
ENDBRANCH  63  88
ENDBRANCH  37  38
ENDBRANCH  29  32
ENDBRANCH  27  28
ENDBRANCH  26  27
ENDBRANCH   1  26
TORSDOF 17
ENDMDL
