MODEL 1
REMARK VINA RESULT:     -10.5      0.000      0.000
REMARK SMILES O=Cc1cn(-c2ccc(Cl)cc2)nc1C(=O)NCCCCNC(=O)c1ccc(-c2c3nc(c(-c4c(F)cc(S(=O)(=O)[O-])cc4F)c4ccc([nH]4)c(-c4c(F)cc(S(=O)(=O)[O-])cc4F)c4nc(c(-c5c(F)cc(S(=O)(=O)[O-])cc5F)c5ccc2[nH]5)C=C4)C=C3)cc1
REMARK SMILES IDX 20 1 19 2 18 3 17 4 15 5 16 6 14 8 3 9 4 10 5 11 13 12 2 13
REMARK SMILES IDX 1 14 6 15 7 16 12 17 8 18 11 19 9 20 10 21 21 22 22 23 23 24
REMARK SMILES IDX 24 26 25 27 26 28 90 29 27 30 89 31 28 32 29 33 30 34 83 35
REMARK SMILES IDX 31 36 88 37 82 38 84 39 32 40 87 41 81 42 80 43 33 45 67 46
REMARK SMILES IDX 46 47 66 48 47 49 50 50 65 51 85 52 48 53 49 54 64 56 86 57
REMARK SMILES IDX 51 58 34 59 35 60 44 61 36 62 37 63 43 64 45 65 38 66 39 67
REMARK SMILES IDX 40 68 41 69 42 70 68 71 69 72 78 73 70 74 71 75 77 76 79 77
REMARK SMILES IDX 72 78 73 79 74 80 75 81 76 82 52 83 53 84 62 85 54 86 55 87
REMARK SMILES IDX 61 88 63 89 56 90 57 91 58 92 59 93 60 94
REMARK H PARENT 17 7 22 25 84 44 50 55
REMARK Flexibility Score: inf
ROOT
ATOM      1  C   UNL A   1      34.395  34.009  30.682  1.00  0.00     0.023 C 
ENDROOT
BRANCH   1   2
ATOM      2  C   UNL A   1      34.432  32.710  31.494  1.00  0.00     0.023 C 
BRANCH   2   3
ATOM      3  C   UNL A   1      35.613  32.497  32.438  1.00  0.00     0.116 C 
BRANCH   3   4
ATOM      4  N   UNL A   1      35.455  33.074  33.757  1.00  0.00    -0.351 N 
ATOM      5  C   UNL A   1      36.378  33.359  34.747  1.00  0.00     0.272 C 
ATOM      6  O   UNL A   1      35.917  33.768  35.815  1.00  0.00    -0.267 OA
ATOM      7  H   UNL A   1      34.527  33.303  33.991  1.00  0.00     0.163 HD
BRANCH   5   8
ATOM      8  C   UNL A   1      37.837  33.193  34.546  1.00  0.00     0.161 A 
ATOM      9  C   UNL A   1      38.759  32.290  35.156  1.00  0.00     0.066 A 
ATOM     10  C   UNL A   1      39.966  32.546  34.548  1.00  0.00     0.127 A 
ATOM     11  N   UNL A   1      39.729  33.447  33.549  1.00  0.00    -0.239 N 
ATOM     12  N   UNL A   1      38.484  33.962  33.634  1.00  0.00    -0.162 NA
BRANCH   9  13
ATOM     13  C   UNL A   1      38.592  31.276  36.167  1.00  0.00     0.264 C 
ATOM     14  O   UNL A   1      38.737  30.081  35.934  1.00  0.00    -0.298 OA
ENDBRANCH   9  13
BRANCH  11  15
ATOM     15  C   UNL A   1      40.657  33.815  32.541  1.00  0.00     0.065 A 
ATOM     16  C   UNL A   1      41.749  34.632  32.879  1.00  0.00     0.030 A 
ATOM     17  C   UNL A   1      40.482  33.394  31.218  1.00  0.00     0.030 A 
ATOM     18  C   UNL A   1      42.640  35.060  31.894  1.00  0.00     0.023 A 
ATOM     19  C   UNL A   1      41.354  33.862  30.227  1.00  0.00     0.023 A 
ATOM     20  C   UNL A   1      42.423  34.695  30.568  1.00  0.00     0.041 A 
ATOM     21  Cl  UNL A   1      43.478  35.289  29.344  1.00  0.00    -0.084 Cl
ENDBRANCH  11  15
ENDBRANCH   5   8
ENDBRANCH   3   4
ENDBRANCH   2   3
ENDBRANCH   1   2
BRANCH   1  22
ATOM     22  C   UNL A   1      34.885  33.905  29.242  1.00  0.00     0.116 C 
BRANCH  22  23
ATOM     23  N   UNL A   1      34.170  32.914  28.448  1.00  0.00    -0.352 N 
ATOM     24  C   UNL A   1      34.655  31.698  27.990  1.00  0.00     0.251 C 
ATOM     25  H   UNL A   1      33.240  33.132  28.209  1.00  0.00     0.163 HD
ATOM     26  O   UNL A   1      34.089  31.097  27.096  1.00  0.00    -0.269 OA
BRANCH  24  27
ATOM     27  C   UNL A   1      35.895  31.162  28.595  1.00  0.00     0.039 A 
ATOM     28  C   UNL A   1      36.001  29.802  28.892  1.00  0.00     0.014 A 
ATOM     29  C   UNL A   1      36.970  32.023  28.810  1.00  0.00     0.014 A 
ATOM     30  C   UNL A   1      37.232  29.294  29.305  1.00  0.00     0.010 A 
ATOM     31  C   UNL A   1      38.210  31.506  29.134  1.00  0.00     0.010 A 
ATOM     32  C   UNL A   1      38.350  30.141  29.387  1.00  0.00    -0.014 A 
BRANCH  32  33
ATOM     33  C   UNL A   1      39.689  29.559  29.550  1.00  0.00     0.031 A 
ATOM     34  C   UNL A   1      40.098  29.336  30.969  1.00  0.00     0.074 A 
ATOM     35  C   UNL A   1      40.423  29.032  28.545  1.00  0.00     0.049 A 
ATOM     36  N   UNL A   1      41.062  29.898  31.621  1.00  0.00    -0.248 NA
ATOM     37  C   UNL A   1      39.248  28.468  31.804  1.00  0.00     0.031 C 
ATOM     38  C   UNL A   1      40.027  28.876  27.141  1.00  0.00     0.029 A 
ATOM     39  N   UNL A   1      41.640  28.411  28.587  1.00  0.00    -0.354 N 
ATOM     40  C   UNL A   1      41.088  29.286  32.874  1.00  0.00     0.074 A 
ATOM     41  C   UNL A   1      39.849  28.565  32.992  1.00  0.00     0.031 C 
ATOM     42  C   UNL A   1      40.867  28.013  26.529  1.00  0.00     0.029 A 
ATOM     43  C   UNL A   1      41.952  27.691  27.437  1.00  0.00     0.049 A 
ATOM     44  H   UNL A   1      42.245  28.469  29.362  1.00  0.00     0.167 HD
ATOM     45  C   UNL A   1      42.238  29.211  33.602  1.00  0.00     0.037 A 
ATOM     46  C   UNL A   1      43.017  26.877  27.233  1.00  0.00     0.037 A 
ATOM     47  C   UNL A   1      43.239  30.101  33.068  1.00  0.00     0.049 A 
ATOM     48  C   UNL A   1      44.064  27.262  28.205  1.00  0.00     0.074 A 
ATOM     49  C   UNL A   1      43.406  31.464  32.953  1.00  0.00     0.029 A 
ATOM     50  N   UNL A   1      44.135  29.514  32.214  1.00  0.00    -0.354 N 
ATOM     51  N   UNL A   1      44.700  28.399  28.171  1.00  0.00    -0.248 NA
ATOM     52  C   UNL A   1      44.209  26.505  29.440  1.00  0.00     0.031 C 
ATOM     53  C   UNL A   1      44.194  31.658  31.781  1.00  0.00     0.029 A 
ATOM     54  C   UNL A   1      44.511  30.408  31.249  1.00  0.00     0.049 A 
ATOM     55  H   UNL A   1      44.459  28.587  32.283  1.00  0.00     0.167 HD
ATOM     56  C   UNL A   1      44.944  28.698  29.498  1.00  0.00     0.074 A 
ATOM     57  C   UNL A   1      44.794  27.433  30.202  1.00  0.00     0.031 C 
ATOM     58  C   UNL A   1      44.932  29.993  29.928  1.00  0.00     0.037 A 
BRANCH  45  59
ATOM     59  C   UNL A   1      42.639  28.044  34.491  1.00  0.00     0.058 A 
ATOM     60  C   UNL A   1      42.835  28.272  35.874  1.00  0.00     0.135 A 
ATOM     61  C   UNL A   1      43.143  26.816  34.009  1.00  0.00     0.135 A 
ATOM     62  F   UNL A   1      42.398  29.403  36.449  1.00  0.00    -0.206 F 
ATOM     63  C   UNL A   1      43.557  27.394  36.687  1.00  0.00     0.059 A 
ATOM     64  C   UNL A   1      43.819  25.903  34.815  1.00  0.00     0.059 A 
ATOM     65  F   UNL A   1      43.097  26.481  32.716  1.00  0.00    -0.206 F 
ATOM     66  C   UNL A   1      44.062  26.221  36.140  1.00  0.00     0.060 A 
BRANCH  66  67
ATOM     67  S   UNL A   1      45.089  25.138  37.150  1.00  0.00     0.124 S 
ATOM     68  O   UNL A   1      46.408  25.726  36.957  1.00  0.00    -0.237 OA
ATOM     69  O   UNL A   1      44.498  25.305  38.474  1.00  0.00    -0.237 OA
ATOM     70  O   UNL A   1      44.886  23.825  36.543  1.00  0.00    -0.744 OA
ENDBRANCH  66  67
ENDBRANCH  45  59
BRANCH  46  71
ATOM     71  C   UNL A   1      43.149  25.674  26.375  1.00  0.00     0.058 A 
ATOM     72  C   UNL A   1      44.192  25.562  25.437  1.00  0.00     0.135 A 
ATOM     73  C   UNL A   1      42.440  24.492  26.663  1.00  0.00     0.135 A 
ATOM     74  F   UNL A   1      44.923  26.638  25.108  1.00  0.00    -0.206 F 
ATOM     75  C   UNL A   1      44.562  24.337  24.877  1.00  0.00     0.059 A 
ATOM     76  C   UNL A   1      42.784  23.260  26.108  1.00  0.00     0.059 A 
ATOM     77  F   UNL A   1      41.452  24.485  27.571  1.00  0.00    -0.206 F 
ATOM     78  C   UNL A   1      43.869  23.184  25.242  1.00  0.00     0.060 A 
BRANCH  78  79
ATOM     79  S   UNL A   1      44.482  21.575  24.689  1.00  0.00     0.124 S 
ATOM     80  O   UNL A   1      44.523  21.747  23.242  1.00  0.00    -0.237 OA
ATOM     81  O   UNL A   1      45.774  21.490  25.361  1.00  0.00    -0.237 OA
ATOM     82  O   UNL A   1      43.468  20.643  25.179  1.00  0.00    -0.744 OA
ENDBRANCH  78  79
ENDBRANCH  46  71
BRANCH  58  83
ATOM     83  C   UNL A   1      45.211  31.060  28.907  1.00  0.00     0.058 A 
ATOM     84  C   UNL A   1      46.488  31.494  28.512  1.00  0.00     0.135 A 
ATOM     85  C   UNL A   1      44.108  31.634  28.257  1.00  0.00     0.135 A 
ATOM     86  F   UNL A   1      47.597  30.926  29.009  1.00  0.00    -0.206 F 
ATOM     87  C   UNL A   1      46.655  32.500  27.559  1.00  0.00     0.059 A 
ATOM     88  C   UNL A   1      44.252  32.611  27.279  1.00  0.00     0.059 A 
ATOM     89  F   UNL A   1      42.863  31.221  28.551  1.00  0.00    -0.206 F 
ATOM     90  C   UNL A   1      45.529  33.058  26.953  1.00  0.00     0.060 A 
BRANCH  90  91
ATOM     91  S   UNL A   1      45.744  34.337  25.697  1.00  0.00     0.124 S 
ATOM     92  O   UNL A   1      45.363  35.544  26.421  1.00  0.00    -0.237 OA
ATOM     93  O   UNL A   1      47.159  34.218  25.361  1.00  0.00    -0.237 OA
ATOM     94  O   UNL A   1      44.825  33.929  24.635  1.00  0.00    -0.744 OA
ENDBRANCH  90  91
ENDBRANCH  58  83
ENDBRANCH  32  33
ENDBRANCH  24  27
ENDBRANCH  22  23
ENDBRANCH   1  22
TORSDOF 16
ENDMDL
MODEL 2
REMARK VINA RESULT:     -10.4      5.667     11.697
REMARK SMILES O=Cc1cn(-c2ccc(Cl)cc2)nc1C(=O)NCCCCNC(=O)c1ccc(-c2c3nc(c(-c4c(F)cc(S(=O)(=O)[O-])cc4F)c4ccc([nH]4)c(-c4c(F)cc(S(=O)(=O)[O-])cc4F)c4nc(c(-c5c(F)cc(S(=O)(=O)[O-])cc5F)c5ccc2[nH]5)C=C4)C=C3)cc1
REMARK SMILES IDX 20 1 19 2 18 3 17 4 15 5 16 6 14 8 3 9 4 10 5 11 13 12 2 13
REMARK SMILES IDX 1 14 6 15 7 16 12 17 8 18 11 19 9 20 10 21 21 22 22 23 23 24
REMARK SMILES IDX 24 26 25 27 26 28 90 29 27 30 89 31 28 32 29 33 30 34 83 35
REMARK SMILES IDX 31 36 88 37 82 38 84 39 32 40 87 41 81 42 80 43 33 45 67 46
REMARK SMILES IDX 46 47 66 48 47 49 50 50 65 51 85 52 48 53 49 54 64 56 86 57
REMARK SMILES IDX 51 58 34 59 35 60 44 61 36 62 37 63 43 64 45 65 38 66 39 67
REMARK SMILES IDX 40 68 41 69 42 70 68 71 69 72 78 73 70 74 71 75 77 76 79 77
REMARK SMILES IDX 72 78 73 79 74 80 75 81 76 82 52 83 53 84 62 85 54 86 55 87
REMARK SMILES IDX 61 88 63 89 56 90 57 91 58 92 59 93 60 94
REMARK H PARENT 17 7 22 25 84 44 50 55
REMARK Flexibility Score: inf
ROOT
ATOM      1  C   UNL A   1      35.591  23.453  24.939  1.00  0.00     0.023 C 
ENDROOT
BRANCH   1   2
ATOM      2  C   UNL A   1      34.764  24.208  25.985  1.00  0.00     0.023 C 
BRANCH   2   3
ATOM      3  C   UNL A   1      34.091  25.509  25.552  1.00  0.00     0.116 C 
BRANCH   3   4
ATOM      4  N   UNL A   1      32.651  25.537  25.712  1.00  0.00    -0.351 N 
ATOM      5  C   UNL A   1      31.654  24.753  25.162  1.00  0.00     0.272 C 
ATOM      6  O   UNL A   1      30.497  25.088  25.422  1.00  0.00    -0.267 OA
ATOM      7  H   UNL A   1      32.326  26.240  26.320  1.00  0.00     0.163 HD
BRANCH   5   8
ATOM      8  C   UNL A   1      31.947  23.574  24.312  1.00  0.00     0.161 A 
ATOM      9  C   UNL A   1      32.450  23.496  22.978  1.00  0.00     0.066 A 
ATOM     10  C   UNL A   1      32.574  22.150  22.722  1.00  0.00     0.127 A 
ATOM     11  N   UNL A   1      32.290  21.491  23.885  1.00  0.00    -0.239 N 
ATOM     12  N   UNL A   1      31.761  22.324  24.807  1.00  0.00    -0.162 NA
BRANCH   9  13
ATOM     13  C   UNL A   1      32.813  24.511  22.022  1.00  0.00     0.264 C 
ATOM     14  O   UNL A   1      33.835  25.180  22.125  1.00  0.00    -0.298 OA
ENDBRANCH   9  13
BRANCH  11  15
ATOM     15  C   UNL A   1      32.509  20.110  24.118  1.00  0.00     0.065 A 
ATOM     16  C   UNL A   1      32.416  19.209  23.044  1.00  0.00     0.030 A 
ATOM     17  C   UNL A   1      32.791  19.637  25.404  1.00  0.00     0.030 A 
ATOM     18  C   UNL A   1      32.564  17.838  23.259  1.00  0.00     0.023 A 
ATOM     19  C   UNL A   1      32.895  18.257  25.621  1.00  0.00     0.023 A 
ATOM     20  C   UNL A   1      32.776  17.366  24.551  1.00  0.00     0.041 A 
ATOM     21  Cl  UNL A   1      32.880  15.670  24.825  1.00  0.00    -0.084 Cl
ENDBRANCH  11  15
ENDBRANCH   5   8
ENDBRANCH   3   4
ENDBRANCH   2   3
ENDBRANCH   1   2
BRANCH   1  22
ATOM     22  C   UNL A   1      37.096  23.693  24.984  1.00  0.00     0.116 C 
BRANCH  22  23
ATOM     23  N   UNL A   1      37.880  22.481  25.185  1.00  0.00    -0.352 N 
ATOM     24  C   UNL A   1      39.050  22.352  25.917  1.00  0.00     0.251 C 
ATOM     25  H   UNL A   1      37.541  21.664  24.754  1.00  0.00     0.163 HD
ATOM     26  O   UNL A   1      39.773  21.384  25.771  1.00  0.00    -0.269 OA
BRANCH  24  27
ATOM     27  C   UNL A   1      39.415  23.432  26.860  1.00  0.00     0.039 A 
ATOM     28  C   UNL A   1      40.608  23.362  27.583  1.00  0.00     0.014 A 
ATOM     29  C   UNL A   1      38.579  24.543  26.972  1.00  0.00     0.014 A 
ATOM     30  C   UNL A   1      41.007  24.466  28.336  1.00  0.00     0.010 A 
ATOM     31  C   UNL A   1      39.016  25.667  27.646  1.00  0.00     0.010 A 
ATOM     32  C   UNL A   1      40.229  25.636  28.336  1.00  0.00    -0.014 A 
BRANCH  32  33
ATOM     33  C   UNL A   1      40.786  26.875  28.896  1.00  0.00     0.031 A 
ATOM     34  C   UNL A   1      42.037  27.346  28.231  1.00  0.00     0.074 A 
ATOM     35  C   UNL A   1      40.139  27.682  29.766  1.00  0.00     0.049 A 
ATOM     36  N   UNL A   1      43.223  27.448  28.738  1.00  0.00    -0.248 NA
ATOM     37  C   UNL A   1      41.989  27.621  26.784  1.00  0.00     0.031 C 
ATOM     38  C   UNL A   1      38.768  27.533  30.267  1.00  0.00     0.029 A 
ATOM     39  N   UNL A   1      40.527  28.880  30.298  1.00  0.00    -0.354 N 
ATOM     40  C   UNL A   1      44.018  28.020  27.745  1.00  0.00     0.074 A 
ATOM     41  C   UNL A   1      43.263  27.926  26.524  1.00  0.00     0.031 C 
ATOM     42  C   UNL A   1      38.364  28.692  30.830  1.00  0.00     0.029 A 
ATOM     43  C   UNL A   1      39.493  29.604  30.885  1.00  0.00     0.049 A 
ATOM     44  H   UNL A   1      41.457  29.202  30.271  1.00  0.00     0.167 HD
ATOM     45  C   UNL A   1      45.121  28.756  28.058  1.00  0.00     0.037 A 
ATOM     46  C   UNL A   1      39.541  30.866  31.378  1.00  0.00     0.037 A 
ATOM     47  C   UNL A   1      45.492  28.560  29.438  1.00  0.00     0.049 A 
ATOM     48  C   UNL A   1      40.958  31.174  31.674  1.00  0.00     0.074 A 
ATOM     49  C   UNL A   1      45.972  27.522  30.206  1.00  0.00     0.029 A 
ATOM     50  N   UNL A   1      45.021  29.513  30.301  1.00  0.00    -0.354 N 
ATOM     51  N   UNL A   1      41.645  30.589  32.615  1.00  0.00    -0.248 NA
ATOM     52  C   UNL A   1      41.743  31.931  30.710  1.00  0.00     0.031 C 
ATOM     53  C   UNL A   1      45.478  27.756  31.523  1.00  0.00     0.029 A 
ATOM     54  C   UNL A   1      44.750  28.946  31.516  1.00  0.00     0.049 A 
ATOM     55  H   UNL A   1      44.895  30.464  30.081  1.00  0.00     0.167 HD
ATOM     56  C   UNL A   1      42.933  30.532  32.118  1.00  0.00     0.074 A 
ATOM     57  C   UNL A   1      42.969  31.522  31.052  1.00  0.00     0.031 C 
ATOM     58  C   UNL A   1      43.740  29.472  32.411  1.00  0.00     0.037 A 
BRANCH  45  59
ATOM     59  C   UNL A   1      45.604  29.982  27.297  1.00  0.00     0.058 A 
ATOM     60  C   UNL A   1      46.993  30.162  27.099  1.00  0.00     0.135 A 
ATOM     61  C   UNL A   1      44.808  31.121  27.045  1.00  0.00     0.135 A 
ATOM     62  F   UNL A   1      47.851  29.151  27.304  1.00  0.00    -0.206 F 
ATOM     63  C   UNL A   1      47.552  31.400  26.769  1.00  0.00     0.059 A 
ATOM     64  C   UNL A   1      45.342  32.350  26.664  1.00  0.00     0.059 A 
ATOM     65  F   UNL A   1      43.488  31.133  27.250  1.00  0.00    -0.206 F 
ATOM     66  C   UNL A   1      46.716  32.494  26.574  1.00  0.00     0.060 A 
BRANCH  66  67
ATOM     67  S   UNL A   1      47.432  34.117  26.260  1.00  0.00     0.124 S 
ATOM     68  O   UNL A   1      46.687  34.538  25.080  1.00  0.00    -0.237 OA
ATOM     69  O   UNL A   1      47.129  34.827  27.498  1.00  0.00    -0.237 OA
ATOM     70  O   UNL A   1      48.846  33.822  26.045  1.00  0.00    -0.744 OA
ENDBRANCH  66  67
ENDBRANCH  45  59
BRANCH  46  71
ATOM     71  C   UNL A   1      38.481  31.900  31.462  1.00  0.00     0.058 A 
ATOM     72  C   UNL A   1      37.872  32.411  30.300  1.00  0.00     0.135 A 
ATOM     73  C   UNL A   1      37.837  32.186  32.681  1.00  0.00     0.135 A 
ATOM     74  F   UNL A   1      38.415  32.182  29.095  1.00  0.00    -0.206 F 
ATOM     75  C   UNL A   1      36.657  33.099  30.338  1.00  0.00     0.059 A 
ATOM     76  C   UNL A   1      36.629  32.879  32.744  1.00  0.00     0.059 A 
ATOM     77  F   UNL A   1      38.317  31.711  33.841  1.00  0.00    -0.206 F 
ATOM     78  C   UNL A   1      36.026  33.303  31.564  1.00  0.00     0.060 A 
BRANCH  78  79
ATOM     79  S   UNL A   1      34.356  33.996  31.593  1.00  0.00     0.124 S 
ATOM     80  O   UNL A   1      33.688  33.133  32.559  1.00  0.00    -0.237 OA
ATOM     81  O   UNL A   1      34.600  35.369  32.024  1.00  0.00    -0.237 OA
ATOM     82  O   UNL A   1      33.908  33.852  30.210  1.00  0.00    -0.744 OA
ENDBRANCH  78  79
ENDBRANCH  46  71
BRANCH  58  83
ATOM     83  C   UNL A   1      43.440  28.705  33.667  1.00  0.00     0.058 A 
ATOM     84  C   UNL A   1      43.914  29.028  34.951  1.00  0.00     0.135 A 
ATOM     85  C   UNL A   1      42.573  27.606  33.561  1.00  0.00     0.135 A 
ATOM     86  F   UNL A   1      44.664  30.120  35.157  1.00  0.00    -0.206 F 
ATOM     87  C   UNL A   1      43.591  28.252  36.065  1.00  0.00     0.059 A 
ATOM     88  C   UNL A   1      42.209  26.842  34.663  1.00  0.00     0.059 A 
ATOM     89  F   UNL A   1      42.043  27.280  32.370  1.00  0.00    -0.206 F 
ATOM     90  C   UNL A   1      42.743  27.155  35.909  1.00  0.00     0.060 A 
BRANCH  90  91
ATOM     91  S   UNL A   1      42.298  26.170  37.355  1.00  0.00     0.124 S 
ATOM     92  O   UNL A   1      40.916  26.575  37.589  1.00  0.00    -0.237 OA
ATOM     93  O   UNL A   1      42.487  24.803  36.880  1.00  0.00    -0.237 OA
ATOM     94  O   UNL A   1      43.256  26.605  38.370  1.00  0.00    -0.744 OA
ENDBRANCH  90  91
ENDBRANCH  58  83
ENDBRANCH  32  33
ENDBRANCH  24  27
ENDBRANCH  22  23
ENDBRANCH   1  22
TORSDOF 16
ENDMDL
MODEL 3
REMARK VINA RESULT:     -10.3      3.756      6.732
REMARK SMILES O=Cc1cn(-c2ccc(Cl)cc2)nc1C(=O)NCCCCNC(=O)c1ccc(-c2c3nc(c(-c4c(F)cc(S(=O)(=O)[O-])cc4F)c4ccc([nH]4)c(-c4c(F)cc(S(=O)(=O)[O-])cc4F)c4nc(c(-c5c(F)cc(S(=O)(=O)[O-])cc5F)c5ccc2[nH]5)C=C4)C=C3)cc1
REMARK SMILES IDX 20 1 19 2 18 3 17 4 15 5 16 6 14 8 3 9 4 10 5 11 13 12 2 13
REMARK SMILES IDX 1 14 6 15 7 16 12 17 8 18 11 19 9 20 10 21 21 22 22 23 23 24
REMARK SMILES IDX 24 26 25 27 26 28 90 29 27 30 89 31 28 32 29 33 30 34 83 35
REMARK SMILES IDX 31 36 88 37 82 38 84 39 32 40 87 41 81 42 80 43 33 45 67 46
REMARK SMILES IDX 46 47 66 48 47 49 50 50 65 51 85 52 48 53 49 54 64 56 86 57
REMARK SMILES IDX 51 58 34 59 35 60 44 61 36 62 37 63 43 64 45 65 38 66 39 67
REMARK SMILES IDX 40 68 41 69 42 70 68 71 69 72 78 73 70 74 71 75 77 76 79 77
REMARK SMILES IDX 72 78 73 79 74 80 75 81 76 82 52 83 53 84 62 85 54 86 55 87
REMARK SMILES IDX 61 88 63 89 56 90 57 91 58 92 59 93 60 94
REMARK H PARENT 17 7 22 25 84 44 50 55
REMARK Flexibility Score: inf
ROOT
ATOM      1  C   UNL A   1      33.137  28.816  25.820  1.00  0.00     0.023 C 
ENDROOT
BRANCH   1   2
ATOM      2  C   UNL A   1      33.317  27.328  25.503  1.00  0.00     0.023 C 
BRANCH   2   3
ATOM      3  C   UNL A   1      32.274  26.662  24.608  1.00  0.00     0.116 C 
BRANCH   3   4
ATOM      4  N   UNL A   1      32.667  26.501  23.223  1.00  0.00    -0.351 N 
ATOM      5  C   UNL A   1      33.425  25.531  22.594  1.00  0.00     0.272 C 
ATOM      6  O   UNL A   1      33.667  25.722  21.401  1.00  0.00    -0.267 OA
ATOM      7  H   UNL A   1      32.336  27.209  22.624  1.00  0.00     0.163 HD
BRANCH   5   8
ATOM      8  C   UNL A   1      33.919  24.325  23.302  1.00  0.00     0.161 A 
ATOM      9  C   UNL A   1      33.369  23.011  23.386  1.00  0.00     0.066 A 
ATOM     10  C   UNL A   1      34.277  22.291  24.126  1.00  0.00     0.127 A 
ATOM     11  N   UNL A   1      35.355  23.103  24.342  1.00  0.00    -0.239 N 
ATOM     12  N   UNL A   1      35.090  24.378  23.986  1.00  0.00    -0.162 NA
BRANCH   9  13
ATOM     13  C   UNL A   1      32.167  22.431  22.844  1.00  0.00     0.264 C 
ATOM     14  O   UNL A   1      31.051  22.875  23.088  1.00  0.00    -0.298 OA
ENDBRANCH   9  13
BRANCH  11  15
ATOM     15  C   UNL A   1      36.601  22.686  24.875  1.00  0.00     0.065 A 
ATOM     16  C   UNL A   1      37.021  21.359  24.681  1.00  0.00     0.030 A 
ATOM     17  C   UNL A   1      37.399  23.572  25.607  1.00  0.00     0.030 A 
ATOM     18  C   UNL A   1      38.213  20.908  25.248  1.00  0.00     0.023 A 
ATOM     19  C   UNL A   1      38.573  23.101  26.210  1.00  0.00     0.023 A 
ATOM     20  C   UNL A   1      38.970  21.774  26.033  1.00  0.00     0.041 A 
ATOM     21  Cl  UNL A   1      40.400  21.192  26.796  1.00  0.00    -0.084 Cl
ENDBRANCH  11  15
ENDBRANCH   5   8
ENDBRANCH   3   4
ENDBRANCH   2   3
ENDBRANCH   1   2
BRANCH   1  22
ATOM     22  C   UNL A   1      34.173  29.424  26.759  1.00  0.00     0.116 C 
BRANCH  22  23
ATOM     23  N   UNL A   1      34.007  30.856  26.970  1.00  0.00    -0.352 N 
ATOM     24  C   UNL A   1      34.685  31.654  27.879  1.00  0.00     0.251 C 
ATOM     25  H   UNL A   1      33.339  31.308  26.406  1.00  0.00     0.163 HD
ATOM     26  O   UNL A   1      34.262  32.755  28.181  1.00  0.00    -0.269 OA
BRANCH  24  27
ATOM     27  C   UNL A   1      35.921  31.124  28.496  1.00  0.00     0.039 A 
ATOM     28  C   UNL A   1      36.047  29.757  28.756  1.00  0.00     0.014 A 
ATOM     29  C   UNL A   1      36.975  31.998  28.761  1.00  0.00     0.014 A 
ATOM     30  C   UNL A   1      37.278  29.260  29.182  1.00  0.00     0.010 A 
ATOM     31  C   UNL A   1      38.216  31.495  29.098  1.00  0.00     0.010 A 
ATOM     32  C   UNL A   1      38.377  30.125  29.315  1.00  0.00    -0.014 A 
BRANCH  32  33
ATOM     33  C   UNL A   1      39.723  29.564  29.491  1.00  0.00     0.031 A 
ATOM     34  C   UNL A   1      40.124  29.352  30.914  1.00  0.00     0.074 A 
ATOM     35  C   UNL A   1      40.474  29.043  28.494  1.00  0.00     0.049 A 
ATOM     36  N   UNL A   1      41.074  29.931  31.572  1.00  0.00    -0.248 NA
ATOM     37  C   UNL A   1      39.280  28.476  31.746  1.00  0.00     0.031 C 
ATOM     38  C   UNL A   1      40.091  28.875  27.088  1.00  0.00     0.029 A 
ATOM     39  N   UNL A   1      41.699  28.441  28.549  1.00  0.00    -0.354 N 
ATOM     40  C   UNL A   1      41.098  29.325  32.827  1.00  0.00     0.074 A 
ATOM     41  C   UNL A   1      39.869  28.586  32.939  1.00  0.00     0.031 C 
ATOM     42  C   UNL A   1      40.949  28.023  26.486  1.00  0.00     0.029 A 
ATOM     43  C   UNL A   1      42.031  27.720  27.405  1.00  0.00     0.049 A 
ATOM     44  H   UNL A   1      42.296  28.511  29.329  1.00  0.00     0.167 HD
ATOM     45  C   UNL A   1      42.243  29.270  33.565  1.00  0.00     0.037 A 
ATOM     46  C   UNL A   1      43.110  26.921  27.214  1.00  0.00     0.037 A 
ATOM     47  C   UNL A   1      43.236  30.172  33.036  1.00  0.00     0.049 A 
ATOM     48  C   UNL A   1      44.143  27.326  28.193  1.00  0.00     0.074 A 
ATOM     49  C   UNL A   1      43.383  31.537  32.917  1.00  0.00     0.029 A 
ATOM     50  N   UNL A   1      44.147  29.595  32.192  1.00  0.00    -0.354 N 
ATOM     51  N   UNL A   1      44.763  28.472  28.159  1.00  0.00    -0.248 NA
ATOM     52  C   UNL A   1      44.288  26.576  29.432  1.00  0.00     0.031 C 
ATOM     53  C   UNL A   1      44.178  31.738  31.751  1.00  0.00     0.029 A 
ATOM     54  C   UNL A   1      44.518  30.491  31.227  1.00  0.00     0.049 A 
ATOM     55  H   UNL A   1      44.484  28.673  32.268  1.00  0.00     0.167 HD
ATOM     56  C   UNL A   1      44.991  28.780  29.486  1.00  0.00     0.074 A 
ATOM     57  C   UNL A   1      44.853  27.516  30.195  1.00  0.00     0.031 C 
ATOM     58  C   UNL A   1      44.956  30.076  29.910  1.00  0.00     0.037 A 
BRANCH  45  59
ATOM     59  C   UNL A   1      42.654  28.113  34.463  1.00  0.00     0.058 A 
ATOM     60  C   UNL A   1      42.836  28.350  35.846  1.00  0.00     0.135 A 
ATOM     61  C   UNL A   1      43.179  26.890  33.990  1.00  0.00     0.135 A 
ATOM     62  F   UNL A   1      42.378  29.477  36.413  1.00  0.00    -0.206 F 
ATOM     63  C   UNL A   1      43.564  27.486  36.669  1.00  0.00     0.059 A 
ATOM     64  C   UNL A   1      43.861  25.990  34.805  1.00  0.00     0.059 A 
ATOM     65  F   UNL A   1      43.148  26.549  32.698  1.00  0.00    -0.206 F 
ATOM     66  C   UNL A   1      44.090  26.317  36.131  1.00  0.00     0.060 A 
BRANCH  66  67
ATOM     67  S   UNL A   1      45.124  25.253  37.154  1.00  0.00     0.124 S 
ATOM     68  O   UNL A   1      44.433  25.323  38.436  1.00  0.00    -0.237 OA
ATOM     69  O   UNL A   1      45.040  23.979  36.448  1.00  0.00    -0.237 OA
ATOM     70  O   UNL A   1      46.429  25.906  37.101  1.00  0.00    -0.744 OA
ENDBRANCH  66  67
ENDBRANCH  45  59
BRANCH  46  71
ATOM     71  C   UNL A   1      43.266  25.717  26.361  1.00  0.00     0.058 A 
ATOM     72  C   UNL A   1      44.321  25.615  25.435  1.00  0.00     0.135 A 
ATOM     73  C   UNL A   1      42.570  24.527  26.647  1.00  0.00     0.135 A 
ATOM     74  F   UNL A   1      45.042  26.699  25.109  1.00  0.00    -0.206 F 
ATOM     75  C   UNL A   1      44.713  24.393  24.884  1.00  0.00     0.059 A 
ATOM     76  C   UNL A   1      42.936  23.298  26.100  1.00  0.00     0.059 A 
ATOM     77  F   UNL A   1      41.572  24.511  27.544  1.00  0.00    -0.206 F 
ATOM     78  C   UNL A   1      44.031  23.232  25.246  1.00  0.00     0.060 A 
BRANCH  78  79
ATOM     79  S   UNL A   1      44.670  21.629  24.706  1.00  0.00     0.124 S 
ATOM     80  O   UNL A   1      43.686  20.709  25.262  1.00  0.00    -0.237 OA
ATOM     81  O   UNL A   1      44.666  21.769  23.254  1.00  0.00    -0.237 OA
ATOM     82  O   UNL A   1      45.996  21.572  25.319  1.00  0.00    -0.744 OA
ENDBRANCH  78  79
ENDBRANCH  46  71
BRANCH  58  83
ATOM     83  C   UNL A   1      45.228  31.143  28.888  1.00  0.00     0.058 A 
ATOM     84  C   UNL A   1      46.502  31.577  28.483  1.00  0.00     0.135 A 
ATOM     85  C   UNL A   1      44.120  31.717  28.245  1.00  0.00     0.135 A 
ATOM     86  F   UNL A   1      47.614  31.009  28.972  1.00  0.00    -0.206 F 
ATOM     87  C   UNL A   1      46.662  32.583  27.529  1.00  0.00     0.059 A 
ATOM     88  C   UNL A   1      44.257  32.694  27.266  1.00  0.00     0.059 A 
ATOM     89  F   UNL A   1      42.877  31.305  28.549  1.00  0.00    -0.206 F 
ATOM     90  C   UNL A   1      45.532  33.141  26.931  1.00  0.00     0.060 A 
BRANCH  90  91
ATOM     91  S   UNL A   1      45.738  34.419  25.673  1.00  0.00     0.124 S 
ATOM     92  O   UNL A   1      45.275  35.613  26.371  1.00  0.00    -0.237 OA
ATOM     93  O   UNL A   1      47.170  34.363  25.394  1.00  0.00    -0.237 OA
ATOM     94  O   UNL A   1      44.881  33.962  24.580  1.00  0.00    -0.744 OA
ENDBRANCH  90  91
ENDBRANCH  58  83
ENDBRANCH  32  33
ENDBRANCH  24  27
ENDBRANCH  22  23
ENDBRANCH   1  22
TORSDOF 16
ENDMDL
