MODEL 1
REMARK VINA RESULT:     -10.9      0.000      0.000
REMARK SMILES C[C@@](O)(c1cccc(O)c1)[C@@H](F)C(=O)NCCCCNC(=O)c1ccc(-c2c3nc(c(-c4c(F)cc(S(=O)(=O)[O-])cc4F)c4ccc([nH]4)c(-c4c(F)cc(S(=O)(=O)[O-])cc4F)c4nc(c(-c5c(F)cc(S(=O)(=O)[O-])cc5F)c5ccc2[nH]5)C=C4)C=C3)cc1
REMARK SMILES IDX 17 1 16 2 15 3 13 4 14 5 11 7 12 8 2 9 1 10 3 11 4 13 5 14
REMARK SMILES IDX 10 15 6 16 8 17 7 18 9 19 18 21 19 22 20 23 21 24 22 26
REMARK SMILES IDX 23 27 24 28 88 29 25 30 87 31 26 32 27 33 28 34 81 35 29 36
REMARK SMILES IDX 86 37 80 38 82 39 30 40 85 41 79 42 78 43 31 45 65 46 44 47
REMARK SMILES IDX 64 48 45 49 48 50 63 51 83 52 46 53 47 54 62 56 84 57 49 58
REMARK SMILES IDX 32 59 33 60 42 61 34 62 35 63 41 64 43 65 36 66 37 67 38 68
REMARK SMILES IDX 39 69 40 70 66 71 67 72 76 73 68 74 69 75 75 76 77 77 70 78
REMARK SMILES IDX 71 79 72 80 73 81 74 82 50 83 51 84 60 85 52 86 53 87 59 88
REMARK SMILES IDX 61 89 54 90 55 91 56 92 57 93 58 94
REMARK H PARENT 15 6 3 12 9 20 20 25 82 44 48 55
REMARK Flexibility Score: inf
ROOT
ATOM      1  C   UNL A   1      31.445  27.961  26.191  1.00  0.00     0.023 C 
ENDROOT
BRANCH   1   2
ATOM      2  C   UNL A   1      31.196  26.650  25.446  1.00  0.00     0.116 C 
BRANCH   2   3
ATOM      3  N   UNL A   1      30.778  25.594  26.353  1.00  0.00    -0.353 N 
ATOM      4  C   UNL A   1      31.378  24.403  26.646  1.00  0.00     0.257 C 
ATOM      5  O   UNL A   1      30.732  23.589  27.314  1.00  0.00    -0.272 OA
ATOM      6  H   UNL A   1      29.933  25.763  26.828  1.00  0.00     0.163 HD
BRANCH   4   7
ATOM      7  C   UNL A   1      32.764  24.031  26.116  1.00  0.00     0.291 C 
ATOM      8  F   UNL A   1      33.643  25.074  26.118  1.00  0.00    -0.233 F 
BRANCH   7   9
ATOM      9  C   UNL A   1      32.704  23.366  24.707  1.00  0.00     0.127 C 
ATOM     10  C   UNL A   1      33.411  24.226  23.652  1.00  0.00     0.051 C 
BRANCH   9  11
ATOM     11  O   UNL A   1      31.333  23.234  24.281  1.00  0.00    -0.382 OA
ATOM     12  H   UNL A   1      30.906  22.522  24.781  1.00  0.00     0.212 HD
ENDBRANCH   9  11
BRANCH   9  13
ATOM     13  C   UNL A   1      33.240  21.923  24.740  1.00  0.00    -0.010 A 
ATOM     14  C   UNL A   1      34.627  21.679  24.773  1.00  0.00     0.007 A 
ATOM     15  C   UNL A   1      32.392  20.799  24.783  1.00  0.00     0.053 A 
ATOM     16  C   UNL A   1      35.140  20.377  24.818  1.00  0.00     0.004 A 
ATOM     17  C   UNL A   1      32.909  19.507  24.844  1.00  0.00     0.115 A 
ATOM     18  C   UNL A   1      34.278  19.285  24.856  1.00  0.00     0.046 A 
BRANCH  17  19
ATOM     19  O   UNL A   1      32.020  18.474  24.900  1.00  0.00    -0.508 OA
ATOM     20  H   UNL A   1      31.488  18.355  25.662  1.00  0.00     0.293 HD
ENDBRANCH  17  19
ENDBRANCH   9  13
ENDBRANCH   7   9
ENDBRANCH   4   7
ENDBRANCH   2   3
ENDBRANCH   1   2
BRANCH   1  21
ATOM     21  C   UNL A   1      32.469  27.872  27.315  1.00  0.00     0.023 C 
BRANCH  21  22
ATOM     22  C   UNL A   1      33.729  28.685  27.075  1.00  0.00     0.116 C 
BRANCH  22  23
ATOM     23  N   UNL A   1      33.638  30.043  27.598  1.00  0.00    -0.352 N 
ATOM     24  C   UNL A   1      34.582  30.761  28.292  1.00  0.00     0.251 C 
ATOM     25  H   UNL A   1      32.786  30.507  27.432  1.00  0.00     0.163 HD
ATOM     26  O   UNL A   1      34.298  31.847  28.789  1.00  0.00    -0.269 OA
BRANCH  24  27
ATOM     27  C   UNL A   1      35.930  30.187  28.453  1.00  0.00     0.039 A 
ATOM     28  C   UNL A   1      36.822  30.226  27.380  1.00  0.00     0.014 A 
ATOM     29  C   UNL A   1      36.327  29.683  29.694  1.00  0.00     0.014 A 
ATOM     30  C   UNL A   1      38.144  29.827  27.577  1.00  0.00     0.010 A 
ATOM     31  C   UNL A   1      37.664  29.384  29.913  1.00  0.00     0.010 A 
ATOM     32  C   UNL A   1      38.584  29.443  28.855  1.00  0.00    -0.014 A 
BRANCH  32  33
ATOM     33  C   UNL A   1      39.995  29.071  29.114  1.00  0.00     0.031 A 
ATOM     34  C   UNL A   1      40.935  30.096  29.689  1.00  0.00     0.074 A 
ATOM     35  C   UNL A   1      40.446  27.854  28.755  1.00  0.00     0.049 A 
ATOM     36  N   UNL A   1      42.224  30.016  29.886  1.00  0.00    -0.248 NA
ATOM     37  C   UNL A   1      40.353  31.400  30.050  1.00  0.00     0.031 C 
ATOM     38  C   UNL A   1      39.643  26.802  28.124  1.00  0.00     0.029 A 
ATOM     39  N   UNL A   1      41.696  27.298  28.856  1.00  0.00    -0.354 N 
ATOM     40  C   UNL A   1      42.609  31.262  30.365  1.00  0.00     0.074 A 
ATOM     41  C   UNL A   1      41.431  32.099  30.369  1.00  0.00     0.031 C 
ATOM     42  C   UNL A   1      40.415  25.723  27.918  1.00  0.00     0.029 A 
ATOM     43  C   UNL A   1      41.772  26.014  28.369  1.00  0.00     0.049 A 
ATOM     44  H   UNL A   1      42.467  27.774  29.240  1.00  0.00     0.167 HD
ATOM     45  C   UNL A   1      43.828  31.664  30.794  1.00  0.00     0.037 A 
ATOM     46  C   UNL A   1      42.820  25.171  28.295  1.00  0.00     0.037 A 
ATOM     47  C   UNL A   1      44.983  30.809  30.833  1.00  0.00     0.049 A 
ATOM     48  C   UNL A   1      44.154  25.623  28.822  1.00  0.00     0.074 A 
ATOM     49  C   UNL A   1      46.250  31.092  31.309  1.00  0.00     0.029 A 
ATOM     50  N   UNL A   1      45.006  29.495  30.388  1.00  0.00    -0.354 N 
ATOM     51  N   UNL A   1      44.489  26.787  29.328  1.00  0.00    -0.248 NA
ATOM     52  C   UNL A   1      45.251  24.645  28.781  1.00  0.00     0.031 C 
ATOM     53  C   UNL A   1      47.047  29.956  31.128  1.00  0.00     0.029 A 
ATOM     54  C   UNL A   1      46.265  28.954  30.572  1.00  0.00     0.049 A 
ATOM     55  H   UNL A   1      44.238  29.017  29.997  1.00  0.00     0.167 HD
ATOM     56  C   UNL A   1      45.827  26.675  29.684  1.00  0.00     0.074 A 
ATOM     57  C   UNL A   1      46.238  25.327  29.349  1.00  0.00     0.031 C 
ATOM     58  C   UNL A   1      46.645  27.604  30.238  1.00  0.00     0.037 A 
BRANCH  45  59
ATOM     59  C   UNL A   1      43.959  33.083  31.273  1.00  0.00     0.058 A 
ATOM     60  C   UNL A   1      43.802  33.418  32.628  1.00  0.00     0.135 A 
ATOM     61  C   UNL A   1      44.245  34.121  30.371  1.00  0.00     0.135 A 
ATOM     62  F   UNL A   1      43.507  32.468  33.530  1.00  0.00    -0.206 F 
ATOM     63  C   UNL A   1      43.885  34.735  33.067  1.00  0.00     0.059 A 
ATOM     64  C   UNL A   1      44.361  35.443  30.793  1.00  0.00     0.059 A 
ATOM     65  F   UNL A   1      44.402  33.857  29.065  1.00  0.00    -0.206 F 
ATOM     66  C   UNL A   1      44.161  35.741  32.141  1.00  0.00     0.060 A 
BRANCH  66  67
ATOM     67  S   UNL A   1      44.256  37.447  32.723  1.00  0.00     0.124 S 
ATOM     68  O   UNL A   1      45.636  37.516  33.193  1.00  0.00    -0.237 OA
ATOM     69  O   UNL A   1      43.962  38.208  31.512  1.00  0.00    -0.237 OA
ATOM     70  O   UNL A   1      43.234  37.508  33.762  1.00  0.00    -0.744 OA
ENDBRANCH  66  67
ENDBRANCH  45  59
BRANCH  46  71
ATOM     71  C   UNL A   1      42.636  23.807  27.734  1.00  0.00     0.058 A 
ATOM     72  C   UNL A   1      42.437  22.704  28.578  1.00  0.00     0.135 A 
ATOM     73  C   UNL A   1      42.627  23.580  26.350  1.00  0.00     0.135 A 
ATOM     74  F   UNL A   1      42.439  22.871  29.910  1.00  0.00    -0.206 F 
ATOM     75  C   UNL A   1      42.251  21.422  28.072  1.00  0.00     0.059 A 
ATOM     76  C   UNL A   1      42.422  22.311  25.818  1.00  0.00     0.059 A 
ATOM     77  F   UNL A   1      42.794  24.606  25.501  1.00  0.00    -0.206 F 
ATOM     78  C   UNL A   1      42.243  21.236  26.689  1.00  0.00     0.060 A 
BRANCH  78  79
ATOM     79  S   UNL A   1      41.945  19.577  26.039  1.00  0.00     0.124 S 
ATOM     80  O   UNL A   1      40.513  19.620  25.771  1.00  0.00    -0.237 OA
ATOM     81  O   UNL A   1      42.814  19.545  24.867  1.00  0.00    -0.237 OA
ATOM     82  O   UNL A   1      42.357  18.708  27.138  1.00  0.00    -0.744 OA
ENDBRANCH  78  79
ENDBRANCH  46  71
BRANCH  58  83
ATOM     83  C   UNL A   1      48.055  27.187  30.543  1.00  0.00     0.058 A 
ATOM     84  C   UNL A   1      49.105  27.440  29.648  1.00  0.00     0.135 A 
ATOM     85  C   UNL A   1      48.365  26.580  31.770  1.00  0.00     0.135 A 
ATOM     86  F   UNL A   1      48.857  28.014  28.459  1.00  0.00    -0.206 F 
ATOM     87  C   UNL A   1      50.416  27.090  29.953  1.00  0.00     0.059 A 
ATOM     88  C   UNL A   1      49.672  26.243  32.105  1.00  0.00     0.059 A 
ATOM     89  F   UNL A   1      47.396  26.327  32.664  1.00  0.00    -0.206 F 
ATOM     90  C   UNL A   1      50.689  26.493  31.184  1.00  0.00     0.060 A 
BRANCH  90  91
ATOM     91  S   UNL A   1      52.400  26.079  31.586  1.00  0.00     0.124 S 
ATOM     92  O   UNL A   1      53.017  26.072  30.263  1.00  0.00    -0.237 OA
ATOM     93  O   UNL A   1      52.791  27.177  32.464  1.00  0.00    -0.237 OA
ATOM     94  O   UNL A   1      52.290  24.776  32.235  1.00  0.00    -0.744 OA
ENDBRANCH  90  91
ENDBRANCH  58  83
ENDBRANCH  32  33
ENDBRANCH  24  27
ENDBRANCH  22  23
ENDBRANCH  21  22
ENDBRANCH   1  21
TORSDOF 18
ENDMDL
MODEL 2
REMARK VINA RESULT:     -10.8      1.000      1.851
REMARK SMILES C[C@@](O)(c1cccc(O)c1)[C@@H](F)C(=O)NCCCCNC(=O)c1ccc(-c2c3nc(c(-c4c(F)cc(S(=O)(=O)[O-])cc4F)c4ccc([nH]4)c(-c4c(F)cc(S(=O)(=O)[O-])cc4F)c4nc(c(-c5c(F)cc(S(=O)(=O)[O-])cc5F)c5ccc2[nH]5)C=C4)C=C3)cc1
REMARK SMILES IDX 17 1 16 2 15 3 13 4 14 5 11 7 12 8 2 9 1 10 3 11 4 13 5 14
REMARK SMILES IDX 10 15 6 16 8 17 7 18 9 19 18 21 19 22 20 23 21 24 22 26
REMARK SMILES IDX 23 27 24 28 88 29 25 30 87 31 26 32 27 33 28 34 81 35 29 36
REMARK SMILES IDX 86 37 80 38 82 39 30 40 85 41 79 42 78 43 31 45 65 46 44 47
REMARK SMILES IDX 64 48 45 49 48 50 63 51 83 52 46 53 47 54 62 56 84 57 49 58
REMARK SMILES IDX 32 59 33 60 42 61 34 62 35 63 41 64 43 65 36 66 37 67 38 68
REMARK SMILES IDX 39 69 40 70 66 71 67 72 76 73 68 74 69 75 75 76 77 77 70 78
REMARK SMILES IDX 71 79 72 80 73 81 74 82 50 83 51 84 60 85 52 86 53 87 59 88
REMARK SMILES IDX 61 89 54 90 55 91 56 92 57 93 58 94
REMARK H PARENT 15 6 3 12 9 20 20 25 82 44 48 55
REMARK Flexibility Score: inf
ROOT
ATOM      1  C   UNL A   1      33.217  26.735  25.195  1.00  0.00     0.023 C 
ENDROOT
BRANCH   1   2
ATOM      2  C   UNL A   1      32.316  25.501  25.194  1.00  0.00     0.116 C 
BRANCH   2   3
ATOM      3  N   UNL A   1      32.433  24.756  26.437  1.00  0.00    -0.353 N 
ATOM      4  C   UNL A   1      32.179  23.440  26.696  1.00  0.00     0.257 C 
ATOM      5  O   UNL A   1      32.177  23.082  27.879  1.00  0.00    -0.272 OA
ATOM      6  H   UNL A   1      32.742  25.281  27.209  1.00  0.00     0.163 HD
BRANCH   4   7
ATOM      7  C   UNL A   1      31.829  22.440  25.593  1.00  0.00     0.291 C 
ATOM      8  F   UNL A   1      30.579  21.907  25.720  1.00  0.00    -0.233 F 
BRANCH   7   9
ATOM      9  C   UNL A   1      32.896  21.311  25.452  1.00  0.00     0.127 C 
ATOM     10  C   UNL A   1      32.407  20.193  24.523  1.00  0.00     0.051 C 
BRANCH   9  11
ATOM     11  O   UNL A   1      33.145  20.704  26.735  1.00  0.00    -0.382 OA
ATOM     12  H   UNL A   1      32.309  20.616  27.218  1.00  0.00     0.212 HD
ENDBRANCH   9  11
BRANCH   9  13
ATOM     13  C   UNL A   1      34.261  21.876  25.018  1.00  0.00    -0.010 A 
ATOM     14  C   UNL A   1      34.385  22.594  23.812  1.00  0.00     0.007 A 
ATOM     15  C   UNL A   1      35.421  21.746  25.807  1.00  0.00     0.053 A 
ATOM     16  C   UNL A   1      35.612  23.129  23.403  1.00  0.00     0.004 A 
ATOM     17  C   UNL A   1      36.634  22.296  25.401  1.00  0.00     0.115 A 
ATOM     18  C   UNL A   1      36.742  22.983  24.201  1.00  0.00     0.046 A 
BRANCH  17  19
ATOM     19  O   UNL A   1      37.707  22.141  26.231  1.00  0.00    -0.508 OA
ATOM     20  H   UNL A   1      37.596  22.215  27.158  1.00  0.00     0.293 HD
ENDBRANCH  17  19
ENDBRANCH   9  13
ENDBRANCH   7   9
ENDBRANCH   4   7
ENDBRANCH   2   3
ENDBRANCH   1   2
BRANCH   1  21
ATOM     21  C   UNL A   1      32.684  27.914  25.999  1.00  0.00     0.023 C 
BRANCH  21  22
ATOM     22  C   UNL A   1      33.552  28.302  27.184  1.00  0.00     0.116 C 
BRANCH  22  23
ATOM     23  N   UNL A   1      33.471  29.720  27.509  1.00  0.00    -0.352 N 
ATOM     24  C   UNL A   1      34.432  30.532  28.062  1.00  0.00     0.251 C 
ATOM     25  H   UNL A   1      32.611  30.155  27.305  1.00  0.00     0.163 HD
ATOM     26  O   UNL A   1      34.159  31.677  28.406  1.00  0.00    -0.269 OA
BRANCH  24  27
ATOM     27  C   UNL A   1      35.788  29.988  28.260  1.00  0.00     0.039 A 
ATOM     28  C   UNL A   1      36.709  30.049  27.212  1.00  0.00     0.014 A 
ATOM     29  C   UNL A   1      36.161  29.491  29.511  1.00  0.00     0.014 A 
ATOM     30  C   UNL A   1      38.033  29.679  27.447  1.00  0.00     0.010 A 
ATOM     31  C   UNL A   1      37.498  29.221  29.767  1.00  0.00     0.010 A 
ATOM     32  C   UNL A   1      38.445  29.303  28.736  1.00  0.00    -0.014 A 
BRANCH  32  33
ATOM     33  C   UNL A   1      39.857  28.962  29.034  1.00  0.00     0.031 A 
ATOM     34  C   UNL A   1      40.757  30.007  29.636  1.00  0.00     0.074 A 
ATOM     35  C   UNL A   1      40.344  27.756  28.688  1.00  0.00     0.049 A 
ATOM     36  N   UNL A   1      42.042  29.956  29.869  1.00  0.00    -0.248 NA
ATOM     37  C   UNL A   1      40.137  31.298  29.981  1.00  0.00     0.031 C 
ATOM     38  C   UNL A   1      39.583  26.686  28.034  1.00  0.00     0.029 A 
ATOM     39  N   UNL A   1      41.603  27.228  28.823  1.00  0.00    -0.354 N 
ATOM     40  C   UNL A   1      42.385  31.209  30.359  1.00  0.00     0.074 A 
ATOM     41  C   UNL A   1      41.189  32.020  30.330  1.00  0.00     0.031 C 
ATOM     42  C   UNL A   1      40.385  25.625  27.849  1.00  0.00     0.029 A 
ATOM     43  C   UNL A   1      41.722  25.947  28.338  1.00  0.00     0.049 A 
ATOM     44  H   UNL A   1      42.353  27.721  29.229  1.00  0.00     0.167 HD
ATOM     45  C   UNL A   1      43.582  31.638  30.823  1.00  0.00     0.037 A 
ATOM     46  C   UNL A   1      42.790  25.127  28.293  1.00  0.00     0.037 A 
ATOM     47  C   UNL A   1      44.754  30.808  30.894  1.00  0.00     0.049 A 
ATOM     48  C   UNL A   1      44.098  25.607  28.858  1.00  0.00     0.074 A 
ATOM     49  C   UNL A   1      46.001  31.119  31.406  1.00  0.00     0.029 A 
ATOM     50  N   UNL A   1      44.819  29.496  30.448  1.00  0.00    -0.354 N 
ATOM     51  N   UNL A   1      44.393  26.778  29.373  1.00  0.00    -0.248 NA
ATOM     52  C   UNL A   1      45.217  24.655  28.847  1.00  0.00     0.031 C 
ATOM     53  C   UNL A   1      46.828  30.001  31.246  1.00  0.00     0.029 A 
ATOM     54  C   UNL A   1      46.085  28.983  30.667  1.00  0.00     0.049 A 
ATOM     55  H   UNL A   1      44.074  29.002  30.036  1.00  0.00     0.167 HD
ATOM     56  C   UNL A   1      45.723  26.696  29.767  1.00  0.00     0.074 A 
ATOM     57  C   UNL A   1      46.172  25.358  29.442  1.00  0.00     0.031 C 
ATOM     58  C   UNL A   1      46.504  27.643  30.344  1.00  0.00     0.037 A 
BRANCH  45  59
ATOM     59  C   UNL A   1      43.667  33.059  31.306  1.00  0.00     0.058 A 
ATOM     60  C   UNL A   1      44.031  34.106  30.445  1.00  0.00     0.135 A 
ATOM     61  C   UNL A   1      43.381  33.380  32.643  1.00  0.00     0.135 A 
ATOM     62  F   UNL A   1      44.336  33.852  29.162  1.00  0.00    -0.206 F 
ATOM     63  C   UNL A   1      44.148  35.416  30.899  1.00  0.00     0.059 A 
ATOM     64  C   UNL A   1      43.463  34.689  33.113  1.00  0.00     0.059 A 
ATOM     65  F   UNL A   1      43.030  32.418  33.510  1.00  0.00    -0.206 F 
ATOM     66  C   UNL A   1      43.865  35.696  32.236  1.00  0.00     0.060 A 
BRANCH  66  67
ATOM     67  S   UNL A   1      44.029  37.398  32.814  1.00  0.00     0.124 S 
ATOM     68  O   UNL A   1      43.864  38.143  31.570  1.00  0.00    -0.237 OA
ATOM     69  O   UNL A   1      42.932  37.512  33.770  1.00  0.00    -0.237 OA
ATOM     70  O   UNL A   1      45.368  37.431  33.394  1.00  0.00    -0.744 OA
ENDBRANCH  66  67
ENDBRANCH  45  59
BRANCH  46  71
ATOM     71  C   UNL A   1      42.652  23.759  27.727  1.00  0.00     0.058 A 
ATOM     72  C   UNL A   1      42.464  22.650  28.565  1.00  0.00     0.135 A 
ATOM     73  C   UNL A   1      42.678  23.536  26.342  1.00  0.00     0.135 A 
ATOM     74  F   UNL A   1      42.434  22.814  29.896  1.00  0.00    -0.206 F 
ATOM     75  C   UNL A   1      42.321  21.365  28.052  1.00  0.00     0.059 A 
ATOM     76  C   UNL A   1      42.516  22.263  25.805  1.00  0.00     0.059 A 
ATOM     77  F   UNL A   1      42.836  24.567  25.498  1.00  0.00    -0.206 F 
ATOM     78  C   UNL A   1      42.346  21.181  26.669  1.00  0.00     0.060 A 
BRANCH  78  79
ATOM     79  S   UNL A   1      42.104  19.516  26.011  1.00  0.00     0.124 S 
ATOM     80  O   UNL A   1      42.936  19.550  24.815  1.00  0.00    -0.237 OA
ATOM     81  O   UNL A   1      42.588  18.680  27.105  1.00  0.00    -0.237 OA
ATOM     82  O   UNL A   1      40.663  19.456  25.779  1.00  0.00    -0.744 OA
ENDBRANCH  78  79
ENDBRANCH  46  71
BRANCH  58  83
ATOM     83  C   UNL A   1      47.913  27.257  30.688  1.00  0.00     0.058 A 
ATOM     84  C   UNL A   1      48.993  27.610  29.865  1.00  0.00     0.135 A 
ATOM     85  C   UNL A   1      48.190  26.577  31.884  1.00  0.00     0.135 A 
ATOM     86  F   UNL A   1      48.778  28.256  28.707  1.00  0.00    -0.206 F 
ATOM     87  C   UNL A   1      50.301  27.287  30.209  1.00  0.00     0.059 A 
ATOM     88  C   UNL A   1      49.493  26.265  32.260  1.00  0.00     0.059 A 
ATOM     89  F   UNL A   1      47.192  26.227  32.711  1.00  0.00    -0.206 F 
ATOM     90  C   UNL A   1      50.540  26.615  31.408  1.00  0.00     0.060 A 
BRANCH  90  91
ATOM     91  S   UNL A   1      52.246  26.237  31.864  1.00  0.00     0.124 S 
ATOM     92  O   UNL A   1      52.793  25.778  30.591  1.00  0.00    -0.237 OA
ATOM     93  O   UNL A   1      52.738  27.526  32.339  1.00  0.00    -0.237 OA
ATOM     94  O   UNL A   1      52.102  25.211  32.892  1.00  0.00    -0.744 OA
ENDBRANCH  90  91
ENDBRANCH  58  83
ENDBRANCH  32  33
ENDBRANCH  24  27
ENDBRANCH  22  23
ENDBRANCH  21  22
ENDBRANCH   1  21
TORSDOF 18
ENDMDL
MODEL 3
REMARK VINA RESULT:     -10.8      1.242      2.081
REMARK SMILES C[C@@](O)(c1cccc(O)c1)[C@@H](F)C(=O)NCCCCNC(=O)c1ccc(-c2c3nc(c(-c4c(F)cc(S(=O)(=O)[O-])cc4F)c4ccc([nH]4)c(-c4c(F)cc(S(=O)(=O)[O-])cc4F)c4nc(c(-c5c(F)cc(S(=O)(=O)[O-])cc5F)c5ccc2[nH]5)C=C4)C=C3)cc1
REMARK SMILES IDX 17 1 16 2 15 3 13 4 14 5 11 7 12 8 2 9 1 10 3 11 4 13 5 14
REMARK SMILES IDX 10 15 6 16 8 17 7 18 9 19 18 21 19 22 20 23 21 24 22 26
REMARK SMILES IDX 23 27 24 28 88 29 25 30 87 31 26 32 27 33 28 34 81 35 29 36
REMARK SMILES IDX 86 37 80 38 82 39 30 40 85 41 79 42 78 43 31 45 65 46 44 47
REMARK SMILES IDX 64 48 45 49 48 50 63 51 83 52 46 53 47 54 62 56 84 57 49 58
REMARK SMILES IDX 32 59 33 60 42 61 34 62 35 63 41 64 43 65 36 66 37 67 38 68
REMARK SMILES IDX 39 69 40 70 66 71 67 72 76 73 68 74 69 75 75 76 77 77 70 78
REMARK SMILES IDX 71 79 72 80 73 81 74 82 50 83 51 84 60 85 52 86 53 87 59 88
REMARK SMILES IDX 61 89 54 90 55 91 56 92 57 93 58 94
REMARK H PARENT 15 6 3 12 9 20 20 25 82 44 48 55
REMARK Flexibility Score: inf
ROOT
ATOM      1  C   UNL A   1      33.657  26.459  25.700  1.00  0.00     0.023 C 
ENDROOT
BRANCH   1   2
ATOM      2  C   UNL A   1      34.042  26.165  24.251  1.00  0.00     0.116 C 
BRANCH   2   3
ATOM      3  N   UNL A   1      32.893  26.256  23.365  1.00  0.00    -0.353 N 
ATOM      4  C   UNL A   1      32.391  25.341  22.486  1.00  0.00     0.257 C 
ATOM      5  O   UNL A   1      31.510  25.722  21.707  1.00  0.00    -0.272 OA
ATOM      6  H   UNL A   1      32.403  27.108  23.406  1.00  0.00     0.163 HD
BRANCH   4   7
ATOM      7  C   UNL A   1      32.933  23.912  22.390  1.00  0.00     0.291 C 
ATOM      8  F   UNL A   1      33.245  23.535  21.117  1.00  0.00    -0.233 F 
BRANCH   7   9
ATOM      9  C   UNL A   1      31.983  22.870  23.056  1.00  0.00     0.127 C 
ATOM     10  C   UNL A   1      32.124  21.489  22.403  1.00  0.00     0.051 C 
BRANCH   9  11
ATOM     11  O   UNL A   1      30.609  23.271  22.881  1.00  0.00    -0.382 OA
ATOM     12  H   UNL A   1      30.573  24.072  22.335  1.00  0.00     0.212 HD
ENDBRANCH   9  11
BRANCH   9  13
ATOM     13  C   UNL A   1      32.181  22.818  24.582  1.00  0.00    -0.010 A 
ATOM     14  C   UNL A   1      33.477  22.736  25.129  1.00  0.00     0.007 A 
ATOM     15  C   UNL A   1      31.107  22.894  25.489  1.00  0.00     0.053 A 
ATOM     16  C   UNL A   1      33.684  22.702  26.513  1.00  0.00     0.004 A 
ATOM     17  C   UNL A   1      31.323  22.876  26.865  1.00  0.00     0.115 A 
ATOM     18  C   UNL A   1      32.604  22.775  27.387  1.00  0.00     0.046 A 
BRANCH  17  19
ATOM     19  O   UNL A   1      30.229  22.972  27.677  1.00  0.00    -0.508 OA
ATOM     20  H   UNL A   1      30.340  23.101  28.598  1.00  0.00     0.293 HD
ENDBRANCH  17  19
ENDBRANCH   9  13
ENDBRANCH   7   9
ENDBRANCH   4   7
ENDBRANCH   2   3
ENDBRANCH   1   2
BRANCH   1  21
ATOM     21  C   UNL A   1      33.300  27.913  25.982  1.00  0.00     0.023 C 
BRANCH  21  22
ATOM     22  C   UNL A   1      33.418  28.309  27.444  1.00  0.00     0.116 C 
BRANCH  22  23
ATOM     23  N   UNL A   1      33.386  29.753  27.647  1.00  0.00    -0.352 N 
ATOM     24  C   UNL A   1      34.391  30.582  28.083  1.00  0.00     0.251 C 
ATOM     25  H   UNL A   1      32.529  30.192  27.444  1.00  0.00     0.163 HD
ATOM     26  O   UNL A   1      34.162  31.760  28.337  1.00  0.00    -0.269 OA
BRANCH  24  27
ATOM     27  C   UNL A   1      35.741  30.019  28.269  1.00  0.00     0.039 A 
ATOM     28  C   UNL A   1      36.642  30.038  27.202  1.00  0.00     0.014 A 
ATOM     29  C   UNL A   1      36.130  29.546  29.525  1.00  0.00     0.014 A 
ATOM     30  C   UNL A   1      37.964  29.650  27.420  1.00  0.00     0.010 A 
ATOM     31  C   UNL A   1      37.467  29.259  29.761  1.00  0.00     0.010 A 
ATOM     32  C   UNL A   1      38.395  29.299  28.710  1.00  0.00    -0.014 A 
BRANCH  32  33
ATOM     33  C   UNL A   1      39.806  28.941  28.990  1.00  0.00     0.031 A 
ATOM     34  C   UNL A   1      40.732  29.980  29.563  1.00  0.00     0.074 A 
ATOM     35  C   UNL A   1      40.270  27.723  28.650  1.00  0.00     0.049 A 
ATOM     36  N   UNL A   1      42.019  29.912  29.775  1.00  0.00    -0.248 NA
ATOM     37  C   UNL A   1      40.136  31.284  29.901  1.00  0.00     0.031 C 
ATOM     38  C   UNL A   1      39.482  26.657  28.023  1.00  0.00     0.029 A 
ATOM     39  N   UNL A   1      41.523  27.177  28.772  1.00  0.00    -0.354 N 
ATOM     40  C   UNL A   1      42.389  31.166  30.243  1.00  0.00     0.074 A 
ATOM     41  C   UNL A   1      41.205  31.994  30.224  1.00  0.00     0.031 C 
ATOM     42  C   UNL A   1      40.265  25.581  27.839  1.00  0.00     0.029 A 
ATOM     43  C   UNL A   1      41.614  25.889  28.301  1.00  0.00     0.049 A 
ATOM     44  H   UNL A   1      42.286  27.664  29.159  1.00  0.00     0.167 HD
ATOM     45  C   UNL A   1      43.600  31.582  30.682  1.00  0.00     0.037 A 
ATOM     46  C   UNL A   1      42.669  25.053  28.249  1.00  0.00     0.037 A 
ATOM     47  C   UNL A   1      44.761  30.736  30.744  1.00  0.00     0.049 A 
ATOM     48  C   UNL A   1      43.993  25.520  28.786  1.00  0.00     0.074 A 
ATOM     49  C   UNL A   1      46.021  31.034  31.231  1.00  0.00     0.029 A 
ATOM     50  N   UNL A   1      44.798  29.418  30.314  1.00  0.00    -0.354 N 
ATOM     51  N   UNL A   1      44.314  26.693  29.281  1.00  0.00    -0.248 NA
ATOM     52  C   UNL A   1      45.098  24.551  28.769  1.00  0.00     0.031 C 
ATOM     53  C   UNL A   1      46.828  29.903  31.072  1.00  0.00     0.029 A 
ATOM     54  C   UNL A   1      46.060  28.889  30.519  1.00  0.00     0.049 A 
ATOM     55  H   UNL A   1      44.039  28.929  29.921  1.00  0.00     0.167 HD
ATOM     56  C   UNL A   1      45.649  26.596  29.654  1.00  0.00     0.074 A 
ATOM     57  C   UNL A   1      46.073  25.247  29.340  1.00  0.00     0.031 C 
ATOM     58  C   UNL A   1      46.453  27.538  30.206  1.00  0.00     0.037 A 
BRANCH  45  59
ATOM     59  C   UNL A   1      43.715  33.008  31.145  1.00  0.00     0.058 A 
ATOM     60  C   UNL A   1      44.033  34.046  30.255  1.00  0.00     0.135 A 
ATOM     61  C   UNL A   1      43.502  33.343  32.492  1.00  0.00     0.135 A 
ATOM     62  F   UNL A   1      44.266  33.778  28.960  1.00  0.00    -0.206 F 
ATOM     63  C   UNL A   1      44.177  35.359  30.689  1.00  0.00     0.059 A 
ATOM     64  C   UNL A   1      43.613  34.656  32.944  1.00  0.00     0.059 A 
ATOM     65  F   UNL A   1      43.197  32.390  33.387  1.00  0.00    -0.206 F 
ATOM     66  C   UNL A   1      43.968  35.654  32.036  1.00  0.00     0.060 A 
BRANCH  66  67
ATOM     67  S   UNL A   1      44.167  37.361  32.587  1.00  0.00     0.124 S 
ATOM     68  O   UNL A   1      45.550  37.355  33.053  1.00  0.00    -0.237 OA
ATOM     69  O   UNL A   1      43.916  38.116  31.363  1.00  0.00    -0.237 OA
ATOM     70  O   UNL A   1      43.154  37.502  33.627  1.00  0.00    -0.744 OA
ENDBRANCH  66  67
ENDBRANCH  45  59
BRANCH  46  71
ATOM     71  C   UNL A   1      42.501  23.680  27.703  1.00  0.00     0.058 A 
ATOM     72  C   UNL A   1      42.526  23.449  26.320  1.00  0.00     0.135 A 
ATOM     73  C   UNL A   1      42.341  22.572  28.548  1.00  0.00     0.135 A 
ATOM     74  F   UNL A   1      42.676  24.478  25.471  1.00  0.00    -0.206 F 
ATOM     75  C   UNL A   1      42.383  22.170  25.791  1.00  0.00     0.059 A 
ATOM     76  C   UNL A   1      42.217  21.281  28.045  1.00  0.00     0.059 A 
ATOM     77  F   UNL A   1      42.330  22.739  29.880  1.00  0.00    -0.206 F 
ATOM     78  C   UNL A   1      42.231  21.091  26.663  1.00  0.00     0.060 A 
BRANCH  78  79
ATOM     79  S   UNL A   1      42.102  19.428  25.970  1.00  0.00     0.124 S 
ATOM     80  O   UNL A   1      40.673  19.333  25.700  1.00  0.00    -0.237 OA
ATOM     81  O   UNL A   1      42.970  19.515  24.799  1.00  0.00    -0.237 OA
ATOM     82  O   UNL A   1      42.601  18.578  27.047  1.00  0.00    -0.744 OA
ENDBRANCH  78  79
ENDBRANCH  46  71
BRANCH  58  83
ATOM     83  C   UNL A   1      47.863  27.135  30.532  1.00  0.00     0.058 A 
ATOM     84  C   UNL A   1      48.922  27.389  29.648  1.00  0.00     0.135 A 
ATOM     85  C   UNL A   1      48.162  26.541  31.767  1.00  0.00     0.135 A 
ATOM     86  F   UNL A   1      48.684  27.951  28.452  1.00  0.00    -0.206 F 
ATOM     87  C   UNL A   1      50.231  27.053  29.972  1.00  0.00     0.059 A 
ATOM     88  C   UNL A   1      49.468  26.217  32.122  1.00  0.00     0.059 A 
ATOM     89  F   UNL A   1      47.184  26.286  32.652  1.00  0.00    -0.206 F 
ATOM     90  C   UNL A   1      50.494  26.468  31.212  1.00  0.00     0.060 A 
BRANCH  90  91
ATOM     91  S   UNL A   1      52.203  26.072  31.638  1.00  0.00     0.124 S 
ATOM     92  O   UNL A   1      52.870  26.231  30.350  1.00  0.00    -0.237 OA
ATOM     93  O   UNL A   1      52.518  27.080  32.645  1.00  0.00    -0.237 OA
ATOM     94  O   UNL A   1      52.119  24.702  32.137  1.00  0.00    -0.744 OA
ENDBRANCH  90  91
ENDBRANCH  58  83
ENDBRANCH  32  33
ENDBRANCH  24  27
ENDBRANCH  22  23
ENDBRANCH  21  22
ENDBRANCH   1  21
TORSDOF 18
ENDMDL
