MODEL 1
REMARK VINA RESULT:     -11.0      0.000      0.000
REMARK SMILES C[C@@H](O)[C@@H](NC(=O)CCOc1ccc(Br)cc1)C(=O)NCCCCNC(=O)c1ccc(-c2c3nc(c(-c4c(F)cc(S(=O)(=O)[O-])cc4F)c4ccc([nH]4)c(-c4c(F)cc(S(=O)(=O)[O-])cc4F)c4nc(c(-c5c(F)cc(S(=O)(=O)[O-])cc5F)c5ccc2[nH]5)C=C4)C=C3)cc1
REMARK SMILES IDX 21 1 20 2 18 3 19 4 4 6 2 7 1 8 3 9 5 11 6 12 7 14 8 15 9 16
REMARK SMILES IDX 10 17 11 18 12 19 17 20 13 21 16 22 14 23 15 24 22 25 23 26
REMARK SMILES IDX 24 27 25 28 26 29 27 31 28 32 29 33 93 34 30 35 92 36 31 37
REMARK SMILES IDX 32 38 33 39 86 40 34 41 91 42 85 43 87 44 35 45 90 46 84 47
REMARK SMILES IDX 83 48 36 50 70 51 49 52 69 53 50 54 53 55 68 56 88 57 51 58
REMARK SMILES IDX 52 59 67 61 89 62 54 63 37 64 38 65 47 66 39 67 40 68 46 69
REMARK SMILES IDX 48 70 41 71 42 72 43 73 44 74 45 75 71 76 72 77 81 78 73 79
REMARK SMILES IDX 74 80 80 81 82 82 75 83 76 84 77 85 78 86 79 87 55 88 56 89
REMARK SMILES IDX 65 90 57 91 58 92 64 93 66 94 59 95 60 96 61 97 62 98 63 99
REMARK H PARENT 20 5 3 10 5 13 25 30 87 49 53 60
REMARK Flexibility Score: inf
ROOT
ATOM      1  C   UNL A   1      33.157  26.544  25.380  1.00  0.00     0.116 C 
ENDROOT
BRANCH   1   2
ATOM      2  N   UNL A   1      33.734  27.597  24.571  1.00  0.00    -0.354 N 
ATOM      3  C   UNL A   1      33.237  28.260  23.486  1.00  0.00     0.245 C 
ATOM      4  O   UNL A   1      33.705  29.392  23.292  1.00  0.00    -0.273 OA
ATOM      5  H   UNL A   1      34.635  27.882  24.850  1.00  0.00     0.163 HD
BRANCH   3   6
ATOM      6  C   UNL A   1      32.075  27.753  22.584  1.00  0.00     0.199 C 
BRANCH   6   7
ATOM      7  C   UNL A   1      30.845  28.674  22.390  1.00  0.00     0.143 C 
ATOM      8  C   UNL A   1      30.197  29.124  23.700  1.00  0.00     0.041 C 
BRANCH   7   9
ATOM      9  O   UNL A   1      31.259  29.858  21.693  1.00  0.00    -0.391 OA
ATOM     10  H   UNL A   1      31.178  29.716  20.738  1.00  0.00     0.211 HD
ENDBRANCH   7   9
ENDBRANCH   6   7
BRANCH   6  11
ATOM     11  N   UNL A   1      32.401  26.873  21.440  1.00  0.00    -0.342 N 
ATOM     12  C   UNL A   1      32.658  25.554  21.275  1.00  0.00     0.224 C 
ATOM     13  H   UNL A   1      32.440  27.367  20.589  1.00  0.00     0.164 HD
ATOM     14  O   UNL A   1      33.111  25.197  20.183  1.00  0.00    -0.275 OA
BRANCH  12  15
ATOM     15  C   UNL A   1      32.337  24.532  22.328  1.00  0.00     0.141 C 
BRANCH  15  16
ATOM     16  C   UNL A   1      33.490  23.568  22.577  1.00  0.00     0.239 C 
BRANCH  16  17
ATOM     17  O   UNL A   1      33.547  23.126  23.937  1.00  0.00    -0.493 OA
BRANCH  17  18
ATOM     18  C   UNL A   1      34.751  22.828  24.503  1.00  0.00     0.119 A 
ATOM     19  C   UNL A   1      35.305  21.557  24.649  1.00  0.00     0.047 A 
ATOM     20  C   UNL A   1      35.472  23.938  24.956  1.00  0.00     0.047 A 
ATOM     21  C   UNL A   1      36.581  21.402  25.195  1.00  0.00     0.019 A 
ATOM     22  C   UNL A   1      36.751  23.790  25.495  1.00  0.00     0.019 A 
ATOM     23  C   UNL A   1      37.303  22.518  25.606  1.00  0.00     0.018 A 
ATOM     24  Br  UNL A   1      39.044  22.305  26.308  1.00  0.00    -0.051 Br
ENDBRANCH  17  18
ENDBRANCH  16  17
ENDBRANCH  15  16
ENDBRANCH  12  15
ENDBRANCH   6  11
ENDBRANCH   3   6
ENDBRANCH   1   2
BRANCH   1  25
ATOM     25  C   UNL A   1      31.922  26.942  26.182  1.00  0.00     0.023 C 
BRANCH  25  26
ATOM     26  C   UNL A   1      32.138  28.044  27.216  1.00  0.00     0.023 C 
BRANCH  26  27
ATOM     27  C   UNL A   1      33.554  28.609  27.308  1.00  0.00     0.116 C 
BRANCH  27  28
ATOM     28  N   UNL A   1      33.607  30.004  27.725  1.00  0.00    -0.352 N 
ATOM     29  C   UNL A   1      34.665  30.713  28.257  1.00  0.00     0.251 C 
ATOM     30  H   UNL A   1      32.772  30.512  27.610  1.00  0.00     0.163 HD
ATOM     31  O   UNL A   1      34.509  31.863  28.643  1.00  0.00    -0.269 OA
BRANCH  29  32
ATOM     32  C   UNL A   1      35.981  30.049  28.399  1.00  0.00     0.039 A 
ATOM     33  C   UNL A   1      36.885  30.099  27.335  1.00  0.00     0.014 A 
ATOM     34  C   UNL A   1      36.346  29.450  29.607  1.00  0.00     0.014 A 
ATOM     35  C   UNL A   1      38.194  29.647  27.523  1.00  0.00     0.010 A 
ATOM     36  C   UNL A   1      37.671  29.081  29.817  1.00  0.00     0.010 A 
ATOM     37  C   UNL A   1      38.616  29.191  28.783  1.00  0.00    -0.014 A 
BRANCH  37  38
ATOM     38  C   UNL A   1      40.038  28.851  29.054  1.00  0.00     0.031 A 
ATOM     39  C   UNL A   1      40.968  29.890  29.622  1.00  0.00     0.074 A 
ATOM     40  C   UNL A   1      40.515  27.636  28.709  1.00  0.00     0.049 A 
ATOM     41  N   UNL A   1      42.258  29.819  29.827  1.00  0.00    -0.248 NA
ATOM     42  C   UNL A   1      40.374  31.187  29.978  1.00  0.00     0.031 C 
ATOM     43  C   UNL A   1      39.733  26.558  28.099  1.00  0.00     0.029 A 
ATOM     44  N   UNL A   1      41.779  27.107  28.810  1.00  0.00    -0.354 N 
ATOM     45  C   UNL A   1      42.632  31.065  30.320  1.00  0.00     0.074 A 
ATOM     46  C   UNL A   1      41.443  31.888  30.330  1.00  0.00     0.031 C 
ATOM     47  C   UNL A   1      40.526  25.492  27.904  1.00  0.00     0.029 A 
ATOM     48  C   UNL A   1      41.881  25.820  28.335  1.00  0.00     0.049 A 
ATOM     49  H   UNL A   1      42.541  27.602  29.188  1.00  0.00     0.167 HD
ATOM     50  C   UNL A   1      43.848  31.477  30.748  1.00  0.00     0.037 A 
ATOM     51  C   UNL A   1      42.946  24.998  28.247  1.00  0.00     0.037 A 
ATOM     52  C   UNL A   1      45.024  30.646  30.767  1.00  0.00     0.049 A 
ATOM     53  C   UNL A   1      44.287  25.478  28.738  1.00  0.00     0.074 A 
ATOM     54  C   UNL A   1      46.290  30.959  31.230  1.00  0.00     0.029 A 
ATOM     55  N   UNL A   1      45.076  29.338  30.310  1.00  0.00    -0.354 N 
ATOM     56  N   UNL A   1      44.607  26.642  29.251  1.00  0.00    -0.248 NA
ATOM     57  C   UNL A   1      45.408  24.533  28.644  1.00  0.00     0.031 C 
ATOM     58  C   UNL A   1      47.117  29.849  31.025  1.00  0.00     0.029 A 
ATOM     59  C   UNL A   1      46.355  28.832  30.472  1.00  0.00     0.049 A 
ATOM     60  H   UNL A   1      44.316  28.842  29.928  1.00  0.00     0.167 HD
ATOM     61  C   UNL A   1      45.959  26.558  29.569  1.00  0.00     0.074 A 
ATOM     62  C   UNL A   1      46.392  25.225  29.200  1.00  0.00     0.031 C 
ATOM     63  C   UNL A   1      46.767  27.497  30.119  1.00  0.00     0.037 A 
BRANCH  50  64
ATOM     64  C   UNL A   1      43.966  32.890  31.251  1.00  0.00     0.058 A 
ATOM     65  C   UNL A   1      44.243  33.956  30.381  1.00  0.00     0.135 A 
ATOM     66  C   UNL A   1      43.764  33.187  32.608  1.00  0.00     0.135 A 
ATOM     67  F   UNL A   1      44.462  33.725  29.076  1.00  0.00    -0.206 F 
ATOM     68  C   UNL A   1      44.344  35.264  30.842  1.00  0.00     0.059 A 
ATOM     69  C   UNL A   1      43.831  34.492  33.087  1.00  0.00     0.059 A 
ATOM     70  F   UNL A   1      43.495  32.205  33.483  1.00  0.00    -0.206 F 
ATOM     71  C   UNL A   1      44.136  35.523  32.198  1.00  0.00     0.060 A 
BRANCH  71  72
ATOM     72  S   UNL A   1      44.260  37.227  32.778  1.00  0.00     0.124 S 
ATOM     73  O   UNL A   1      45.463  37.166  33.603  1.00  0.00    -0.237 OA
ATOM     74  O   UNL A   1      44.386  37.973  31.531  1.00  0.00    -0.237 OA
ATOM     75  O   UNL A   1      43.011  37.431  33.503  1.00  0.00    -0.744 OA
ENDBRANCH  71  72
ENDBRANCH  50  64
BRANCH  51  76
ATOM     76  C   UNL A   1      42.792  23.625  27.696  1.00  0.00     0.058 A 
ATOM     77  C   UNL A   1      42.921  23.384  26.320  1.00  0.00     0.135 A 
ATOM     78  C   UNL A   1      42.503  22.531  28.525  1.00  0.00     0.135 A 
ATOM     79  F   UNL A   1      43.190  24.399  25.485  1.00  0.00    -0.206 F 
ATOM     80  C   UNL A   1      42.744  22.113  25.781  1.00  0.00     0.059 A 
ATOM     81  C   UNL A   1      42.346  21.246  28.013  1.00  0.00     0.059 A 
ATOM     82  F   UNL A   1      42.387  22.703  29.851  1.00  0.00    -0.206 F 
ATOM     83  C   UNL A   1      42.456  21.049  26.637  1.00  0.00     0.060 A 
BRANCH  83  84
ATOM     84  S   UNL A   1      42.260  19.398  25.932  1.00  0.00     0.124 S 
ATOM     85  O   UNL A   1      40.819  19.341  25.715  1.00  0.00    -0.237 OA
ATOM     86  O   UNL A   1      43.086  19.476  24.732  1.00  0.00    -0.237 OA
ATOM     87  O   UNL A   1      42.776  18.524  26.982  1.00  0.00    -0.744 OA
ENDBRANCH  83  84
ENDBRANCH  51  76
BRANCH  63  88
ATOM     88  C   UNL A   1      48.191  27.109  30.402  1.00  0.00     0.058 A 
ATOM     89  C   UNL A   1      49.218  27.343  29.475  1.00  0.00     0.135 A 
ATOM     90  C   UNL A   1      48.539  26.548  31.641  1.00  0.00     0.135 A 
ATOM     91  F   UNL A   1      48.937  27.871  28.273  1.00  0.00    -0.206 F 
ATOM     92  C   UNL A   1      50.540  27.018  29.760  1.00  0.00     0.059 A 
ATOM     93  C   UNL A   1      49.857  26.238  31.957  1.00  0.00     0.059 A 
ATOM     94  F   UNL A   1      47.594  26.313  32.566  1.00  0.00    -0.206 F 
ATOM     95  C   UNL A   1      50.850  26.467  31.006  1.00  0.00     0.060 A 
BRANCH  95  96
ATOM     96  S   UNL A   1      52.576  26.087  31.380  1.00  0.00     0.124 S 
ATOM     97  O   UNL A   1      53.183  26.145  30.055  1.00  0.00    -0.237 OA
ATOM     98  O   UNL A   1      52.944  27.165  32.293  1.00  0.00    -0.237 OA
ATOM     99  O   UNL A   1      52.508  24.760  31.983  1.00  0.00    -0.744 OA
ENDBRANCH  95  96
ENDBRANCH  63  88
ENDBRANCH  37  38
ENDBRANCH  29  32
ENDBRANCH  27  28
ENDBRANCH  26  27
ENDBRANCH  25  26
ENDBRANCH   1  25
TORSDOF 21
ENDMDL
MODEL 2
REMARK VINA RESULT:     -10.3      3.022      9.091
REMARK SMILES C[C@@H](O)[C@@H](NC(=O)CCOc1ccc(Br)cc1)C(=O)NCCCCNC(=O)c1ccc(-c2c3nc(c(-c4c(F)cc(S(=O)(=O)[O-])cc4F)c4ccc([nH]4)c(-c4c(F)cc(S(=O)(=O)[O-])cc4F)c4nc(c(-c5c(F)cc(S(=O)(=O)[O-])cc5F)c5ccc2[nH]5)C=C4)C=C3)cc1
REMARK SMILES IDX 21 1 20 2 18 3 19 4 4 6 2 7 1 8 3 9 5 11 6 12 7 14 8 15 9 16
REMARK SMILES IDX 10 17 11 18 12 19 17 20 13 21 16 22 14 23 15 24 22 25 23 26
REMARK SMILES IDX 24 27 25 28 26 29 27 31 28 32 29 33 93 34 30 35 92 36 31 37
REMARK SMILES IDX 32 38 33 39 86 40 34 41 91 42 85 43 87 44 35 45 90 46 84 47
REMARK SMILES IDX 83 48 36 50 70 51 49 52 69 53 50 54 53 55 68 56 88 57 51 58
REMARK SMILES IDX 52 59 67 61 89 62 54 63 37 64 38 65 47 66 39 67 40 68 46 69
REMARK SMILES IDX 48 70 41 71 42 72 43 73 44 74 45 75 71 76 72 77 81 78 73 79
REMARK SMILES IDX 74 80 80 81 82 82 75 83 76 84 77 85 78 86 79 87 55 88 56 89
REMARK SMILES IDX 65 90 57 91 58 92 64 93 66 94 59 95 60 96 61 97 62 98 63 99
REMARK H PARENT 20 5 3 10 5 13 25 30 87 49 53 60
REMARK Flexibility Score: inf
ROOT
ATOM      1  C   UNL A   1      34.302  24.581  23.697  1.00  0.00     0.116 C 
ENDROOT
BRANCH   1   2
ATOM      2  N   UNL A   1      33.589  24.688  22.442  1.00  0.00    -0.354 N 
ATOM      3  C   UNL A   1      32.950  25.749  21.867  1.00  0.00     0.245 C 
ATOM      4  O   UNL A   1      32.848  25.705  20.632  1.00  0.00    -0.273 OA
ATOM      5  H   UNL A   1      33.559  23.856  21.915  1.00  0.00     0.163 HD
BRANCH   3   6
ATOM      6  C   UNL A   1      32.471  27.020  22.626  1.00  0.00     0.199 C 
BRANCH   6   7
ATOM      7  C   UNL A   1      33.219  28.352  22.365  1.00  0.00     0.143 C 
ATOM      8  C   UNL A   1      34.100  28.804  23.530  1.00  0.00     0.041 C 
BRANCH   7   9
ATOM      9  O   UNL A   1      34.076  28.186  21.226  1.00  0.00    -0.391 OA
ATOM     10  H   UNL A   1      33.854  28.849  20.555  1.00  0.00     0.211 HD
ENDBRANCH   7   9
ENDBRANCH   6   7
BRANCH   6  11
ATOM     11  N   UNL A   1      31.034  27.149  22.953  1.00  0.00    -0.342 N 
ATOM     12  C   UNL A   1      30.142  26.445  23.688  1.00  0.00     0.224 C 
ATOM     13  H   UNL A   1      30.626  27.941  22.534  1.00  0.00     0.164 HD
ATOM     14  O   UNL A   1      28.948  26.734  23.561  1.00  0.00    -0.275 OA
BRANCH  12  15
ATOM     15  C   UNL A   1      30.562  25.406  24.689  1.00  0.00     0.141 C 
BRANCH  15  16
ATOM     16  C   UNL A   1      31.345  26.000  25.853  1.00  0.00     0.239 C 
BRANCH  16  17
ATOM     17  O   UNL A   1      31.037  27.380  26.072  1.00  0.00    -0.493 OA
BRANCH  17  18
ATOM     18  C   UNL A   1      32.005  28.229  26.520  1.00  0.00     0.119 A 
ATOM     19  C   UNL A   1      33.291  27.877  26.925  1.00  0.00     0.047 A 
ATOM     20  C   UNL A   1      31.631  29.577  26.546  1.00  0.00     0.047 A 
ATOM     21  C   UNL A   1      34.206  28.862  27.305  1.00  0.00     0.019 A 
ATOM     22  C   UNL A   1      32.542  30.566  26.917  1.00  0.00     0.019 A 
ATOM     23  C   UNL A   1      33.832  30.203  27.290  1.00  0.00     0.018 A 
ATOM     24  Br  UNL A   1      35.085  31.532  27.767  1.00  0.00    -0.051 Br
ENDBRANCH  17  18
ENDBRANCH  16  17
ENDBRANCH  15  16
ENDBRANCH  12  15
ENDBRANCH   6  11
ENDBRANCH   3   6
ENDBRANCH   1   2
BRANCH   1  25
ATOM     25  C   UNL A   1      34.902  23.210  23.990  1.00  0.00     0.023 C 
BRANCH  25  26
ATOM     26  C   UNL A   1      36.408  23.191  24.237  1.00  0.00     0.023 C 
BRANCH  26  27
ATOM     27  C   UNL A   1      36.847  23.233  25.699  1.00  0.00     0.116 C 
BRANCH  27  28
ATOM     28  N   UNL A   1      37.945  22.328  26.012  1.00  0.00    -0.352 N 
ATOM     29  C   UNL A   1      39.188  22.617  26.536  1.00  0.00     0.251 C 
ATOM     30  H   UNL A   1      37.775  21.377  25.824  1.00  0.00     0.163 HD
ATOM     31  O   UNL A   1      40.033  21.739  26.650  1.00  0.00    -0.269 OA
BRANCH  29  32
ATOM     32  C   UNL A   1      39.506  24.012  26.918  1.00  0.00     0.039 A 
ATOM     33  C   UNL A   1      39.345  24.406  28.248  1.00  0.00     0.014 A 
ATOM     34  C   UNL A   1      40.033  24.901  25.978  1.00  0.00     0.014 A 
ATOM     35  C   UNL A   1      39.819  25.655  28.658  1.00  0.00     0.010 A 
ATOM     36  C   UNL A   1      40.580  26.106  26.405  1.00  0.00     0.010 A 
ATOM     37  C   UNL A   1      40.496  26.491  27.754  1.00  0.00    -0.014 A 
BRANCH  37  38
ATOM     38  C   UNL A   1      41.147  27.753  28.196  1.00  0.00     0.031 A 
ATOM     39  C   UNL A   1      42.646  27.886  28.154  1.00  0.00     0.074 A 
ATOM     40  C   UNL A   1      40.397  28.748  28.715  1.00  0.00     0.049 A 
ATOM     41  N   UNL A   1      43.401  28.859  28.592  1.00  0.00    -0.248 NA
ATOM     42  C   UNL A   1      43.394  26.762  27.568  1.00  0.00     0.031 C 
ATOM     43  C   UNL A   1      38.940  28.725  28.864  1.00  0.00     0.029 A 
ATOM     44  N   UNL A   1      40.759  29.971  29.228  1.00  0.00    -0.354 N 
ATOM     45  C   UNL A   1      44.711  28.460  28.351  1.00  0.00     0.074 A 
ATOM     46  C   UNL A   1      44.649  27.133  27.779  1.00  0.00     0.031 C 
ATOM     47  C   UNL A   1      38.532  29.884  29.407  1.00  0.00     0.029 A 
ATOM     48  C   UNL A   1      39.697  30.719  29.681  1.00  0.00     0.049 A 
ATOM     49  H   UNL A   1      41.691  30.283  29.267  1.00  0.00     0.167 HD
ATOM     50  C   UNL A   1      45.859  29.146  28.564  1.00  0.00     0.037 A 
ATOM     51  C   UNL A   1      39.664  31.936  30.262  1.00  0.00     0.037 A 
ATOM     52  C   UNL A   1      45.918  30.479  29.102  1.00  0.00     0.049 A 
ATOM     53  C   UNL A   1      40.955  32.680  30.479  1.00  0.00     0.074 A 
ATOM     54  C   UNL A   1      47.030  31.276  29.307  1.00  0.00     0.029 A 
ATOM     55  N   UNL A   1      44.817  31.215  29.516  1.00  0.00    -0.354 N 
ATOM     56  N   UNL A   1      42.180  32.307  30.194  1.00  0.00    -0.248 NA
ATOM     57  C   UNL A   1      40.859  34.014  31.090  1.00  0.00     0.031 C 
ATOM     58  C   UNL A   1      46.606  32.483  29.873  1.00  0.00     0.029 A 
ATOM     59  C   UNL A   1      45.225  32.453  29.982  1.00  0.00     0.049 A 
ATOM     60  H   UNL A   1      43.884  30.903  29.481  1.00  0.00     0.167 HD
ATOM     61  C   UNL A   1      42.997  33.371  30.562  1.00  0.00     0.074 A 
ATOM     62  C   UNL A   1      42.126  34.406  31.082  1.00  0.00     0.031 C 
ATOM     63  C   UNL A   1      44.345  33.482  30.477  1.00  0.00     0.037 A 
BRANCH  50  64
ATOM     64  C   UNL A   1      47.151  28.470  28.192  1.00  0.00     0.058 A 
ATOM     65  C   UNL A   1      47.891  27.736  29.133  1.00  0.00     0.135 A 
ATOM     66  C   UNL A   1      47.636  28.524  26.876  1.00  0.00     0.135 A 
ATOM     67  F   UNL A   1      47.480  27.667  30.410  1.00  0.00    -0.206 F 
ATOM     68  C   UNL A   1      49.080  27.103  28.790  1.00  0.00     0.059 A 
ATOM     69  C   UNL A   1      48.810  27.874  26.503  1.00  0.00     0.059 A 
ATOM     70  F   UNL A   1      46.968  29.211  25.936  1.00  0.00    -0.206 F 
ATOM     71  C   UNL A   1      49.532  27.178  27.472  1.00  0.00     0.060 A 
BRANCH  71  72
ATOM     72  S   UNL A   1      51.073  26.343  27.041  1.00  0.00     0.124 S 
ATOM     73  O   UNL A   1      51.317  26.859  25.698  1.00  0.00    -0.237 OA
ATOM     74  O   UNL A   1      51.985  26.817  28.076  1.00  0.00    -0.237 OA
ATOM     75  O   UNL A   1      50.725  24.928  27.116  1.00  0.00    -0.744 OA
ENDBRANCH  71  72
ENDBRANCH  50  64
BRANCH  51  76
ATOM     76  C   UNL A   1      38.365  32.544  30.658  1.00  0.00     0.058 A 
ATOM     77  C   UNL A   1      37.821  32.309  31.930  1.00  0.00     0.135 A 
ATOM     78  C   UNL A   1      37.639  33.358  29.777  1.00  0.00     0.135 A 
ATOM     79  F   UNL A   1      38.474  31.532  32.806  1.00  0.00    -0.206 F 
ATOM     80  C   UNL A   1      36.590  32.839  32.306  1.00  0.00     0.059 A 
ATOM     81  C   UNL A   1      36.418  33.920  30.138  1.00  0.00     0.059 A 
ATOM     82  F   UNL A   1      38.124  33.628  28.555  1.00  0.00    -0.206 F 
ATOM     83  C   UNL A   1      35.895  33.644  31.401  1.00  0.00     0.060 A 
BRANCH  83  84
ATOM     84  S   UNL A   1      34.314  34.354  31.910  1.00  0.00     0.124 S 
ATOM     85  O   UNL A   1      33.785  33.304  32.773  1.00  0.00    -0.237 OA
ATOM     86  O   UNL A   1      34.730  35.583  32.578  1.00  0.00    -0.237 OA
ATOM     87  O   UNL A   1      33.612  34.545  30.644  1.00  0.00    -0.744 OA
ENDBRANCH  83  84
ENDBRANCH  51  76
BRANCH  63  88
ATOM     88  C   UNL A   1      44.964  34.780  30.908  1.00  0.00     0.058 A 
ATOM     89  C   UNL A   1      45.118  35.857  30.021  1.00  0.00     0.135 A 
ATOM     90  C   UNL A   1      45.357  34.967  32.244  1.00  0.00     0.135 A 
ATOM     91  F   UNL A   1      44.764  35.727  28.733  1.00  0.00    -0.206 F 
ATOM     92  C   UNL A   1      45.656  37.070  30.439  1.00  0.00     0.059 A 
ATOM     93  C   UNL A   1      45.875  36.180  32.689  1.00  0.00     0.059 A 
ATOM     94  F   UNL A   1      45.223  33.972  33.134  1.00  0.00    -0.206 F 
ATOM     95  C   UNL A   1      46.030  37.222  31.777  1.00  0.00     0.060 A 
BRANCH  95  96
ATOM     96  S   UNL A   1      46.689  38.815  32.316  1.00  0.00     0.124 S 
ATOM     97  O   UNL A   1      47.408  38.438  33.529  1.00  0.00    -0.237 OA
ATOM     98  O   UNL A   1      47.521  39.210  31.184  1.00  0.00    -0.237 OA
ATOM     99  O   UNL A   1      45.493  39.625  32.520  1.00  0.00    -0.744 OA
ENDBRANCH  95  96
ENDBRANCH  63  88
ENDBRANCH  37  38
ENDBRANCH  29  32
ENDBRANCH  27  28
ENDBRANCH  26  27
ENDBRANCH  25  26
ENDBRANCH   1  25
TORSDOF 21
ENDMDL
MODEL 3
REMARK VINA RESULT:     -10.2      5.058     10.537
REMARK SMILES C[C@@H](O)[C@@H](NC(=O)CCOc1ccc(Br)cc1)C(=O)NCCCCNC(=O)c1ccc(-c2c3nc(c(-c4c(F)cc(S(=O)(=O)[O-])cc4F)c4ccc([nH]4)c(-c4c(F)cc(S(=O)(=O)[O-])cc4F)c4nc(c(-c5c(F)cc(S(=O)(=O)[O-])cc5F)c5ccc2[nH]5)C=C4)C=C3)cc1
REMARK SMILES IDX 21 1 20 2 18 3 19 4 4 6 2 7 1 8 3 9 5 11 6 12 7 14 8 15 9 16
REMARK SMILES IDX 10 17 11 18 12 19 17 20 13 21 16 22 14 23 15 24 22 25 23 26
REMARK SMILES IDX 24 27 25 28 26 29 27 31 28 32 29 33 93 34 30 35 92 36 31 37
REMARK SMILES IDX 32 38 33 39 86 40 34 41 91 42 85 43 87 44 35 45 90 46 84 47
REMARK SMILES IDX 83 48 36 50 70 51 49 52 69 53 50 54 53 55 68 56 88 57 51 58
REMARK SMILES IDX 52 59 67 61 89 62 54 63 37 64 38 65 47 66 39 67 40 68 46 69
REMARK SMILES IDX 48 70 41 71 42 72 43 73 44 74 45 75 71 76 72 77 81 78 73 79
REMARK SMILES IDX 74 80 80 81 82 82 75 83 76 84 77 85 78 86 79 87 55 88 56 89
REMARK SMILES IDX 65 90 57 91 58 92 64 93 66 94 59 95 60 96 61 97 62 98 63 99
REMARK H PARENT 20 5 3 10 5 13 25 30 87 49 53 60
REMARK Flexibility Score: inf
ROOT
ATOM      1  C   UNL A   1      35.394  23.480  24.790  1.00  0.00     0.116 C 
ENDROOT
BRANCH   1   2
ATOM      2  N   UNL A   1      34.497  22.388  25.104  1.00  0.00    -0.354 N 
ATOM      3  C   UNL A   1      33.159  22.239  24.873  1.00  0.00     0.245 C 
ATOM      4  O   UNL A   1      32.756  21.068  24.806  1.00  0.00    -0.273 OA
ATOM      5  H   UNL A   1      34.922  21.627  25.562  1.00  0.00     0.163 HD
BRANCH   3   6
ATOM      6  C   UNL A   1      32.169  23.402  24.577  1.00  0.00     0.199 C 
BRANCH   6   7
ATOM      7  C   UNL A   1      31.787  23.678  23.101  1.00  0.00     0.143 C 
ATOM      8  C   UNL A   1      32.760  24.606  22.374  1.00  0.00     0.041 C 
BRANCH   7   9
ATOM      9  O   UNL A   1      31.773  22.434  22.386  1.00  0.00    -0.391 OA
ATOM     10  H   UNL A   1      30.863  22.106  22.326  1.00  0.00     0.211 HD
ENDBRANCH   7   9
ENDBRANCH   6   7
BRANCH   6  11
ATOM     11  N   UNL A   1      31.123  23.712  25.577  1.00  0.00    -0.342 N 
ATOM     12  C   UNL A   1      30.255  24.728  25.786  1.00  0.00     0.224 C 
ATOM     13  H   UNL A   1      31.038  23.005  26.257  1.00  0.00     0.164 HD
ATOM     14  O   UNL A   1      29.660  24.753  26.868  1.00  0.00    -0.275 OA
BRANCH  12  15
ATOM     15  C   UNL A   1      29.941  25.752  24.732  1.00  0.00     0.141 C 
BRANCH  15  16
ATOM     16  C   UNL A   1      30.848  26.973  24.815  1.00  0.00     0.239 C 
BRANCH  16  17
ATOM     17  O   UNL A   1      32.041  26.718  25.562  1.00  0.00    -0.493 OA
BRANCH  17  18
ATOM     18  C   UNL A   1      32.719  27.754  26.133  1.00  0.00     0.119 A 
ATOM     19  C   UNL A   1      34.100  27.849  26.295  1.00  0.00     0.047 A 
ATOM     20  C   UNL A   1      31.911  28.808  26.572  1.00  0.00     0.047 A 
ATOM     21  C   UNL A   1      34.669  29.001  26.843  1.00  0.00     0.019 A 
ATOM     22  C   UNL A   1      32.473  29.965  27.113  1.00  0.00     0.019 A 
ATOM     23  C   UNL A   1      33.856  30.058  27.240  1.00  0.00     0.018 A 
ATOM     24  Br  UNL A   1      34.633  31.628  27.945  1.00  0.00    -0.051 Br
ENDBRANCH  17  18
ENDBRANCH  16  17
ENDBRANCH  15  16
ENDBRANCH  12  15
ENDBRANCH   6  11
ENDBRANCH   3   6
ENDBRANCH   1   2
BRANCH   1  25
ATOM     25  C   UNL A   1      36.222  23.999  25.961  1.00  0.00     0.023 C 
BRANCH  25  26
ATOM     26  C   UNL A   1      37.617  23.395  26.096  1.00  0.00     0.023 C 
BRANCH  26  27
ATOM     27  C   UNL A   1      38.677  24.293  26.731  1.00  0.00     0.116 C 
BRANCH  27  28
ATOM     28  N   UNL A   1      39.778  24.629  25.839  1.00  0.00    -0.352 N 
ATOM     29  C   UNL A   1      40.798  25.541  26.020  1.00  0.00     0.251 C 
ATOM     30  H   UNL A   1      39.798  24.136  24.987  1.00  0.00     0.163 HD
ATOM     31  O   UNL A   1      41.595  25.767  25.120  1.00  0.00    -0.269 OA
BRANCH  29  32
ATOM     32  C   UNL A   1      40.890  26.277  27.302  1.00  0.00     0.039 A 
ATOM     33  C   UNL A   1      41.886  27.244  27.459  1.00  0.00     0.014 A 
ATOM     34  C   UNL A   1      39.948  26.064  28.310  1.00  0.00     0.014 A 
ATOM     35  C   UNL A   1      41.866  28.076  28.582  1.00  0.00     0.010 A 
ATOM     36  C   UNL A   1      39.880  26.948  29.383  1.00  0.00     0.010 A 
ATOM     37  C   UNL A   1      40.827  27.975  29.523  1.00  0.00    -0.014 A 
BRANCH  37  38
ATOM     38  C   UNL A   1      40.692  28.945  30.643  1.00  0.00     0.031 A 
ATOM     39  C   UNL A   1      41.564  28.816  31.863  1.00  0.00     0.074 A 
ATOM     40  C   UNL A   1      39.729  29.890  30.601  1.00  0.00     0.049 A 
ATOM     41  N   UNL A   1      41.525  29.493  32.981  1.00  0.00    -0.248 NA
ATOM     42  C   UNL A   1      42.595  27.767  31.833  1.00  0.00     0.031 C 
ATOM     43  C   UNL A   1      38.781  30.088  29.501  1.00  0.00     0.029 A 
ATOM     44  N   UNL A   1      39.377  30.854  31.513  1.00  0.00    -0.354 N 
ATOM     45  C   UNL A   1      42.512  28.944  33.792  1.00  0.00     0.074 A 
ATOM     46  C   UNL A   1      43.095  27.842  33.058  1.00  0.00     0.031 C 
ATOM     47  C   UNL A   1      37.974  31.121  29.793  1.00  0.00     0.029 A 
ATOM     48  C   UNL A   1      38.318  31.637  31.115  1.00  0.00     0.049 A 
ATOM     49  H   UNL A   1      39.840  30.975  32.374  1.00  0.00     0.167 HD
ATOM     50  C   UNL A   1      42.914  29.337  35.023  1.00  0.00     0.037 A 
ATOM     51  C   UNL A   1      37.687  32.649  31.744  1.00  0.00     0.037 A 
ATOM     52  C   UNL A   1      42.356  30.454  35.739  1.00  0.00     0.049 A 
ATOM     53  C   UNL A   1      38.159  33.071  33.111  1.00  0.00     0.074 A 
ATOM     54  C   UNL A   1      42.731  30.961  36.971  1.00  0.00     0.029 A 
ATOM     55  N   UNL A   1      41.309  31.242  35.284  1.00  0.00    -0.354 N 
ATOM     56  N   UNL A   1      39.131  32.572  33.837  1.00  0.00    -0.248 NA
ATOM     57  C   UNL A   1      37.455  34.197  33.739  1.00  0.00     0.031 C 
ATOM     58  C   UNL A   1      41.891  32.037  37.276  1.00  0.00     0.029 A 
ATOM     59  C   UNL A   1      41.020  32.225  36.215  1.00  0.00     0.049 A 
ATOM     60  H   UNL A   1      40.842  31.120  34.426  1.00  0.00     0.167 HD
ATOM     61  C   UNL A   1      39.174  33.343  34.994  1.00  0.00     0.074 A 
ATOM     62  C   UNL A   1      38.137  34.347  34.866  1.00  0.00     0.031 C 
ATOM     63  C   UNL A   1      39.998  33.231  36.064  1.00  0.00     0.037 A 
BRANCH  50  64
ATOM     64  C   UNL A   1      44.029  28.561  35.671  1.00  0.00     0.058 A 
ATOM     65  C   UNL A   1      43.768  27.490  36.540  1.00  0.00     0.135 A 
ATOM     66  C   UNL A   1      45.371  28.866  35.392  1.00  0.00     0.135 A 
ATOM     67  F   UNL A   1      42.502  27.168  36.854  1.00  0.00    -0.206 F 
ATOM     68  C   UNL A   1      44.796  26.766  37.133  1.00  0.00     0.059 A 
ATOM     69  C   UNL A   1      46.416  28.137  35.952  1.00  0.00     0.059 A 
ATOM     70  F   UNL A   1      45.677  29.880  34.568  1.00  0.00    -0.206 F 
ATOM     71  C   UNL A   1      46.118  27.097  36.833  1.00  0.00     0.060 A 
BRANCH  71  72
ATOM     72  S   UNL A   1      47.441  26.141  37.603  1.00  0.00     0.124 S 
ATOM     73  O   UNL A   1      46.700  25.009  38.149  1.00  0.00    -0.237 OA
ATOM     74  O   UNL A   1      48.310  25.841  36.469  1.00  0.00    -0.237 OA
ATOM     75  O   UNL A   1      47.997  27.061  38.588  1.00  0.00    -0.744 OA
ENDBRANCH  71  72
ENDBRANCH  50  64
BRANCH  51  76
ATOM     76  C   UNL A   1      36.556  33.355  31.084  1.00  0.00     0.058 A 
ATOM     77  C   UNL A   1      36.782  34.225  30.007  1.00  0.00     0.135 A 
ATOM     78  C   UNL A   1      35.233  33.185  31.520  1.00  0.00     0.135 A 
ATOM     79  F   UNL A   1      38.030  34.426  29.559  1.00  0.00    -0.206 F 
ATOM     80  C   UNL A   1      35.742  34.922  29.401  1.00  0.00     0.059 A 
ATOM     81  C   UNL A   1      34.173  33.851  30.913  1.00  0.00     0.059 A 
ATOM     82  F   UNL A   1      34.961  32.350  32.534  1.00  0.00    -0.206 F 
ATOM     83  C   UNL A   1      34.439  34.729  29.862  1.00  0.00     0.060 A 
BRANCH  83  84
ATOM     84  S   UNL A   1      33.091  35.613  29.047  1.00  0.00     0.124 S 
ATOM     85  O   UNL A   1      32.442  34.539  28.304  1.00  0.00    -0.237 OA
ATOM     86  O   UNL A   1      32.345  36.149  30.181  1.00  0.00    -0.237 OA
ATOM     87  O   UNL A   1      33.787  36.610  28.239  1.00  0.00    -0.744 OA
ENDBRANCH  83  84
ENDBRANCH  51  76
BRANCH  63  88
ATOM     88  C   UNL A   1      39.851  34.244  37.165  1.00  0.00     0.058 A 
ATOM     89  C   UNL A   1      40.470  35.501  37.100  1.00  0.00     0.135 A 
ATOM     90  C   UNL A   1      39.031  33.971  38.272  1.00  0.00     0.135 A 
ATOM     91  F   UNL A   1      41.269  35.809  36.065  1.00  0.00    -0.206 F 
ATOM     92  C   UNL A   1      40.296  36.448  38.104  1.00  0.00     0.059 A 
ATOM     93  C   UNL A   1      38.823  34.912  39.275  1.00  0.00     0.059 A 
ATOM     94  F   UNL A   1      38.409  32.786  38.377  1.00  0.00    -0.206 F 
ATOM     95  C   UNL A   1      39.468  36.145  39.187  1.00  0.00     0.060 A 
BRANCH  95  96
ATOM     96  S   UNL A   1      39.217  37.397  40.464  1.00  0.00     0.124 S 
ATOM     97  O   UNL A   1      38.140  38.194  39.885  1.00  0.00    -0.237 OA
ATOM     98  O   UNL A   1      38.855  36.592  41.626  1.00  0.00    -0.237 OA
ATOM     99  O   UNL A   1      40.514  38.060  40.548  1.00  0.00    -0.744 OA
ENDBRANCH  95  96
ENDBRANCH  63  88
ENDBRANCH  37  38
ENDBRANCH  29  32
ENDBRANCH  27  28
ENDBRANCH  26  27
ENDBRANCH  25  26
ENDBRANCH   1  25
TORSDOF 21
ENDMDL
