MODEL 1
REMARK VINA RESULT:     -12.1      0.000      0.000
REMARK SMILES N#Cc1ccccc1S(=O)(=O)N1CCC(C(=O)NCCCCNC(=O)c2ccc(-c3c4nc(c(-c5c(F)cc(S(=O)(=O)[O-])cc5F)c5ccc([nH]5)c(-c5c(F)cc(S(=O)(=O)[O-])cc5F)c5nc(c(-c6c(F)cc(S(=O)(=O)[O-])cc6F)c6ccc3[nH]6)C=C5)C=C4)cc2)CC1
REMARK SMILES IDX 20 1 19 2 18 3 16 4 17 5 15 7 12 8 13 9 93 10 14 11 92 12
REMARK SMILES IDX 9 13 10 14 11 15 8 16 3 17 4 18 5 19 7 20 6 21 2 22 1 23
REMARK SMILES IDX 21 24 22 25 23 26 24 27 25 29 26 30 27 31 91 32 28 33 90 34
REMARK SMILES IDX 29 35 30 36 31 37 84 38 32 39 89 40 83 41 85 42 33 43 88 44
REMARK SMILES IDX 82 45 81 46 34 48 68 49 47 50 67 51 48 52 51 53 66 54 86 55
REMARK SMILES IDX 49 56 50 57 65 59 87 60 52 61 35 62 36 63 45 64 37 65 38 66
REMARK SMILES IDX 44 67 46 68 39 69 40 70 41 71 42 72 43 73 69 74 70 75 79 76
REMARK SMILES IDX 71 77 72 78 78 79 80 80 73 81 74 82 75 83 76 84 77 85 53 86
REMARK SMILES IDX 54 87 63 88 55 89 56 90 62 91 64 92 57 93 58 94 59 95 60 96
REMARK SMILES IDX 61 97
REMARK H PARENT 18 6 23 28 85 47 51 58
REMARK Flexibility Score: inf
ROOT
ATOM      1  C   UNL A   1      38.842  21.638  26.050  1.00  0.00     0.023 C 
ENDROOT
BRANCH   1   2
ATOM      2  C   UNL A   1      37.469  21.430  25.418  1.00  0.00     0.116 C 
BRANCH   2   3
ATOM      3  N   UNL A   1      37.365  22.090  24.127  1.00  0.00    -0.356 N 
ATOM      4  C   UNL A   1      36.334  22.784  23.571  1.00  0.00     0.223 C 
ATOM      5  O   UNL A   1      36.474  23.227  22.430  1.00  0.00    -0.275 OA
ATOM      6  H   UNL A   1      38.170  22.026  23.564  1.00  0.00     0.163 HD
BRANCH   4   7
ATOM      7  C   UNL A   1      35.048  23.025  24.347  1.00  0.00     0.081 C 
ATOM      8  N   UNL A   1      32.718  24.679  24.939  1.00  0.00    -0.198 NA
ATOM      9  C   UNL A   1      33.920  24.877  25.766  1.00  0.00     0.103 C 
ATOM     10  C   UNL A   1      32.573  23.547  24.012  1.00  0.00     0.103 C 
ATOM     11  C   UNL A   1      35.193  24.220  25.280  1.00  0.00     0.030 C 
ATOM     12  C   UNL A   1      33.863  23.067  23.393  1.00  0.00     0.030 C 
BRANCH   8  13
ATOM     13  S   UNL A   1      31.290  25.363  25.536  1.00  0.00     0.244 S 
ATOM     14  O   UNL A   1      31.150  24.924  26.909  1.00  0.00    -0.207 OA
ATOM     15  O   UNL A   1      30.243  25.112  24.567  1.00  0.00    -0.207 OA
BRANCH  13  16
ATOM     16  C   UNL A   1      31.422  27.142  25.632  1.00  0.00     0.100 A 
ATOM     17  C   UNL A   1      31.339  28.076  24.597  1.00  0.00     0.072 A 
ATOM     18  C   UNL A   1      31.517  29.444  24.890  1.00  0.00     0.021 A 
ATOM     19  C   UNL A   1      31.749  29.886  26.188  1.00  0.00     0.001 A 
ATOM     20  C   UNL A   1      31.647  27.606  26.946  1.00  0.00     0.023 A 
ATOM     21  C   UNL A   1      31.804  28.965  27.222  1.00  0.00     0.001 A 
BRANCH  17  22
ATOM     22  C   UNL A   1      31.066  27.817  23.220  1.00  0.00     0.101 C 
ATOM     23  N   UNL A   1      30.791  27.511  22.140  1.00  0.00    -0.192 NA
ENDBRANCH  17  22
ENDBRANCH  13  16
ENDBRANCH   8  13
ENDBRANCH   4   7
ENDBRANCH   2   3
ENDBRANCH   1   2
BRANCH   1  24
ATOM     24  C   UNL A   1      39.100  23.067  26.511  1.00  0.00     0.023 C 
BRANCH  24  25
ATOM     25  C   UNL A   1      40.455  23.277  27.170  1.00  0.00     0.116 C 
BRANCH  25  26
ATOM     26  N   UNL A   1      41.464  23.757  26.236  1.00  0.00    -0.352 N 
ATOM     27  C   UNL A   1      41.976  25.025  26.114  1.00  0.00     0.251 C 
ATOM     28  H   UNL A   1      41.825  23.086  25.612  1.00  0.00     0.163 HD
ATOM     29  O   UNL A   1      42.704  25.315  25.171  1.00  0.00    -0.269 OA
BRANCH  27  30
ATOM     30  C   UNL A   1      41.605  26.037  27.121  1.00  0.00     0.039 A 
ATOM     31  C   UNL A   1      40.673  25.704  28.104  1.00  0.00     0.014 A 
ATOM     32  C   UNL A   1      42.241  27.282  27.131  1.00  0.00     0.014 A 
ATOM     33  C   UNL A   1      40.426  26.604  29.141  1.00  0.00     0.010 A 
ATOM     34  C   UNL A   1      42.063  28.132  28.214  1.00  0.00     0.010 A 
ATOM     35  C   UNL A   1      41.149  27.807  29.227  1.00  0.00    -0.014 A 
BRANCH  35  36
ATOM     36  C   UNL A   1      40.959  28.738  30.366  1.00  0.00     0.031 A 
ATOM     37  C   UNL A   1      41.809  28.597  31.598  1.00  0.00     0.074 A 
ATOM     38  C   UNL A   1      39.986  29.670  30.312  1.00  0.00     0.049 A 
ATOM     39  N   UNL A   1      41.757  29.269  32.718  1.00  0.00    -0.248 NA
ATOM     40  C   UNL A   1      42.837  27.541  31.582  1.00  0.00     0.031 C 
ATOM     41  C   UNL A   1      39.062  29.867  29.191  1.00  0.00     0.029 A 
ATOM     42  N   UNL A   1      39.604  30.621  31.226  1.00  0.00    -0.354 N 
ATOM     43  C   UNL A   1      42.734  28.717  33.537  1.00  0.00     0.074 A 
ATOM     44  C   UNL A   1      43.319  27.611  32.814  1.00  0.00     0.031 C 
ATOM     45  C   UNL A   1      38.240  30.891  29.474  1.00  0.00     0.029 A 
ATOM     46  C   UNL A   1      38.544  31.393  30.809  1.00  0.00     0.049 A 
ATOM     47  H   UNL A   1      40.046  30.738  32.097  1.00  0.00     0.167 HD
ATOM     48  C   UNL A   1      43.128  29.114  34.771  1.00  0.00     0.037 A 
ATOM     49  C   UNL A   1      37.886  32.386  31.438  1.00  0.00     0.037 A 
ATOM     50  C   UNL A   1      42.551  30.228  35.476  1.00  0.00     0.049 A 
ATOM     51  C   UNL A   1      38.332  32.800  32.815  1.00  0.00     0.074 A 
ATOM     52  C   UNL A   1      42.911  30.743  36.709  1.00  0.00     0.029 A 
ATOM     53  N   UNL A   1      41.492  30.997  35.015  1.00  0.00    -0.354 N 
ATOM     54  N   UNL A   1      39.303  32.309  33.549  1.00  0.00    -0.248 NA
ATOM     55  C   UNL A   1      37.601  33.905  33.448  1.00  0.00     0.031 C 
ATOM     56  C   UNL A   1      42.035  31.788  37.019  1.00  0.00     0.029 A 
ATOM     57  C   UNL A   1      41.170  31.967  35.950  1.00  0.00     0.049 A 
ATOM     58  H   UNL A   1      41.037  30.872  34.151  1.00  0.00     0.167 HD
ATOM     59  C   UNL A   1      39.318  33.066  34.715  1.00  0.00     0.074 A 
ATOM     60  C   UNL A   1      38.270  34.055  34.583  1.00  0.00     0.031 C 
ATOM     61  C   UNL A   1      40.128  32.953  35.799  1.00  0.00     0.037 A 
BRANCH  48  62
ATOM     62  C   UNL A   1      44.241  28.347  35.431  1.00  0.00     0.058 A 
ATOM     63  C   UNL A   1      45.589  28.705  35.259  1.00  0.00     0.135 A 
ATOM     64  C   UNL A   1      43.958  27.266  36.281  1.00  0.00     0.135 A 
ATOM     65  F   UNL A   1      45.920  29.718  34.443  1.00  0.00    -0.206 F 
ATOM     66  C   UNL A   1      46.615  28.005  35.884  1.00  0.00     0.059 A 
ATOM     67  C   UNL A   1      44.966  26.572  36.944  1.00  0.00     0.059 A 
ATOM     68  F   UNL A   1      42.688  26.877  36.481  1.00  0.00    -0.206 F 
ATOM     69  C   UNL A   1      46.293  26.942  36.728  1.00  0.00     0.060 A 
BRANCH  69  70
ATOM     70  S   UNL A   1      47.637  26.058  37.548  1.00  0.00     0.124 S 
ATOM     71  O   UNL A   1      48.651  26.032  36.497  1.00  0.00    -0.237 OA
ATOM     72  O   UNL A   1      47.927  26.924  38.686  1.00  0.00    -0.237 OA
ATOM     73  O   UNL A   1      47.045  24.768  37.880  1.00  0.00    -0.744 OA
ENDBRANCH  69  70
ENDBRANCH  48  62
BRANCH  49  74
ATOM     74  C   UNL A   1      36.742  33.066  30.769  1.00  0.00     0.058 A 
ATOM     75  C   UNL A   1      36.947  33.955  29.704  1.00  0.00     0.135 A 
ATOM     76  C   UNL A   1      35.419  32.838  31.181  1.00  0.00     0.135 A 
ATOM     77  F   UNL A   1      38.193  34.212  29.276  1.00  0.00    -0.206 F 
ATOM     78  C   UNL A   1      35.888  34.614  29.088  1.00  0.00     0.059 A 
ATOM     79  C   UNL A   1      34.341  33.461  30.560  1.00  0.00     0.059 A 
ATOM     80  F   UNL A   1      35.164  31.982  32.183  1.00  0.00    -0.206 F 
ATOM     81  C   UNL A   1      34.587  34.358  29.522  1.00  0.00     0.060 A 
BRANCH  81  82
ATOM     82  S   UNL A   1      33.217  35.192  28.692  1.00  0.00     0.124 S 
ATOM     83  O   UNL A   1      33.915  36.233  27.947  1.00  0.00    -0.237 OA
ATOM     84  O   UNL A   1      32.641  34.112  27.896  1.00  0.00    -0.237 OA
ATOM     85  O   UNL A   1      32.386  35.656  29.799  1.00  0.00    -0.744 OA
ENDBRANCH  81  82
ENDBRANCH  49  74
BRANCH  61  86
ATOM     86  C   UNL A   1      39.943  33.949  36.912  1.00  0.00     0.058 A 
ATOM     87  C   UNL A   1      40.627  35.173  36.934  1.00  0.00     0.135 A 
ATOM     88  C   UNL A   1      39.022  33.695  37.942  1.00  0.00     0.135 A 
ATOM     89  F   UNL A   1      41.523  35.465  35.978  1.00  0.00    -0.206 F 
ATOM     90  C   UNL A   1      40.425  36.100  37.952  1.00  0.00     0.059 A 
ATOM     91  C   UNL A   1      38.780  34.621  38.951  1.00  0.00     0.059 A 
ATOM     92  F   UNL A   1      38.330  32.543  37.964  1.00  0.00    -0.206 F 
ATOM     93  C   UNL A   1      39.496  35.816  38.953  1.00  0.00     0.060 A 
BRANCH  93  94
ATOM     94  S   UNL A   1      39.219  37.044  40.248  1.00  0.00     0.124 S 
ATOM     95  O   UNL A   1      38.461  36.273  41.228  1.00  0.00    -0.237 OA
ATOM     96  O   UNL A   1      40.581  37.397  40.636  1.00  0.00    -0.237 OA
ATOM     97  O   UNL A   1      38.475  38.098  39.565  1.00  0.00    -0.744 OA
ENDBRANCH  93  94
ENDBRANCH  61  86
ENDBRANCH  35  36
ENDBRANCH  27  30
ENDBRANCH  25  26
ENDBRANCH  24  25
ENDBRANCH   1  24
TORSDOF 17
ENDMDL
MODEL 2
REMARK VINA RESULT:     -12.1      5.999      8.186
REMARK SMILES N#Cc1ccccc1S(=O)(=O)N1CCC(C(=O)NCCCCNC(=O)c2ccc(-c3c4nc(c(-c5c(F)cc(S(=O)(=O)[O-])cc5F)c5ccc([nH]5)c(-c5c(F)cc(S(=O)(=O)[O-])cc5F)c5nc(c(-c6c(F)cc(S(=O)(=O)[O-])cc6F)c6ccc3[nH]6)C=C5)C=C4)cc2)CC1
REMARK SMILES IDX 20 1 19 2 18 3 16 4 17 5 15 7 12 8 13 9 93 10 14 11 92 12
REMARK SMILES IDX 9 13 10 14 11 15 8 16 3 17 4 18 5 19 7 20 6 21 2 22 1 23
REMARK SMILES IDX 21 24 22 25 23 26 24 27 25 29 26 30 27 31 91 32 28 33 90 34
REMARK SMILES IDX 29 35 30 36 31 37 84 38 32 39 89 40 83 41 85 42 33 43 88 44
REMARK SMILES IDX 82 45 81 46 34 48 68 49 47 50 67 51 48 52 51 53 66 54 86 55
REMARK SMILES IDX 49 56 50 57 65 59 87 60 52 61 35 62 36 63 45 64 37 65 38 66
REMARK SMILES IDX 44 67 46 68 39 69 40 70 41 71 42 72 43 73 69 74 70 75 79 76
REMARK SMILES IDX 71 77 72 78 78 79 80 80 73 81 74 82 75 83 76 84 77 85 53 86
REMARK SMILES IDX 54 87 63 88 55 89 56 90 62 91 64 92 57 93 58 94 59 95 60 96
REMARK SMILES IDX 61 97
REMARK H PARENT 18 6 23 28 85 47 51 58
REMARK Flexibility Score: inf
ROOT
ATOM      1  C   UNL A   1      37.310  21.600  24.937  1.00  0.00     0.023 C 
ENDROOT
BRANCH   1   2
ATOM      2  C   UNL A   1      35.919  21.339  25.506  1.00  0.00     0.116 C 
BRANCH   2   3
ATOM      3  N   UNL A   1      35.373  20.077  25.037  1.00  0.00    -0.356 N 
ATOM      4  C   UNL A   1      34.084  19.709  24.792  1.00  0.00     0.223 C 
ATOM      5  O   UNL A   1      33.865  18.553  24.428  1.00  0.00    -0.275 OA
ATOM      6  H   UNL A   1      36.041  19.375  24.869  1.00  0.00     0.163 HD
BRANCH   4   7
ATOM      7  C   UNL A   1      32.946  20.707  24.941  1.00  0.00     0.081 C 
ATOM      8  N   UNL A   1      32.003  23.460  25.157  1.00  0.00    -0.198 NA
ATOM      9  C   UNL A   1      32.284  22.737  26.408  1.00  0.00     0.103 C 
ATOM     10  C   UNL A   1      31.951  22.788  23.850  1.00  0.00     0.103 C 
ATOM     11  C   UNL A   1      33.024  21.424  26.282  1.00  0.00     0.030 C 
ATOM     12  C   UNL A   1      32.874  21.602  23.711  1.00  0.00     0.030 C 
BRANCH   8  13
ATOM     13  S   UNL A   1      31.113  24.890  25.314  1.00  0.00     0.244 S 
ATOM     14  O   UNL A   1      30.430  24.828  26.590  1.00  0.00    -0.207 OA
ATOM     15  O   UNL A   1      30.371  25.085  24.086  1.00  0.00    -0.207 OA
BRANCH  13  16
ATOM     16  C   UNL A   1      32.193  26.308  25.438  1.00  0.00     0.100 A 
ATOM     17  C   UNL A   1      33.165  26.741  24.533  1.00  0.00     0.072 A 
ATOM     18  C   UNL A   1      33.945  27.872  24.850  1.00  0.00     0.021 A 
ATOM     19  C   UNL A   1      33.752  28.580  26.032  1.00  0.00     0.001 A 
ATOM     20  C   UNL A   1      32.003  27.042  26.629  1.00  0.00     0.023 A 
ATOM     21  C   UNL A   1      32.771  28.170  26.921  1.00  0.00     0.001 A 
BRANCH  17  22
ATOM     22  C   UNL A   1      33.472  26.174  23.260  1.00  0.00     0.101 C 
ATOM     23  N   UNL A   1      33.726  25.612  22.281  1.00  0.00    -0.192 NA
ENDBRANCH  17  22
ENDBRANCH  13  16
ENDBRANCH   8  13
ENDBRANCH   4   7
ENDBRANCH   2   3
ENDBRANCH   1   2
BRANCH   1  24
ATOM     24  C   UNL A   1      38.257  20.412  25.050  1.00  0.00     0.023 C 
BRANCH  24  25
ATOM     25  C   UNL A   1      39.401  20.615  26.031  1.00  0.00     0.116 C 
BRANCH  25  26
ATOM     26  N   UNL A   1      40.314  19.481  26.070  1.00  0.00    -0.352 N 
ATOM     27  C   UNL A   1      41.685  19.494  26.147  1.00  0.00     0.251 C 
ATOM     28  H   UNL A   1      39.894  18.591  26.035  1.00  0.00     0.163 HD
ATOM     29  O   UNL A   1      42.327  18.458  26.007  1.00  0.00    -0.269 OA
BRANCH  27  30
ATOM     30  C   UNL A   1      42.368  20.782  26.369  1.00  0.00     0.039 A 
ATOM     31  C   UNL A   1      42.737  21.551  25.266  1.00  0.00     0.014 A 
ATOM     32  C   UNL A   1      42.568  21.254  27.670  1.00  0.00     0.014 A 
ATOM     33  C   UNL A   1      43.252  22.832  25.471  1.00  0.00     0.010 A 
ATOM     34  C   UNL A   1      42.990  22.562  27.866  1.00  0.00     0.010 A 
ATOM     35  C   UNL A   1      43.344  23.363  26.770  1.00  0.00    -0.014 A 
BRANCH  35  36
ATOM     36  C   UNL A   1      43.811  24.752  27.001  1.00  0.00     0.031 A 
ATOM     37  C   UNL A   1      45.265  25.092  26.825  1.00  0.00     0.074 A 
ATOM     38  C   UNL A   1      42.937  25.688  27.425  1.00  0.00     0.049 A 
ATOM     39  N   UNL A   1      45.878  26.227  27.037  1.00  0.00    -0.248 NA
ATOM     40  C   UNL A   1      46.154  24.007  26.378  1.00  0.00     0.031 C 
ATOM     41  C   UNL A   1      41.513  25.464  27.683  1.00  0.00     0.029 A 
ATOM     42  N   UNL A   1      43.122  27.016  27.722  1.00  0.00    -0.354 N 
ATOM     43  C   UNL A   1      47.218  25.991  26.757  1.00  0.00     0.074 A 
ATOM     44  C   UNL A   1      47.342  24.589  26.425  1.00  0.00     0.031 C 
ATOM     45  C   UNL A   1      40.949  26.618  28.075  1.00  0.00     0.029 A 
ATOM     46  C   UNL A   1      41.976  27.652  28.140  1.00  0.00     0.049 A 
ATOM     47  H   UNL A   1      43.991  27.469  27.644  1.00  0.00     0.167 HD
ATOM     48  C   UNL A   1      48.249  26.870  26.748  1.00  0.00     0.037 A 
ATOM     49  C   UNL A   1      41.779  28.924  28.541  1.00  0.00     0.037 A 
ATOM     50  C   UNL A   1      48.112  28.268  27.064  1.00  0.00     0.049 A 
ATOM     51  C   UNL A   1      42.943  29.878  28.539  1.00  0.00     0.074 A 
ATOM     52  C   UNL A   1      49.084  29.253  27.038  1.00  0.00     0.029 A 
ATOM     53  N   UNL A   1      46.933  28.880  27.465  1.00  0.00    -0.354 N 
ATOM     54  N   UNL A   1      44.192  29.654  28.206  1.00  0.00    -0.248 NA
ATOM     55  C   UNL A   1      42.671  31.260  28.958  1.00  0.00     0.031 C 
ATOM     56  C   UNL A   1      48.506  30.448  27.476  1.00  0.00     0.029 A 
ATOM     57  C   UNL A   1      47.159  30.223  27.713  1.00  0.00     0.049 A 
ATOM     58  H   UNL A   1      46.065  28.425  27.560  1.00  0.00     0.167 HD
ATOM     59  C   UNL A   1      44.848  30.872  28.346  1.00  0.00     0.074 A 
ATOM     60  C   UNL A   1      43.855  31.832  28.779  1.00  0.00     0.031 C 
ATOM     61  C   UNL A   1      46.155  31.170  28.135  1.00  0.00     0.037 A 
BRANCH  48  62
ATOM     62  C   UNL A   1      49.611  26.349  26.379  1.00  0.00     0.058 A 
ATOM     63  C   UNL A   1      50.136  26.508  25.085  1.00  0.00     0.135 A 
ATOM     64  C   UNL A   1      50.421  25.720  27.338  1.00  0.00     0.135 A 
ATOM     65  F   UNL A   1      49.400  27.084  24.122  1.00  0.00    -0.206 F 
ATOM     66  C   UNL A   1      51.402  26.041  24.750  1.00  0.00     0.059 A 
ATOM     67  C   UNL A   1      51.704  25.274  27.034  1.00  0.00     0.059 A 
ATOM     68  F   UNL A   1      49.969  25.538  28.589  1.00  0.00    -0.206 F 
ATOM     69  C   UNL A   1      52.181  25.429  25.733  1.00  0.00     0.060 A 
BRANCH  69  70
ATOM     70  S   UNL A   1      53.830  24.848  25.285  1.00  0.00     0.124 S 
ATOM     71  O   UNL A   1      53.591  23.421  25.086  1.00  0.00    -0.237 OA
ATOM     72  O   UNL A   1      54.112  25.617  24.078  1.00  0.00    -0.237 OA
ATOM     73  O   UNL A   1      54.641  25.191  26.448  1.00  0.00    -0.744 OA
ENDBRANCH  69  70
ENDBRANCH  48  62
BRANCH  49  74
ATOM     74  C   UNL A   1      40.424  29.371  28.968  1.00  0.00     0.058 A 
ATOM     75  C   UNL A   1      39.406  29.601  28.031  1.00  0.00     0.135 A 
ATOM     76  C   UNL A   1      40.119  29.576  30.323  1.00  0.00     0.135 A 
ATOM     77  F   UNL A   1      39.647  29.425  26.722  1.00  0.00    -0.206 F 
ATOM     78  C   UNL A   1      38.144  30.043  28.417  1.00  0.00     0.059 A 
ATOM     79  C   UNL A   1      38.856  29.988  30.736  1.00  0.00     0.059 A 
ATOM     80  F   UNL A   1      41.051  29.353  31.263  1.00  0.00    -0.206 F 
ATOM     81  C   UNL A   1      37.878  30.231  29.774  1.00  0.00     0.060 A 
BRANCH  81  82
ATOM     82  S   UNL A   1      36.226  30.770  30.266  1.00  0.00     0.124 S 
ATOM     83  O   UNL A   1      35.495  30.661  29.009  1.00  0.00    -0.237 OA
ATOM     84  O   UNL A   1      35.881  29.793  31.294  1.00  0.00    -0.237 OA
ATOM     85  O   UNL A   1      36.448  32.128  30.752  1.00  0.00    -0.744 OA
ENDBRANCH  81  82
ENDBRANCH  49  74
BRANCH  61  86
ATOM     86  C   UNL A   1      46.582  32.600  28.328  1.00  0.00     0.058 A 
ATOM     87  C   UNL A   1      46.503  33.544  27.293  1.00  0.00     0.135 A 
ATOM     88  C   UNL A   1      47.024  33.043  29.586  1.00  0.00     0.135 A 
ATOM     89  F   UNL A   1      46.092  33.174  26.070  1.00  0.00    -0.206 F 
ATOM     90  C   UNL A   1      46.871  34.871  27.491  1.00  0.00     0.059 A 
ATOM     91  C   UNL A   1      47.366  34.371  29.815  1.00  0.00     0.059 A 
ATOM     92  F   UNL A   1      47.108  32.184  30.615  1.00  0.00    -0.206 F 
ATOM     93  C   UNL A   1      47.297  35.276  28.757  1.00  0.00     0.060 A 
BRANCH  93  94
ATOM     94  S   UNL A   1      47.738  37.009  29.007  1.00  0.00     0.124 S 
ATOM     95  O   UNL A   1      46.789  37.409  30.040  1.00  0.00    -0.237 OA
ATOM     96  O   UNL A   1      49.132  36.915  29.428  1.00  0.00    -0.237 OA
ATOM     97  O   UNL A   1      47.525  37.608  27.692  1.00  0.00    -0.744 OA
ENDBRANCH  93  94
ENDBRANCH  61  86
ENDBRANCH  35  36
ENDBRANCH  27  30
ENDBRANCH  25  26
ENDBRANCH  24  25
ENDBRANCH   1  24
TORSDOF 17
ENDMDL
MODEL 3
REMARK VINA RESULT:     -12.1      0.536      8.245
REMARK SMILES N#Cc1ccccc1S(=O)(=O)N1CCC(C(=O)NCCCCNC(=O)c2ccc(-c3c4nc(c(-c5c(F)cc(S(=O)(=O)[O-])cc5F)c5ccc([nH]5)c(-c5c(F)cc(S(=O)(=O)[O-])cc5F)c5nc(c(-c6c(F)cc(S(=O)(=O)[O-])cc6F)c6ccc3[nH]6)C=C5)C=C4)cc2)CC1
REMARK SMILES IDX 20 1 19 2 18 3 16 4 17 5 15 7 12 8 13 9 93 10 14 11 92 12
REMARK SMILES IDX 9 13 10 14 11 15 8 16 3 17 4 18 5 19 7 20 6 21 2 22 1 23
REMARK SMILES IDX 21 24 22 25 23 26 24 27 25 29 26 30 27 31 91 32 28 33 90 34
REMARK SMILES IDX 29 35 30 36 31 37 84 38 32 39 89 40 83 41 85 42 33 43 88 44
REMARK SMILES IDX 82 45 81 46 34 48 68 49 47 50 67 51 48 52 51 53 66 54 86 55
REMARK SMILES IDX 49 56 50 57 65 59 87 60 52 61 35 62 36 63 45 64 37 65 38 66
REMARK SMILES IDX 44 67 46 68 39 69 40 70 41 71 42 72 43 73 69 74 70 75 79 76
REMARK SMILES IDX 71 77 72 78 78 79 80 80 73 81 74 82 75 83 76 84 77 85 53 86
REMARK SMILES IDX 54 87 63 88 55 89 56 90 62 91 64 92 57 93 58 94 59 95 60 96
REMARK SMILES IDX 61 97
REMARK H PARENT 18 6 23 28 85 47 51 58
REMARK Flexibility Score: inf
ROOT
ATOM      1  C   UNL A   1      38.833  21.738  26.101  1.00  0.00     0.023 C 
ENDROOT
BRANCH   1   2
ATOM      2  C   UNL A   1      37.544  21.322  25.400  1.00  0.00     0.116 C 
BRANCH   2   3
ATOM      3  N   UNL A   1      37.392  21.984  24.115  1.00  0.00    -0.356 N 
ATOM      4  C   UNL A   1      36.364  22.727  23.620  1.00  0.00     0.223 C 
ATOM      5  O   UNL A   1      36.455  23.161  22.471  1.00  0.00    -0.275 OA
ATOM      6  H   UNL A   1      38.156  21.880  23.503  1.00  0.00     0.163 HD
BRANCH   4   7
ATOM      7  C   UNL A   1      35.142  23.034  24.474  1.00  0.00     0.081 C 
ATOM      8  N   UNL A   1      32.762  24.635  25.009  1.00  0.00    -0.198 NA
ATOM      9  C   UNL A   1      34.018  25.047  25.656  1.00  0.00     0.103 C 
ATOM     10  C   UNL A   1      32.615  23.345  24.316  1.00  0.00     0.103 C 
ATOM     11  C   UNL A   1      35.285  24.385  25.162  1.00  0.00     0.030 C 
ATOM     12  C   UNL A   1      33.873  22.834  23.658  1.00  0.00     0.030 C 
BRANCH   8  13
ATOM     13  S   UNL A   1      31.350  25.334  25.623  1.00  0.00     0.244 S 
ATOM     14  O   UNL A   1      31.254  24.946  27.016  1.00  0.00    -0.207 OA
ATOM     15  O   UNL A   1      30.274  25.042  24.698  1.00  0.00    -0.207 OA
BRANCH  13  16
ATOM     16  C   UNL A   1      31.475  27.116  25.649  1.00  0.00     0.100 A 
ATOM     17  C   UNL A   1      31.370  28.009  24.580  1.00  0.00     0.072 A 
ATOM     18  C   UNL A   1      31.547  29.388  24.817  1.00  0.00     0.021 A 
ATOM     19  C   UNL A   1      31.798  29.881  26.093  1.00  0.00     0.001 A 
ATOM     20  C   UNL A   1      31.721  27.632  26.940  1.00  0.00     0.023 A 
ATOM     21  C   UNL A   1      31.876  29.000  27.161  1.00  0.00     0.001 A 
BRANCH  17  22
ATOM     22  C   UNL A   1      31.074  27.697  23.220  1.00  0.00     0.101 C 
ATOM     23  N   UNL A   1      30.722  27.443  22.147  1.00  0.00    -0.192 NA
ENDBRANCH  17  22
ENDBRANCH  13  16
ENDBRANCH   8  13
ENDBRANCH   4   7
ENDBRANCH   2   3
ENDBRANCH   1   2
BRANCH   1  24
ATOM     24  C   UNL A   1      38.930  23.231  26.384  1.00  0.00     0.023 C 
BRANCH  24  25
ATOM     25  C   UNL A   1      40.244  23.665  27.014  1.00  0.00     0.116 C 
BRANCH  25  26
ATOM     26  N   UNL A   1      41.157  24.264  26.051  1.00  0.00    -0.352 N 
ATOM     27  C   UNL A   1      41.595  25.564  25.987  1.00  0.00     0.251 C 
ATOM     28  H   UNL A   1      41.504  23.659  25.355  1.00  0.00     0.163 HD
ATOM     29  O   UNL A   1      42.237  25.959  25.019  1.00  0.00    -0.269 OA
BRANCH  27  30
ATOM     30  C   UNL A   1      41.249  26.480  27.089  1.00  0.00     0.039 A 
ATOM     31  C   UNL A   1      40.340  26.060  28.059  1.00  0.00     0.014 A 
ATOM     32  C   UNL A   1      41.887  27.720  27.196  1.00  0.00     0.014 A 
ATOM     33  C   UNL A   1      40.119  26.863  29.178  1.00  0.00     0.010 A 
ATOM     34  C   UNL A   1      41.736  28.470  28.355  1.00  0.00     0.010 A 
ATOM     35  C   UNL A   1      40.845  28.053  29.356  1.00  0.00    -0.014 A 
BRANCH  35  36
ATOM     36  C   UNL A   1      40.684  28.879  30.579  1.00  0.00     0.031 A 
ATOM     37  C   UNL A   1      39.630  29.951  30.624  1.00  0.00     0.074 A 
ATOM     38  C   UNL A   1      41.521  28.700  31.620  1.00  0.00     0.049 A 
ATOM     39  N   UNL A   1      39.372  30.814  31.572  1.00  0.00    -0.248 NA
ATOM     40  C   UNL A   1      38.769  30.092  29.437  1.00  0.00     0.031 C 
ATOM     41  C   UNL A   1      42.617  27.728  31.670  1.00  0.00     0.029 A 
ATOM     42  N   UNL A   1      41.589  29.337  32.834  1.00  0.00    -0.354 N 
ATOM     43  C   UNL A   1      38.330  31.599  31.095  1.00  0.00     0.074 A 
ATOM     44  C   UNL A   1      38.047  31.157  29.748  1.00  0.00     0.031 C 
ATOM     45  C   UNL A   1      43.229  27.816  32.862  1.00  0.00     0.029 A 
ATOM     46  C   UNL A   1      42.603  28.877  33.643  1.00  0.00     0.049 A 
ATOM     47  H   UNL A   1      40.971  30.054  33.101  1.00  0.00     0.167 HD
ATOM     48  C   UNL A   1      37.650  32.582  31.733  1.00  0.00     0.037 A 
ATOM     49  C   UNL A   1      42.991  29.276  34.871  1.00  0.00     0.037 A 
ATOM     50  C   UNL A   1      37.929  33.004  33.081  1.00  0.00     0.049 A 
ATOM     51  C   UNL A   1      42.230  30.381  35.553  1.00  0.00     0.074 A 
ATOM     52  C   UNL A   1      37.268  33.957  33.836  1.00  0.00     0.029 A 
ATOM     53  N   UNL A   1      38.951  32.504  33.874  1.00  0.00    -0.354 N 
ATOM     54  N   UNL A   1      41.203  31.069  35.112  1.00  0.00    -0.248 NA
ATOM     55  C   UNL A   1      42.674  30.761  36.901  1.00  0.00     0.031 C 
ATOM     56  C   UNL A   1      37.924  34.072  35.065  1.00  0.00     0.029 A 
ATOM     57  C   UNL A   1      38.954  33.146  35.101  1.00  0.00     0.049 A 
ATOM     58  H   UNL A   1      39.582  31.798  33.604  1.00  0.00     0.167 HD
ATOM     59  C   UNL A   1      40.859  31.940  36.140  1.00  0.00     0.074 A 
ATOM     60  C   UNL A   1      41.778  31.682  37.229  1.00  0.00     0.031 C 
ATOM     61  C   UNL A   1      39.872  32.870  36.180  1.00  0.00     0.037 A 
BRANCH  48  62
ATOM     62  C   UNL A   1      36.535  33.261  30.985  1.00  0.00     0.058 A 
ATOM     63  C   UNL A   1      35.186  33.002  31.277  1.00  0.00     0.135 A 
ATOM     64  C   UNL A   1      36.816  34.216  29.994  1.00  0.00     0.135 A 
ATOM     65  F   UNL A   1      34.857  32.086  32.201  1.00  0.00    -0.206 F 
ATOM     66  C   UNL A   1      34.157  33.643  30.596  1.00  0.00     0.059 A 
ATOM     67  C   UNL A   1      35.803  34.895  29.323  1.00  0.00     0.059 A 
ATOM     68  F   UNL A   1      38.088  34.501  29.672  1.00  0.00    -0.206 F 
ATOM     69  C   UNL A   1      34.476  34.592  29.624  1.00  0.00     0.060 A 
BRANCH  69  70
ATOM     70  S   UNL A   1      33.127  35.431  28.766  1.00  0.00     0.124 S 
ATOM     71  O   UNL A   1      33.860  36.361  27.912  1.00  0.00    -0.237 OA
ATOM     72  O   UNL A   1      32.465  34.327  28.078  1.00  0.00    -0.237 OA
ATOM     73  O   UNL A   1      32.362  36.042  29.847  1.00  0.00    -0.744 OA
ENDBRANCH  69  70
ENDBRANCH  48  62
BRANCH  49  74
ATOM     74  C   UNL A   1      44.149  28.619  35.538  1.00  0.00     0.058 A 
ATOM     75  C   UNL A   1      43.966  27.538  36.412  1.00  0.00     0.135 A 
ATOM     76  C   UNL A   1      45.463  29.060  35.314  1.00  0.00     0.135 A 
ATOM     77  F   UNL A   1      42.729  27.081  36.665  1.00  0.00    -0.206 F 
ATOM     78  C   UNL A   1      45.038  26.933  37.060  1.00  0.00     0.059 A 
ATOM     79  C   UNL A   1      46.554  28.451  35.926  1.00  0.00     0.059 A 
ATOM     80  F   UNL A   1      45.697  30.079  34.473  1.00  0.00    -0.206 F 
ATOM     81  C   UNL A   1      46.330  27.396  36.808  1.00  0.00     0.060 A 
BRANCH  81  82
ATOM     82  S   UNL A   1      47.718  26.580  37.627  1.00  0.00     0.124 S 
ATOM     83  O   UNL A   1      48.184  27.629  38.528  1.00  0.00    -0.237 OA
ATOM     84  O   UNL A   1      47.069  25.436  38.259  1.00  0.00    -0.237 OA
ATOM     85  O   UNL A   1      48.614  26.253  36.523  1.00  0.00    -0.744 OA
ENDBRANCH  81  82
ENDBRANCH  49  74
BRANCH  61  86
ATOM     86  C   UNL A   1      39.703  33.650  37.456  1.00  0.00     0.058 A 
ATOM     87  C   UNL A   1      40.415  34.833  37.703  1.00  0.00     0.135 A 
ATOM     88  C   UNL A   1      38.769  33.235  38.421  1.00  0.00     0.135 A 
ATOM     89  F   UNL A   1      41.323  35.273  36.817  1.00  0.00    -0.206 F 
ATOM     90  C   UNL A   1      40.228  35.563  38.872  1.00  0.00     0.059 A 
ATOM     91  C   UNL A   1      38.542  33.967  39.581  1.00  0.00     0.059 A 
ATOM     92  F   UNL A   1      38.051  32.116  38.230  1.00  0.00    -0.206 F 
ATOM     93  C   UNL A   1      39.286  35.124  39.803  1.00  0.00     0.060 A 
BRANCH  93  94
ATOM     94  S   UNL A   1      39.030  36.101  41.300  1.00  0.00     0.124 S 
ATOM     95  O   UNL A   1      40.289  35.894  42.006  1.00  0.00    -0.237 OA
ATOM     96  O   UNL A   1      38.817  37.441  40.762  1.00  0.00    -0.237 OA
ATOM     97  O   UNL A   1      37.856  35.484  41.912  1.00  0.00    -0.744 OA
ENDBRANCH  93  94
ENDBRANCH  61  86
ENDBRANCH  35  36
ENDBRANCH  27  30
ENDBRANCH  25  26
ENDBRANCH  24  25
ENDBRANCH   1  24
TORSDOF 17
ENDMDL
