MODEL 1
REMARK VINA RESULT:     -14.8      0.000      0.000
REMARK SMILES Cc1cccc(N2CCN(c3ncc(NC(=O)c4ccccc4F)cc3C(=O)NCCCCNC(=O)c3ccc(-c4c5nc(c(-c6c(F)cc(S(=O)(=O)[O-])cc6F)c6ccc([nH]6)c(-c6c(F)cc(S(=O)(=O)[O-])cc6F)c6nc(c(-c7c(F)cc(S(=O)(=O)[O-])cc7F)c7ccc4[nH]7)C=C6)C=C5)cc3)C[C@@H]2C)c1
REMARK SMILES IDX 32 1 31 2 30 3 29 4 27 5 28 6 26 8 11 9 12 10 13 11 25 12
REMARK SMILES IDX 14 13 10 14 7 15 8 16 104 17 9 18 103 19 105 20 6 21 1 22
REMARK SMILES IDX 2 23 3 24 106 25 4 26 5 27 15 28 16 29 17 31 18 32 19 33
REMARK SMILES IDX 23 34 20 35 22 36 24 37 21 38 33 39 34 40 35 41 36 43 37 44
REMARK SMILES IDX 38 45 102 46 39 47 101 48 40 49 41 50 42 51 95 52 43 53
REMARK SMILES IDX 100 54 94 55 96 56 44 57 99 58 93 59 92 60 45 62 79 63 58 64
REMARK SMILES IDX 78 65 59 66 62 67 77 68 97 69 60 70 61 71 76 73 98 74 63 75
REMARK SMILES IDX 46 76 47 77 56 78 48 79 49 80 55 81 57 82 50 83 51 84 52 85
REMARK SMILES IDX 53 86 54 87 80 88 81 89 90 90 82 91 83 92 89 93 91 94 84 95
REMARK SMILES IDX 85 96 86 97 87 98 88 99 64 100 65 101 74 102 66 103 67 104
REMARK SMILES IDX 73 105 75 106 68 107 69 108 70 109 71 110 72 111
REMARK H PARENT 29 7 15 30 34 42 96 61 62 72
REMARK Flexibility Score: inf
ROOT
ATOM      1  C   UNL A   1      33.015  29.822  27.034  1.00  0.00     0.023 C 
ENDROOT
BRANCH   1   2
ATOM      2  C   UNL A   1      32.090  28.643  27.365  1.00  0.00     0.023 C 
BRANCH   2   3
ATOM      3  C   UNL A   1      32.362  27.355  26.558  1.00  0.00     0.116 C 
BRANCH   3   4
ATOM      4  N   UNL A   1      31.524  26.255  27.009  1.00  0.00    -0.352 N 
ATOM      5  C   UNL A   1      30.755  25.414  26.238  1.00  0.00     0.255 C 
ATOM      6  O   UNL A   1      29.566  25.315  26.530  1.00  0.00    -0.269 OA
ATOM      7  H   UNL A   1      31.505  26.093  27.980  1.00  0.00     0.163 HD
BRANCH   5   8
ATOM      8  C   UNL A   1      31.331  24.649  25.106  1.00  0.00     0.084 A 
ATOM      9  C   UNL A   1      31.412  25.178  23.799  1.00  0.00     0.141 A 
ATOM     10  N   UNL A   1      31.957  24.436  22.791  1.00  0.00    -0.236 NA
ATOM     11  C   UNL A   1      32.408  23.185  23.059  1.00  0.00     0.139 A 
ATOM     12  C   UNL A   1      31.803  23.352  25.337  1.00  0.00     0.045 A 
ATOM     13  C   UNL A   1      32.342  22.595  24.308  1.00  0.00     0.060 A 
BRANCH   9  14
ATOM     14  N   UNL A   1      30.836  26.377  23.423  1.00  0.00    -0.352 N 
ATOM     15  N   UNL A   1      29.580  28.856  22.739  1.00  0.00    -0.365 N 
ATOM     16  C   UNL A   1      28.976  27.968  23.754  1.00  0.00     0.138 C 
ATOM     17  C   UNL A   1      31.043  28.685  22.504  1.00  0.00     0.098 C 
ATOM     18  C   UNL A   1      29.371  26.492  23.526  1.00  0.00     0.139 C 
ATOM     19  C   UNL A   1      31.374  27.172  22.303  1.00  0.00     0.142 C 
ATOM     20  C   UNL A   1      31.846  29.296  23.660  1.00  0.00     0.033 C 
BRANCH  15  21
ATOM     21  C   UNL A   1      29.012  30.102  22.506  1.00  0.00     0.037 A 
ATOM     22  C   UNL A   1      28.035  32.252  19.497  1.00  0.00     0.044 C 
ATOM     23  C   UNL A   1      28.243  31.801  20.912  1.00  0.00    -0.049 A 
ATOM     24  C   UNL A   1      27.776  32.585  21.970  1.00  0.00     0.003 A 
ATOM     25  C   UNL A   1      28.867  30.575  21.192  1.00  0.00     0.029 A 
ATOM     26  C   UNL A   1      27.933  32.149  23.283  1.00  0.00     0.002 A 
ATOM     27  C   UNL A   1      28.539  30.917  23.543  1.00  0.00     0.026 A 
ENDBRANCH  15  21
ENDBRANCH   9  14
BRANCH  13  28
ATOM     28  N   UNL A   1      32.734  21.280  24.604  1.00  0.00    -0.320 N 
ATOM     29  C   UNL A   1      33.988  20.733  24.717  1.00  0.00     0.258 C 
ATOM     30  H   UNL A   1      31.992  20.651  24.754  1.00  0.00     0.170 HD
ATOM     31  O   UNL A   1      34.144  19.518  24.610  1.00  0.00    -0.269 OA
BRANCH  29  32
ATOM     32  C   UNL A   1      35.156  21.564  25.078  1.00  0.00     0.075 A 
ATOM     33  C   UNL A   1      36.244  21.603  24.196  1.00  0.00     0.017 A 
ATOM     34  C   UNL A   1      35.259  22.205  26.314  1.00  0.00     0.135 A 
ATOM     35  C   UNL A   1      37.391  22.326  24.531  1.00  0.00     0.001 A 
ATOM     36  C   UNL A   1      36.390  22.947  26.641  1.00  0.00     0.040 A 
ATOM     37  F   UNL A   1      34.298  22.096  27.242  1.00  0.00    -0.206 F 
ATOM     38  C   UNL A   1      37.457  23.010  25.746  1.00  0.00     0.003 A 
ENDBRANCH  29  32
ENDBRANCH  13  28
ENDBRANCH   5   8
ENDBRANCH   3   4
ENDBRANCH   2   3
ENDBRANCH   1   2
BRANCH   1  39
ATOM     39  C   UNL A   1      34.486  29.507  27.247  1.00  0.00     0.116 C 
BRANCH  39  40
ATOM     40  N   UNL A   1      35.366  30.660  27.193  1.00  0.00    -0.352 N 
ATOM     41  C   UNL A   1      36.500  30.825  27.997  1.00  0.00     0.251 C 
ATOM     42  H   UNL A   1      35.150  31.373  26.550  1.00  0.00     0.163 HD
ATOM     43  O   UNL A   1      36.859  31.874  28.450  1.00  0.00    -0.269 OA
BRANCH  41  44
ATOM     44  C   UNL A   1      37.345  29.608  28.109  1.00  0.00     0.039 A 
ATOM     45  C   UNL A   1      37.306  28.912  29.324  1.00  0.00     0.014 A 
ATOM     46  C   UNL A   1      38.360  29.393  27.183  1.00  0.00     0.014 A 
ATOM     47  C   UNL A   1      38.400  28.141  29.701  1.00  0.00     0.010 A 
ATOM     48  C   UNL A   1      39.481  28.712  27.599  1.00  0.00     0.010 A 
ATOM     49  C   UNL A   1      39.520  28.134  28.878  1.00  0.00    -0.014 A 
BRANCH  49  50
ATOM     50  C   UNL A   1      40.813  27.580  29.248  1.00  0.00     0.031 A 
ATOM     51  C   UNL A   1      41.098  26.172  28.906  1.00  0.00     0.074 A 
ATOM     52  C   UNL A   1      41.779  28.408  29.698  1.00  0.00     0.049 A 
ATOM     53  N   UNL A   1      42.173  25.542  29.226  1.00  0.00    -0.248 NA
ATOM     54  C   UNL A   1      40.129  25.330  28.208  1.00  0.00     0.031 C 
ATOM     55  C   UNL A   1      43.220  28.176  29.713  1.00  0.00     0.029 A 
ATOM     56  N   UNL A   1      41.607  29.568  30.462  1.00  0.00    -0.354 N 
ATOM     57  C   UNL A   1      42.175  24.344  28.547  1.00  0.00     0.074 A 
ATOM     58  C   UNL A   1      40.837  24.212  28.035  1.00  0.00     0.031 C 
ATOM     59  C   UNL A   1      43.780  28.973  30.637  1.00  0.00     0.029 A 
ATOM     60  C   UNL A   1      42.693  29.609  31.361  1.00  0.00     0.049 A 
ATOM     61  H   UNL A   1      40.876  30.223  30.385  1.00  0.00     0.167 HD
ATOM     62  C   UNL A   1      43.365  23.694  28.399  1.00  0.00     0.037 A 
ATOM     63  C   UNL A   1      42.482  29.461  32.704  1.00  0.00     0.037 A 
ATOM     64  C   UNL A   1      44.329  24.214  29.377  1.00  0.00     0.049 A 
ATOM     65  C   UNL A   1      43.135  28.225  33.286  1.00  0.00     0.074 A 
ATOM     66  C   UNL A   1      45.407  25.080  29.297  1.00  0.00     0.029 A 
ATOM     67  N   UNL A   1      44.029  24.092  30.735  1.00  0.00    -0.354 N 
ATOM     68  N   UNL A   1      43.520  27.193  32.581  1.00  0.00    -0.248 NA
ATOM     69  C   UNL A   1      43.440  28.070  34.705  1.00  0.00     0.031 C 
ATOM     70  C   UNL A   1      45.659  25.581  30.606  1.00  0.00     0.029 A 
ATOM     71  C   UNL A   1      44.773  24.982  31.487  1.00  0.00     0.049 A 
ATOM     72  H   UNL A   1      43.375  23.457  31.108  1.00  0.00     0.167 HD
ATOM     73  C   UNL A   1      44.104  26.260  33.401  1.00  0.00     0.074 A 
ATOM     74  C   UNL A   1      44.046  26.869  34.719  1.00  0.00     0.031 C 
ATOM     75  C   UNL A   1      44.591  25.068  32.935  1.00  0.00     0.037 A 
BRANCH  62  76
ATOM     76  C   UNL A   1      43.723  22.781  27.229  1.00  0.00     0.058 A 
ATOM     77  C   UNL A   1      43.016  21.572  27.025  1.00  0.00     0.135 A 
ATOM     78  C   UNL A   1      44.822  22.948  26.354  1.00  0.00     0.135 A 
ATOM     79  F   UNL A   1      41.940  21.263  27.763  1.00  0.00    -0.206 F 
ATOM     80  C   UNL A   1      43.394  20.605  26.080  1.00  0.00     0.059 A 
ATOM     81  C   UNL A   1      45.211  22.006  25.397  1.00  0.00     0.059 A 
ATOM     82  F   UNL A   1      45.615  24.018  26.381  1.00  0.00    -0.206 F 
ATOM     83  C   UNL A   1      44.505  20.825  25.277  1.00  0.00     0.060 A 
BRANCH  83  84
ATOM     84  S   UNL A   1      45.029  19.569  24.096  1.00  0.00     0.124 S 
ATOM     85  O   UNL A   1      46.479  19.594  24.249  1.00  0.00    -0.237 OA
ATOM     86  O   UNL A   1      44.353  18.376  24.595  1.00  0.00    -0.237 OA
ATOM     87  O   UNL A   1      44.532  20.074  22.818  1.00  0.00    -0.744 OA
ENDBRANCH  83  84
ENDBRANCH  62  76
BRANCH  63  88
ATOM     88  C   UNL A   1      41.216  30.111  33.156  1.00  0.00     0.058 A 
ATOM     89  C   UNL A   1      41.261  31.503  33.381  1.00  0.00     0.135 A 
ATOM     90  C   UNL A   1      39.961  29.545  32.889  1.00  0.00     0.135 A 
ATOM     91  F   UNL A   1      42.433  32.096  33.666  1.00  0.00    -0.206 F 
ATOM     92  C   UNL A   1      40.162  32.322  33.148  1.00  0.00     0.059 A 
ATOM     93  C   UNL A   1      38.836  30.350  32.671  1.00  0.00     0.059 A 
ATOM     94  F   UNL A   1      39.845  28.226  32.680  1.00  0.00    -0.206 F 
ATOM     95  C   UNL A   1      38.976  31.739  32.712  1.00  0.00     0.060 A 
BRANCH  95  96
ATOM     96  S   UNL A   1      37.707  32.832  32.020  1.00  0.00     0.124 S 
ATOM     97  O   UNL A   1      38.348  33.312  30.802  1.00  0.00    -0.237 OA
ATOM     98  O   UNL A   1      36.588  31.908  31.825  1.00  0.00    -0.237 OA
ATOM     99  O   UNL A   1      37.519  33.829  33.069  1.00  0.00    -0.744 OA
ENDBRANCH  95  96
ENDBRANCH  63  88
BRANCH  75 100
ATOM    100  C   UNL A   1      45.026  23.891  33.790  1.00  0.00     0.058 A 
ATOM    101  C   UNL A   1      44.152  22.912  34.295  1.00  0.00     0.135 A 
ATOM    102  C   UNL A   1      46.404  23.634  34.007  1.00  0.00     0.135 A 
ATOM    103  F   UNL A   1      42.834  22.956  34.054  1.00  0.00    -0.206 F 
ATOM    104  C   UNL A   1      44.598  21.810  35.030  1.00  0.00     0.059 A 
ATOM    105  C   UNL A   1      46.874  22.507  34.680  1.00  0.00     0.059 A 
ATOM    106  F   UNL A   1      47.353  24.467  33.555  1.00  0.00    -0.206 F 
ATOM    107  C   UNL A   1      45.961  21.614  35.216  1.00  0.00     0.060 A 
BRANCH 107 108
ATOM    108  S   UNL A   1      46.548  20.157  36.099  1.00  0.00     0.124 S 
ATOM    109  O   UNL A   1      45.719  20.191  37.299  1.00  0.00    -0.237 OA
ATOM    110  O   UNL A   1      46.258  19.073  35.164  1.00  0.00    -0.237 OA
ATOM    111  O   UNL A   1      47.966  20.436  36.299  1.00  0.00    -0.744 OA
ENDBRANCH 107 108
ENDBRANCH  75 100
ENDBRANCH  49  50
ENDBRANCH  41  44
ENDBRANCH  39  40
ENDBRANCH   1  39
TORSDOF 18
ENDMDL
MODEL 2
REMARK VINA RESULT:     -14.1      1.664      2.160
REMARK SMILES Cc1cccc(N2CCN(c3ncc(NC(=O)c4ccccc4F)cc3C(=O)NCCCCNC(=O)c3ccc(-c4c5nc(c(-c6c(F)cc(S(=O)(=O)[O-])cc6F)c6ccc([nH]6)c(-c6c(F)cc(S(=O)(=O)[O-])cc6F)c6nc(c(-c7c(F)cc(S(=O)(=O)[O-])cc7F)c7ccc4[nH]7)C=C6)C=C5)cc3)C[C@@H]2C)c1
REMARK SMILES IDX 32 1 31 2 30 3 29 4 27 5 28 6 26 8 11 9 12 10 13 11 25 12
REMARK SMILES IDX 14 13 10 14 7 15 8 16 104 17 9 18 103 19 105 20 6 21 1 22
REMARK SMILES IDX 2 23 3 24 106 25 4 26 5 27 15 28 16 29 17 31 18 32 19 33
REMARK SMILES IDX 23 34 20 35 22 36 24 37 21 38 33 39 34 40 35 41 36 43 37 44
REMARK SMILES IDX 38 45 102 46 39 47 101 48 40 49 41 50 42 51 95 52 43 53
REMARK SMILES IDX 100 54 94 55 96 56 44 57 99 58 93 59 92 60 45 62 79 63 58 64
REMARK SMILES IDX 78 65 59 66 62 67 77 68 97 69 60 70 61 71 76 73 98 74 63 75
REMARK SMILES IDX 46 76 47 77 56 78 48 79 49 80 55 81 57 82 50 83 51 84 52 85
REMARK SMILES IDX 53 86 54 87 80 88 81 89 90 90 82 91 83 92 89 93 91 94 84 95
REMARK SMILES IDX 85 96 86 97 87 98 88 99 64 100 65 101 74 102 66 103 67 104
REMARK SMILES IDX 73 105 75 106 68 107 69 108 70 109 71 110 72 111
REMARK H PARENT 29 7 15 30 34 42 96 61 62 72
REMARK Flexibility Score: inf
ROOT
ATOM      1  C   UNL A   1      32.134  29.846  26.991  1.00  0.00     0.023 C 
ENDROOT
BRANCH   1   2
ATOM      2  C   UNL A   1      31.551  28.490  27.411  1.00  0.00     0.023 C 
BRANCH   2   3
ATOM      3  C   UNL A   1      32.172  27.266  26.703  1.00  0.00     0.116 C 
BRANCH   3   4
ATOM      4  N   UNL A   1      31.533  26.028  27.119  1.00  0.00    -0.352 N 
ATOM      5  C   UNL A   1      30.980  25.056  26.316  1.00  0.00     0.255 C 
ATOM      6  O   UNL A   1      29.817  24.734  26.543  1.00  0.00    -0.269 OA
ATOM      7  H   UNL A   1      31.491  25.864  28.089  1.00  0.00     0.163 HD
BRANCH   5   8
ATOM      8  C   UNL A   1      31.753  24.414  25.225  1.00  0.00     0.084 A 
ATOM      9  C   UNL A   1      31.961  25.040  23.976  1.00  0.00     0.141 A 
ATOM     10  N   UNL A   1      32.684  24.409  23.005  1.00  0.00    -0.236 NA
ATOM     11  C   UNL A   1      33.191  23.175  23.252  1.00  0.00     0.139 A 
ATOM     12  C   UNL A   1      32.288  23.138  25.435  1.00  0.00     0.045 A 
ATOM     13  C   UNL A   1      33.010  22.495  24.442  1.00  0.00     0.060 A 
BRANCH   9  14
ATOM     14  N   UNL A   1      31.348  26.221  23.601  1.00  0.00    -0.352 N 
ATOM     15  N   UNL A   1      30.030  28.671  22.928  1.00  0.00    -0.365 N 
ATOM     16  C   UNL A   1      29.552  27.853  24.063  1.00  0.00     0.138 C 
ATOM     17  C   UNL A   1      31.451  28.467  22.525  1.00  0.00     0.098 C 
ATOM     18  C   UNL A   1      29.908  26.361  23.878  1.00  0.00     0.139 C 
ATOM     19  C   UNL A   1      31.747  26.941  22.377  1.00  0.00     0.142 C 
ATOM     20  C   UNL A   1      32.395  29.136  23.533  1.00  0.00     0.033 C 
BRANCH  15  21
ATOM     21  C   UNL A   1      29.444  29.908  22.692  1.00  0.00     0.037 A 
ATOM     22  C   UNL A   1      27.861  31.778  19.755  1.00  0.00     0.044 C 
ATOM     23  C   UNL A   1      28.369  31.464  21.131  1.00  0.00    -0.049 A 
ATOM     24  C   UNL A   1      28.158  32.369  22.174  1.00  0.00     0.003 A 
ATOM     25  C   UNL A   1      29.019  30.250  21.399  1.00  0.00     0.029 A 
ATOM     26  C   UNL A   1      28.594  32.062  23.461  1.00  0.00     0.002 A 
ATOM     27  C   UNL A   1      29.223  30.841  23.714  1.00  0.00     0.026 A 
ENDBRANCH  15  21
ENDBRANCH   9  14
BRANCH  13  28
ATOM     28  N   UNL A   1      33.459  21.191  24.705  1.00  0.00    -0.320 N 
ATOM     29  C   UNL A   1      34.735  20.704  24.844  1.00  0.00     0.258 C 
ATOM     30  H   UNL A   1      32.746  20.520  24.807  1.00  0.00     0.170 HD
ATOM     31  O   UNL A   1      34.957  19.504  24.700  1.00  0.00    -0.269 OA
BRANCH  29  32
ATOM     32  C   UNL A   1      35.846  21.579  25.276  1.00  0.00     0.075 A 
ATOM     33  C   UNL A   1      35.535  22.842  25.795  1.00  0.00     0.017 A 
ATOM     34  C   UNL A   1      37.184  21.238  25.071  1.00  0.00     0.135 A 
ATOM     35  C   UNL A   1      36.559  23.722  26.156  1.00  0.00     0.001 A 
ATOM     36  C   UNL A   1      38.207  22.101  25.452  1.00  0.00     0.040 A 
ATOM     37  F   UNL A   1      37.530  20.093  24.465  1.00  0.00    -0.206 F 
ATOM     38  C   UNL A   1      37.893  23.344  25.999  1.00  0.00     0.003 A 
ENDBRANCH  29  32
ENDBRANCH  13  28
ENDBRANCH   5   8
ENDBRANCH   3   4
ENDBRANCH   2   3
ENDBRANCH   1   2
BRANCH   1  39
ATOM     39  C   UNL A   1      33.651  29.846  26.909  1.00  0.00     0.116 C 
BRANCH  39  40
ATOM     40  N   UNL A   1      34.273  31.124  27.197  1.00  0.00    -0.352 N 
ATOM     41  C   UNL A   1      35.129  31.360  28.279  1.00  0.00     0.251 C 
ATOM     42  H   UNL A   1      34.080  31.876  26.593  1.00  0.00     0.163 HD
ATOM     43  O   UNL A   1      35.157  32.378  28.909  1.00  0.00    -0.269 OA
BRANCH  41  44
ATOM     44  C   UNL A   1      36.147  30.297  28.488  1.00  0.00     0.039 A 
ATOM     45  C   UNL A   1      36.203  29.705  29.756  1.00  0.00     0.014 A 
ATOM     46  C   UNL A   1      37.191  30.163  27.578  1.00  0.00     0.014 A 
ATOM     47  C   UNL A   1      37.397  29.142  30.192  1.00  0.00     0.010 A 
ATOM     48  C   UNL A   1      38.399  29.694  28.045  1.00  0.00     0.010 A 
ATOM     49  C   UNL A   1      38.513  29.236  29.367  1.00  0.00    -0.014 A 
BRANCH  49  50
ATOM     50  C   UNL A   1      39.871  28.915  29.776  1.00  0.00     0.031 A 
ATOM     51  C   UNL A   1      40.433  27.607  29.385  1.00  0.00     0.074 A 
ATOM     52  C   UNL A   1      40.642  29.884  30.313  1.00  0.00     0.049 A 
ATOM     53  N   UNL A   1      41.594  27.173  29.730  1.00  0.00    -0.248 NA
ATOM     54  C   UNL A   1      39.671  26.638  28.601  1.00  0.00     0.031 C 
ATOM     55  C   UNL A   1      42.100  29.927  30.391  1.00  0.00     0.029 A 
ATOM     56  N   UNL A   1      40.222  30.947  31.120  1.00  0.00    -0.354 N 
ATOM     57  C   UNL A   1      41.852  26.036  28.998  1.00  0.00     0.074 A 
ATOM     58  C   UNL A   1      40.586  25.684  28.413  1.00  0.00     0.031 C 
ATOM     59  C   UNL A   1      42.459  30.762  31.378  1.00  0.00     0.029 A 
ATOM     60  C   UNL A   1      41.241  31.142  32.075  1.00  0.00     0.049 A 
ATOM     61  H   UNL A   1      39.383  31.457  31.037  1.00  0.00     0.167 HD
ATOM     62  C   UNL A   1      43.149  25.631  28.881  1.00  0.00     0.037 A 
ATOM     63  C   UNL A   1      41.007  30.884  33.397  1.00  0.00     0.037 A 
ATOM     64  C   UNL A   1      43.955  26.268  29.930  1.00  0.00     0.049 A 
ATOM     65  C   UNL A   1      41.859  29.762  33.953  1.00  0.00     0.074 A 
ATOM     66  C   UNL A   1      44.851  27.324  29.945  1.00  0.00     0.029 A 
ATOM     67  N   UNL A   1      43.628  26.017  31.264  1.00  0.00    -0.354 N 
ATOM     68  N   UNL A   1      42.462  28.861  33.223  1.00  0.00    -0.248 NA
ATOM     69  C   UNL A   1      42.129  29.590  35.378  1.00  0.00     0.031 C 
ATOM     70  C   UNL A   1      44.949  27.792  31.288  1.00  0.00     0.029 A 
ATOM     71  C   UNL A   1      44.157  26.989  32.093  1.00  0.00     0.049 A 
ATOM     72  H   UNL A   1      43.091  25.251  31.573  1.00  0.00     0.167 HD
ATOM     73  C   UNL A   1      43.178  28.011  34.027  1.00  0.00     0.074 A 
ATOM     74  C   UNL A   1      42.951  28.525  35.367  1.00  0.00     0.031 C 
ATOM     75  C   UNL A   1      43.902  26.960  33.532  1.00  0.00     0.037 A 
BRANCH  62  76
ATOM     76  C   UNL A   1      43.723  24.867  27.691  1.00  0.00     0.058 A 
ATOM     77  C   UNL A   1      44.620  23.792  27.898  1.00  0.00     0.135 A 
ATOM     78  C   UNL A   1      43.553  25.207  26.328  1.00  0.00     0.135 A 
ATOM     79  F   UNL A   1      44.885  23.336  29.131  1.00  0.00    -0.206 F 
ATOM     80  C   UNL A   1      45.316  23.155  26.859  1.00  0.00     0.059 A 
ATOM     81  C   UNL A   1      44.224  24.578  25.274  1.00  0.00     0.059 A 
ATOM     82  F   UNL A   1      42.749  26.188  25.920  1.00  0.00    -0.206 F 
ATOM     83  C   UNL A   1      45.121  23.565  25.547  1.00  0.00     0.060 A 
BRANCH  83  84
ATOM     84  S   UNL A   1      46.047  22.787  24.211  1.00  0.00     0.124 S 
ATOM     85  O   UNL A   1      47.046  23.804  23.901  1.00  0.00    -0.237 OA
ATOM     86  O   UNL A   1      46.546  21.572  24.847  1.00  0.00    -0.237 OA
ATOM     87  O   UNL A   1      45.038  22.575  23.175  1.00  0.00    -0.744 OA
ENDBRANCH  83  84
ENDBRANCH  62  76
BRANCH  63  88
ATOM     88  C   UNL A   1      39.623  31.258  33.813  1.00  0.00     0.058 A 
ATOM     89  C   UNL A   1      39.379  32.628  34.052  1.00  0.00     0.135 A 
ATOM     90  C   UNL A   1      38.516  30.455  33.500  1.00  0.00     0.135 A 
ATOM     91  F   UNL A   1      40.398  33.440  34.380  1.00  0.00    -0.206 F 
ATOM     92  C   UNL A   1      38.145  33.212  33.790  1.00  0.00     0.059 A 
ATOM     93  C   UNL A   1      37.259  31.020  33.252  1.00  0.00     0.059 A 
ATOM     94  F   UNL A   1      38.675  29.143  33.276  1.00  0.00    -0.206 F 
ATOM     95  C   UNL A   1      37.115  32.408  33.310  1.00  0.00     0.060 A 
BRANCH  95  96
ATOM     96  S   UNL A   1      35.672  33.234  32.587  1.00  0.00     0.124 S 
ATOM     97  O   UNL A   1      36.288  34.125  31.612  1.00  0.00    -0.237 OA
ATOM     98  O   UNL A   1      34.927  32.103  32.030  1.00  0.00    -0.237 OA
ATOM     99  O   UNL A   1      35.053  33.886  33.736  1.00  0.00    -0.744 OA
ENDBRANCH  95  96
ENDBRANCH  63  88
BRANCH  75 100
ATOM    100  C   UNL A   1      44.517  25.840  34.353  1.00  0.00     0.058 A 
ATOM    101  C   UNL A   1      45.883  25.750  34.676  1.00  0.00     0.135 A 
ATOM    102  C   UNL A   1      43.689  24.871  34.976  1.00  0.00     0.135 A 
ATOM    103  F   UNL A   1      46.763  26.673  34.265  1.00  0.00    -0.206 F 
ATOM    104  C   UNL A   1      46.401  24.734  35.484  1.00  0.00     0.059 A 
ATOM    105  C   UNL A   1      44.176  23.890  35.838  1.00  0.00     0.059 A 
ATOM    106  F   UNL A   1      42.362  24.853  34.783  1.00  0.00    -0.206 F 
ATOM    107  C   UNL A   1      45.541  23.809  36.062  1.00  0.00     0.060 A 
BRANCH 107 108
ATOM    108  S   UNL A   1      46.192  22.540  37.164  1.00  0.00     0.124 S 
ATOM    109  O   UNL A   1      45.627  22.950  38.445  1.00  0.00    -0.237 OA
ATOM    110  O   UNL A   1      45.645  21.309  36.599  1.00  0.00    -0.237 OA
ATOM    111  O   UNL A   1      47.637  22.692  37.029  1.00  0.00    -0.744 OA
ENDBRANCH 107 108
ENDBRANCH  75 100
ENDBRANCH  49  50
ENDBRANCH  41  44
ENDBRANCH  39  40
ENDBRANCH   1  39
TORSDOF 18
ENDMDL
MODEL 3
REMARK VINA RESULT:     -13.2      2.343      5.831
REMARK SMILES Cc1cccc(N2CCN(c3ncc(NC(=O)c4ccccc4F)cc3C(=O)NCCCCNC(=O)c3ccc(-c4c5nc(c(-c6c(F)cc(S(=O)(=O)[O-])cc6F)c6ccc([nH]6)c(-c6c(F)cc(S(=O)(=O)[O-])cc6F)c6nc(c(-c7c(F)cc(S(=O)(=O)[O-])cc7F)c7ccc4[nH]7)C=C6)C=C5)cc3)C[C@@H]2C)c1
REMARK SMILES IDX 32 1 31 2 30 3 29 4 27 5 28 6 26 8 11 9 12 10 13 11 25 12
REMARK SMILES IDX 14 13 10 14 7 15 8 16 104 17 9 18 103 19 105 20 6 21 1 22
REMARK SMILES IDX 2 23 3 24 106 25 4 26 5 27 15 28 16 29 17 31 18 32 19 33
REMARK SMILES IDX 23 34 20 35 22 36 24 37 21 38 33 39 34 40 35 41 36 43 37 44
REMARK SMILES IDX 38 45 102 46 39 47 101 48 40 49 41 50 42 51 95 52 43 53
REMARK SMILES IDX 100 54 94 55 96 56 44 57 99 58 93 59 92 60 45 62 79 63 58 64
REMARK SMILES IDX 78 65 59 66 62 67 77 68 97 69 60 70 61 71 76 73 98 74 63 75
REMARK SMILES IDX 46 76 47 77 56 78 48 79 49 80 55 81 57 82 50 83 51 84 52 85
REMARK SMILES IDX 53 86 54 87 80 88 81 89 90 90 82 91 83 92 89 93 91 94 84 95
REMARK SMILES IDX 85 96 86 97 87 98 88 99 64 100 65 101 74 102 66 103 67 104
REMARK SMILES IDX 73 105 75 106 68 107 69 108 70 109 71 110 72 111
REMARK H PARENT 29 7 15 30 34 42 96 61 62 72
REMARK Flexibility Score: inf
ROOT
ATOM      1  C   UNL A   1      32.355  30.273  25.743  1.00  0.00     0.023 C 
ENDROOT
BRANCH   1   2
ATOM      2  C   UNL A   1      32.375  29.117  24.733  1.00  0.00     0.023 C 
BRANCH   2   3
ATOM      3  C   UNL A   1      33.357  29.297  23.556  1.00  0.00     0.116 C 
BRANCH   3   4
ATOM      4  N   UNL A   1      32.911  28.576  22.374  1.00  0.00    -0.352 N 
ATOM      5  C   UNL A   1      32.475  27.273  22.299  1.00  0.00     0.255 C 
ATOM      6  O   UNL A   1      33.035  26.539  21.490  1.00  0.00    -0.269 OA
ATOM      7  H   UNL A   1      32.922  29.079  21.528  1.00  0.00     0.163 HD
BRANCH   5   8
ATOM      8  C   UNL A   1      31.371  26.770  23.152  1.00  0.00     0.084 A 
ATOM      9  C   UNL A   1      31.582  25.840  24.193  1.00  0.00     0.141 A 
ATOM     10  N   UNL A   1      30.533  25.412  24.954  1.00  0.00    -0.236 NA
ATOM     11  C   UNL A   1      29.288  25.883  24.691  1.00  0.00     0.139 A 
ATOM     12  C   UNL A   1      30.070  27.225  22.911  1.00  0.00     0.045 A 
ATOM     13  C   UNL A   1      29.004  26.778  23.675  1.00  0.00     0.060 A 
BRANCH   9  14
ATOM     14  N   UNL A   1      32.789  25.204  24.417  1.00  0.00    -0.352 N 
ATOM     15  N   UNL A   1      35.298  23.946  24.975  1.00  0.00    -0.365 N 
ATOM     16  C   UNL A   1      34.916  25.192  25.672  1.00  0.00     0.138 C 
ATOM     17  C   UNL A   1      34.177  23.134  24.421  1.00  0.00     0.098 C 
ATOM     18  C   UNL A   1      33.933  26.035  24.830  1.00  0.00     0.139 C 
ATOM     19  C   UNL A   1      33.213  24.049  23.603  1.00  0.00     0.142 C 
ATOM     20  C   UNL A   1      33.443  22.395  25.549  1.00  0.00     0.033 C 
BRANCH  15  21
ATOM     21  C   UNL A   1      36.469  23.296  25.344  1.00  0.00     0.037 A 
ATOM     22  C   UNL A   1      38.099  19.876  24.815  1.00  0.00     0.044 C 
ATOM     23  C   UNL A   1      37.871  21.284  25.279  1.00  0.00    -0.049 A 
ATOM     24  C   UNL A   1      38.872  21.956  25.984  1.00  0.00     0.003 A 
ATOM     25  C   UNL A   1      36.677  21.957  24.978  1.00  0.00     0.029 A 
ATOM     26  C   UNL A   1      38.679  23.277  26.381  1.00  0.00     0.002 A 
ATOM     27  C   UNL A   1      37.491  23.938  26.056  1.00  0.00     0.026 A 
ENDBRANCH  15  21
ENDBRANCH   9  14
BRANCH  13  28
ATOM     28  N   UNL A   1      27.720  27.231  23.332  1.00  0.00    -0.320 N 
ATOM     29  C   UNL A   1      27.216  28.506  23.274  1.00  0.00     0.258 C 
ATOM     30  H   UNL A   1      27.081  26.520  23.094  1.00  0.00     0.170 HD
ATOM     31  O   UNL A   1      26.001  28.693  23.321  1.00  0.00    -0.269 OA
BRANCH  29  32
ATOM     32  C   UNL A   1      28.098  29.669  23.042  1.00  0.00     0.075 A 
ATOM     33  C   UNL A   1      28.629  30.334  24.155  1.00  0.00     0.017 A 
ATOM     34  C   UNL A   1      28.317  30.194  21.767  1.00  0.00     0.135 A 
ATOM     35  C   UNL A   1      29.416  31.474  23.979  1.00  0.00     0.001 A 
ATOM     36  C   UNL A   1      29.121  31.315  21.586  1.00  0.00     0.040 A 
ATOM     37  F   UNL A   1      27.731  29.667  20.683  1.00  0.00    -0.206 F 
ATOM     38  C   UNL A   1      29.675  31.955  22.694  1.00  0.00     0.003 A 
ENDBRANCH  29  32
ENDBRANCH  13  28
ENDBRANCH   5   8
ENDBRANCH   3   4
ENDBRANCH   2   3
ENDBRANCH   1   2
BRANCH   1  39
ATOM     39  C   UNL A   1      33.418  30.145  26.821  1.00  0.00     0.116 C 
BRANCH  39  40
ATOM     40  N   UNL A   1      33.978  31.405  27.272  1.00  0.00    -0.352 N 
ATOM     41  C   UNL A   1      34.773  31.552  28.415  1.00  0.00     0.251 C 
ATOM     42  H   UNL A   1      33.785  32.210  26.740  1.00  0.00     0.163 HD
ATOM     43  O   UNL A   1      34.733  32.498  29.148  1.00  0.00    -0.269 OA
BRANCH  41  44
ATOM     44  C   UNL A   1      35.819  30.507  28.562  1.00  0.00     0.039 A 
ATOM     45  C   UNL A   1      35.887  29.841  29.792  1.00  0.00     0.014 A 
ATOM     46  C   UNL A   1      36.868  30.457  27.651  1.00  0.00     0.014 A 
ATOM     47  C   UNL A   1      37.095  29.284  30.198  1.00  0.00     0.010 A 
ATOM     48  C   UNL A   1      38.087  29.994  28.094  1.00  0.00     0.010 A 
ATOM     49  C   UNL A   1      38.210  29.459  29.386  1.00  0.00    -0.014 A 
BRANCH  49  50
ATOM     50  C   UNL A   1      39.576  29.151  29.781  1.00  0.00     0.031 A 
ATOM     51  C   UNL A   1      40.156  27.862  29.356  1.00  0.00     0.074 A 
ATOM     52  C   UNL A   1      40.333  30.120  30.337  1.00  0.00     0.049 A 
ATOM     53  N   UNL A   1      41.327  27.439  29.685  1.00  0.00    -0.248 NA
ATOM     54  C   UNL A   1      39.407  26.899  28.553  1.00  0.00     0.031 C 
ATOM     55  C   UNL A   1      41.790  30.184  30.410  1.00  0.00     0.029 A 
ATOM     56  N   UNL A   1      39.899  31.156  31.171  1.00  0.00    -0.354 N 
ATOM     57  C   UNL A   1      41.599  26.324  28.925  1.00  0.00     0.074 A 
ATOM     58  C   UNL A   1      40.336  25.965  28.337  1.00  0.00     0.031 C 
ATOM     59  C   UNL A   1      42.141  31.002  31.415  1.00  0.00     0.029 A 
ATOM     60  C   UNL A   1      40.921  31.345  32.126  1.00  0.00     0.049 A 
ATOM     61  H   UNL A   1      39.052  31.654  31.104  1.00  0.00     0.167 HD
ATOM     62  C   UNL A   1      42.902  25.944  28.792  1.00  0.00     0.037 A 
ATOM     63  C   UNL A   1      40.697  31.051  33.442  1.00  0.00     0.037 A 
ATOM     64  C   UNL A   1      43.703  26.568  29.853  1.00  0.00     0.049 A 
ATOM     65  C   UNL A   1      41.570  29.931  33.968  1.00  0.00     0.074 A 
ATOM     66  C   UNL A   1      44.581  27.639  29.889  1.00  0.00     0.029 A 
ATOM     67  N   UNL A   1      43.387  26.281  31.182  1.00  0.00    -0.354 N 
ATOM     68  N   UNL A   1      42.185  29.058  33.213  1.00  0.00    -0.248 NA
ATOM     69  C   UNL A   1      41.850  29.729  35.386  1.00  0.00     0.031 C 
ATOM     70  C   UNL A   1      44.678  28.076  31.241  1.00  0.00     0.029 A 
ATOM     71  C   UNL A   1      43.904  27.241  32.031  1.00  0.00     0.049 A 
ATOM     72  H   UNL A   1      42.864  25.499  31.475  1.00  0.00     0.167 HD
ATOM     73  C   UNL A   1      42.919  28.200  33.994  1.00  0.00     0.074 A 
ATOM     74  C   UNL A   1      42.690  28.679  35.346  1.00  0.00     0.031 C 
ATOM     75  C   UNL A   1      43.657  27.174  33.470  1.00  0.00     0.037 A 
BRANCH  62  76
ATOM     76  C   UNL A   1      43.482  25.218  27.581  1.00  0.00     0.058 A 
ATOM     77  C   UNL A   1      43.324  23.818  27.445  1.00  0.00     0.135 A 
ATOM     78  C   UNL A   1      44.314  25.792  26.591  1.00  0.00     0.135 A 
ATOM     79  F   UNL A   1      42.558  23.119  28.295  1.00  0.00    -0.206 F 
ATOM     80  C   UNL A   1      43.968  23.060  26.454  1.00  0.00     0.059 A 
ATOM     81  C   UNL A   1      44.956  25.060  25.587  1.00  0.00     0.059 A 
ATOM     82  F   UNL A   1      44.588  27.095  26.540  1.00  0.00    -0.206 F 
ATOM     83  C   UNL A   1      44.796  23.690  25.534  1.00  0.00     0.060 A 
BRANCH  83  84
ATOM     84  S   UNL A   1      45.666  22.720  24.290  1.00  0.00     0.124 S 
ATOM     85  O   UNL A   1      46.620  23.689  23.763  1.00  0.00    -0.237 OA
ATOM     86  O   UNL A   1      46.230  21.634  25.085  1.00  0.00    -0.237 OA
ATOM     87  O   UNL A   1      44.608  22.325  23.363  1.00  0.00    -0.744 OA
ENDBRANCH  83  84
ENDBRANCH  62  76
BRANCH  63  88
ATOM     88  C   UNL A   1      39.309  31.393  33.874  1.00  0.00     0.058 A 
ATOM     89  C   UNL A   1      39.048  32.750  34.159  1.00  0.00     0.135 A 
ATOM     90  C   UNL A   1      38.213  30.586  33.537  1.00  0.00     0.135 A 
ATOM     91  F   UNL A   1      40.057  33.565  34.511  1.00  0.00    -0.206 F 
ATOM     92  C   UNL A   1      37.805  33.326  33.919  1.00  0.00     0.059 A 
ATOM     93  C   UNL A   1      36.948  31.142  33.311  1.00  0.00     0.059 A 
ATOM     94  F   UNL A   1      38.389  29.284  33.269  1.00  0.00    -0.206 F 
ATOM     95  C   UNL A   1      36.785  32.525  33.415  1.00  0.00     0.060 A 
BRANCH  95  96
ATOM     96  S   UNL A   1      35.330  33.354  32.724  1.00  0.00     0.124 S 
ATOM     97  O   UNL A   1      35.927  34.252  31.743  1.00  0.00    -0.237 OA
ATOM     98  O   UNL A   1      34.575  32.227  32.171  1.00  0.00    -0.237 OA
ATOM     99  O   UNL A   1      34.730  33.998  33.887  1.00  0.00    -0.744 OA
ENDBRANCH  95  96
ENDBRANCH  63  88
BRANCH  75 100
ATOM    100  C   UNL A   1      44.294  26.044  34.261  1.00  0.00     0.058 A 
ATOM    101  C   UNL A   1      45.671  25.943  34.532  1.00  0.00     0.135 A 
ATOM    102  C   UNL A   1      43.483  25.078  34.910  1.00  0.00     0.135 A 
ATOM    103  F   UNL A   1      46.541  26.862  34.092  1.00  0.00    -0.206 F 
ATOM    104  C   UNL A   1      46.212  24.919  35.314  1.00  0.00     0.059 A 
ATOM    105  C   UNL A   1      43.996  24.088  35.747  1.00  0.00     0.059 A 
ATOM    106  F   UNL A   1      42.150  25.071  34.767  1.00  0.00    -0.206 F 
ATOM    107  C   UNL A   1      45.367  23.997  35.919  1.00  0.00     0.060 A 
BRANCH 107 108
ATOM    108  S   UNL A   1      46.051  22.718  36.988  1.00  0.00     0.124 S 
ATOM    109  O   UNL A   1      45.481  23.084  38.281  1.00  0.00    -0.237 OA
ATOM    110  O   UNL A   1      45.529  21.488  36.396  1.00  0.00    -0.237 OA
ATOM    111  O   UNL A   1      47.491  22.905  36.854  1.00  0.00    -0.744 OA
ENDBRANCH 107 108
ENDBRANCH  75 100
ENDBRANCH  49  50
ENDBRANCH  41  44
ENDBRANCH  39  40
ENDBRANCH   1  39
TORSDOF 18
ENDMDL
