MODEL 1
REMARK VINA RESULT:     -13.0      0.000      0.000
REMARK SMILES C[C@@H](Oc1ccc(/C=C2\C(=O)[NH+]=C(NCCCCNC(=O)c3ccc(-c4c5nc(c(-c6c(F)cc(S(=O)(=O)[O-])cc6F)c6ccc([nH]6)c(-c6c(F)cc(S(=O)(=O)[O-])cc6F)c6nc(c(-c7c(F)cc(S(=O)(=O)[O-])cc7F)c7ccc4[nH]7)C=C6)C=C5)cc3)N(c3ccc4c(c3)OCO4)C2=O)cc1)C(=O)[O-]
REMARK SMILES IDX 16 1 15 2 14 3 8 4 9 5 10 6 98 7 11 8 12 9 88 10 99 11 13 12
REMARK SMILES IDX 7 15 4 16 5 17 101 18 6 19 100 20 3 21 2 22 1 23 102 24
REMARK SMILES IDX 103 25 104 26 89 27 90 28 94 29 91 30 93 31 92 32 95 33
REMARK SMILES IDX 97 34 96 35 17 36 18 37 19 38 20 39 21 41 22 42 23 43 87 44
REMARK SMILES IDX 24 45 86 46 25 47 26 48 27 49 80 50 28 51 85 52 79 53 81 54
REMARK SMILES IDX 29 55 84 56 78 57 77 58 30 60 64 61 43 62 63 63 44 64 47 65
REMARK SMILES IDX 62 66 82 67 45 68 46 69 61 71 83 72 48 73 31 74 32 75 41 76
REMARK SMILES IDX 33 77 34 78 40 79 42 80 35 81 36 82 37 83 38 84 39 85 65 86
REMARK SMILES IDX 66 87 75 88 67 89 68 90 74 91 76 92 69 93 70 94 71 95 72 96
REMARK SMILES IDX 73 97 49 98 50 99 59 100 51 101 52 102 58 103 60 104 53 105
REMARK SMILES IDX 54 106 55 107 56 108 57 109
REMARK H PARENT 12 13 14 14 19 40 81 59 47 70
REMARK Flexibility Score: inf
ROOT
ATOM      1  C   UNL A   1      37.264  22.259  24.760  1.00  0.00     0.039 C 
ENDROOT
BRANCH   1   2
ATOM      2  C   UNL A   1      36.323  22.922  23.759  1.00  0.00     0.197 C 
BRANCH   2   3
ATOM      3  N   UNL A   1      34.993  22.347  23.848  1.00  0.00    -0.277 N 
ATOM      4  C   UNL A   1      30.544  25.300  23.380  1.00  0.00     0.031 C 
ATOM      5  C   UNL A   1      31.587  24.607  23.876  1.00  0.00     0.138 C 
ATOM      6  C   UNL A   1      32.858  25.167  24.367  1.00  0.00     0.321 C 
ATOM      7  C   UNL A   1      31.423  23.142  23.942  1.00  0.00     0.328 C 
ATOM      8  O   UNL A   1      32.931  26.278  24.871  1.00  0.00    -0.250 OA
ATOM      9  N   UNL A   1      33.948  24.364  24.191  1.00  0.00    -0.210 N 
ATOM     10  N   UNL A   1      32.616  22.437  24.016  1.00  0.00    -0.162 N 
ATOM     11  O   UNL A   1      30.301  22.631  23.917  1.00  0.00    -0.249 OA
ATOM     12  C   UNL A   1      33.848  23.082  24.040  1.00  0.00     0.366 C 
ATOM     13  H   UNL A   1      34.843  24.775  24.180  1.00  0.00     0.270 HD
ATOM     14  H   UNL A   1      34.907  21.370  23.767  1.00  0.00     0.260 HD
BRANCH   4  15
ATOM     15  C   UNL A   1      30.384  26.738  23.133  1.00  0.00    -0.024 A 
ATOM     16  C   UNL A   1      29.860  29.441  22.580  1.00  0.00     0.120 A 
ATOM     17  C   UNL A   1      31.068  28.870  22.187  1.00  0.00     0.047 A 
ATOM     18  C   UNL A   1      28.894  28.658  23.201  1.00  0.00     0.047 A 
ATOM     19  C   UNL A   1      31.324  27.520  22.454  1.00  0.00     0.012 A 
ATOM     20  C   UNL A   1      29.160  27.319  23.488  1.00  0.00     0.012 A 
BRANCH  16  21
ATOM     21  O   UNL A   1      29.611  30.733  22.211  1.00  0.00    -0.485 OA
BRANCH  21  22
ATOM     22  C   UNL A   1      28.234  31.002  21.910  1.00  0.00     0.216 C 
ATOM     23  C   UNL A   1      28.070  31.713  20.568  1.00  0.00     0.059 C 
BRANCH  22  24
ATOM     24  C   UNL A   1      27.681  31.927  22.986  1.00  0.00     0.082 C 
ATOM     25  O   UNL A   1      26.903  31.609  23.876  1.00  0.00    -0.546 OA
ATOM     26  O   UNL A   1      28.045  33.220  22.847  1.00  0.00    -0.546 OA
ENDBRANCH  22  24
ENDBRANCH  21  22
ENDBRANCH  16  21
ENDBRANCH   4  15
BRANCH  10  27
ATOM     27  C   UNL A   1      32.509  21.020  23.981  1.00  0.00     0.115 A 
ATOM     28  C   UNL A   1      32.420  20.349  22.742  1.00  0.00     0.048 A 
ATOM     29  C   UNL A   1      32.649  20.300  25.176  1.00  0.00     0.094 A 
ATOM     30  C   UNL A   1      32.524  18.953  22.691  1.00  0.00     0.054 A 
ATOM     31  C   UNL A   1      32.754  18.933  25.088  1.00  0.00     0.169 A 
ATOM     32  C   UNL A   1      32.710  18.278  23.880  1.00  0.00     0.166 A 
ATOM     33  O   UNL A   1      32.962  18.089  26.133  1.00  0.00    -0.453 OA
ATOM     34  O   UNL A   1      32.908  16.939  24.018  1.00  0.00    -0.454 OA
ATOM     35  C   UNL A   1      33.219  16.857  25.425  1.00  0.00     0.468 C 
ENDBRANCH  10  27
ENDBRANCH   2   3
ENDBRANCH   1   2
BRANCH   1  36
ATOM     36  C   UNL A   1      37.249  22.884  26.158  1.00  0.00     0.024 C 
BRANCH  36  37
ATOM     37  C   UNL A   1      38.152  24.100  26.342  1.00  0.00     0.116 C 
BRANCH  37  38
ATOM     38  N   UNL A   1      39.557  23.804  26.116  1.00  0.00    -0.352 N 
ATOM     39  C   UNL A   1      40.669  24.463  26.585  1.00  0.00     0.251 C 
ATOM     40  H   UNL A   1      39.739  23.022  25.546  1.00  0.00     0.163 HD
ATOM     41  O   UNL A   1      41.782  24.149  26.177  1.00  0.00    -0.269 OA
BRANCH  39  42
ATOM     42  C   UNL A   1      40.515  25.572  27.553  1.00  0.00     0.039 A 
ATOM     43  C   UNL A   1      39.611  25.425  28.609  1.00  0.00     0.014 A 
ATOM     44  C   UNL A   1      41.265  26.744  27.432  1.00  0.00     0.014 A 
ATOM     45  C   UNL A   1      39.513  26.423  29.581  1.00  0.00     0.010 A 
ATOM     46  C   UNL A   1      41.219  27.705  28.440  1.00  0.00     0.010 A 
ATOM     47  C   UNL A   1      40.345  27.554  29.527  1.00  0.00    -0.014 A 
BRANCH  47  48
ATOM     48  C   UNL A   1      40.323  28.580  30.605  1.00  0.00     0.031 A 
ATOM     49  C   UNL A   1      41.242  28.453  31.790  1.00  0.00     0.074 A 
ATOM     50  C   UNL A   1      39.430  29.589  30.546  1.00  0.00     0.049 A 
ATOM     51  N   UNL A   1      41.317  29.202  32.860  1.00  0.00    -0.248 NA
ATOM     52  C   UNL A   1      42.185  27.322  31.786  1.00  0.00     0.031 C 
ATOM     53  C   UNL A   1      38.455  29.796  29.474  1.00  0.00     0.029 A 
ATOM     54  N   UNL A   1      39.189  30.625  31.414  1.00  0.00    -0.354 N 
ATOM     55  C   UNL A   1      42.297  28.628  33.661  1.00  0.00     0.074 A 
ATOM     56  C   UNL A   1      42.759  27.440  32.976  1.00  0.00     0.031 C 
ATOM     57  C   UNL A   1      37.736  30.900  29.736  1.00  0.00     0.029 A 
ATOM     58  C   UNL A   1      38.169  31.457  31.014  1.00  0.00     0.049 A 
ATOM     59  H   UNL A   1      39.697  30.760  32.246  1.00  0.00     0.167 HD
ATOM     60  C   UNL A   1      42.783  29.062  34.848  1.00  0.00     0.037 A 
ATOM     61  C   UNL A   1      37.634  32.541  31.613  1.00  0.00     0.037 A 
ATOM     62  C   UNL A   1      42.344  30.264  35.509  1.00  0.00     0.049 A 
ATOM     63  C   UNL A   1      38.191  32.998  32.934  1.00  0.00     0.074 A 
ATOM     64  C   UNL A   1      42.826  30.825  36.679  1.00  0.00     0.029 A 
ATOM     65  N   UNL A   1      41.325  31.091  35.061  1.00  0.00    -0.354 N 
ATOM     66  N   UNL A   1      39.168  32.481  33.641  1.00  0.00    -0.248 NA
ATOM     67  C   UNL A   1      37.579  34.190  33.538  1.00  0.00     0.031 C 
ATOM     68  C   UNL A   1      42.065  31.962  36.966  1.00  0.00     0.029 A 
ATOM     69  C   UNL A   1      41.146  32.142  35.945  1.00  0.00     0.049 A 
ATOM     70  H   UNL A   1      40.805  30.951  34.236  1.00  0.00     0.167 HD
ATOM     71  C   UNL A   1      39.309  33.303  34.754  1.00  0.00     0.074 A 
ATOM     72  C   UNL A   1      38.326  34.358  34.621  1.00  0.00     0.031 C 
ATOM     73  C   UNL A   1      40.175  33.196  35.791  1.00  0.00     0.037 A 
BRANCH  60  74
ATOM     74  C   UNL A   1      43.853  28.242  35.516  1.00  0.00     0.058 A 
ATOM     75  C   UNL A   1      45.215  28.461  35.263  1.00  0.00     0.135 A 
ATOM     76  C   UNL A   1      43.512  27.276  36.478  1.00  0.00     0.135 A 
ATOM     77  F   UNL A   1      45.596  29.361  34.341  1.00  0.00    -0.206 F 
ATOM     78  C   UNL A   1      46.203  27.742  35.928  1.00  0.00     0.059 A 
ATOM     79  C   UNL A   1      44.484  26.565  37.175  1.00  0.00     0.059 A 
ATOM     80  F   UNL A   1      42.224  27.025  36.758  1.00  0.00    -0.206 F 
ATOM     81  C   UNL A   1      45.828  26.800  36.887  1.00  0.00     0.060 A 
BRANCH  81  82
ATOM     82  S   UNL A   1      47.124  25.902  37.765  1.00  0.00     0.124 S 
ATOM     83  O   UNL A   1      46.735  26.116  39.156  1.00  0.00    -0.237 OA
ATOM     84  O   UNL A   1      46.955  24.542  37.263  1.00  0.00    -0.237 OA
ATOM     85  O   UNL A   1      48.350  26.575  37.346  1.00  0.00    -0.744 OA
ENDBRANCH  81  82
ENDBRANCH  60  74
BRANCH  61  86
ATOM     86  C   UNL A   1      36.512  33.279  30.969  1.00  0.00     0.058 A 
ATOM     87  C   UNL A   1      35.221  33.250  31.516  1.00  0.00     0.135 A 
ATOM     88  C   UNL A   1      36.703  34.007  29.784  1.00  0.00     0.135 A 
ATOM     89  F   UNL A   1      34.986  32.563  32.645  1.00  0.00    -0.206 F 
ATOM     90  C   UNL A   1      34.150  33.886  30.896  1.00  0.00     0.059 A 
ATOM     91  C   UNL A   1      35.654  34.676  29.160  1.00  0.00     0.059 A 
ATOM     92  F   UNL A   1      37.922  34.083  29.228  1.00  0.00    -0.206 F 
ATOM     93  C   UNL A   1      34.377  34.595  29.715  1.00  0.00     0.060 A 
BRANCH  93  94
ATOM     94  S   UNL A   1      32.986  35.431  28.924  1.00  0.00     0.124 S 
ATOM     95  O   UNL A   1      32.093  35.649  30.057  1.00  0.00    -0.237 OA
ATOM     96  O   UNL A   1      33.619  36.624  28.370  1.00  0.00    -0.237 OA
ATOM     97  O   UNL A   1      32.529  34.459  27.937  1.00  0.00    -0.744 OA
ENDBRANCH  93  94
ENDBRANCH  61  86
BRANCH  73  98
ATOM     98  C   UNL A   1      40.135  34.269  36.845  1.00  0.00     0.058 A 
ATOM     99  C   UNL A   1      39.285  34.182  37.959  1.00  0.00     0.135 A 
ATOM    100  C   UNL A   1      40.999  35.373  36.765  1.00  0.00     0.135 A 
ATOM    101  F   UNL A   1      38.434  33.150  38.080  1.00  0.00    -0.206 F 
ATOM    102  C   UNL A   1      39.276  35.164  38.944  1.00  0.00     0.059 A 
ATOM    103  C   UNL A   1      41.029  36.352  37.753  1.00  0.00     0.059 A 
ATOM    104  F   UNL A   1      41.840  35.499  35.726  1.00  0.00    -0.206 F 
ATOM    105  C   UNL A   1      40.154  36.245  38.833  1.00  0.00     0.060 A 
BRANCH 105 106
ATOM    106  S   UNL A   1      40.157  37.494  40.137  1.00  0.00     0.124 S 
ATOM    107  O   UNL A   1      41.273  38.341  39.730  1.00  0.00    -0.237 OA
ATOM    108  O   UNL A   1      38.830  38.086  40.005  1.00  0.00    -0.237 OA
ATOM    109  O   UNL A   1      40.371  36.714  41.353  1.00  0.00    -0.744 OA
ENDBRANCH 105 106
ENDBRANCH  73  98
ENDBRANCH  47  48
ENDBRANCH  39  42
ENDBRANCH  37  38
ENDBRANCH  36  37
ENDBRANCH   1  36
TORSDOF 18
ENDMDL
MODEL 2
REMARK VINA RESULT:     -12.9      0.973      7.882
REMARK SMILES C[C@@H](Oc1ccc(/C=C2\C(=O)[NH+]=C(NCCCCNC(=O)c3ccc(-c4c5nc(c(-c6c(F)cc(S(=O)(=O)[O-])cc6F)c6ccc([nH]6)c(-c6c(F)cc(S(=O)(=O)[O-])cc6F)c6nc(c(-c7c(F)cc(S(=O)(=O)[O-])cc7F)c7ccc4[nH]7)C=C6)C=C5)cc3)N(c3ccc4c(c3)OCO4)C2=O)cc1)C(=O)[O-]
REMARK SMILES IDX 16 1 15 2 14 3 8 4 9 5 10 6 98 7 11 8 12 9 88 10 99 11 13 12
REMARK SMILES IDX 7 15 4 16 5 17 101 18 6 19 100 20 3 21 2 22 1 23 102 24
REMARK SMILES IDX 103 25 104 26 89 27 90 28 94 29 91 30 93 31 92 32 95 33
REMARK SMILES IDX 97 34 96 35 17 36 18 37 19 38 20 39 21 41 22 42 23 43 87 44
REMARK SMILES IDX 24 45 86 46 25 47 26 48 27 49 80 50 28 51 85 52 79 53 81 54
REMARK SMILES IDX 29 55 84 56 78 57 77 58 30 60 64 61 43 62 63 63 44 64 47 65
REMARK SMILES IDX 62 66 82 67 45 68 46 69 61 71 83 72 48 73 31 74 32 75 41 76
REMARK SMILES IDX 33 77 34 78 40 79 42 80 35 81 36 82 37 83 38 84 39 85 65 86
REMARK SMILES IDX 66 87 75 88 67 89 68 90 74 91 76 92 69 93 70 94 71 95 72 96
REMARK SMILES IDX 73 97 49 98 50 99 59 100 51 101 52 102 58 103 60 104 53 105
REMARK SMILES IDX 54 106 55 107 56 108 57 109
REMARK H PARENT 12 13 14 14 19 40 81 59 47 70
REMARK Flexibility Score: inf
ROOT
ATOM      1  C   UNL A   1      37.542  23.678  25.278  1.00  0.00     0.039 C 
ENDROOT
BRANCH   1   2
ATOM      2  C   UNL A   1      36.261  24.360  25.748  1.00  0.00     0.197 C 
BRANCH   2   3
ATOM      3  N   UNL A   1      35.102  23.544  25.439  1.00  0.00    -0.277 N 
ATOM      4  C   UNL A   1      30.542  25.621  23.533  1.00  0.00     0.031 C 
ATOM      5  C   UNL A   1      31.493  25.121  24.347  1.00  0.00     0.138 C 
ATOM      6  C   UNL A   1      32.421  25.895  25.189  1.00  0.00     0.321 C 
ATOM      7  C   UNL A   1      31.594  23.651  24.403  1.00  0.00     0.328 C 
ATOM      8  O   UNL A   1      32.124  26.984  25.658  1.00  0.00    -0.250 OA
ATOM      9  N   UNL A   1      33.642  25.317  25.383  1.00  0.00    -0.210 N 
ATOM     10  N   UNL A   1      32.817  23.180  24.862  1.00  0.00    -0.162 N 
ATOM     11  O   UNL A   1      30.653  22.939  24.048  1.00  0.00    -0.249 OA
ATOM     12  C   UNL A   1      33.837  24.044  25.246  1.00  0.00     0.366 C 
ATOM     13  H   UNL A   1      34.403  25.889  25.636  1.00  0.00     0.270 HD
ATOM     14  H   UNL A   1      35.230  22.571  25.365  1.00  0.00     0.260 HD
BRANCH   4  15
ATOM     15  C   UNL A   1      30.199  27.010  23.206  1.00  0.00    -0.024 A 
ATOM     16  C   UNL A   1      29.340  29.586  22.488  1.00  0.00     0.120 A 
ATOM     17  C   UNL A   1      30.643  29.181  22.208  1.00  0.00     0.047 A 
ATOM     18  C   UNL A   1      28.451  28.694  23.077  1.00  0.00     0.047 A 
ATOM     19  C   UNL A   1      31.067  27.894  22.557  1.00  0.00     0.012 A 
ATOM     20  C   UNL A   1      28.881  27.420  23.447  1.00  0.00     0.012 A 
BRANCH  16  21
ATOM     21  O   UNL A   1      28.938  30.812  22.040  1.00  0.00    -0.485 OA
BRANCH  21  22
ATOM     22  C   UNL A   1      28.647  31.752  23.084  1.00  0.00     0.216 C 
ATOM     23  C   UNL A   1      27.390  31.371  23.864  1.00  0.00     0.059 C 
BRANCH  22  24
ATOM     24  C   UNL A   1      28.393  33.112  22.446  1.00  0.00     0.082 C 
ATOM     25  O   UNL A   1      27.955  33.306  21.321  1.00  0.00    -0.546 OA
ATOM     26  O   UNL A   1      28.784  34.160  23.202  1.00  0.00    -0.546 OA
ENDBRANCH  22  24
ENDBRANCH  21  22
ENDBRANCH  16  21
ENDBRANCH   4  15
BRANCH  10  27
ATOM     27  C   UNL A   1      32.994  21.770  24.839  1.00  0.00     0.115 A 
ATOM     28  C   UNL A   1      33.180  21.062  26.046  1.00  0.00     0.048 A 
ATOM     29  C   UNL A   1      32.826  21.086  23.627  1.00  0.00     0.094 A 
ATOM     30  C   UNL A   1      33.147  19.662  26.051  1.00  0.00     0.054 A 
ATOM     31  C   UNL A   1      32.792  19.713  23.669  1.00  0.00     0.169 A 
ATOM     32  C   UNL A   1      32.930  19.019  24.849  1.00  0.00     0.166 A 
ATOM     33  O   UNL A   1      32.569  18.896  22.606  1.00  0.00    -0.453 OA
ATOM     34  O   UNL A   1      32.790  17.678  24.672  1.00  0.00    -0.454 OA
ATOM     35  C   UNL A   1      32.409  17.629  23.280  1.00  0.00     0.468 C 
ENDBRANCH  10  27
ENDBRANCH   2   3
ENDBRANCH   1   2
BRANCH   1  36
ATOM     36  C   UNL A   1      38.274  22.883  26.363  1.00  0.00     0.024 C 
BRANCH  36  37
ATOM     37  C   UNL A   1      39.500  23.566  26.961  1.00  0.00     0.116 C 
BRANCH  37  38
ATOM     38  N   UNL A   1      40.282  24.295  25.976  1.00  0.00    -0.352 N 
ATOM     39  C   UNL A   1      40.844  25.546  26.068  1.00  0.00     0.251 C 
ATOM     40  H   UNL A   1      40.430  23.827  25.122  1.00  0.00     0.163 HD
ATOM     41  O   UNL A   1      41.359  26.058  25.079  1.00  0.00    -0.269 OA
BRANCH  39  42
ATOM     42  C   UNL A   1      40.795  26.285  27.349  1.00  0.00     0.039 A 
ATOM     43  C   UNL A   1      41.797  27.217  27.629  1.00  0.00     0.014 A 
ATOM     44  C   UNL A   1      39.762  26.072  28.265  1.00  0.00     0.014 A 
ATOM     45  C   UNL A   1      41.724  27.986  28.792  1.00  0.00     0.010 A 
ATOM     46  C   UNL A   1      39.651  26.888  29.389  1.00  0.00     0.010 A 
ATOM     47  C   UNL A   1      40.628  27.857  29.663  1.00  0.00    -0.014 A 
BRANCH  47  48
ATOM     48  C   UNL A   1      40.483  28.734  30.856  1.00  0.00     0.031 A 
ATOM     49  C   UNL A   1      39.443  29.822  30.875  1.00  0.00     0.074 A 
ATOM     50  C   UNL A   1      41.332  28.593  31.895  1.00  0.00     0.049 A 
ATOM     51  N   UNL A   1      39.215  30.731  31.789  1.00  0.00    -0.248 NA
ATOM     52  C   UNL A   1      38.557  29.918  29.703  1.00  0.00     0.031 C 
ATOM     53  C   UNL A   1      42.413  27.608  31.978  1.00  0.00     0.029 A 
ATOM     54  N   UNL A   1      41.429  29.287  33.075  1.00  0.00    -0.354 N 
ATOM     55  C   UNL A   1      38.176  31.513  31.298  1.00  0.00     0.074 A 
ATOM     56  C   UNL A   1      37.847  31.002  29.985  1.00  0.00     0.031 C 
ATOM     57  C   UNL A   1      43.049  27.747  33.152  1.00  0.00     0.029 A 
ATOM     58  C   UNL A   1      42.450  28.855  33.890  1.00  0.00     0.049 A 
ATOM     59  H   UNL A   1      40.824  30.025  33.318  1.00  0.00     0.167 HD
ATOM     60  C   UNL A   1      37.541  32.549  31.896  1.00  0.00     0.037 A 
ATOM     61  C   UNL A   1      42.867  29.307  35.090  1.00  0.00     0.037 A 
ATOM     62  C   UNL A   1      37.849  33.030  33.217  1.00  0.00     0.049 A 
ATOM     63  C   UNL A   1      42.143  30.462  35.729  1.00  0.00     0.074 A 
ATOM     64  C   UNL A   1      37.214  34.028  33.937  1.00  0.00     0.029 A 
ATOM     65  N   UNL A   1      38.876  32.553  34.018  1.00  0.00    -0.354 N 
ATOM     66  N   UNL A   1      41.116  31.143  35.280  1.00  0.00    -0.248 NA
ATOM     67  C   UNL A   1      42.631  30.909  37.043  1.00  0.00     0.031 C 
ATOM     68  C   UNL A   1      37.887  34.189  35.152  1.00  0.00     0.029 A 
ATOM     69  C   UNL A   1      38.907  33.253  35.214  1.00  0.00     0.049 A 
ATOM     70  H   UNL A   1      39.491  31.824  33.774  1.00  0.00     0.167 HD
ATOM     71  C   UNL A   1      40.814  32.074  36.268  1.00  0.00     0.074 A 
ATOM     72  C   UNL A   1      41.760  31.862  37.345  1.00  0.00     0.031 C 
ATOM     73  C   UNL A   1      39.843  33.019  36.284  1.00  0.00     0.037 A 
BRANCH  60  74
ATOM     74  C   UNL A   1      36.439  33.235  31.136  1.00  0.00     0.058 A 
ATOM     75  C   UNL A   1      35.097  33.143  31.537  1.00  0.00     0.135 A 
ATOM     76  C   UNL A   1      36.738  34.057  30.036  1.00  0.00     0.135 A 
ATOM     77  F   UNL A   1      34.753  32.358  32.572  1.00  0.00    -0.206 F 
ATOM     78  C   UNL A   1      34.088  33.827  30.868  1.00  0.00     0.059 A 
ATOM     79  C   UNL A   1      35.749  34.773  29.369  1.00  0.00     0.059 A 
ATOM     80  F   UNL A   1      38.004  34.181  29.609  1.00  0.00    -0.206 F 
ATOM     81  C   UNL A   1      34.425  34.646  29.788  1.00  0.00     0.060 A 
BRANCH  81  82
ATOM     82  S   UNL A   1      33.108  35.555  28.954  1.00  0.00     0.124 S 
ATOM     83  O   UNL A   1      32.289  35.983  30.084  1.00  0.00    -0.237 OA
ATOM     84  O   UNL A   1      33.845  36.612  28.269  1.00  0.00    -0.237 OA
ATOM     85  O   UNL A   1      32.500  34.552  28.084  1.00  0.00    -0.744 OA
ENDBRANCH  81  82
ENDBRANCH  60  74
BRANCH  61  86
ATOM     86  C   UNL A   1      44.021  28.664  35.778  1.00  0.00     0.058 A 
ATOM     87  C   UNL A   1      45.335  29.084  35.527  1.00  0.00     0.135 A 
ATOM     88  C   UNL A   1      43.835  27.604  36.679  1.00  0.00     0.135 A 
ATOM     89  F   UNL A   1      45.565  30.090  34.670  1.00  0.00    -0.206 F 
ATOM     90  C   UNL A   1      46.428  28.456  36.116  1.00  0.00     0.059 A 
ATOM     91  C   UNL A   1      44.909  26.978  37.303  1.00  0.00     0.059 A 
ATOM     92  F   UNL A   1      42.597  27.174  36.969  1.00  0.00    -0.206 F 
ATOM     93  C   UNL A   1      46.204  27.400  37.002  1.00  0.00     0.060 A 
BRANCH  93  94
ATOM     94  S   UNL A   1      47.626  26.599  37.775  1.00  0.00     0.124 S 
ATOM     95  O   UNL A   1      47.075  25.293  38.119  1.00  0.00    -0.237 OA
ATOM     96  O   UNL A   1      48.609  26.613  36.696  1.00  0.00    -0.237 OA
ATOM     97  O   UNL A   1      47.931  27.474  38.901  1.00  0.00    -0.744 OA
ENDBRANCH  93  94
ENDBRANCH  61  86
BRANCH  73  98
ATOM     98  C   UNL A   1      39.716  33.866  37.520  1.00  0.00     0.058 A 
ATOM     99  C   UNL A   1      38.935  33.466  38.616  1.00  0.00     0.135 A 
ATOM    100  C   UNL A   1      40.429  35.071  37.630  1.00  0.00     0.135 A 
ATOM    101  F   UNL A   1      38.227  32.327  38.560  1.00  0.00    -0.206 F 
ATOM    102  C   UNL A   1      38.846  34.242  39.767  1.00  0.00     0.059 A 
ATOM    103  C   UNL A   1      40.380  35.848  38.783  1.00  0.00     0.059 A 
ATOM    104  F   UNL A   1      41.200  35.495  36.616  1.00  0.00    -0.206 F 
ATOM    105  C   UNL A   1      39.575  35.431  39.842  1.00  0.00     0.060 A 
BRANCH 105 106
ATOM    106  S   UNL A   1      39.479  36.410  41.356  1.00  0.00     0.124 S 
ATOM    107  O   UNL A   1      38.161  36.042  41.861  1.00  0.00    -0.237 OA
ATOM    108  O   UNL A   1      40.616  35.911  42.123  1.00  0.00    -0.237 OA
ATOM    109  O   UNL A   1      39.608  37.785  40.880  1.00  0.00    -0.744 OA
ENDBRANCH 105 106
ENDBRANCH  73  98
ENDBRANCH  47  48
ENDBRANCH  39  42
ENDBRANCH  37  38
ENDBRANCH  36  37
ENDBRANCH   1  36
TORSDOF 18
ENDMDL
MODEL 3
REMARK VINA RESULT:     -12.9      6.260     11.895
REMARK SMILES C[C@@H](Oc1ccc(/C=C2\C(=O)[NH+]=C(NCCCCNC(=O)c3ccc(-c4c5nc(c(-c6c(F)cc(S(=O)(=O)[O-])cc6F)c6ccc([nH]6)c(-c6c(F)cc(S(=O)(=O)[O-])cc6F)c6nc(c(-c7c(F)cc(S(=O)(=O)[O-])cc7F)c7ccc4[nH]7)C=C6)C=C5)cc3)N(c3ccc4c(c3)OCO4)C2=O)cc1)C(=O)[O-]
REMARK SMILES IDX 16 1 15 2 14 3 8 4 9 5 10 6 98 7 11 8 12 9 88 10 99 11 13 12
REMARK SMILES IDX 7 15 4 16 5 17 101 18 6 19 100 20 3 21 2 22 1 23 102 24
REMARK SMILES IDX 103 25 104 26 89 27 90 28 94 29 91 30 93 31 92 32 95 33
REMARK SMILES IDX 97 34 96 35 17 36 18 37 19 38 20 39 21 41 22 42 23 43 87 44
REMARK SMILES IDX 24 45 86 46 25 47 26 48 27 49 80 50 28 51 85 52 79 53 81 54
REMARK SMILES IDX 29 55 84 56 78 57 77 58 30 60 64 61 43 62 63 63 44 64 47 65
REMARK SMILES IDX 62 66 82 67 45 68 46 69 61 71 83 72 48 73 31 74 32 75 41 76
REMARK SMILES IDX 33 77 34 78 40 79 42 80 35 81 36 82 37 83 38 84 39 85 65 86
REMARK SMILES IDX 66 87 75 88 67 89 68 90 74 91 76 92 69 93 70 94 71 95 72 96
REMARK SMILES IDX 73 97 49 98 50 99 59 100 51 101 52 102 58 103 60 104 53 105
REMARK SMILES IDX 54 106 55 107 56 108 57 109
REMARK H PARENT 12 13 14 14 19 40 81 59 47 70
REMARK Flexibility Score: inf
ROOT
ATOM      1  C   UNL A   1      32.872  29.017  27.035  1.00  0.00     0.039 C 
ENDROOT
BRANCH   1   2
ATOM      2  C   UNL A   1      31.969  27.795  27.173  1.00  0.00     0.197 C 
BRANCH   2   3
ATOM      3  N   UNL A   1      31.326  27.487  25.909  1.00  0.00    -0.277 N 
ATOM      4  C   UNL A   1      31.511  22.607  23.698  1.00  0.00     0.031 C 
ATOM      5  C   UNL A   1      31.757  23.895  24.006  1.00  0.00     0.138 C 
ATOM      6  C   UNL A   1      32.812  24.395  24.905  1.00  0.00     0.321 C 
ATOM      7  C   UNL A   1      30.887  24.897  23.362  1.00  0.00     0.328 C 
ATOM      8  O   UNL A   1      33.876  23.811  25.052  1.00  0.00    -0.250 OA
ATOM      9  N   UNL A   1      32.501  25.541  25.578  1.00  0.00    -0.210 N 
ATOM     10  N   UNL A   1      30.850  26.123  24.012  1.00  0.00    -0.162 N 
ATOM     11  O   UNL A   1      30.253  24.620  22.341  1.00  0.00    -0.249 OA
ATOM     12  C   UNL A   1      31.593  26.365  25.162  1.00  0.00     0.366 C 
ATOM     13  H   UNL A   1      32.985  25.748  26.410  1.00  0.00     0.270 HD
ATOM     14  H   UNL A   1      30.657  28.122  25.566  1.00  0.00     0.260 HD
BRANCH   4  15
ATOM     15  C   UNL A   1      32.140  21.373  24.181  1.00  0.00    -0.024 A 
ATOM     16  C   UNL A   1      33.185  18.890  24.977  1.00  0.00     0.120 A 
ATOM     17  C   UNL A   1      32.953  19.885  25.923  1.00  0.00     0.047 A 
ATOM     18  C   UNL A   1      32.850  19.110  23.646  1.00  0.00     0.047 A 
ATOM     19  C   UNL A   1      32.423  21.119  25.527  1.00  0.00     0.012 A 
ATOM     20  C   UNL A   1      32.344  20.347  23.248  1.00  0.00     0.012 A 
BRANCH  16  21
ATOM     21  O   UNL A   1      33.608  17.669  25.420  1.00  0.00    -0.485 OA
BRANCH  21  22
ATOM     22  C   UNL A   1      34.607  17.057  24.591  1.00  0.00     0.216 C 
ATOM     23  C   UNL A   1      34.034  16.584  23.257  1.00  0.00     0.059 C 
BRANCH  22  24
ATOM     24  C   UNL A   1      35.144  15.830  25.317  1.00  0.00     0.082 C 
ATOM     25  O   UNL A   1      36.278  15.696  25.756  1.00  0.00    -0.546 OA
ATOM     26  O   UNL A   1      34.277  14.797  25.376  1.00  0.00    -0.546 OA
ENDBRANCH  22  24
ENDBRANCH  21  22
ENDBRANCH  16  21
ENDBRANCH   4  15
BRANCH  10  27
ATOM     27  C   UNL A   1      29.948  27.086  23.482  1.00  0.00     0.115 A 
ATOM     28  C   UNL A   1      28.588  27.063  23.863  1.00  0.00     0.048 A 
ATOM     29  C   UNL A   1      30.456  28.137  22.708  1.00  0.00     0.094 A 
ATOM     30  C   UNL A   1      27.743  28.124  23.513  1.00  0.00     0.054 A 
ATOM     31  C   UNL A   1      29.601  29.165  22.388  1.00  0.00     0.169 A 
ATOM     32  C   UNL A   1      28.287  29.168  22.792  1.00  0.00     0.166 A 
ATOM     33  O   UNL A   1      29.941  30.291  21.707  1.00  0.00    -0.453 OA
ATOM     34  O   UNL A   1      27.645  30.311  22.431  1.00  0.00    -0.454 OA
ATOM     35  C   UNL A   1      28.741  31.074  21.884  1.00  0.00     0.468 C 
ENDBRANCH  10  27
ENDBRANCH   2   3
ENDBRANCH   1   2
BRANCH   1  36
ATOM     36  C   UNL A   1      34.370  28.703  27.026  1.00  0.00     0.024 C 
BRANCH  36  37
ATOM     37  C   UNL A   1      35.287  29.875  27.363  1.00  0.00     0.116 C 
BRANCH  37  38
ATOM     38  N   UNL A   1      35.243  30.248  28.767  1.00  0.00    -0.352 N 
ATOM     39  C   UNL A   1      36.214  30.118  29.730  1.00  0.00     0.251 C 
ATOM     40  H   UNL A   1      34.397  30.650  29.071  1.00  0.00     0.163 HD
ATOM     41  O   UNL A   1      35.949  30.365  30.902  1.00  0.00    -0.269 OA
BRANCH  39  42
ATOM     42  C   UNL A   1      37.566  29.647  29.356  1.00  0.00     0.039 A 
ATOM     43  C   UNL A   1      37.968  29.745  28.021  1.00  0.00     0.014 A 
ATOM     44  C   UNL A   1      38.439  29.125  30.313  1.00  0.00     0.014 A 
ATOM     45  C   UNL A   1      39.269  29.385  27.661  1.00  0.00     0.010 A 
ATOM     46  C   UNL A   1      39.757  28.835  29.966  1.00  0.00     0.010 A 
ATOM     47  C   UNL A   1      40.189  28.965  28.637  1.00  0.00    -0.014 A 
BRANCH  47  48
ATOM     48  C   UNL A   1      41.604  28.671  28.288  1.00  0.00     0.031 A 
ATOM     49  C   UNL A   1      42.014  27.277  27.896  1.00  0.00     0.074 A 
ATOM     50  C   UNL A   1      42.532  29.646  28.390  1.00  0.00     0.049 A 
ATOM     51  N   UNL A   1      43.209  26.812  27.630  1.00  0.00    -0.248 NA
ATOM     52  C   UNL A   1      40.948  26.266  27.813  1.00  0.00     0.031 C 
ATOM     53  C   UNL A   1      42.269  31.026  28.805  1.00  0.00     0.029 A 
ATOM     54  N   UNL A   1      43.886  29.623  28.163  1.00  0.00    -0.354 N 
ATOM     55  C   UNL A   1      43.041  25.458  27.367  1.00  0.00     0.074 A 
ATOM     56  C   UNL A   1      41.636  25.164  27.549  1.00  0.00     0.031 C 
ATOM     57  C   UNL A   1      43.418  31.720  28.783  1.00  0.00     0.029 A 
ATOM     58  C   UNL A   1      44.506  30.830  28.393  1.00  0.00     0.049 A 
ATOM     59  H   UNL A   1      44.369  28.819  27.864  1.00  0.00     0.167 HD
ATOM     60  C   UNL A   1      43.969  24.548  26.988  1.00  0.00     0.037 A 
ATOM     61  C   UNL A   1      45.807  31.177  28.312  1.00  0.00     0.037 A 
ATOM     62  C   UNL A   1      45.359  24.853  26.775  1.00  0.00     0.049 A 
ATOM     63  C   UNL A   1      46.817  30.143  27.891  1.00  0.00     0.074 A 
ATOM     64  C   UNL A   1      46.363  24.014  26.322  1.00  0.00     0.029 A 
ATOM     65  N   UNL A   1      45.945  26.091  26.998  1.00  0.00    -0.354 N 
ATOM     66  N   UNL A   1      46.627  28.883  27.577  1.00  0.00    -0.248 NA
ATOM     67  C   UNL A   1      48.219  30.577  27.807  1.00  0.00     0.031 C 
ATOM     68  C   UNL A   1      47.565  24.730  26.319  1.00  0.00     0.029 A 
ATOM     69  C   UNL A   1      47.300  26.031  26.716  1.00  0.00     0.049 A 
ATOM     70  H   UNL A   1      45.468  26.894  27.310  1.00  0.00     0.167 HD
ATOM     71  C   UNL A   1      47.877  28.385  27.226  1.00  0.00     0.074 A 
ATOM     72  C   UNL A   1      48.815  29.482  27.356  1.00  0.00     0.031 C 
ATOM     73  C   UNL A   1      48.219  27.134  26.833  1.00  0.00     0.037 A 
BRANCH  60  74
ATOM     74  C   UNL A   1      43.519  23.129  26.769  1.00  0.00     0.058 A 
ATOM     75  C   UNL A   1      43.404  22.582  25.481  1.00  0.00     0.135 A 
ATOM     76  C   UNL A   1      43.272  22.283  27.863  1.00  0.00     0.135 A 
ATOM     77  F   UNL A   1      43.613  23.350  24.399  1.00  0.00    -0.206 F 
ATOM     78  C   UNL A   1      43.045  21.252  25.285  1.00  0.00     0.059 A 
ATOM     79  C   UNL A   1      42.939  20.943  27.691  1.00  0.00     0.059 A 
ATOM     80  F   UNL A   1      43.365  22.755  29.116  1.00  0.00    -0.206 F 
ATOM     81  C   UNL A   1      42.821  20.439  26.396  1.00  0.00     0.060 A 
BRANCH  81  82
ATOM     82  S   UNL A   1      42.392  18.707  26.123  1.00  0.00     0.124 S 
ATOM     83  O   UNL A   1      40.984  18.812  25.750  1.00  0.00    -0.237 OA
ATOM     84  O   UNL A   1      43.304  18.326  25.050  1.00  0.00    -0.237 OA
ATOM     85  O   UNL A   1      42.653  18.083  27.417  1.00  0.00    -0.744 OA
ENDBRANCH  81  82
ENDBRANCH  60  74
BRANCH  61  86
ATOM     86  C   UNL A   1      46.235  32.568  28.624  1.00  0.00     0.058 A 
ATOM     87  C   UNL A   1      46.514  32.959  29.942  1.00  0.00     0.135 A 
ATOM     88  C   UNL A   1      46.349  33.540  27.617  1.00  0.00     0.135 A 
ATOM     89  F   UNL A   1      46.414  32.068  30.940  1.00  0.00    -0.206 F 
ATOM     90  C   UNL A   1      46.859  34.269  30.258  1.00  0.00     0.059 A 
ATOM     91  C   UNL A   1      46.721  34.850  27.904  1.00  0.00     0.059 A 
ATOM     92  F   UNL A   1      46.111  33.216  26.337  1.00  0.00    -0.206 F 
ATOM     93  C   UNL A   1      46.957  35.210  29.231  1.00  0.00     0.060 A 
BRANCH  93  94
ATOM     94  S   UNL A   1      47.419  36.905  29.647  1.00  0.00     0.124 S 
ATOM     95  O   UNL A   1      48.873  36.804  29.710  1.00  0.00    -0.237 OA
ATOM     96  O   UNL A   1      46.879  37.656  28.518  1.00  0.00    -0.237 OA
ATOM     97  O   UNL A   1      46.745  37.132  30.921  1.00  0.00    -0.744 OA
ENDBRANCH  93  94
ENDBRANCH  61  86
BRANCH  73  98
ATOM     98  C   UNL A   1      49.657  26.888  26.465  1.00  0.00     0.058 A 
ATOM     99  C   UNL A   1      50.597  26.447  27.409  1.00  0.00     0.135 A 
ATOM    100  C   UNL A   1      50.086  27.046  25.138  1.00  0.00     0.135 A 
ATOM    101  F   UNL A   1      50.240  26.287  28.694  1.00  0.00    -0.206 F 
ATOM    102  C   UNL A   1      51.918  26.194  27.055  1.00  0.00     0.059 A 
ATOM    103  C   UNL A   1      51.395  26.770  24.755  1.00  0.00     0.059 A 
ATOM    104  F   UNL A   1      49.225  27.456  24.193  1.00  0.00    -0.206 F 
ATOM    105  C   UNL A   1      52.307  26.356  25.724  1.00  0.00     0.060 A 
BRANCH 105 106
ATOM    106  S   UNL A   1      54.016  25.989  25.271  1.00  0.00     0.124 S 
ATOM    107  O   UNL A   1      54.664  27.276  25.503  1.00  0.00    -0.237 OA
ATOM    108  O   UNL A   1      54.365  24.925  26.206  1.00  0.00    -0.237 OA
ATOM    109  O   UNL A   1      53.916  25.580  23.872  1.00  0.00    -0.744 OA
ENDBRANCH 105 106
ENDBRANCH  73  98
ENDBRANCH  47  48
ENDBRANCH  39  42
ENDBRANCH  37  38
ENDBRANCH  36  37
ENDBRANCH   1  36
TORSDOF 18
ENDMDL
