MODEL 1
REMARK VINA RESULT:     -12.3      0.000      0.000
REMARK SMILES O=C(NCCCCNC(=O)[C@@H](Cc1ccccc1)N1C(=O)/C(=C/c2ccncc2)SC1=S)c1ccc(-c2c3nc(c(-c4c(F)cc(S(=O)(=O)[O-])cc4F)c4ccc([nH]4)c(-c4c(F)cc(S(=O)(=O)[O-])cc4F)c4nc(c(-c5c(F)cc(S(=O)(=O)[O-])cc5F)c5ccc2[nH]5)C=C4)C=C3)cc1
REMARK SMILES IDX 5 1 4 2 3 3 1 4 2 5 33 7 34 8 98 9 35 10 97 11 36 12 37 13
REMARK SMILES IDX 38 14 91 15 39 16 96 17 90 18 92 19 40 20 95 21 89 22 88 23
REMARK SMILES IDX 41 25 75 26 54 27 74 28 55 29 58 30 73 31 93 32 56 33 57 34
REMARK SMILES IDX 72 36 94 37 59 38 42 39 43 40 52 41 44 42 45 43 51 44 53 45
REMARK SMILES IDX 46 46 47 47 48 48 49 49 50 50 76 51 77 52 86 53 78 54 79 55
REMARK SMILES IDX 85 56 87 57 80 58 81 59 82 60 83 61 84 62 60 63 61 64 70 65
REMARK SMILES IDX 62 66 63 67 69 68 71 69 64 70 65 71 66 72 67 73 68 74 6 75
REMARK SMILES IDX 7 76 8 77 9 78 10 80 11 81 12 82 13 83 14 84 18 85 15 86
REMARK SMILES IDX 17 87 16 88 19 89 20 90 31 91 21 92 22 93 30 94 32 95 23 96
REMARK SMILES IDX 24 97 25 98 29 99 26 100 28 101 27 102
REMARK H PARENT 3 6 92 24 58 35 8 79
REMARK Flexibility Score: inf
ROOT
ATOM      1  C   UNL A   1      32.162  28.199  26.575  1.00  0.00     0.023 C 
ENDROOT
BRANCH   1   2
ATOM      2  C   UNL A   1      33.457  28.621  27.253  1.00  0.00     0.116 C 
BRANCH   2   3
ATOM      3  N   UNL A   1      33.454  29.986  27.772  1.00  0.00    -0.352 N 
ATOM      4  O   UNL A   1      34.351  31.826  28.747  1.00  0.00    -0.269 OA
ATOM      5  C   UNL A   1      34.509  30.695  28.313  1.00  0.00     0.251 C 
ATOM      6  H   UNL A   1      32.592  30.461  27.731  1.00  0.00     0.163 HD
BRANCH   5   7
ATOM      7  C   UNL A   1      35.821  30.018  28.407  1.00  0.00     0.039 A 
ATOM      8  C   UNL A   1      36.233  29.478  29.625  1.00  0.00     0.014 A 
ATOM      9  C   UNL A   1      36.696  30.070  27.320  1.00  0.00     0.014 A 
ATOM     10  C   UNL A   1      37.579  29.205  29.821  1.00  0.00     0.010 A 
ATOM     11  C   UNL A   1      38.028  29.681  27.491  1.00  0.00     0.010 A 
ATOM     12  C   UNL A   1      38.497  29.308  28.761  1.00  0.00    -0.014 A 
BRANCH  12  13
ATOM     13  C   UNL A   1      39.932  29.017  29.024  1.00  0.00     0.031 A 
ATOM     14  C   UNL A   1      40.558  27.710  28.610  1.00  0.00     0.074 A 
ATOM     15  C   UNL A   1      40.692  29.985  29.574  1.00  0.00     0.049 A 
ATOM     16  N   UNL A   1      41.800  27.317  28.742  1.00  0.00    -0.248 NA
ATOM     17  C   UNL A   1      39.683  26.709  27.977  1.00  0.00     0.031 C 
ATOM     18  C   UNL A   1      40.197  31.292  30.015  1.00  0.00     0.029 A 
ATOM     19  N   UNL A   1      42.039  30.042  29.818  1.00  0.00    -0.354 N 
ATOM     20  C   UNL A   1      41.848  26.016  28.248  1.00  0.00     0.074 A 
ATOM     21  C   UNL A   1      40.507  25.682  27.821  1.00  0.00     0.031 C 
ATOM     22  C   UNL A   1      41.234  32.049  30.398  1.00  0.00     0.029 A 
ATOM     23  C   UNL A   1      42.455  31.258  30.306  1.00  0.00     0.049 A 
ATOM     24  H   UNL A   1      42.649  29.286  29.659  1.00  0.00     0.167 HD
ATOM     25  C   UNL A   1      42.913  25.182  28.163  1.00  0.00     0.037 A 
ATOM     26  C   UNL A   1      43.680  31.690  30.654  1.00  0.00     0.037 A 
ATOM     27  C   UNL A   1      44.255  25.536  28.552  1.00  0.00     0.049 A 
ATOM     28  C   UNL A   1      44.844  30.754  30.528  1.00  0.00     0.074 A 
ATOM     29  C   UNL A   1      45.405  24.769  28.482  1.00  0.00     0.029 A 
ATOM     30  N   UNL A   1      44.629  26.766  29.075  1.00  0.00    -0.354 N 
ATOM     31  N   UNL A   1      44.862  29.523  30.077  1.00  0.00    -0.248 NA
ATOM     32  C   UNL A   1      46.148  31.258  30.974  1.00  0.00     0.031 C 
ATOM     33  C   UNL A   1      46.469  25.524  28.989  1.00  0.00     0.029 A 
ATOM     34  C   UNL A   1      45.988  26.775  29.342  1.00  0.00     0.049 A 
ATOM     35  H   UNL A   1      44.018  27.522  29.234  1.00  0.00     0.167 HD
ATOM     36  C   UNL A   1      46.180  29.101  30.189  1.00  0.00     0.074 A 
ATOM     37  C   UNL A   1      46.933  30.219  30.722  1.00  0.00     0.031 C 
ATOM     38  C   UNL A   1      46.716  27.894  29.884  1.00  0.00     0.037 A 
BRANCH  25  39
ATOM     39  C   UNL A   1      42.671  23.788  27.648  1.00  0.00     0.058 A 
ATOM     40  C   UNL A   1      42.612  23.502  26.275  1.00  0.00     0.135 A 
ATOM     41  C   UNL A   1      42.536  22.715  28.546  1.00  0.00     0.135 A 
ATOM     42  F   UNL A   1      42.720  24.491  25.375  1.00  0.00    -0.206 F 
ATOM     43  C   UNL A   1      42.404  22.207  25.810  1.00  0.00     0.059 A 
ATOM     44  C   UNL A   1      42.348  21.408  28.103  1.00  0.00     0.059 A 
ATOM     45  F   UNL A   1      42.586  22.932  29.869  1.00  0.00    -0.206 F 
ATOM     46  C   UNL A   1      42.268  21.167  26.732  1.00  0.00     0.060 A 
BRANCH  46  47
ATOM     47  S   UNL A   1      41.992  19.491  26.118  1.00  0.00     0.124 S 
ATOM     48  O   UNL A   1      40.562  19.521  25.828  1.00  0.00    -0.237 OA
ATOM     49  O   UNL A   1      42.872  19.432  24.954  1.00  0.00    -0.237 OA
ATOM     50  O   UNL A   1      42.388  18.647  27.242  1.00  0.00    -0.744 OA
ENDBRANCH  46  47
ENDBRANCH  25  39
BRANCH  26  51
ATOM     51  C   UNL A   1      43.849  33.074  31.160  1.00  0.00     0.058 A 
ATOM     52  C   UNL A   1      44.131  34.133  30.285  1.00  0.00     0.135 A 
ATOM     53  C   UNL A   1      43.669  33.375  32.519  1.00  0.00     0.135 A 
ATOM     54  F   UNL A   1      44.314  33.893  28.978  1.00  0.00    -0.206 F 
ATOM     55  C   UNL A   1      44.229  35.444  30.740  1.00  0.00     0.059 A 
ATOM     56  C   UNL A   1      43.736  34.680  32.993  1.00  0.00     0.059 A 
ATOM     57  F   UNL A   1      43.376  32.396  33.391  1.00  0.00    -0.206 F 
ATOM     58  C   UNL A   1      44.022  35.707  32.095  1.00  0.00     0.060 A 
BRANCH  58  59
ATOM     59  S   UNL A   1      44.064  37.418  32.670  1.00  0.00     0.124 S 
ATOM     60  O   UNL A   1      43.010  37.414  33.676  1.00  0.00    -0.237 OA
ATOM     61  O   UNL A   1      45.428  37.544  33.175  1.00  0.00    -0.237 OA
ATOM     62  O   UNL A   1      43.782  38.182  31.458  1.00  0.00    -0.744 OA
ENDBRANCH  58  59
ENDBRANCH  26  51
BRANCH  38  63
ATOM     63  C   UNL A   1      48.189  27.732  30.120  1.00  0.00     0.058 A 
ATOM     64  C   UNL A   1      49.120  27.936  29.091  1.00  0.00     0.135 A 
ATOM     65  C   UNL A   1      48.674  27.381  31.389  1.00  0.00     0.135 A 
ATOM     66  F   UNL A   1      48.702  28.263  27.857  1.00  0.00    -0.206 F 
ATOM     67  C   UNL A   1      50.484  27.770  29.303  1.00  0.00     0.059 A 
ATOM     68  C   UNL A   1      50.035  27.229  31.630  1.00  0.00     0.059 A 
ATOM     69  F   UNL A   1      47.822  27.182  32.408  1.00  0.00    -0.206 F 
ATOM     70  C   UNL A   1      50.932  27.411  30.577  1.00  0.00     0.060 A 
BRANCH  70  71
ATOM     71  S   UNL A   1      52.704  27.207  30.849  1.00  0.00     0.124 S 
ATOM     72  O   UNL A   1      53.260  27.989  29.750  1.00  0.00    -0.237 OA
ATOM     73  O   UNL A   1      52.887  27.771  32.184  1.00  0.00    -0.237 OA
ATOM     74  O   UNL A   1      52.896  25.763  30.755  1.00  0.00    -0.744 OA
ENDBRANCH  70  71
ENDBRANCH  38  63
ENDBRANCH  12  13
ENDBRANCH   5   7
ENDBRANCH   2   3
ENDBRANCH   1   2
BRANCH   1  75
ATOM     75  C   UNL A   1      32.048  26.701  26.342  1.00  0.00     0.023 C 
BRANCH  75  76
ATOM     76  C   UNL A   1      32.375  26.237  24.923  1.00  0.00     0.116 C 
BRANCH  76  77
ATOM     77  N   UNL A   1      31.287  25.445  24.400  1.00  0.00    -0.354 N 
ATOM     78  C   UNL A   1      31.275  24.260  23.740  1.00  0.00     0.243 C 
ATOM     79  H   UNL A   1      30.394  25.835  24.549  1.00  0.00     0.163 HD
ATOM     80  O   UNL A   1      30.192  23.920  23.243  1.00  0.00    -0.273 OA
BRANCH  78  81
ATOM     81  C   UNL A   1      32.525  23.381  23.489  1.00  0.00     0.185 C 
BRANCH  81  82
ATOM     82  C   UNL A   1      33.782  24.328  23.486  1.00  0.00     0.071 C 
BRANCH  82  83
ATOM     83  C   UNL A   1      35.119  23.988  24.130  1.00  0.00    -0.045 A 
ATOM     84  C   UNL A   1      35.540  24.413  25.399  1.00  0.00     0.004 A 
ATOM     85  C   UNL A   1      35.975  23.108  23.437  1.00  0.00     0.004 A 
ATOM     86  C   UNL A   1      36.778  24.024  25.931  1.00  0.00     0.000 A 
ATOM     87  C   UNL A   1      37.213  22.722  23.963  1.00  0.00     0.000 A 
ATOM     88  C   UNL A   1      37.618  23.185  25.209  1.00  0.00     0.000 A 
ENDBRANCH  82  83
ENDBRANCH  81  82
BRANCH  81  89
ATOM     89  N   UNL A   1      32.682  22.069  24.163  1.00  0.00    -0.280 N 
ATOM     90  C   UNL A   1      32.429  20.934  23.402  1.00  0.00     0.266 C 
ATOM     91  C   UNL A   1      32.597  21.818  25.520  1.00  0.00     0.149 C 
ATOM     92  O   UNL A   1      31.979  20.898  22.265  1.00  0.00    -0.268 OA
ATOM     93  C   UNL A   1      32.703  19.703  24.177  1.00  0.00     0.081 C 
ATOM     94  S   UNL A   1      32.858  20.094  25.829  1.00  0.00    -0.054 SA
ATOM     95  S   UNL A   1      32.283  22.843  26.796  1.00  0.00    -0.052 S 
ATOM     96  C   UNL A   1      32.840  18.519  23.566  1.00  0.00     0.029 C 
BRANCH  96  97
ATOM     97  C   UNL A   1      33.159  17.244  24.210  1.00  0.00    -0.021 A 
ATOM     98  C   UNL A   1      34.459  16.740  24.220  1.00  0.00     0.028 A 
ATOM     99  C   UNL A   1      32.151  16.536  24.863  1.00  0.00     0.028 A 
ATOM    100  C   UNL A   1      34.691  15.542  24.875  1.00  0.00     0.111 A 
ATOM    101  C   UNL A   1      32.485  15.347  25.490  1.00  0.00     0.111 A 
ATOM    102  N   UNL A   1      33.734  14.836  25.514  1.00  0.00    -0.265 NA
ENDBRANCH  96  97
ENDBRANCH  81  89
ENDBRANCH  78  81
ENDBRANCH  76  77
ENDBRANCH  75  76
ENDBRANCH   1  75
TORSDOF 18
ENDMDL
MODEL 2
REMARK VINA RESULT:     -12.2      4.739      9.958
REMARK SMILES O=C(NCCCCNC(=O)[C@@H](Cc1ccccc1)N1C(=O)/C(=C/c2ccncc2)SC1=S)c1ccc(-c2c3nc(c(-c4c(F)cc(S(=O)(=O)[O-])cc4F)c4ccc([nH]4)c(-c4c(F)cc(S(=O)(=O)[O-])cc4F)c4nc(c(-c5c(F)cc(S(=O)(=O)[O-])cc5F)c5ccc2[nH]5)C=C4)C=C3)cc1
REMARK SMILES IDX 5 1 4 2 3 3 1 4 2 5 33 7 34 8 98 9 35 10 97 11 36 12 37 13
REMARK SMILES IDX 38 14 91 15 39 16 96 17 90 18 92 19 40 20 95 21 89 22 88 23
REMARK SMILES IDX 41 25 75 26 54 27 74 28 55 29 58 30 73 31 93 32 56 33 57 34
REMARK SMILES IDX 72 36 94 37 59 38 42 39 43 40 52 41 44 42 45 43 51 44 53 45
REMARK SMILES IDX 46 46 47 47 48 48 49 49 50 50 76 51 77 52 86 53 78 54 79 55
REMARK SMILES IDX 85 56 87 57 80 58 81 59 82 60 83 61 84 62 60 63 61 64 70 65
REMARK SMILES IDX 62 66 63 67 69 68 71 69 64 70 65 71 66 72 67 73 68 74 6 75
REMARK SMILES IDX 7 76 8 77 9 78 10 80 11 81 12 82 13 83 14 84 18 85 15 86
REMARK SMILES IDX 17 87 16 88 19 89 20 90 31 91 21 92 22 93 30 94 32 95 23 96
REMARK SMILES IDX 24 97 25 98 29 99 26 100 28 101 27 102
REMARK H PARENT 3 6 92 24 58 35 8 79
REMARK Flexibility Score: inf
ROOT
ATOM      1  C   UNL A   1      38.697  22.248  26.126  1.00  0.00     0.023 C 
ENDROOT
BRANCH   1   2
ATOM      2  C   UNL A   1      39.493  23.332  26.841  1.00  0.00     0.116 C 
BRANCH   2   3
ATOM      3  N   UNL A   1      40.757  23.681  26.197  1.00  0.00    -0.352 N 
ATOM      4  O   UNL A   1      42.542  25.000  25.736  1.00  0.00    -0.269 OA
ATOM      5  C   UNL A   1      41.517  24.821  26.375  1.00  0.00     0.251 C 
ATOM      6  H   UNL A   1      41.111  23.022  25.558  1.00  0.00     0.163 HD
BRANCH   5   7
ATOM      7  C   UNL A   1      41.017  25.846  27.318  1.00  0.00     0.039 A 
ATOM      8  C   UNL A   1      41.529  27.142  27.262  1.00  0.00     0.014 A 
ATOM      9  C   UNL A   1      40.160  25.464  28.352  1.00  0.00     0.014 A 
ATOM     10  C   UNL A   1      41.369  27.978  28.357  1.00  0.00     0.010 A 
ATOM     11  C   UNL A   1      39.906  26.355  29.399  1.00  0.00     0.010 A 
ATOM     12  C   UNL A   1      40.562  27.596  29.444  1.00  0.00    -0.014 A 
BRANCH  12  13
ATOM     13  C   UNL A   1      40.432  28.521  30.601  1.00  0.00     0.031 A 
ATOM     14  C   UNL A   1      41.403  28.480  31.754  1.00  0.00     0.074 A 
ATOM     15  C   UNL A   1      39.467  29.461  30.566  1.00  0.00     0.049 A 
ATOM     16  N   UNL A   1      41.442  29.237  32.821  1.00  0.00    -0.248 NA
ATOM     17  C   UNL A   1      42.459  27.455  31.714  1.00  0.00     0.031 C 
ATOM     18  C   UNL A   1      38.468  29.599  29.502  1.00  0.00     0.029 A 
ATOM     19  N   UNL A   1      39.190  30.499  31.415  1.00  0.00    -0.354 N 
ATOM     20  C   UNL A   1      42.495  28.759  33.596  1.00  0.00     0.074 A 
ATOM     21  C   UNL A   1      43.066  27.639  32.879  1.00  0.00     0.031 C 
ATOM     22  C   UNL A   1      37.744  30.705  29.719  1.00  0.00     0.029 A 
ATOM     23  C   UNL A   1      38.170  31.309  30.975  1.00  0.00     0.049 A 
ATOM     24  H   UNL A   1      39.674  30.651  32.259  1.00  0.00     0.167 HD
ATOM     25  C   UNL A   1      42.941  29.214  34.793  1.00  0.00     0.037 A 
ATOM     26  C   UNL A   1      37.626  32.409  31.524  1.00  0.00     0.037 A 
ATOM     27  C   UNL A   1      42.394  30.357  35.481  1.00  0.00     0.049 A 
ATOM     28  C   UNL A   1      38.152  32.904  32.837  1.00  0.00     0.074 A 
ATOM     29  C   UNL A   1      42.792  30.909  36.686  1.00  0.00     0.029 A 
ATOM     30  N   UNL A   1      41.338  31.128  35.019  1.00  0.00    -0.354 N 
ATOM     31  N   UNL A   1      39.135  32.424  33.559  1.00  0.00    -0.248 NA
ATOM     32  C   UNL A   1      37.485  34.076  33.417  1.00  0.00     0.031 C 
ATOM     33  C   UNL A   1      41.958  31.998  36.967  1.00  0.00     0.029 A 
ATOM     34  C   UNL A   1      41.063  32.145  35.919  1.00  0.00     0.049 A 
ATOM     35  H   UNL A   1      40.854  30.976  34.175  1.00  0.00     0.167 HD
ATOM     36  C   UNL A   1      39.204  33.234  34.686  1.00  0.00     0.074 A 
ATOM     37  C   UNL A   1      38.182  34.251  34.532  1.00  0.00     0.031 C 
ATOM     38  C   UNL A   1      40.034  33.140  35.753  1.00  0.00     0.037 A 
BRANCH  25  39
ATOM     39  C   UNL A   1      44.065  28.461  35.454  1.00  0.00     0.058 A 
ATOM     40  C   UNL A   1      45.412  28.773  35.212  1.00  0.00     0.135 A 
ATOM     41  C   UNL A   1      43.785  27.437  36.374  1.00  0.00     0.135 A 
ATOM     42  F   UNL A   1      45.735  29.733  34.331  1.00  0.00    -0.206 F 
ATOM     43  C   UNL A   1      46.442  28.082  35.841  1.00  0.00     0.059 A 
ATOM     44  C   UNL A   1      44.801  26.746  37.031  1.00  0.00     0.059 A 
ATOM     45  F   UNL A   1      42.515  27.099  36.644  1.00  0.00    -0.206 F 
ATOM     46  C   UNL A   1      46.127  27.065  36.746  1.00  0.00     0.060 A 
BRANCH  46  47
ATOM     47  S   UNL A   1      47.473  26.170  37.552  1.00  0.00     0.124 S 
ATOM     48  O   UNL A   1      48.357  27.265  37.939  1.00  0.00    -0.237 OA
ATOM     49  O   UNL A   1      46.788  25.491  38.648  1.00  0.00    -0.237 OA
ATOM     50  O   UNL A   1      47.980  25.296  36.498  1.00  0.00    -0.744 OA
ENDBRANCH  46  47
ENDBRANCH  25  39
BRANCH  26  51
ATOM     51  C   UNL A   1      36.516  33.101  30.823  1.00  0.00     0.058 A 
ATOM     52  C   UNL A   1      35.202  33.033  31.308  1.00  0.00     0.135 A 
ATOM     53  C   UNL A   1      36.758  33.893  29.690  1.00  0.00     0.135 A 
ATOM     54  F   UNL A   1      34.923  32.286  32.388  1.00  0.00    -0.206 F 
ATOM     55  C   UNL A   1      34.165  33.728  30.695  1.00  0.00     0.059 A 
ATOM     56  C   UNL A   1      35.742  34.617  29.076  1.00  0.00     0.059 A 
ATOM     57  F   UNL A   1      38.003  34.005  29.201  1.00  0.00    -0.206 F 
ATOM     58  C   UNL A   1      34.448  34.524  29.583  1.00  0.00     0.060 A 
BRANCH  58  59
ATOM     59  S   UNL A   1      33.117  35.493  28.841  1.00  0.00     0.124 S 
ATOM     60  O   UNL A   1      33.868  36.476  28.069  1.00  0.00    -0.237 OA
ATOM     61  O   UNL A   1      32.396  34.489  28.065  1.00  0.00    -0.237 OA
ATOM     62  O   UNL A   1      32.398  36.011  30.000  1.00  0.00    -0.744 OA
ENDBRANCH  58  59
ENDBRANCH  26  51
BRANCH  38  63
ATOM     63  C   UNL A   1      39.865  34.169  36.831  1.00  0.00     0.058 A 
ATOM     64  C   UNL A   1      38.933  33.995  37.866  1.00  0.00     0.135 A 
ATOM     65  C   UNL A   1      40.649  35.333  36.837  1.00  0.00     0.135 A 
ATOM     66  F   UNL A   1      38.153  32.902  37.897  1.00  0.00    -0.206 F 
ATOM     67  C   UNL A   1      38.763  34.955  38.857  1.00  0.00     0.059 A 
ATOM     68  C   UNL A   1      40.510  36.297  37.829  1.00  0.00     0.059 A 
ATOM     69  F   UNL A   1      41.558  35.540  35.872  1.00  0.00    -0.206 F 
ATOM     70  C   UNL A   1      39.553  36.106  38.827  1.00  0.00     0.060 A 
BRANCH  70  71
ATOM     71  S   UNL A   1      39.335  37.345  40.122  1.00  0.00     0.124 S 
ATOM     72  O   UNL A   1      40.702  37.823  40.301  1.00  0.00    -0.237 OA
ATOM     73  O   UNL A   1      38.408  38.289  39.505  1.00  0.00    -0.237 OA
ATOM     74  O   UNL A   1      38.786  36.575  41.235  1.00  0.00    -0.744 OA
ENDBRANCH  70  71
ENDBRANCH  38  63
ENDBRANCH  12  13
ENDBRANCH   5   7
ENDBRANCH   2   3
ENDBRANCH   1   2
BRANCH   1  75
ATOM     75  C   UNL A   1      37.372  22.730  25.559  1.00  0.00     0.023 C 
BRANCH  75  76
ATOM     76  C   UNL A   1      36.312  21.645  25.373  1.00  0.00     0.116 C 
BRANCH  76  77
ATOM     77  N   UNL A   1      35.444  21.601  26.527  1.00  0.00    -0.354 N 
ATOM     78  C   UNL A   1      34.103  21.759  26.647  1.00  0.00     0.243 C 
ATOM     79  H   UNL A   1      35.908  21.423  27.377  1.00  0.00     0.163 HD
ATOM     80  O   UNL A   1      33.663  21.859  27.801  1.00  0.00    -0.273 OA
BRANCH  78  81
ATOM     81  C   UNL A   1      33.126  21.923  25.455  1.00  0.00     0.185 C 
BRANCH  81  82
ATOM     82  C   UNL A   1      32.370  20.556  25.266  1.00  0.00     0.071 C 
BRANCH  82  83
ATOM     83  C   UNL A   1      32.895  19.389  24.441  1.00  0.00    -0.045 A 
ATOM     84  C   UNL A   1      34.014  18.605  24.762  1.00  0.00     0.004 A 
ATOM     85  C   UNL A   1      32.156  19.006  23.303  1.00  0.00     0.004 A 
ATOM     86  C   UNL A   1      34.409  17.525  23.961  1.00  0.00     0.000 A 
ATOM     87  C   UNL A   1      32.551  17.931  22.498  1.00  0.00     0.000 A 
ATOM     88  C   UNL A   1      33.682  17.193  22.824  1.00  0.00     0.000 A 
ENDBRANCH  82  83
ENDBRANCH  81  82
BRANCH  81  89
ATOM     89  N   UNL A   1      32.319  23.158  25.296  1.00  0.00    -0.280 N 
ATOM     90  C   UNL A   1      32.993  24.304  24.890  1.00  0.00     0.266 C 
ATOM     91  C   UNL A   1      31.117  23.449  25.914  1.00  0.00     0.149 C 
ATOM     92  O   UNL A   1      34.201  24.438  24.758  1.00  0.00    -0.268 OA
ATOM     93  C   UNL A   1      32.053  25.431  24.695  1.00  0.00     0.081 C 
ATOM     94  S   UNL A   1      30.549  25.045  25.398  1.00  0.00    -0.054 SA
ATOM     95  S   UNL A   1      30.220  22.572  27.010  1.00  0.00    -0.052 S 
ATOM     96  C   UNL A   1      32.416  26.522  24.008  1.00  0.00     0.029 C 
BRANCH  96  97
ATOM     97  C   UNL A   1      31.570  27.676  23.705  1.00  0.00    -0.021 A 
ATOM     98  C   UNL A   1      31.399  28.714  24.620  1.00  0.00     0.028 A 
ATOM     99  C   UNL A   1      30.951  27.763  22.457  1.00  0.00     0.028 A 
ATOM    100  C   UNL A   1      30.608  29.789  24.252  1.00  0.00     0.111 A 
ATOM    101  C   UNL A   1      30.179  28.880  22.185  1.00  0.00     0.111 A 
ATOM    102  N   UNL A   1      29.998  29.897  23.053  1.00  0.00    -0.265 NA
ENDBRANCH  96  97
ENDBRANCH  81  89
ENDBRANCH  78  81
ENDBRANCH  76  77
ENDBRANCH  75  76
ENDBRANCH   1  75
TORSDOF 18
ENDMDL
MODEL 3
REMARK VINA RESULT:     -12.2      3.008      9.007
REMARK SMILES O=C(NCCCCNC(=O)[C@@H](Cc1ccccc1)N1C(=O)/C(=C/c2ccncc2)SC1=S)c1ccc(-c2c3nc(c(-c4c(F)cc(S(=O)(=O)[O-])cc4F)c4ccc([nH]4)c(-c4c(F)cc(S(=O)(=O)[O-])cc4F)c4nc(c(-c5c(F)cc(S(=O)(=O)[O-])cc5F)c5ccc2[nH]5)C=C4)C=C3)cc1
REMARK SMILES IDX 5 1 4 2 3 3 1 4 2 5 33 7 34 8 98 9 35 10 97 11 36 12 37 13
REMARK SMILES IDX 38 14 91 15 39 16 96 17 90 18 92 19 40 20 95 21 89 22 88 23
REMARK SMILES IDX 41 25 75 26 54 27 74 28 55 29 58 30 73 31 93 32 56 33 57 34
REMARK SMILES IDX 72 36 94 37 59 38 42 39 43 40 52 41 44 42 45 43 51 44 53 45
REMARK SMILES IDX 46 46 47 47 48 48 49 49 50 50 76 51 77 52 86 53 78 54 79 55
REMARK SMILES IDX 85 56 87 57 80 58 81 59 82 60 83 61 84 62 60 63 61 64 70 65
REMARK SMILES IDX 62 66 63 67 69 68 71 69 64 70 65 71 66 72 67 73 68 74 6 75
REMARK SMILES IDX 7 76 8 77 9 78 10 80 11 81 12 82 13 83 14 84 18 85 15 86
REMARK SMILES IDX 17 87 16 88 19 89 20 90 31 91 21 92 22 93 30 94 32 95 23 96
REMARK SMILES IDX 24 97 25 98 29 99 26 100 28 101 27 102
REMARK H PARENT 3 6 92 24 58 35 8 79
REMARK Flexibility Score: inf
ROOT
ATOM      1  C   UNL A   1      34.822  29.746  26.940  1.00  0.00     0.023 C 
ENDROOT
BRANCH   1   2
ATOM      2  C   UNL A   1      35.843  29.329  27.990  1.00  0.00     0.116 C 
BRANCH   2   3
ATOM      3  N   UNL A   1      35.493  29.703  29.358  1.00  0.00    -0.352 N 
ATOM      4  O   UNL A   1      35.911  30.300  31.504  1.00  0.00    -0.269 OA
ATOM      5  C   UNL A   1      36.344  30.046  30.391  1.00  0.00     0.251 C 
ATOM      6  H   UNL A   1      34.532  29.712  29.570  1.00  0.00     0.163 HD
BRANCH   5   7
ATOM      7  C   UNL A   1      37.799  30.034  30.123  1.00  0.00     0.039 A 
ATOM      8  C   UNL A   1      38.282  30.547  28.919  1.00  0.00     0.014 A 
ATOM      9  C   UNL A   1      38.651  29.367  31.005  1.00  0.00     0.014 A 
ATOM     10  C   UNL A   1      39.556  30.193  28.498  1.00  0.00     0.010 A 
ATOM     11  C   UNL A   1      39.973  29.114  30.624  1.00  0.00     0.010 A 
ATOM     12  C   UNL A   1      40.417  29.466  29.340  1.00  0.00    -0.014 A 
BRANCH  12  13
ATOM     13  C   UNL A   1      41.768  29.098  28.838  1.00  0.00     0.031 A 
ATOM     14  C   UNL A   1      42.927  30.059  28.920  1.00  0.00     0.074 A 
ATOM     15  C   UNL A   1      41.961  27.847  28.375  1.00  0.00     0.049 A 
ATOM     16  N   UNL A   1      44.171  29.879  28.554  1.00  0.00    -0.248 NA
ATOM     17  C   UNL A   1      42.659  31.397  29.473  1.00  0.00     0.031 C 
ATOM     18  C   UNL A   1      40.916  26.828  28.249  1.00  0.00     0.029 A 
ATOM     19  N   UNL A   1      43.100  27.204  27.968  1.00  0.00    -0.354 N 
ATOM     20  C   UNL A   1      44.822  31.085  28.793  1.00  0.00     0.074 A 
ATOM     21  C   UNL A   1      43.834  31.995  29.329  1.00  0.00     0.031 C 
ATOM     22  C   UNL A   1      41.474  25.669  27.874  1.00  0.00     0.029 A 
ATOM     23  C   UNL A   1      42.900  25.880  27.657  1.00  0.00     0.049 A 
ATOM     24  H   UNL A   1      43.978  27.647  27.903  1.00  0.00     0.167 HD
ATOM     25  C   UNL A   1      46.124  31.401  28.582  1.00  0.00     0.037 A 
ATOM     26  C   UNL A   1      43.762  24.940  27.231  1.00  0.00     0.037 A 
ATOM     27  C   UNL A   1      47.113  30.476  28.087  1.00  0.00     0.049 A 
ATOM     28  C   UNL A   1      45.199  25.309  27.028  1.00  0.00     0.074 A 
ATOM     29  C   UNL A   1      48.462  30.693  27.862  1.00  0.00     0.029 A 
ATOM     30  N   UNL A   1      46.862  29.153  27.749  1.00  0.00    -0.354 N 
ATOM     31  N   UNL A   1      45.789  26.460  27.242  1.00  0.00    -0.248 NA
ATOM     32  C   UNL A   1      46.085  24.259  26.510  1.00  0.00     0.031 C 
ATOM     33  C   UNL A   1      49.020  29.511  27.362  1.00  0.00     0.029 A 
ATOM     34  C   UNL A   1      48.026  28.546  27.308  1.00  0.00     0.049 A 
ATOM     35  H   UNL A   1      45.985  28.711  27.814  1.00  0.00     0.167 HD
ATOM     36  C   UNL A   1      47.117  26.277  26.880  1.00  0.00     0.074 A 
ATOM     37  C   UNL A   1      47.248  24.894  26.461  1.00  0.00     0.031 C 
ATOM     38  C   UNL A   1      48.133  27.173  26.886  1.00  0.00     0.037 A 
BRANCH  25  39
ATOM     39  C   UNL A   1      46.557  32.815  28.863  1.00  0.00     0.058 A 
ATOM     40  C   UNL A   1      46.492  33.820  27.886  1.00  0.00     0.135 A 
ATOM     41  C   UNL A   1      47.006  33.176  30.145  1.00  0.00     0.135 A 
ATOM     42  F   UNL A   1      46.084  33.527  26.642  1.00  0.00    -0.206 F 
ATOM     43  C   UNL A   1      46.878  35.129  28.163  1.00  0.00     0.059 A 
ATOM     44  C   UNL A   1      47.379  34.483  30.449  1.00  0.00     0.059 A 
ATOM     45  F   UNL A   1      47.087  32.254  31.117  1.00  0.00    -0.206 F 
ATOM     46  C   UNL A   1      47.326  35.449  29.446  1.00  0.00     0.060 A 
BRANCH  46  47
ATOM     47  S   UNL A   1      47.832  37.148  29.792  1.00  0.00     0.124 S 
ATOM     48  O   UNL A   1      46.570  37.864  29.629  1.00  0.00    -0.237 OA
ATOM     49  O   UNL A   1      48.334  37.056  31.159  1.00  0.00    -0.237 OA
ATOM     50  O   UNL A   1      48.842  37.416  28.773  1.00  0.00    -0.744 OA
ENDBRANCH  46  47
ENDBRANCH  25  39
BRANCH  26  51
ATOM     51  C   UNL A   1      43.268  23.565  26.966  1.00  0.00     0.058 A 
ATOM     52  C   UNL A   1      43.072  23.109  25.655  1.00  0.00     0.135 A 
ATOM     53  C   UNL A   1      43.044  22.663  28.017  1.00  0.00     0.135 A 
ATOM     54  F   UNL A   1      43.273  23.939  24.619  1.00  0.00    -0.206 F 
ATOM     55  C   UNL A   1      42.671  21.804  25.393  1.00  0.00     0.059 A 
ATOM     56  C   UNL A   1      42.667  21.346  27.779  1.00  0.00     0.059 A 
ATOM     57  F   UNL A   1      43.238  23.048  29.288  1.00  0.00    -0.206 F 
ATOM     58  C   UNL A   1      42.478  20.928  26.463  1.00  0.00     0.060 A 
BRANCH  58  59
ATOM     59  S   UNL A   1      42.040  19.210  26.118  1.00  0.00     0.124 S 
ATOM     60  O   UNL A   1      42.924  18.903  25.000  1.00  0.00    -0.237 OA
ATOM     61  O   UNL A   1      42.355  18.549  27.381  1.00  0.00    -0.237 OA
ATOM     62  O   UNL A   1      40.618  19.288  25.800  1.00  0.00    -0.744 OA
ENDBRANCH  58  59
ENDBRANCH  26  51
BRANCH  38  63
ATOM     63  C   UNL A   1      49.472  26.676  26.428  1.00  0.00     0.058 A 
ATOM     64  C   UNL A   1      49.903  26.852  25.104  1.00  0.00     0.135 A 
ATOM     65  C   UNL A   1      50.338  26.030  27.324  1.00  0.00     0.135 A 
ATOM     66  F   UNL A   1      49.105  27.456  24.210  1.00  0.00    -0.206 F 
ATOM     67  C   UNL A   1      51.137  26.378  24.674  1.00  0.00     0.059 A 
ATOM     68  C   UNL A   1      51.586  25.564  26.921  1.00  0.00     0.059 A 
ATOM     69  F   UNL A   1      49.974  25.844  28.602  1.00  0.00    -0.206 F 
ATOM     70  C   UNL A   1      51.970  25.730  25.590  1.00  0.00     0.060 A 
BRANCH  70  71
ATOM     71  S   UNL A   1      53.575  25.126  25.028  1.00  0.00     0.124 S 
ATOM     72  O   UNL A   1      53.527  25.449  23.606  1.00  0.00    -0.237 OA
ATOM     73  O   UNL A   1      54.508  25.916  25.826  1.00  0.00    -0.237 OA
ATOM     74  O   UNL A   1      53.532  23.703  25.353  1.00  0.00    -0.744 OA
ENDBRANCH  70  71
ENDBRANCH  38  63
ENDBRANCH  12  13
ENDBRANCH   5   7
ENDBRANCH   2   3
ENDBRANCH   1   2
BRANCH   1  75
ATOM     75  C   UNL A   1      33.379  29.502  27.352  1.00  0.00     0.023 C 
BRANCH  75  76
ATOM     76  C   UNL A   1      32.331  29.906  26.316  1.00  0.00     0.116 C 
BRANCH  76  77
ATOM     77  N   UNL A   1      32.907  29.867  24.991  1.00  0.00    -0.354 N 
ATOM     78  C   UNL A   1      32.796  28.958  23.991  1.00  0.00     0.243 C 
ATOM     79  H   UNL A   1      33.481  30.637  24.776  1.00  0.00     0.163 HD
ATOM     80  O   UNL A   1      33.567  29.101  23.032  1.00  0.00    -0.273 OA
BRANCH  78  81
ATOM     81  C   UNL A   1      31.860  27.724  24.024  1.00  0.00     0.185 C 
BRANCH  81  82
ATOM     82  C   UNL A   1      30.958  27.775  22.736  1.00  0.00     0.071 C 
BRANCH  82  83
ATOM     83  C   UNL A   1      29.852  28.796  22.499  1.00  0.00    -0.045 A 
ATOM     84  C   UNL A   1      29.941  29.906  21.647  1.00  0.00     0.004 A 
ATOM     85  C   UNL A   1      28.607  28.568  23.120  1.00  0.00     0.004 A 
ATOM     86  C   UNL A   1      28.860  30.779  21.461  1.00  0.00     0.000 A 
ATOM     87  C   UNL A   1      27.527  29.440  22.940  1.00  0.00     0.000 A 
ATOM     88  C   UNL A   1      27.655  30.550  22.115  1.00  0.00     0.000 A 
ENDBRANCH  82  83
ENDBRANCH  81  82
BRANCH  81  89
ATOM     89  N   UNL A   1      32.371  26.390  24.427  1.00  0.00    -0.280 N 
ATOM     90  C   UNL A   1      33.256  25.765  23.557  1.00  0.00     0.266 C 
ATOM     91  C   UNL A   1      31.764  25.495  25.288  1.00  0.00     0.149 C 
ATOM     92  O   UNL A   1      33.575  26.141  22.438  1.00  0.00    -0.268 OA
ATOM     93  C   UNL A   1      33.742  24.486  24.123  1.00  0.00     0.081 C 
ATOM     94  S   UNL A   1      32.766  24.044  25.448  1.00  0.00    -0.054 SA
ATOM     95  S   UNL A   1      30.317  25.590  26.110  1.00  0.00    -0.052 S 
ATOM     96  C   UNL A   1      34.826  23.878  23.625  1.00  0.00     0.029 C 
BRANCH  96  97
ATOM     97  C   UNL A   1      35.434  22.644  24.124  1.00  0.00    -0.021 A 
ATOM     98  C   UNL A   1      34.661  21.523  24.424  1.00  0.00     0.028 A 
ATOM     99  C   UNL A   1      36.820  22.570  24.264  1.00  0.00     0.028 A 
ATOM    100  C   UNL A   1      35.308  20.380  24.862  1.00  0.00     0.111 A 
ATOM    101  C   UNL A   1      37.372  21.381  24.709  1.00  0.00     0.111 A 
ATOM    102  N   UNL A   1      36.646  20.283  25.008  1.00  0.00    -0.265 NA
ENDBRANCH  96  97
ENDBRANCH  81  89
ENDBRANCH  78  81
ENDBRANCH  76  77
ENDBRANCH  75  76
ENDBRANCH   1  75
TORSDOF 18
ENDMDL
