MODEL 1
REMARK VINA RESULT:     -12.5      0.000      0.000
REMARK SMILES O=C(NCCCCNC(=O)c1sccc1S(=O)(=O)Nc1ccccc1N1CCCCC1)c1ccc(-c2c3nc(c(-c4c(F)cc(S(=O)(=O)[O-])cc4F)c4ccc([nH]4)c(-c4c(F)cc(S(=O)(=O)[O-])cc4F)c4nc(c(-c5c(F)cc(S(=O)(=O)[O-])cc5F)c5ccc2[nH]5)C=C4)C=C3)cc1
REMARK SMILES IDX 6 1 5 2 4 3 3 4 1 5 2 6 32 8 33 9 97 10 34 11 96 12 35 13
REMARK SMILES IDX 36 14 37 15 90 16 38 17 95 18 89 19 91 20 39 21 94 22 88 23
REMARK SMILES IDX 87 24 40 26 74 27 53 28 73 29 54 30 57 31 72 32 92 33 55 34
REMARK SMILES IDX 56 35 71 37 93 38 58 39 41 40 42 41 51 42 43 43 44 44 50 45
REMARK SMILES IDX 52 46 45 47 46 48 47 49 48 50 49 51 75 52 76 53 85 54 77 55
REMARK SMILES IDX 78 56 84 57 86 58 79 59 80 60 81 61 82 62 83 63 59 64 60 65
REMARK SMILES IDX 69 66 61 67 62 68 68 69 70 70 63 71 64 72 65 73 66 74 67 75
REMARK SMILES IDX 7 76 8 77 9 78 10 80 11 81 12 82 15 83 13 84 14 85 16 86
REMARK SMILES IDX 17 87 18 88 19 89 20 91 21 92 25 93 22 94 24 95 23 96 26 97
REMARK SMILES IDX 27 98 31 99 28 100 30 101 29 102
REMARK H PARENT 3 7 91 25 57 36 8 79 19 90
REMARK Flexibility Score: inf
ROOT
ATOM      1  C   UNL A   1      37.571  23.637  25.799  1.00  0.00     0.023 C 
ENDROOT
BRANCH   1   2
ATOM      2  C   UNL A   1      38.716  22.720  26.237  1.00  0.00     0.023 C 
BRANCH   2   3
ATOM      3  C   UNL A   1      39.845  23.413  26.996  1.00  0.00     0.116 C 
BRANCH   3   4
ATOM      4  N   UNL A   1      40.845  24.002  26.115  1.00  0.00    -0.352 N 
ATOM      5  O   UNL A   1      42.015  25.667  25.131  1.00  0.00    -0.269 OA
ATOM      6  C   UNL A   1      41.318  25.292  26.068  1.00  0.00     0.251 C 
ATOM      7  H   UNL A   1      41.240  23.385  25.457  1.00  0.00     0.163 HD
BRANCH   6   8
ATOM      8  C   UNL A   1      40.957  26.229  27.150  1.00  0.00     0.039 A 
ATOM      9  C   UNL A   1      41.544  27.494  27.197  1.00  0.00     0.014 A 
ATOM     10  C   UNL A   1      40.055  25.830  28.139  1.00  0.00     0.014 A 
ATOM     11  C   UNL A   1      41.383  28.280  28.329  1.00  0.00     0.010 A 
ATOM     12  C   UNL A   1      39.815  26.671  29.230  1.00  0.00     0.010 A 
ATOM     13  C   UNL A   1      40.516  27.880  29.361  1.00  0.00    -0.014 A 
BRANCH  13  14
ATOM     14  C   UNL A   1      40.358  28.759  30.547  1.00  0.00     0.031 A 
ATOM     15  C   UNL A   1      41.292  28.655  31.724  1.00  0.00     0.074 A 
ATOM     16  C   UNL A   1      39.395  29.701  30.529  1.00  0.00     0.049 A 
ATOM     17  N   UNL A   1      41.325  29.379  32.814  1.00  0.00    -0.248 NA
ATOM     18  C   UNL A   1      42.317  27.600  31.680  1.00  0.00     0.031 C 
ATOM     19  C   UNL A   1      38.423  29.889  29.447  1.00  0.00     0.029 A 
ATOM     20  N   UNL A   1      39.091  30.696  31.422  1.00  0.00    -0.354 N 
ATOM     21  C   UNL A   1      42.344  28.849  33.599  1.00  0.00     0.074 A 
ATOM     22  C   UNL A   1      42.897  27.731  32.865  1.00  0.00     0.031 C 
ATOM     23  C   UNL A   1      37.677  30.972  29.708  1.00  0.00     0.029 A 
ATOM     24  C   UNL A   1      38.072  31.518  31.002  1.00  0.00     0.049 A 
ATOM     25  H   UNL A   1      39.558  30.811  32.281  1.00  0.00     0.167 HD
ATOM     26  C   UNL A   1      42.778  29.261  34.814  1.00  0.00     0.037 A 
ATOM     27  C   UNL A   1      37.512  32.589  31.593  1.00  0.00     0.037 A 
ATOM     28  C   UNL A   1      42.244  30.397  35.522  1.00  0.00     0.049 A 
ATOM     29  C   UNL A   1      38.027  33.037  32.929  1.00  0.00     0.074 A 
ATOM     30  C   UNL A   1      42.642  30.916  36.742  1.00  0.00     0.029 A 
ATOM     31  N   UNL A   1      41.200  31.192  35.072  1.00  0.00    -0.354 N 
ATOM     32  N   UNL A   1      39.004  32.531  33.644  1.00  0.00    -0.248 NA
ATOM     33  C   UNL A   1      37.365  34.195  33.540  1.00  0.00     0.031 C 
ATOM     34  C   UNL A   1      41.816  32.006  37.045  1.00  0.00     0.029 A 
ATOM     35  C   UNL A   1      40.933  32.191  35.995  1.00  0.00     0.049 A 
ATOM     36  H   UNL A   1      40.720  31.066  34.221  1.00  0.00     0.167 HD
ATOM     37  C   UNL A   1      39.083  33.320  34.785  1.00  0.00     0.074 A 
ATOM     38  C   UNL A   1      38.067  34.347  34.654  1.00  0.00     0.031 C 
ATOM     39  C   UNL A   1      39.919  33.205  35.845  1.00  0.00     0.037 A 
BRANCH  26  40
ATOM     40  C   UNL A   1      43.874  28.466  35.472  1.00  0.00     0.058 A 
ATOM     41  C   UNL A   1      45.232  28.731  35.232  1.00  0.00     0.135 A 
ATOM     42  C   UNL A   1      43.559  27.446  36.386  1.00  0.00     0.135 A 
ATOM     43  F   UNL A   1      45.589  29.684  34.358  1.00  0.00    -0.206 F 
ATOM     44  C   UNL A   1      46.237  27.998  35.856  1.00  0.00     0.059 A 
ATOM     45  C   UNL A   1      44.549  26.715  37.038  1.00  0.00     0.059 A 
ATOM     46  F   UNL A   1      42.277  27.151  36.654  1.00  0.00    -0.206 F 
ATOM     47  C   UNL A   1      45.885  26.989  36.754  1.00  0.00     0.060 A 
BRANCH  47  48
ATOM     48  S   UNL A   1      47.200  26.042  37.552  1.00  0.00     0.124 S 
ATOM     49  O   UNL A   1      47.312  24.893  36.660  1.00  0.00    -0.237 OA
ATOM     50  O   UNL A   1      48.322  26.976  37.524  1.00  0.00    -0.237 OA
ATOM     51  O   UNL A   1      46.658  25.758  38.878  1.00  0.00    -0.744 OA
ENDBRANCH  47  48
ENDBRANCH  26  40
BRANCH  27  52
ATOM     52  C   UNL A   1      36.409  33.312  30.909  1.00  0.00     0.058 A 
ATOM     53  C   UNL A   1      35.087  33.208  31.367  1.00  0.00     0.135 A 
ATOM     54  C   UNL A   1      36.660  34.148  29.811  1.00  0.00     0.135 A 
ATOM     55  F   UNL A   1      34.799  32.419  32.413  1.00  0.00    -0.206 F 
ATOM     56  C   UNL A   1      34.050  33.902  30.754  1.00  0.00     0.059 A 
ATOM     57  C   UNL A   1      35.644  34.872  29.198  1.00  0.00     0.059 A 
ATOM     58  F   UNL A   1      37.912  34.297  29.350  1.00  0.00    -0.206 F 
ATOM     59  C   UNL A   1      34.340  34.735  29.670  1.00  0.00     0.060 A 
BRANCH  59  60
ATOM     60  S   UNL A   1      32.998  35.680  28.918  1.00  0.00     0.124 S 
ATOM     61  O   UNL A   1      32.346  34.663  28.102  1.00  0.00    -0.237 OA
ATOM     62  O   UNL A   1      32.251  36.141  30.085  1.00  0.00    -0.237 OA
ATOM     63  O   UNL A   1      33.701  36.727  28.182  1.00  0.00    -0.744 OA
ENDBRANCH  59  60
ENDBRANCH  27  52
BRANCH  39  64
ATOM     64  C   UNL A   1      39.788  34.237  36.928  1.00  0.00     0.058 A 
ATOM     65  C   UNL A   1      40.426  35.483  36.839  1.00  0.00     0.135 A 
ATOM     66  C   UNL A   1      39.001  33.979  38.062  1.00  0.00     0.135 A 
ATOM     67  F   UNL A   1      41.195  35.775  35.778  1.00  0.00    -0.206 F 
ATOM     68  C   UNL A   1      40.314  36.429  37.853  1.00  0.00     0.059 A 
ATOM     69  C   UNL A   1      38.855  34.919  39.076  1.00  0.00     0.059 A 
ATOM     70  F   UNL A   1      38.364  32.805  38.190  1.00  0.00    -0.206 F 
ATOM     71  C   UNL A   1      39.530  36.135  38.970  1.00  0.00     0.060 A 
BRANCH  71  72
ATOM     72  S   UNL A   1      39.382  37.372  40.277  1.00  0.00     0.124 S 
ATOM     73  O   UNL A   1      38.715  36.609  41.327  1.00  0.00    -0.237 OA
ATOM     74  O   UNL A   1      40.774  37.726  40.536  1.00  0.00    -0.237 OA
ATOM     75  O   UNL A   1      38.579  38.422  39.658  1.00  0.00    -0.744 OA
ENDBRANCH  71  72
ENDBRANCH  39  64
ENDBRANCH  13  14
ENDBRANCH   6   8
ENDBRANCH   3   4
ENDBRANCH   2   3
ENDBRANCH   1   2
BRANCH   1  76
ATOM     76  C   UNL A   1      36.325  22.895  25.336  1.00  0.00     0.116 C 
BRANCH  76  77
ATOM     77  N   UNL A   1      35.722  22.108  26.387  1.00  0.00    -0.351 N 
ATOM     78  C   UNL A   1      34.398  21.814  26.567  1.00  0.00     0.262 C 
ATOM     79  H   UNL A   1      36.340  21.738  27.056  1.00  0.00     0.163 HD
ATOM     80  O   UNL A   1      34.066  21.375  27.671  1.00  0.00    -0.268 OA
BRANCH  78  81
ATOM     81  C   UNL A   1      33.444  22.122  25.529  1.00  0.00     0.112 A 
ATOM     82  S   UNL A   1      33.345  20.933  24.274  1.00  0.00    -0.137 S 
ATOM     83  C   UNL A   1      32.605  23.197  25.274  1.00  0.00     0.111 A 
ATOM     84  C   UNL A   1      32.143  21.795  23.438  1.00  0.00     0.067 A 
ATOM     85  C   UNL A   1      31.834  22.972  24.072  1.00  0.00     0.035 A 
BRANCH  83  86
ATOM     86  S   UNL A   1      32.307  24.623  26.220  1.00  0.00     0.263 S 
ATOM     87  O   UNL A   1      31.587  24.106  27.375  1.00  0.00    -0.201 OA
ATOM     88  O   UNL A   1      33.630  25.158  26.444  1.00  0.00    -0.201 OA
BRANCH  86  89
ATOM     89  N   UNL A   1      31.371  25.885  25.662  1.00  0.00    -0.277 N 
ATOM     90  H   UNL A   1      30.526  25.668  25.205  1.00  0.00     0.180 HD
BRANCH  89  91
ATOM     91  C   UNL A   1      31.719  27.259  25.803  1.00  0.00     0.072 A 
ATOM     92  C   UNL A   1      31.459  27.868  27.041  1.00  0.00     0.029 A 
ATOM     93  C   UNL A   1      32.250  27.999  24.725  1.00  0.00     0.061 A 
ATOM     94  C   UNL A   1      31.744  29.217  27.238  1.00  0.00     0.002 A 
ATOM     95  C   UNL A   1      32.540  29.355  24.962  1.00  0.00     0.028 A 
ATOM     96  C   UNL A   1      32.293  29.958  26.199  1.00  0.00     0.002 A 
BRANCH  93  97
ATOM     97  N   UNL A   1      32.431  27.483  23.451  1.00  0.00    -0.370 N 
ATOM     98  C   UNL A   1      31.353  27.545  22.469  1.00  0.00     0.116 C 
ATOM     99  C   UNL A   1      33.740  26.991  23.029  1.00  0.00     0.116 C 
ATOM    100  C   UNL A   1      31.210  26.213  21.743  1.00  0.00     0.021 C 
ATOM    101  C   UNL A   1      33.582  25.651  22.313  1.00  0.00     0.021 C 
ATOM    102  C   UNL A   1      32.553  25.745  21.190  1.00  0.00     0.004 C 
ENDBRANCH  93  97
ENDBRANCH  89  91
ENDBRANCH  86  89
ENDBRANCH  83  86
ENDBRANCH  78  81
ENDBRANCH  76  77
ENDBRANCH   1  76
TORSDOF 18
ENDMDL
MODEL 2
REMARK VINA RESULT:     -12.2      6.031      8.043
REMARK SMILES O=C(NCCCCNC(=O)c1sccc1S(=O)(=O)Nc1ccccc1N1CCCCC1)c1ccc(-c2c3nc(c(-c4c(F)cc(S(=O)(=O)[O-])cc4F)c4ccc([nH]4)c(-c4c(F)cc(S(=O)(=O)[O-])cc4F)c4nc(c(-c5c(F)cc(S(=O)(=O)[O-])cc5F)c5ccc2[nH]5)C=C4)C=C3)cc1
REMARK SMILES IDX 6 1 5 2 4 3 3 4 1 5 2 6 32 8 33 9 97 10 34 11 96 12 35 13
REMARK SMILES IDX 36 14 37 15 90 16 38 17 95 18 89 19 91 20 39 21 94 22 88 23
REMARK SMILES IDX 87 24 40 26 74 27 53 28 73 29 54 30 57 31 72 32 92 33 55 34
REMARK SMILES IDX 56 35 71 37 93 38 58 39 41 40 42 41 51 42 43 43 44 44 50 45
REMARK SMILES IDX 52 46 45 47 46 48 47 49 48 50 49 51 75 52 76 53 85 54 77 55
REMARK SMILES IDX 78 56 84 57 86 58 79 59 80 60 81 61 82 62 83 63 59 64 60 65
REMARK SMILES IDX 69 66 61 67 62 68 68 69 70 70 63 71 64 72 65 73 66 74 67 75
REMARK SMILES IDX 7 76 8 77 9 78 10 80 11 81 12 82 15 83 13 84 14 85 16 86
REMARK SMILES IDX 17 87 18 88 19 89 20 91 21 92 25 93 22 94 24 95 23 96 26 97
REMARK SMILES IDX 27 98 31 99 28 100 30 101 29 102
REMARK H PARENT 3 7 91 25 57 36 8 79 19 90
REMARK Flexibility Score: inf
ROOT
ATOM      1  C   UNL A   1      37.217  22.012  24.622  1.00  0.00     0.023 C 
ENDROOT
BRANCH   1   2
ATOM      2  C   UNL A   1      37.816  20.765  25.280  1.00  0.00     0.023 C 
BRANCH   2   3
ATOM      3  C   UNL A   1      39.089  21.009  26.087  1.00  0.00     0.116 C 
BRANCH   3   4
ATOM      4  N   UNL A   1      39.984  19.860  26.096  1.00  0.00    -0.352 N 
ATOM      5  O   UNL A   1      41.959  18.772  25.930  1.00  0.00    -0.269 OA
ATOM      6  C   UNL A   1      41.358  19.823  26.129  1.00  0.00     0.251 C 
ATOM      7  H   UNL A   1      39.540  18.982  26.077  1.00  0.00     0.163 HD
BRANCH   6   8
ATOM      8  C   UNL A   1      42.104  21.071  26.384  1.00  0.00     0.039 A 
ATOM      9  C   UNL A   1      42.428  21.429  27.693  1.00  0.00     0.014 A 
ATOM     10  C   UNL A   1      42.451  21.902  25.317  1.00  0.00     0.014 A 
ATOM     11  C   UNL A   1      42.920  22.701  27.952  1.00  0.00     0.010 A 
ATOM     12  C   UNL A   1      43.042  23.142  25.574  1.00  0.00     0.010 A 
ATOM     13  C   UNL A   1      43.233  23.575  26.896  1.00  0.00    -0.014 A 
BRANCH  13  14
ATOM     14  C   UNL A   1      43.775  24.921  27.214  1.00  0.00     0.031 A 
ATOM     15  C   UNL A   1      45.212  25.270  26.927  1.00  0.00     0.074 A 
ATOM     16  C   UNL A   1      42.939  25.853  27.712  1.00  0.00     0.049 A 
ATOM     17  N   UNL A   1      45.829  26.412  27.096  1.00  0.00    -0.248 NA
ATOM     18  C   UNL A   1      46.070  24.202  26.389  1.00  0.00     0.031 C 
ATOM     19  C   UNL A   1      41.528  25.625  28.042  1.00  0.00     0.029 A 
ATOM     20  N   UNL A   1      43.135  27.179  27.997  1.00  0.00    -0.354 N 
ATOM     21  C   UNL A   1      47.151  26.194  26.721  1.00  0.00     0.074 A 
ATOM     22  C   UNL A   1      47.250  24.805  26.328  1.00  0.00     0.031 C 
ATOM     23  C   UNL A   1      40.972  26.785  28.421  1.00  0.00     0.029 A 
ATOM     24  C   UNL A   1      41.997  27.823  28.422  1.00  0.00     0.049 A 
ATOM     25  H   UNL A   1      44.007  27.627  27.907  1.00  0.00     0.167 HD
ATOM     26  C   UNL A   1      48.182  27.073  26.702  1.00  0.00     0.037 A 
ATOM     27  C   UNL A   1      41.799  29.105  28.778  1.00  0.00     0.037 A 
ATOM     28  C   UNL A   1      48.066  28.464  27.062  1.00  0.00     0.049 A 
ATOM     29  C   UNL A   1      42.953  30.062  28.728  1.00  0.00     0.074 A 
ATOM     30  C   UNL A   1      49.044  29.444  27.040  1.00  0.00     0.029 A 
ATOM     31  N   UNL A   1      46.901  29.073  27.504  1.00  0.00    -0.354 N 
ATOM     32  N   UNL A   1      44.190  29.838  28.353  1.00  0.00    -0.248 NA
ATOM     33  C   UNL A   1      42.687  31.442  29.151  1.00  0.00     0.031 C 
ATOM     34  C   UNL A   1      48.478  30.639  27.502  1.00  0.00     0.029 A 
ATOM     35  C   UNL A   1      47.138  30.413  27.770  1.00  0.00     0.049 A 
ATOM     36  H   UNL A   1      46.033  28.622  27.613  1.00  0.00     0.167 HD
ATOM     37  C   UNL A   1      44.848  31.055  28.481  1.00  0.00     0.074 A 
ATOM     38  C   UNL A   1      43.867  32.014  28.950  1.00  0.00     0.031 C 
ATOM     39  C   UNL A   1      46.147  31.352  28.234  1.00  0.00     0.037 A 
BRANCH  26  40
ATOM     40  C   UNL A   1      49.536  26.555  26.300  1.00  0.00     0.058 A 
ATOM     41  C   UNL A   1      50.003  26.643  24.978  1.00  0.00     0.135 A 
ATOM     42  C   UNL A   1      50.396  25.995  27.260  1.00  0.00     0.135 A 
ATOM     43  F   UNL A   1      49.219  27.155  24.017  1.00  0.00    -0.206 F 
ATOM     44  C   UNL A   1      51.263  26.172  24.619  1.00  0.00     0.059 A 
ATOM     45  C   UNL A   1      51.668  25.538  26.928  1.00  0.00     0.059 A 
ATOM     46  F   UNL A   1      50.001  25.887  28.539  1.00  0.00    -0.206 F 
ATOM     47  C   UNL A   1      52.086  25.617  25.601  1.00  0.00     0.060 A 
BRANCH  47  48
ATOM     48  S   UNL A   1      53.717  25.005  25.120  1.00  0.00     0.124 S 
ATOM     49  O   UNL A   1      53.906  25.668  23.834  1.00  0.00    -0.237 OA
ATOM     50  O   UNL A   1      54.565  25.482  26.208  1.00  0.00    -0.237 OA
ATOM     51  O   UNL A   1      53.533  23.558  25.061  1.00  0.00    -0.744 OA
ENDBRANCH  47  48
ENDBRANCH  26  40
BRANCH  27  52
ATOM     52  C   UNL A   1      40.446  29.549  29.202  1.00  0.00     0.058 A 
ATOM     53  C   UNL A   1      40.167  29.828  30.547  1.00  0.00     0.135 A 
ATOM     54  C   UNL A   1      39.418  29.738  28.265  1.00  0.00     0.135 A 
ATOM     55  F   UNL A   1      41.117  29.660  31.479  1.00  0.00    -0.206 F 
ATOM     56  C   UNL A   1      38.913  30.271  30.953  1.00  0.00     0.059 A 
ATOM     57  C   UNL A   1      38.164  30.206  28.642  1.00  0.00     0.059 A 
ATOM     58  F   UNL A   1      39.643  29.505  26.962  1.00  0.00    -0.206 F 
ATOM     59  C   UNL A   1      37.918  30.461  29.990  1.00  0.00     0.060 A 
BRANCH  59  60
ATOM     60  S   UNL A   1      36.311  31.095  30.514  1.00  0.00     0.124 S 
ATOM     61  O   UNL A   1      35.897  30.083  31.477  1.00  0.00    -0.237 OA
ATOM     62  O   UNL A   1      36.659  32.400  31.068  1.00  0.00    -0.237 OA
ATOM     63  O   UNL A   1      35.548  31.136  29.270  1.00  0.00    -0.744 OA
ENDBRANCH  59  60
ENDBRANCH  27  52
BRANCH  39  64
ATOM     64  C   UNL A   1      46.568  32.779  28.436  1.00  0.00     0.058 A 
ATOM     65  C   UNL A   1      46.518  33.717  27.394  1.00  0.00     0.135 A 
ATOM     66  C   UNL A   1      47.012  33.216  29.694  1.00  0.00     0.135 A 
ATOM     67  F   UNL A   1      46.107  33.346  26.170  1.00  0.00    -0.206 F 
ATOM     68  C   UNL A   1      46.923  35.034  27.583  1.00  0.00     0.059 A 
ATOM     69  C   UNL A   1      47.400  34.534  29.912  1.00  0.00     0.059 A 
ATOM     70  F   UNL A   1      47.069  32.360  30.726  1.00  0.00    -0.206 F 
ATOM     71  C   UNL A   1      47.368  35.431  28.845  1.00  0.00     0.060 A 
BRANCH  71  72
ATOM     72  S   UNL A   1      47.884  37.144  29.085  1.00  0.00     0.124 S 
ATOM     73  O   UNL A   1      49.208  37.139  28.472  1.00  0.00    -0.237 OA
ATOM     74  O   UNL A   1      46.854  37.889  28.367  1.00  0.00    -0.237 OA
ATOM     75  O   UNL A   1      47.864  37.302  30.537  1.00  0.00    -0.744 OA
ENDBRANCH  71  72
ENDBRANCH  39  64
ENDBRANCH  13  14
ENDBRANCH   6   8
ENDBRANCH   3   4
ENDBRANCH   2   3
ENDBRANCH   1   2
BRANCH   1  76
ATOM     76  C   UNL A   1      36.240  22.772  25.509  1.00  0.00     0.116 C 
BRANCH  76  77
ATOM     77  N   UNL A   1      35.533  21.910  26.427  1.00  0.00    -0.351 N 
ATOM     78  C   UNL A   1      34.193  21.635  26.466  1.00  0.00     0.262 C 
ATOM     79  H   UNL A   1      36.083  21.466  27.111  1.00  0.00     0.163 HD
ATOM     80  O   UNL A   1      33.758  21.107  27.492  1.00  0.00    -0.268 OA
BRANCH  78  81
ATOM     81  C   UNL A   1      33.340  22.059  25.382  1.00  0.00     0.112 A 
ATOM     82  S   UNL A   1      33.239  20.932  24.070  1.00  0.00    -0.137 S 
ATOM     83  C   UNL A   1      32.606  23.206  25.121  1.00  0.00     0.111 A 
ATOM     84  C   UNL A   1      32.166  21.919  23.197  1.00  0.00     0.067 A 
ATOM     85  C   UNL A   1      31.904  23.091  23.862  1.00  0.00     0.035 A 
BRANCH  83  86
ATOM     86  S   UNL A   1      32.352  24.611  26.110  1.00  0.00     0.263 S 
ATOM     87  O   UNL A   1      31.691  24.069  27.288  1.00  0.00    -0.201 OA
ATOM     88  O   UNL A   1      33.683  25.147  26.278  1.00  0.00    -0.201 OA
BRANCH  86  89
ATOM     89  N   UNL A   1      31.386  25.882  25.624  1.00  0.00    -0.277 N 
ATOM     90  H   UNL A   1      30.522  25.671  25.201  1.00  0.00     0.180 HD
BRANCH  89  91
ATOM     91  C   UNL A   1      31.734  27.254  25.782  1.00  0.00     0.072 A 
ATOM     92  C   UNL A   1      31.493  27.841  27.034  1.00  0.00     0.029 A 
ATOM     93  C   UNL A   1      32.247  28.012  24.708  1.00  0.00     0.061 A 
ATOM     94  C   UNL A   1      31.779  29.188  27.248  1.00  0.00     0.002 A 
ATOM     95  C   UNL A   1      32.539  29.364  24.962  1.00  0.00     0.028 A 
ATOM     96  C   UNL A   1      32.310  29.947  26.213  1.00  0.00     0.002 A 
BRANCH  93  97
ATOM     97  N   UNL A   1      32.409  27.517  23.423  1.00  0.00    -0.370 N 
ATOM     98  C   UNL A   1      31.289  27.516  22.486  1.00  0.00     0.116 C 
ATOM     99  C   UNL A   1      33.728  27.114  22.944  1.00  0.00     0.116 C 
ATOM    100  C   UNL A   1      31.203  26.182  21.754  1.00  0.00     0.021 C 
ATOM    101  C   UNL A   1      33.628  25.771  22.223  1.00  0.00     0.021 C 
ATOM    102  C   UNL A   1      32.550  25.806  21.143  1.00  0.00     0.004 C 
ENDBRANCH  93  97
ENDBRANCH  89  91
ENDBRANCH  86  89
ENDBRANCH  83  86
ENDBRANCH  78  81
ENDBRANCH  76  77
ENDBRANCH   1  76
TORSDOF 18
ENDMDL
MODEL 3
REMARK VINA RESULT:     -12.2      0.715      2.065
REMARK SMILES O=C(NCCCCNC(=O)c1sccc1S(=O)(=O)Nc1ccccc1N1CCCCC1)c1ccc(-c2c3nc(c(-c4c(F)cc(S(=O)(=O)[O-])cc4F)c4ccc([nH]4)c(-c4c(F)cc(S(=O)(=O)[O-])cc4F)c4nc(c(-c5c(F)cc(S(=O)(=O)[O-])cc5F)c5ccc2[nH]5)C=C4)C=C3)cc1
REMARK SMILES IDX 6 1 5 2 4 3 3 4 1 5 2 6 32 8 33 9 97 10 34 11 96 12 35 13
REMARK SMILES IDX 36 14 37 15 90 16 38 17 95 18 89 19 91 20 39 21 94 22 88 23
REMARK SMILES IDX 87 24 40 26 74 27 53 28 73 29 54 30 57 31 72 32 92 33 55 34
REMARK SMILES IDX 56 35 71 37 93 38 58 39 41 40 42 41 51 42 43 43 44 44 50 45
REMARK SMILES IDX 52 46 45 47 46 48 47 49 48 50 49 51 75 52 76 53 85 54 77 55
REMARK SMILES IDX 78 56 84 57 86 58 79 59 80 60 81 61 82 62 83 63 59 64 60 65
REMARK SMILES IDX 69 66 61 67 62 68 68 69 70 70 63 71 64 72 65 73 66 74 67 75
REMARK SMILES IDX 7 76 8 77 9 78 10 80 11 81 12 82 15 83 13 84 14 85 16 86
REMARK SMILES IDX 17 87 18 88 19 89 20 91 21 92 25 93 22 94 24 95 23 96 26 97
REMARK SMILES IDX 27 98 31 99 28 100 30 101 29 102
REMARK H PARENT 3 7 91 25 57 36 8 79 19 90
REMARK Flexibility Score: inf
ROOT
ATOM      1  C   UNL A   1      37.628  22.602  25.366  1.00  0.00     0.023 C 
ENDROOT
BRANCH   1   2
ATOM      2  C   UNL A   1      37.877  23.833  26.242  1.00  0.00     0.023 C 
BRANCH   2   3
ATOM      3  C   UNL A   1      39.255  23.891  26.897  1.00  0.00     0.116 C 
BRANCH   3   4
ATOM      4  N   UNL A   1      40.292  24.379  25.998  1.00  0.00    -0.352 N 
ATOM      5  O   UNL A   1      41.762  25.871  25.148  1.00  0.00    -0.269 OA
ATOM      6  C   UNL A   1      41.076  25.505  26.096  1.00  0.00     0.251 C 
ATOM      7  H   UNL A   1      40.456  23.820  25.204  1.00  0.00     0.163 HD
BRANCH   6   8
ATOM      8  C   UNL A   1      41.064  26.281  27.351  1.00  0.00     0.039 A 
ATOM      9  C   UNL A   1      40.139  25.970  28.349  1.00  0.00     0.014 A 
ATOM     10  C   UNL A   1      41.954  27.344  27.517  1.00  0.00     0.014 A 
ATOM     11  C   UNL A   1      39.974  26.837  29.420  1.00  0.00     0.010 A 
ATOM     12  C   UNL A   1      41.852  28.156  28.651  1.00  0.00     0.010 A 
ATOM     13  C   UNL A   1      40.828  27.941  29.586  1.00  0.00    -0.014 A 
BRANCH  13  14
ATOM     14  C   UNL A   1      40.629  28.834  30.756  1.00  0.00     0.031 A 
ATOM     15  C   UNL A   1      41.554  28.779  31.944  1.00  0.00     0.074 A 
ATOM     16  C   UNL A   1      39.636  29.743  30.714  1.00  0.00     0.049 A 
ATOM     17  N   UNL A   1      41.552  29.521  33.022  1.00  0.00    -0.248 NA
ATOM     18  C   UNL A   1      42.614  27.758  31.926  1.00  0.00     0.031 C 
ATOM     19  C   UNL A   1      38.669  29.881  29.620  1.00  0.00     0.029 A 
ATOM     20  N   UNL A   1      39.291  30.742  31.588  1.00  0.00    -0.354 N 
ATOM     21  C   UNL A   1      42.580  29.038  33.825  1.00  0.00     0.074 A 
ATOM     22  C   UNL A   1      43.177  27.927  33.115  1.00  0.00     0.031 C 
ATOM     23  C   UNL A   1      37.885  30.943  29.857  1.00  0.00     0.029 A 
ATOM     24  C   UNL A   1      38.249  31.523  31.145  1.00  0.00     0.049 A 
ATOM     25  H   UNL A   1      39.745  30.886  32.449  1.00  0.00     0.167 HD
ATOM     26  C   UNL A   1      42.989  29.483  35.037  1.00  0.00     0.037 A 
ATOM     27  C   UNL A   1      37.649  32.584  31.713  1.00  0.00     0.037 A 
ATOM     28  C   UNL A   1      42.411  30.612  35.721  1.00  0.00     0.049 A 
ATOM     29  C   UNL A   1      38.136  33.069  33.046  1.00  0.00     0.074 A 
ATOM     30  C   UNL A   1      42.780  31.164  36.936  1.00  0.00     0.029 A 
ATOM     31  N   UNL A   1      41.346  31.365  35.248  1.00  0.00    -0.354 N 
ATOM     32  N   UNL A   1      39.121  32.608  33.779  1.00  0.00    -0.248 NA
ATOM     33  C   UNL A   1      37.429  34.215  33.632  1.00  0.00     0.031 C 
ATOM     34  C   UNL A   1      41.915  32.230  37.214  1.00  0.00     0.029 A 
ATOM     35  C   UNL A   1      41.037  32.369  36.152  1.00  0.00     0.049 A 
ATOM     36  H   UNL A   1      40.879  31.210  34.396  1.00  0.00     0.167 HD
ATOM     37  C   UNL A   1      39.163  33.417  34.907  1.00  0.00     0.074 A 
ATOM     38  C   UNL A   1      38.115  34.407  34.750  1.00  0.00     0.031 C 
ATOM     39  C   UNL A   1      39.992  33.347  35.977  1.00  0.00     0.037 A 
BRANCH  26  40
ATOM     40  C   UNL A   1      44.103  28.735  35.718  1.00  0.00     0.058 A 
ATOM     41  C   UNL A   1      45.451  29.093  35.549  1.00  0.00     0.135 A 
ATOM     42  C   UNL A   1      43.815  27.666  36.583  1.00  0.00     0.135 A 
ATOM     43  F   UNL A   1      45.785  30.096  34.723  1.00  0.00    -0.206 F 
ATOM     44  C   UNL A   1      46.473  28.402  36.194  1.00  0.00     0.059 A 
ATOM     45  C   UNL A   1      44.820  26.976  37.256  1.00  0.00     0.059 A 
ATOM     46  F   UNL A   1      42.544  27.282  36.783  1.00  0.00    -0.206 F 
ATOM     47  C   UNL A   1      46.148  27.342  37.042  1.00  0.00     0.060 A 
BRANCH  47  48
ATOM     48  S   UNL A   1      47.484  26.452  37.868  1.00  0.00     0.124 S 
ATOM     49  O   UNL A   1      48.451  26.312  36.784  1.00  0.00    -0.237 OA
ATOM     50  O   UNL A   1      47.861  27.371  38.937  1.00  0.00    -0.237 OA
ATOM     51  O   UNL A   1      46.848  25.213  38.306  1.00  0.00    -0.744 OA
ENDBRANCH  47  48
ENDBRANCH  26  40
BRANCH  27  52
ATOM     52  C   UNL A   1      36.529  33.259  31.007  1.00  0.00     0.058 A 
ATOM     53  C   UNL A   1      35.211  33.142  31.471  1.00  0.00     0.135 A 
ATOM     54  C   UNL A   1      36.760  34.063  29.881  1.00  0.00     0.135 A 
ATOM     55  F   UNL A   1      34.941  32.383  32.543  1.00  0.00    -0.206 F 
ATOM     56  C   UNL A   1      34.157  33.791  30.836  1.00  0.00     0.059 A 
ATOM     57  C   UNL A   1      35.728  34.743  29.245  1.00  0.00     0.059 A 
ATOM     58  F   UNL A   1      38.008  34.223  29.413  1.00  0.00    -0.206 F 
ATOM     59  C   UNL A   1      34.428  34.594  29.725  1.00  0.00     0.060 A 
BRANCH  59  60
ATOM     60  S   UNL A   1      33.065  35.483  28.943  1.00  0.00     0.124 S 
ATOM     61  O   UNL A   1      32.288  35.904  30.102  1.00  0.00    -0.237 OA
ATOM     62  O   UNL A   1      33.761  36.544  28.221  1.00  0.00    -0.237 OA
ATOM     63  O   UNL A   1      32.444  34.466  28.100  1.00  0.00    -0.744 OA
ENDBRANCH  59  60
ENDBRANCH  27  52
BRANCH  39  64
ATOM     64  C   UNL A   1      39.817  34.391  37.042  1.00  0.00     0.058 A 
ATOM     65  C   UNL A   1      39.024  34.160  38.176  1.00  0.00     0.135 A 
ATOM     66  C   UNL A   1      40.465  35.631  36.933  1.00  0.00     0.135 A 
ATOM     67  F   UNL A   1      38.378  32.991  38.324  1.00  0.00    -0.206 F 
ATOM     68  C   UNL A   1      38.852  35.136  39.152  1.00  0.00     0.059 A 
ATOM     69  C   UNL A   1      40.327  36.613  37.908  1.00  0.00     0.059 A 
ATOM     70  F   UNL A   1      41.242  35.897  35.871  1.00  0.00    -0.206 F 
ATOM     71  C   UNL A   1      39.505  36.362  39.006  1.00  0.00     0.060 A 
BRANCH  71  72
ATOM     72  S   UNL A   1      39.284  37.621  40.281  1.00  0.00     0.124 S 
ATOM     73  O   UNL A   1      38.829  36.817  41.409  1.00  0.00    -0.237 OA
ATOM     74  O   UNL A   1      40.625  38.184  40.404  1.00  0.00    -0.237 OA
ATOM     75  O   UNL A   1      38.286  38.515  39.702  1.00  0.00    -0.744 OA
ENDBRANCH  71  72
ENDBRANCH  39  64
ENDBRANCH  13  14
ENDBRANCH   6   8
ENDBRANCH   3   4
ENDBRANCH   2   3
ENDBRANCH   1   2
BRANCH   1  76
ATOM     76  C   UNL A   1      36.155  22.298  25.130  1.00  0.00     0.116 C 
BRANCH  76  77
ATOM     77  N   UNL A   1      35.515  21.708  26.283  1.00  0.00    -0.351 N 
ATOM     78  C   UNL A   1      34.177  21.621  26.554  1.00  0.00     0.262 C 
ATOM     79  H   UNL A   1      36.117  21.321  26.958  1.00  0.00     0.163 HD
ATOM     80  O   UNL A   1      33.856  21.340  27.711  1.00  0.00    -0.268 OA
BRANCH  78  81
ATOM     81  C   UNL A   1      33.212  21.958  25.534  1.00  0.00     0.112 A 
ATOM     82  S   UNL A   1      32.873  20.677  24.420  1.00  0.00    -0.137 S 
ATOM     83  C   UNL A   1      32.517  23.112  25.205  1.00  0.00     0.111 A 
ATOM     84  C   UNL A   1      31.752  21.615  23.554  1.00  0.00     0.067 A 
ATOM     85  C   UNL A   1      31.649  22.882  24.072  1.00  0.00     0.035 A 
BRANCH  83  86
ATOM     86  S   UNL A   1      32.478  24.653  26.006  1.00  0.00     0.263 S 
ATOM     87  O   UNL A   1      31.594  24.413  27.137  1.00  0.00    -0.201 OA
ATOM     88  O   UNL A   1      33.870  24.917  26.290  1.00  0.00    -0.201 OA
BRANCH  86  89
ATOM     89  N   UNL A   1      31.874  26.025  25.273  1.00  0.00    -0.277 N 
ATOM     90  H   UNL A   1      31.007  26.372  25.585  1.00  0.00     0.180 HD
BRANCH  89  91
ATOM     91  C   UNL A   1      32.535  26.726  24.225  1.00  0.00     0.072 A 
ATOM     92  C   UNL A   1      32.677  26.066  22.994  1.00  0.00     0.029 A 
ATOM     93  C   UNL A   1      33.079  28.013  24.428  1.00  0.00     0.061 A 
ATOM     94  C   UNL A   1      33.342  26.680  21.936  1.00  0.00     0.002 A 
ATOM     95  C   UNL A   1      33.731  28.610  23.335  1.00  0.00     0.028 A 
ATOM     96  C   UNL A   1      33.862  27.957  22.105  1.00  0.00     0.002 A 
BRANCH  93  97
ATOM     97  N   UNL A   1      33.064  28.672  25.648  1.00  0.00    -0.370 N 
ATOM     98  C   UNL A   1      31.916  29.489  26.031  1.00  0.00     0.116 C 
ATOM     99  C   UNL A   1      34.131  28.456  26.621  1.00  0.00     0.116 C 
ATOM    100  C   UNL A   1      32.375  30.818  26.619  1.00  0.00     0.021 C 
ATOM    101  C   UNL A   1      34.588  29.796  27.194  1.00  0.00     0.021 C 
ATOM    102  C   UNL A   1      33.404  30.600  27.725  1.00  0.00     0.004 C 
ENDBRANCH  93  97
ENDBRANCH  89  91
ENDBRANCH  86  89
ENDBRANCH  83  86
ENDBRANCH  78  81
ENDBRANCH  76  77
ENDBRANCH   1  76
TORSDOF 18
ENDMDL
