MODEL 1
REMARK VINA RESULT:     -13.6      0.000      0.000
REMARK SMILES O=C(NCCCCNC(=O)c1ccc(-c2c3nc(c(-c4c(F)cc(S(=O)(=O)[O-])cc4F)c4ccc([nH]4)c(-c4c(F)cc(S(=O)(=O)[O-])cc4F)c4nc(c(-c5c(F)cc(S(=O)(=O)[O-])cc5F)c5ccc2[nH]5)C=C4)C=C3)cc1)C1=NN(c2ccc(S(=O)(=O)[O-])cc2)C(=O)/C1=C/Nc1ccccc1
REMARK SMILES IDX 6 1 5 2 4 3 3 4 1 5 2 6 77 8 78 9 92 10 79 11 90 12 93 13
REMARK SMILES IDX 91 14 80 15 81 16 89 17 82 18 88 19 83 20 84 21 85 22 86 23
REMARK SMILES IDX 87 24 94 25 95 27 96 28 100 29 97 30 99 31 98 32 7 33 8 34
REMARK SMILES IDX 9 35 10 37 11 38 12 39 76 40 13 41 75 42 14 43 15 44 16 45
REMARK SMILES IDX 69 46 17 47 74 48 68 49 70 50 18 51 73 52 67 53 66 54 19 56
REMARK SMILES IDX 53 57 32 58 52 59 33 60 36 61 51 62 71 63 34 64 35 65 50 67
REMARK SMILES IDX 72 68 37 69 20 70 21 71 30 72 22 73 23 74 29 75 31 76 24 77
REMARK SMILES IDX 25 78 26 79 27 80 28 81 54 82 55 83 64 84 56 85 57 86 63 87
REMARK SMILES IDX 65 88 58 89 59 90 60 91 61 92 62 93 38 94 39 95 48 96 40 97
REMARK SMILES IDX 41 98 47 99 49 100 42 101 43 102 44 103 45 104 46 105
REMARK H PARENT 3 7 94 26 8 36 70 55 36 66
REMARK Flexibility Score: inf
ROOT
ATOM      1  C   UNL A   1      34.092  29.071  27.611  1.00  0.00     0.023 C 
ENDROOT
BRANCH   1   2
ATOM      2  C   UNL A   1      34.069  28.298  26.289  1.00  0.00     0.023 C 
BRANCH   2   3
ATOM      3  C   UNL A   1      33.143  28.858  25.215  1.00  0.00     0.116 C 
BRANCH   3   4
ATOM      4  N   UNL A   1      33.724  28.811  23.886  1.00  0.00    -0.351 N 
ATOM      5  O   UNL A   1      33.924  27.997  21.774  1.00  0.00    -0.267 OA
ATOM      6  C   UNL A   1      33.535  27.850  22.925  1.00  0.00     0.272 C 
ATOM      7  H   UNL A   1      34.322  29.555  23.645  1.00  0.00     0.163 HD
BRANCH   6   8
ATOM      8  C   UNL A   1      32.757  26.620  23.260  1.00  0.00     0.163 C 
ATOM      9  N   UNL A   1      33.301  25.485  23.620  1.00  0.00    -0.158 NA
ATOM     10  C   UNL A   1      31.299  26.555  23.184  1.00  0.00     0.091 C 
ATOM     11  N   UNL A   1      32.231  24.594  23.761  1.00  0.00    -0.196 N 
ATOM     12  C   UNL A   1      30.966  25.182  23.605  1.00  0.00     0.282 C 
ATOM     13  C   UNL A   1      30.395  27.448  22.778  1.00  0.00     0.099 C 
ATOM     14  O   UNL A   1      29.841  24.728  23.720  1.00  0.00    -0.267 OA
BRANCH  11  15
ATOM     15  C   UNL A   1      32.515  23.208  23.794  1.00  0.00     0.069 A 
ATOM     16  C   UNL A   1      32.045  22.352  22.785  1.00  0.00     0.030 A 
ATOM     17  C   UNL A   1      33.183  22.646  24.892  1.00  0.00     0.030 A 
ATOM     18  C   UNL A   1      32.232  20.967  22.876  1.00  0.00     0.021 A 
ATOM     19  C   UNL A   1      33.348  21.263  25.006  1.00  0.00     0.021 A 
ATOM     20  C   UNL A   1      32.873  20.432  23.996  1.00  0.00     0.054 A 
BRANCH  20  21
ATOM     21  S   UNL A   1      33.021  18.677  24.155  1.00  0.00     0.124 S 
ATOM     22  O   UNL A   1      34.424  18.349  24.279  1.00  0.00    -0.237 OA
ATOM     23  O   UNL A   1      32.050  18.232  25.129  1.00  0.00    -0.237 OA
ATOM     24  O   UNL A   1      32.548  18.070  22.735  1.00  0.00    -0.744 OA
ENDBRANCH  20  21
ENDBRANCH  11  15
BRANCH  13  25
ATOM     25  N   UNL A   1      30.595  28.664  22.175  1.00  0.00    -0.361 N 
ATOM     26  H   UNL A   1      31.319  28.713  21.509  1.00  0.00     0.166 HD
BRANCH  25  27
ATOM     27  C   UNL A   1      29.873  29.844  22.411  1.00  0.00     0.038 A 
ATOM     28  C   UNL A   1      29.217  30.464  21.340  1.00  0.00     0.026 A 
ATOM     29  C   UNL A   1      29.728  30.389  23.692  1.00  0.00     0.026 A 
ATOM     30  C   UNL A   1      28.455  31.616  21.540  1.00  0.00     0.002 A 
ATOM     31  C   UNL A   1      28.985  31.555  23.890  1.00  0.00     0.002 A 
ATOM     32  C   UNL A   1      28.347  32.166  22.813  1.00  0.00     0.000 A 
ENDBRANCH  25  27
ENDBRANCH  13  25
ENDBRANCH   6   8
ENDBRANCH   3   4
ENDBRANCH   2   3
ENDBRANCH   1   2
BRANCH   1  33
ATOM     33  C   UNL A   1      35.184  30.130  27.740  1.00  0.00     0.116 C 
BRANCH  33  34
ATOM     34  N   UNL A   1      35.229  30.735  29.063  1.00  0.00    -0.352 N 
ATOM     35  C   UNL A   1      36.230  30.701  30.007  1.00  0.00     0.251 C 
ATOM     36  H   UNL A   1      34.426  31.245  29.320  1.00  0.00     0.163 HD
ATOM     37  O   UNL A   1      36.028  31.154  31.130  1.00  0.00    -0.269 OA
BRANCH  35  38
ATOM     38  C   UNL A   1      37.536  30.088  29.678  1.00  0.00     0.039 A 
ATOM     39  C   UNL A   1      37.989  30.118  28.356  1.00  0.00     0.014 A 
ATOM     40  C   UNL A   1      38.319  29.499  30.673  1.00  0.00     0.014 A 
ATOM     41  C   UNL A   1      39.267  29.639  28.048  1.00  0.00     0.010 A 
ATOM     42  C   UNL A   1      39.615  29.084  30.377  1.00  0.00     0.010 A 
ATOM     43  C   UNL A   1      40.108  29.159  29.065  1.00  0.00    -0.014 A 
BRANCH  43  44
ATOM     44  C   UNL A   1      41.511  28.742  28.795  1.00  0.00     0.031 A 
ATOM     45  C   UNL A   1      42.605  29.776  28.765  1.00  0.00     0.074 A 
ATOM     46  C   UNL A   1      41.783  27.462  28.467  1.00  0.00     0.049 A 
ATOM     47  N   UNL A   1      43.847  29.652  28.376  1.00  0.00    -0.248 NA
ATOM     48  C   UNL A   1      42.246  31.136  29.202  1.00  0.00     0.031 C 
ATOM     49  C   UNL A   1      40.805  26.372  28.420  1.00  0.00     0.029 A 
ATOM     50  N   UNL A   1      42.958  26.865  28.082  1.00  0.00    -0.354 N 
ATOM     51  C   UNL A   1      44.406  30.920  28.482  1.00  0.00     0.074 A 
ATOM     52  C   UNL A   1      43.363  31.806  28.952  1.00  0.00     0.031 C 
ATOM     53  C   UNL A   1      41.420  25.244  28.028  1.00  0.00     0.029 A 
ATOM     54  C   UNL A   1      42.823  25.535  27.753  1.00  0.00     0.049 A 
ATOM     55  H   UNL A   1      43.817  27.344  28.043  1.00  0.00     0.167 HD
ATOM     56  C   UNL A   1      45.677  31.308  28.220  1.00  0.00     0.037 A 
ATOM     57  C   UNL A   1      43.721  24.657  27.263  1.00  0.00     0.037 A 
ATOM     58  C   UNL A   1      46.728  30.412  27.814  1.00  0.00     0.049 A 
ATOM     59  C   UNL A   1      45.134  25.112  27.006  1.00  0.00     0.074 A 
ATOM     60  C   UNL A   1      48.067  30.698  27.614  1.00  0.00     0.029 A 
ATOM     61  N   UNL A   1      46.562  29.062  27.551  1.00  0.00    -0.354 N 
ATOM     62  N   UNL A   1      45.659  26.302  27.175  1.00  0.00    -0.248 NA
ATOM     63  C   UNL A   1      46.077  24.107  26.493  1.00  0.00     0.031 C 
ATOM     64  C   UNL A   1      48.707  29.527  27.196  1.00  0.00     0.029 A 
ATOM     65  C   UNL A   1      47.773  28.504  27.175  1.00  0.00     0.049 A 
ATOM     66  H   UNL A   1      45.711  28.572  27.620  1.00  0.00     0.167 HD
ATOM     67  C   UNL A   1      47.000  26.177  26.826  1.00  0.00     0.074 A 
ATOM     68  C   UNL A   1      47.207  24.799  26.437  1.00  0.00     0.031 C 
ATOM     69  C   UNL A   1      47.971  27.122  26.828  1.00  0.00     0.037 A 
BRANCH  56  70
ATOM     70  C   UNL A   1      46.022  32.762  28.373  1.00  0.00     0.058 A 
ATOM     71  C   UNL A   1      45.883  33.667  27.311  1.00  0.00     0.135 A 
ATOM     72  C   UNL A   1      46.410  33.269  29.624  1.00  0.00     0.135 A 
ATOM     73  F   UNL A   1      45.530  33.231  26.092  1.00  0.00    -0.206 F 
ATOM     74  C   UNL A   1      46.122  35.027  27.483  1.00  0.00     0.059 A 
ATOM     75  C   UNL A   1      46.632  34.628  29.824  1.00  0.00     0.059 A 
ATOM     76  F   UNL A   1      46.560  32.443  30.672  1.00  0.00    -0.206 F 
ATOM     77  C   UNL A   1      46.491  35.498  28.744  1.00  0.00     0.060 A 
BRANCH  77  78
ATOM     78  S   UNL A   1      46.753  37.271  28.961  1.00  0.00     0.124 S 
ATOM     79  O   UNL A   1      47.570  37.298  30.170  1.00  0.00    -0.237 OA
ATOM     80  O   UNL A   1      47.438  37.639  27.726  1.00  0.00    -0.237 OA
ATOM     81  O   UNL A   1      45.401  37.801  29.104  1.00  0.00    -0.744 OA
ENDBRANCH  77  78
ENDBRANCH  56  70
BRANCH  57  82
ATOM     82  C   UNL A   1      43.322  23.254  26.969  1.00  0.00     0.058 A 
ATOM     83  C   UNL A   1      43.102  22.336  28.007  1.00  0.00     0.135 A 
ATOM     84  C   UNL A   1      43.192  22.793  25.650  1.00  0.00     0.135 A 
ATOM     85  F   UNL A   1      43.220  22.729  29.285  1.00  0.00    -0.206 F 
ATOM     86  C   UNL A   1      42.805  21.001  27.750  1.00  0.00     0.059 A 
ATOM     87  C   UNL A   1      42.872  21.468  25.368  1.00  0.00     0.059 A 
ATOM     88  F   UNL A   1      43.374  23.635  24.621  1.00  0.00    -0.206 F 
ATOM     89  C   UNL A   1      42.700  20.575  26.425  1.00  0.00     0.060 A 
BRANCH  89  90
ATOM     90  S   UNL A   1      42.313  18.841  26.097  1.00  0.00     0.124 S 
ATOM     91  O   UNL A   1      40.909  18.924  25.715  1.00  0.00    -0.237 OA
ATOM     92  O   UNL A   1      43.249  18.514  25.024  1.00  0.00    -0.237 OA
ATOM     93  O   UNL A   1      42.587  18.192  27.376  1.00  0.00    -0.744 OA
ENDBRANCH  89  90
ENDBRANCH  57  82
BRANCH  69  94
ATOM     94  C   UNL A   1      49.364  26.695  26.460  1.00  0.00     0.058 A 
ATOM     95  C   UNL A   1      50.181  25.993  27.358  1.00  0.00     0.135 A 
ATOM     96  C   UNL A   1      49.850  26.917  25.161  1.00  0.00     0.135 A 
ATOM     97  F   UNL A   1      49.765  25.762  28.613  1.00  0.00    -0.206 F 
ATOM     98  C   UNL A   1      51.439  25.531  26.982  1.00  0.00     0.059 A 
ATOM     99  C   UNL A   1      51.094  26.444  24.758  1.00  0.00     0.059 A 
ATOM    100  F   UNL A   1      49.101  27.576  24.264  1.00  0.00    -0.206 F 
ATOM    101  C   UNL A   1      51.884  25.756  25.678  1.00  0.00     0.060 A 
BRANCH 101 102
ATOM    102  S   UNL A   1      53.489  25.095  25.182  1.00  0.00     0.124 S 
ATOM    103  O   UNL A   1      53.290  23.663  25.378  1.00  0.00    -0.237 OA
ATOM    104  O   UNL A   1      53.594  25.535  23.794  1.00  0.00    -0.237 OA
ATOM    105  O   UNL A   1      54.420  25.734  26.106  1.00  0.00    -0.744 OA
ENDBRANCH 101 102
ENDBRANCH  69  94
ENDBRANCH  43  44
ENDBRANCH  35  38
ENDBRANCH  33  34
ENDBRANCH   1  33
TORSDOF 18
ENDMDL
MODEL 2
REMARK VINA RESULT:     -13.5      2.455      3.325
REMARK SMILES O=C(NCCCCNC(=O)c1ccc(-c2c3nc(c(-c4c(F)cc(S(=O)(=O)[O-])cc4F)c4ccc([nH]4)c(-c4c(F)cc(S(=O)(=O)[O-])cc4F)c4nc(c(-c5c(F)cc(S(=O)(=O)[O-])cc5F)c5ccc2[nH]5)C=C4)C=C3)cc1)C1=NN(c2ccc(S(=O)(=O)[O-])cc2)C(=O)/C1=C/Nc1ccccc1
REMARK SMILES IDX 6 1 5 2 4 3 3 4 1 5 2 6 77 8 78 9 92 10 79 11 90 12 93 13
REMARK SMILES IDX 91 14 80 15 81 16 89 17 82 18 88 19 83 20 84 21 85 22 86 23
REMARK SMILES IDX 87 24 94 25 95 27 96 28 100 29 97 30 99 31 98 32 7 33 8 34
REMARK SMILES IDX 9 35 10 37 11 38 12 39 76 40 13 41 75 42 14 43 15 44 16 45
REMARK SMILES IDX 69 46 17 47 74 48 68 49 70 50 18 51 73 52 67 53 66 54 19 56
REMARK SMILES IDX 53 57 32 58 52 59 33 60 36 61 51 62 71 63 34 64 35 65 50 67
REMARK SMILES IDX 72 68 37 69 20 70 21 71 30 72 22 73 23 74 29 75 31 76 24 77
REMARK SMILES IDX 25 78 26 79 27 80 28 81 54 82 55 83 64 84 56 85 57 86 63 87
REMARK SMILES IDX 65 88 58 89 59 90 60 91 61 92 62 93 38 94 39 95 48 96 40 97
REMARK SMILES IDX 41 98 47 99 49 100 42 101 43 102 44 103 45 104 46 105
REMARK H PARENT 3 7 94 26 8 36 70 55 36 66
REMARK Flexibility Score: inf
ROOT
ATOM      1  C   UNL A   1      32.511  28.028  25.999  1.00  0.00     0.023 C 
ENDROOT
BRANCH   1   2
ATOM      2  C   UNL A   1      33.100  28.434  24.645  1.00  0.00     0.023 C 
BRANCH   2   3
ATOM      3  C   UNL A   1      34.193  27.520  24.102  1.00  0.00     0.116 C 
BRANCH   3   4
ATOM      4  N   UNL A   1      34.046  27.242  22.685  1.00  0.00    -0.351 N 
ATOM      5  O   UNL A   1      33.171  26.140  20.901  1.00  0.00    -0.267 OA
ATOM      6  C   UNL A   1      33.394  26.184  22.104  1.00  0.00     0.272 C 
ATOM      7  H   UNL A   1      34.463  27.888  22.069  1.00  0.00     0.163 HD
BRANCH   6   8
ATOM      8  C   UNL A   1      32.858  25.089  22.966  1.00  0.00     0.163 C 
ATOM      9  N   UNL A   1      33.500  23.979  23.222  1.00  0.00    -0.158 NA
ATOM     10  C   UNL A   1      31.534  25.138  23.585  1.00  0.00     0.091 C 
ATOM     11  N   UNL A   1      32.618  23.213  23.992  1.00  0.00    -0.196 N 
ATOM     12  C   UNL A   1      31.430  23.877  24.340  1.00  0.00     0.282 C 
ATOM     13  C   UNL A   1      30.551  26.036  23.496  1.00  0.00     0.099 C 
ATOM     14  O   UNL A   1      30.489  23.544  25.038  1.00  0.00    -0.267 OA
BRANCH  11  15
ATOM     15  C   UNL A   1      32.876  21.828  24.128  1.00  0.00     0.069 A 
ATOM     16  C   UNL A   1      33.951  21.367  24.904  1.00  0.00     0.030 A 
ATOM     17  C   UNL A   1      32.122  20.892  23.404  1.00  0.00     0.030 A 
ATOM     18  C   UNL A   1      34.270  20.004  24.948  1.00  0.00     0.021 A 
ATOM     19  C   UNL A   1      32.452  19.534  23.417  1.00  0.00     0.021 A 
ATOM     20  C   UNL A   1      33.523  19.098  24.192  1.00  0.00     0.054 A 
BRANCH  20  21
ATOM     21  S   UNL A   1      33.988  17.392  24.173  1.00  0.00     0.124 S 
ATOM     22  O   UNL A   1      35.371  17.294  24.583  1.00  0.00    -0.237 OA
ATOM     23  O   UNL A   1      32.947  16.637  24.834  1.00  0.00    -0.237 OA
ATOM     24  O   UNL A   1      33.953  16.948  22.621  1.00  0.00    -0.744 OA
ENDBRANCH  20  21
ENDBRANCH  11  15
BRANCH  13  25
ATOM     25  N   UNL A   1      30.451  27.126  22.670  1.00  0.00    -0.361 N 
ATOM     26  H   UNL A   1      31.095  27.177  21.926  1.00  0.00     0.166 HD
BRANCH  25  27
ATOM     27  C   UNL A   1      29.525  28.175  22.778  1.00  0.00     0.038 A 
ATOM     28  C   UNL A   1      29.930  29.474  22.450  1.00  0.00     0.026 A 
ATOM     29  C   UNL A   1      28.189  27.960  23.137  1.00  0.00     0.026 A 
ATOM     30  C   UNL A   1      29.030  30.539  22.504  1.00  0.00     0.002 A 
ATOM     31  C   UNL A   1      27.292  29.028  23.215  1.00  0.00     0.002 A 
ATOM     32  C   UNL A   1      27.713  30.317  22.896  1.00  0.00     0.000 A 
ENDBRANCH  25  27
ENDBRANCH  13  25
ENDBRANCH   6   8
ENDBRANCH   3   4
ENDBRANCH   2   3
ENDBRANCH   1   2
BRANCH   1  33
ATOM     33  C   UNL A   1      33.322  28.437  27.225  1.00  0.00     0.116 C 
BRANCH  33  34
ATOM     34  N   UNL A   1      33.277  29.870  27.479  1.00  0.00    -0.352 N 
ATOM     35  C   UNL A   1      34.244  30.695  28.006  1.00  0.00     0.251 C 
ATOM     36  H   UNL A   1      32.432  30.314  27.236  1.00  0.00     0.163 HD
ATOM     37  O   UNL A   1      33.971  31.861  28.280  1.00  0.00    -0.269 OA
BRANCH  35  38
ATOM     38  C   UNL A   1      35.601  30.168  28.274  1.00  0.00     0.039 A 
ATOM     39  C   UNL A   1      36.535  30.134  27.235  1.00  0.00     0.014 A 
ATOM     40  C   UNL A   1      35.955  29.724  29.550  1.00  0.00     0.014 A 
ATOM     41  C   UNL A   1      37.852  29.739  27.497  1.00  0.00     0.010 A 
ATOM     42  C   UNL A   1      37.281  29.396  29.823  1.00  0.00     0.010 A 
ATOM     43  C   UNL A   1      38.246  29.410  28.803  1.00  0.00    -0.014 A 
BRANCH  43  44
ATOM     44  C   UNL A   1      39.660  29.091  29.143  1.00  0.00     0.031 A 
ATOM     45  C   UNL A   1      40.561  30.169  29.683  1.00  0.00     0.074 A 
ATOM     46  C   UNL A   1      40.161  27.870  28.861  1.00  0.00     0.049 A 
ATOM     47  N   UNL A   1      41.855  30.147  29.869  1.00  0.00    -0.248 NA
ATOM     48  C   UNL A   1      39.926  31.452  30.030  1.00  0.00     0.031 C 
ATOM     49  C   UNL A   1      39.403  26.750  28.298  1.00  0.00     0.029 A 
ATOM     50  N   UNL A   1      41.437  27.375  28.982  1.00  0.00    -0.354 N 
ATOM     51  C   UNL A   1      42.196  31.419  30.315  1.00  0.00     0.074 A 
ATOM     52  C   UNL A   1      40.976  32.196  30.352  1.00  0.00     0.031 C 
ATOM     53  C   UNL A   1      40.227  25.704  28.122  1.00  0.00     0.029 A 
ATOM     54  C   UNL A   1      41.579  26.088  28.517  1.00  0.00     0.049 A 
ATOM     55  H   UNL A   1      42.181  27.894  29.364  1.00  0.00     0.167 HD
ATOM     56  C   UNL A   1      43.414  31.890  30.671  1.00  0.00     0.037 A 
ATOM     57  C   UNL A   1      42.676  25.313  28.398  1.00  0.00     0.037 A 
ATOM     58  C   UNL A   1      44.614  31.096  30.693  1.00  0.00     0.049 A 
ATOM     59  C   UNL A   1      44.013  25.857  28.827  1.00  0.00     0.074 A 
ATOM     60  C   UNL A   1      45.876  31.463  31.126  1.00  0.00     0.029 A 
ATOM     61  N   UNL A   1      44.701  29.779  30.272  1.00  0.00    -0.354 N 
ATOM     62  N   UNL A   1      44.304  27.043  29.308  1.00  0.00    -0.248 NA
ATOM     63  C   UNL A   1      45.173  24.962  28.697  1.00  0.00     0.031 C 
ATOM     64  C   UNL A   1      46.737  30.378  30.934  1.00  0.00     0.029 A 
ATOM     65  C   UNL A   1      46.001  29.324  30.420  1.00  0.00     0.049 A 
ATOM     66  H   UNL A   1      43.952  29.247  29.920  1.00  0.00     0.167 HD
ATOM     67  C   UNL A   1      45.669  27.019  29.573  1.00  0.00     0.074 A 
ATOM     68  C   UNL A   1      46.148  25.706  29.201  1.00  0.00     0.031 C 
ATOM     69  C   UNL A   1      46.454  28.000  30.080  1.00  0.00     0.037 A 
BRANCH  56  70
ATOM     70  C   UNL A   1      43.525  33.332  31.082  1.00  0.00     0.058 A 
ATOM     71  C   UNL A   1      43.424  33.725  32.424  1.00  0.00     0.135 A 
ATOM     72  C   UNL A   1      43.826  34.318  30.128  1.00  0.00     0.135 A 
ATOM     73  F   UNL A   1      43.123  32.824  33.372  1.00  0.00    -0.206 F 
ATOM     74  C   UNL A   1      43.612  35.049  32.807  1.00  0.00     0.059 A 
ATOM     75  C   UNL A   1      44.041  35.643  30.491  1.00  0.00     0.059 A 
ATOM     76  F   UNL A   1      43.930  33.993  28.829  1.00  0.00    -0.206 F 
ATOM     77  C   UNL A   1      43.926  35.999  31.833  1.00  0.00     0.060 A 
BRANCH  77  78
ATOM     78  S   UNL A   1      44.212  37.704  32.353  1.00  0.00     0.124 S 
ATOM     79  O   UNL A   1      43.895  38.438  31.131  1.00  0.00    -0.237 OA
ATOM     80  O   UNL A   1      43.262  37.861  33.450  1.00  0.00    -0.237 OA
ATOM     81  O   UNL A   1      45.619  37.711  32.742  1.00  0.00    -0.744 OA
ENDBRANCH  77  78
ENDBRANCH  56  70
BRANCH  57  82
ATOM     82  C   UNL A   1      42.572  23.937  27.843  1.00  0.00     0.058 A 
ATOM     83  C   UNL A   1      42.488  23.724  26.458  1.00  0.00     0.135 A 
ATOM     84  C   UNL A   1      42.514  22.813  28.681  1.00  0.00     0.135 A 
ATOM     85  F   UNL A   1      42.535  24.768  25.616  1.00  0.00    -0.206 F 
ATOM     86  C   UNL A   1      42.313  22.451  25.925  1.00  0.00     0.059 A 
ATOM     87  C   UNL A   1      42.363  21.528  28.170  1.00  0.00     0.059 A 
ATOM     88  F   UNL A   1      42.608  22.960  30.011  1.00  0.00    -0.206 F 
ATOM     89  C   UNL A   1      42.242  21.359  26.791  1.00  0.00     0.060 A 
BRANCH  89  90
ATOM     90  S   UNL A   1      42.014  19.708  26.093  1.00  0.00     0.124 S 
ATOM     91  O   UNL A   1      42.956  19.730  24.981  1.00  0.00    -0.237 OA
ATOM     92  O   UNL A   1      42.370  18.846  27.217  1.00  0.00    -0.237 OA
ATOM     93  O   UNL A   1      40.600  19.695  25.727  1.00  0.00    -0.744 OA
ENDBRANCH  89  90
ENDBRANCH  57  82
BRANCH  69  94
ATOM     94  C   UNL A   1      47.901  27.682  30.326  1.00  0.00     0.058 A 
ATOM     95  C   UNL A   1      48.335  27.100  31.526  1.00  0.00     0.135 A 
ATOM     96  C   UNL A   1      48.851  27.884  29.310  1.00  0.00     0.135 A 
ATOM     97  F   UNL A   1      47.468  26.893  32.530  1.00  0.00    -0.206 F 
ATOM     98  C   UNL A   1      49.664  26.734  31.714  1.00  0.00     0.059 A 
ATOM     99  C   UNL A   1      50.179  27.505  29.469  1.00  0.00     0.059 A 
ATOM    100  F   UNL A   1      48.483  28.430  28.142  1.00  0.00    -0.206 F 
ATOM    101  C   UNL A   1      50.578  26.934  30.678  1.00  0.00     0.060 A 
BRANCH 101 102
ATOM    102  S   UNL A   1      52.285  26.396  30.908  1.00  0.00     0.124 S 
ATOM    103  O   UNL A   1      52.849  27.517  31.653  1.00  0.00    -0.237 OA
ATOM    104  O   UNL A   1      52.124  25.154  31.658  1.00  0.00    -0.237 OA
ATOM    105  O   UNL A   1      52.778  26.235  29.544  1.00  0.00    -0.744 OA
ENDBRANCH 101 102
ENDBRANCH  69  94
ENDBRANCH  43  44
ENDBRANCH  35  38
ENDBRANCH  33  34
ENDBRANCH   1  33
TORSDOF 18
ENDMDL
MODEL 3
REMARK VINA RESULT:     -13.4      6.563     12.260
REMARK SMILES O=C(NCCCCNC(=O)c1ccc(-c2c3nc(c(-c4c(F)cc(S(=O)(=O)[O-])cc4F)c4ccc([nH]4)c(-c4c(F)cc(S(=O)(=O)[O-])cc4F)c4nc(c(-c5c(F)cc(S(=O)(=O)[O-])cc5F)c5ccc2[nH]5)C=C4)C=C3)cc1)C1=NN(c2ccc(S(=O)(=O)[O-])cc2)C(=O)/C1=C/Nc1ccccc1
REMARK SMILES IDX 6 1 5 2 4 3 3 4 1 5 2 6 77 8 78 9 92 10 79 11 90 12 93 13
REMARK SMILES IDX 91 14 80 15 81 16 89 17 82 18 88 19 83 20 84 21 85 22 86 23
REMARK SMILES IDX 87 24 94 25 95 27 96 28 100 29 97 30 99 31 98 32 7 33 8 34
REMARK SMILES IDX 9 35 10 37 11 38 12 39 76 40 13 41 75 42 14 43 15 44 16 45
REMARK SMILES IDX 69 46 17 47 74 48 68 49 70 50 18 51 73 52 67 53 66 54 19 56
REMARK SMILES IDX 53 57 32 58 52 59 33 60 36 61 51 62 71 63 34 64 35 65 50 67
REMARK SMILES IDX 72 68 37 69 20 70 21 71 30 72 22 73 23 74 29 75 31 76 24 77
REMARK SMILES IDX 25 78 26 79 27 80 28 81 54 82 55 83 64 84 56 85 57 86 63 87
REMARK SMILES IDX 65 88 58 89 59 90 60 91 61 92 62 93 38 94 39 95 48 96 40 97
REMARK SMILES IDX 41 98 47 99 49 100 42 101 43 102 44 103 45 104 46 105
REMARK H PARENT 3 7 94 26 8 36 70 55 36 66
REMARK Flexibility Score: inf
ROOT
ATOM      1  C   UNL A   1      37.930  23.251  26.135  1.00  0.00     0.023 C 
ENDROOT
BRANCH   1   2
ATOM      2  C   UNL A   1      36.441  23.595  26.057  1.00  0.00     0.023 C 
BRANCH   2   3
ATOM      3  C   UNL A   1      35.488  22.404  26.074  1.00  0.00     0.116 C 
BRANCH   3   4
ATOM      4  N   UNL A   1      34.589  22.414  27.213  1.00  0.00    -0.351 N 
ATOM      5  O   UNL A   1      32.548  22.567  28.199  1.00  0.00    -0.267 OA
ATOM      6  C   UNL A   1      33.263  22.769  27.227  1.00  0.00     0.272 C 
ATOM      7  H   UNL A   1      34.973  22.133  28.074  1.00  0.00     0.163 HD
BRANCH   6   8
ATOM      8  C   UNL A   1      32.642  23.339  25.995  1.00  0.00     0.163 C 
ATOM      9  N   UNL A   1      32.385  24.611  25.827  1.00  0.00    -0.158 NA
ATOM     10  C   UNL A   1      32.225  22.518  24.860  1.00  0.00     0.091 C 
ATOM     11  N   UNL A   1      31.744  24.695  24.585  1.00  0.00    -0.196 N 
ATOM     12  C   UNL A   1      31.686  23.480  23.883  1.00  0.00     0.282 C 
ATOM     13  C   UNL A   1      32.227  21.196  24.678  1.00  0.00     0.099 C 
ATOM     14  O   UNL A   1      31.267  23.205  22.772  1.00  0.00    -0.267 OA
BRANCH  11  15
ATOM     15  C   UNL A   1      31.028  25.877  24.280  1.00  0.00     0.069 A 
ATOM     16  C   UNL A   1      29.629  25.862  24.164  1.00  0.00     0.030 A 
ATOM     17  C   UNL A   1      31.712  27.065  23.985  1.00  0.00     0.030 A 
ATOM     18  C   UNL A   1      28.932  27.005  23.754  1.00  0.00     0.021 A 
ATOM     19  C   UNL A   1      31.029  28.202  23.547  1.00  0.00     0.021 A 
ATOM     20  C   UNL A   1      29.642  28.166  23.436  1.00  0.00     0.054 A 
BRANCH  20  21
ATOM     21  S   UNL A   1      28.768  29.578  22.826  1.00  0.00     0.124 S 
ATOM     22  O   UNL A   1      27.354  29.274  22.829  1.00  0.00    -0.237 OA
ATOM     23  O   UNL A   1      29.292  30.749  23.492  1.00  0.00    -0.237 OA
ATOM     24  O   UNL A   1      29.190  29.713  21.274  1.00  0.00    -0.744 OA
ENDBRANCH  20  21
ENDBRANCH  11  15
BRANCH  13  25
ATOM     25  N   UNL A   1      32.503  20.203  25.583  1.00  0.00    -0.361 N 
ATOM     26  H   UNL A   1      32.292  20.392  26.526  1.00  0.00     0.166 HD
BRANCH  25  27
ATOM     27  C   UNL A   1      33.057  18.944  25.300  1.00  0.00     0.038 A 
ATOM     28  C   UNL A   1      34.270  18.878  24.603  1.00  0.00     0.026 A 
ATOM     29  C   UNL A   1      32.474  17.753  25.747  1.00  0.00     0.026 A 
ATOM     30  C   UNL A   1      34.874  17.648  24.337  1.00  0.00     0.002 A 
ATOM     31  C   UNL A   1      33.066  16.520  25.461  1.00  0.00     0.002 A 
ATOM     32  C   UNL A   1      34.267  16.469  24.759  1.00  0.00     0.000 A 
ENDBRANCH  25  27
ENDBRANCH  13  25
ENDBRANCH   6   8
ENDBRANCH   3   4
ENDBRANCH   2   3
ENDBRANCH   1   2
BRANCH   1  33
ATOM     33  C   UNL A   1      38.859  24.405  26.505  1.00  0.00     0.116 C 
BRANCH  33  34
ATOM     34  N   UNL A   1      40.216  24.219  26.013  1.00  0.00    -0.352 N 
ATOM     35  C   UNL A   1      41.379  24.846  26.396  1.00  0.00     0.251 C 
ATOM     36  H   UNL A   1      40.316  23.545  25.302  1.00  0.00     0.163 HD
ATOM     37  O   UNL A   1      42.413  24.658  25.762  1.00  0.00    -0.269 OA
BRANCH  35  38
ATOM     38  C   UNL A   1      41.374  25.771  27.551  1.00  0.00     0.039 A 
ATOM     39  C   UNL A   1      42.284  26.831  27.579  1.00  0.00     0.014 A 
ATOM     40  C   UNL A   1      40.463  25.604  28.596  1.00  0.00     0.014 A 
ATOM     41  C   UNL A   1      42.222  27.775  28.609  1.00  0.00     0.010 A 
ATOM     42  C   UNL A   1      40.358  26.580  29.584  1.00  0.00     0.010 A 
ATOM     43  C   UNL A   1      41.228  27.682  29.596  1.00  0.00    -0.014 A 
BRANCH  43  44
ATOM     44  C   UNL A   1      41.059  28.724  30.645  1.00  0.00     0.031 A 
ATOM     45  C   UNL A   1      41.877  28.654  31.907  1.00  0.00     0.074 A 
ATOM     46  C   UNL A   1      40.098  29.662  30.515  1.00  0.00     0.049 A 
ATOM     47  N   UNL A   1      41.758  29.348  33.008  1.00  0.00    -0.248 NA
ATOM     48  C   UNL A   1      42.953  27.648  31.946  1.00  0.00     0.031 C 
ATOM     49  C   UNL A   1      39.210  29.814  29.360  1.00  0.00     0.029 A 
ATOM     50  N   UNL A   1      39.685  30.648  31.377  1.00  0.00    -0.354 N 
ATOM     51  C   UNL A   1      42.710  28.839  33.883  1.00  0.00     0.074 A 
ATOM     52  C   UNL A   1      43.388  27.763  33.193  1.00  0.00     0.031 C 
ATOM     53  C   UNL A   1      38.360  30.829  29.586  1.00  0.00     0.029 A 
ATOM     54  C   UNL A   1      38.610  31.373  30.917  1.00  0.00     0.049 A 
ATOM     55  H   UNL A   1      40.118  30.820  32.245  1.00  0.00     0.167 HD
ATOM     56  C   UNL A   1      43.000  29.241  35.143  1.00  0.00     0.037 A 
ATOM     57  C   UNL A   1      37.891  32.349  31.508  1.00  0.00     0.037 A 
ATOM     58  C   UNL A   1      42.367  30.353  35.803  1.00  0.00     0.049 A 
ATOM     59  C   UNL A   1      38.254  32.792  32.901  1.00  0.00     0.074 A 
ATOM     60  C   UNL A   1      42.658  30.891  37.044  1.00  0.00     0.029 A 
ATOM     61  N   UNL A   1      41.325  31.098  35.277  1.00  0.00    -0.354 N 
ATOM     62  N   UNL A   1      39.202  32.341  33.688  1.00  0.00    -0.248 NA
ATOM     63  C   UNL A   1      37.451  33.874  33.490  1.00  0.00     0.031 C 
ATOM     64  C   UNL A   1      41.768  31.941  37.286  1.00  0.00     0.029 A 
ATOM     65  C   UNL A   1      40.950  32.082  36.177  1.00  0.00     0.049 A 
ATOM     66  H   UNL A   1      40.911  30.951  34.396  1.00  0.00     0.167 HD
ATOM     67  C   UNL A   1      39.133  33.111  34.844  1.00  0.00     0.074 A 
ATOM     68  C   UNL A   1      38.053  34.055  34.657  1.00  0.00     0.031 C 
ATOM     69  C   UNL A   1      39.897  33.040  35.961  1.00  0.00     0.037 A 
BRANCH  56  70
ATOM     70  C   UNL A   1      44.057  28.490  35.903  1.00  0.00     0.058 A 
ATOM     71  C   UNL A   1      45.404  28.878  35.868  1.00  0.00     0.135 A 
ATOM     72  C   UNL A   1      43.699  27.425  36.746  1.00  0.00     0.135 A 
ATOM     73  F   UNL A   1      45.800  29.878  35.066  1.00  0.00    -0.206 F 
ATOM     74  C   UNL A   1      46.364  28.230  36.640  1.00  0.00     0.059 A 
ATOM     75  C   UNL A   1      44.638  26.779  37.544  1.00  0.00     0.059 A 
ATOM     76  F   UNL A   1      42.423  27.015  36.813  1.00  0.00    -0.206 F 
ATOM     77  C   UNL A   1      45.970  27.187  37.479  1.00  0.00     0.060 A 
BRANCH  77  78
ATOM     78  S   UNL A   1      47.220  26.388  38.508  1.00  0.00     0.124 S 
ATOM     79  O   UNL A   1      48.129  27.499  38.775  1.00  0.00    -0.237 OA
ATOM     80  O   UNL A   1      46.436  25.924  39.649  1.00  0.00    -0.237 OA
ATOM     81  O   UNL A   1      47.749  25.336  37.647  1.00  0.00    -0.744 OA
ENDBRANCH  77  78
ENDBRANCH  56  70
BRANCH  57  82
ATOM     82  C   UNL A   1      36.745  32.978  30.799  1.00  0.00     0.058 A 
ATOM     83  C   UNL A   1      36.958  33.919  29.780  1.00  0.00     0.135 A 
ATOM     84  C   UNL A   1      35.418  32.684  31.149  1.00  0.00     0.135 A 
ATOM     85  F   UNL A   1      38.209  34.238  29.413  1.00  0.00    -0.206 F 
ATOM     86  C   UNL A   1      35.899  34.575  29.159  1.00  0.00     0.059 A 
ATOM     87  C   UNL A   1      34.342  33.308  30.525  1.00  0.00     0.059 A 
ATOM     88  F   UNL A   1      35.159  31.777  32.104  1.00  0.00    -0.206 F 
ATOM     89  C   UNL A   1      34.594  34.268  29.545  1.00  0.00     0.060 A 
BRANCH  89  90
ATOM     90  S   UNL A   1      33.223  35.122  28.736  1.00  0.00     0.124 S 
ATOM     91  O   UNL A   1      32.638  34.047  27.945  1.00  0.00    -0.237 OA
ATOM     92  O   UNL A   1      32.432  35.584  29.873  1.00  0.00    -0.237 OA
ATOM     93  O   UNL A   1      33.891  36.177  27.978  1.00  0.00    -0.744 OA
ENDBRANCH  89  90
ENDBRANCH  57  82
BRANCH  69  94
ATOM     94  C   UNL A   1      39.644  34.046  37.047  1.00  0.00     0.058 A 
ATOM     95  C   UNL A   1      38.867  33.736  38.173  1.00  0.00     0.135 A 
ATOM     96  C   UNL A   1      40.261  35.307  36.999  1.00  0.00     0.135 A 
ATOM     97  F   UNL A   1      38.251  32.547  38.263  1.00  0.00    -0.206 F 
ATOM     98  C   UNL A   1      38.705  34.646  39.213  1.00  0.00     0.059 A 
ATOM     99  C   UNL A   1      40.131  36.222  38.037  1.00  0.00     0.059 A 
ATOM    100  F   UNL A   1      41.021  35.646  35.946  1.00  0.00    -0.206 F 
ATOM    101  C   UNL A   1      39.346  35.884  39.139  1.00  0.00     0.060 A 
BRANCH 101 102
ATOM    102  S   UNL A   1      39.181  37.031  40.523  1.00  0.00     0.124 S 
ATOM    103  O   UNL A   1      38.578  36.178  41.541  1.00  0.00    -0.237 OA
ATOM    104  O   UNL A   1      40.565  37.428  40.767  1.00  0.00    -0.237 OA
ATOM    105  O   UNL A   1      38.321  38.084  39.993  1.00  0.00    -0.744 OA
ENDBRANCH 101 102
ENDBRANCH  69  94
ENDBRANCH  43  44
ENDBRANCH  35  38
ENDBRANCH  33  34
ENDBRANCH   1  33
TORSDOF 18
ENDMDL
