MODEL 1
REMARK VINA RESULT:     -11.2      0.000      0.000
REMARK SMILES C[C@H](C(=O)N[C@H](C)C(=O)NCCCCNC(=O)c1ccc(-c2c3nc(c(-c4c(F)cc(S(=O)(=O)[O-])cc4F)c4ccc([nH]4)c(-c4c(F)cc(S(=O)(=O)[O-])cc4F)c4nc(c(-c5c(F)cc(S(=O)(=O)[O-])cc5F)c5ccc2[nH]5)C=C4)C=C3)cc1)n1cnc2ccccc21
REMARK SMILES IDX 12 1 11 2 10 3 8 4 9 5 6 7 7 8 5 9 3 10 4 11 2 13 1 14 84 15
REMARK SMILES IDX 85 16 92 17 86 18 87 19 91 20 88 21 90 22 89 23 13 24 14 25
REMARK SMILES IDX 15 26 16 27 17 29 18 30 19 31 83 32 20 33 82 34 21 35 22 36
REMARK SMILES IDX 23 37 76 38 24 39 81 40 75 41 77 42 25 43 80 44 74 45 73 46
REMARK SMILES IDX 26 48 60 49 39 50 59 51 40 52 43 53 58 54 78 55 41 56 42 57
REMARK SMILES IDX 57 59 79 60 44 61 27 62 28 63 37 64 29 65 30 66 36 67 38 68
REMARK SMILES IDX 31 69 32 70 33 71 34 72 35 73 61 74 62 75 71 76 63 77 64 78
REMARK SMILES IDX 70 79 72 80 65 81 66 82 67 83 68 84 69 85 45 86 46 87 55 88
REMARK SMILES IDX 47 89 48 90 54 91 56 92 49 93 50 94 51 95 52 96 53 97
REMARK H PARENT 10 6 5 12 15 28 77 47 43 58
REMARK Flexibility Score: inf
ROOT
ATOM      1  C   UNL A   1      33.195  29.150  24.755  1.00  0.00     0.023 C 
ENDROOT
BRANCH   1   2
ATOM      2  C   UNL A   1      33.694  28.323  23.570  1.00  0.00     0.116 C 
BRANCH   2   3
ATOM      3  N   UNL A   1      32.661  28.080  22.591  1.00  0.00    -0.354 N 
ATOM      4  C   UNL A   1      31.802  27.027  22.474  1.00  0.00     0.242 C 
ATOM      5  O   UNL A   1      31.023  27.029  21.518  1.00  0.00    -0.273 OA
ATOM      6  H   UNL A   1      32.563  28.779  21.905  1.00  0.00     0.163 HD
BRANCH   4   7
ATOM      7  C   UNL A   1      31.855  25.807  23.435  1.00  0.00     0.168 C 
ATOM      8  C   UNL A   1      30.468  25.360  23.845  1.00  0.00     0.041 C 
BRANCH   7   9
ATOM      9  N   UNL A   1      32.845  24.803  23.018  1.00  0.00    -0.343 N 
ATOM     10  C   UNL A   1      33.596  23.800  23.527  1.00  0.00     0.243 C 
ATOM     11  O   UNL A   1      34.542  23.491  22.789  1.00  0.00    -0.273 OA
ATOM     12  H   UNL A   1      33.019  24.889  22.053  1.00  0.00     0.164 HD
BRANCH  10  13
ATOM     13  C   UNL A   1      33.392  23.102  24.886  1.00  0.00     0.174 C 
ATOM     14  C   UNL A   1      32.153  22.228  25.056  1.00  0.00     0.042 C 
BRANCH  13  15
ATOM     15  N   UNL A   1      34.532  22.212  25.208  1.00  0.00    -0.318 N 
ATOM     16  C   UNL A   1      34.592  20.888  24.854  1.00  0.00     0.201 A 
ATOM     17  C   UNL A   1      35.809  22.608  25.558  1.00  0.00     0.069 A 
ATOM     18  N   UNL A   1      35.819  20.422  24.903  1.00  0.00    -0.237 NA
ATOM     19  C   UNL A   1      36.591  21.481  25.317  1.00  0.00     0.088 A 
ATOM     20  C   UNL A   1      36.355  23.820  26.008  1.00  0.00     0.028 A 
ATOM     21  C   UNL A   1      37.982  21.563  25.488  1.00  0.00     0.030 A 
ATOM     22  C   UNL A   1      37.740  23.877  26.188  1.00  0.00     0.002 A 
ATOM     23  C   UNL A   1      38.546  22.770  25.920  1.00  0.00     0.002 A 
ENDBRANCH  13  15
ENDBRANCH  10  13
ENDBRANCH   7   9
ENDBRANCH   4   7
ENDBRANCH   2   3
ENDBRANCH   1   2
BRANCH   1  24
ATOM     24  C   UNL A   1      32.730  28.322  25.947  1.00  0.00     0.023 C 
BRANCH  24  25
ATOM     25  C   UNL A   1      33.491  28.583  27.241  1.00  0.00     0.116 C 
BRANCH  25  26
ATOM     26  N   UNL A   1      33.474  29.976  27.669  1.00  0.00    -0.352 N 
ATOM     27  C   UNL A   1      34.507  30.701  28.221  1.00  0.00     0.251 C 
ATOM     28  H   UNL A   1      32.623  30.456  27.548  1.00  0.00     0.163 HD
ATOM     29  O   UNL A   1      34.325  31.847  28.618  1.00  0.00    -0.269 OA
BRANCH  27  30
ATOM     30  C   UNL A   1      35.825  30.051  28.371  1.00  0.00     0.039 A 
ATOM     31  C   UNL A   1      36.715  30.065  27.296  1.00  0.00     0.014 A 
ATOM     32  C   UNL A   1      36.211  29.530  29.609  1.00  0.00     0.014 A 
ATOM     33  C   UNL A   1      38.032  29.642  27.493  1.00  0.00     0.010 A 
ATOM     34  C   UNL A   1      37.542  29.194  29.824  1.00  0.00     0.010 A 
ATOM     35  C   UNL A   1      38.468  29.252  28.770  1.00  0.00    -0.014 A 
BRANCH  35  36
ATOM     36  C   UNL A   1      39.891  28.915  29.034  1.00  0.00     0.031 A 
ATOM     37  C   UNL A   1      40.814  29.955  29.607  1.00  0.00     0.074 A 
ATOM     38  C   UNL A   1      40.368  27.703  28.685  1.00  0.00     0.049 A 
ATOM     39  N   UNL A   1      42.101  29.883  29.828  1.00  0.00    -0.248 NA
ATOM     40  C   UNL A   1      40.220  31.260  29.940  1.00  0.00     0.031 C 
ATOM     41  C   UNL A   1      39.587  26.630  28.063  1.00  0.00     0.029 A 
ATOM     42  N   UNL A   1      41.629  27.172  28.791  1.00  0.00    -0.354 N 
ATOM     43  C   UNL A   1      42.472  31.133  30.310  1.00  0.00     0.074 A 
ATOM     44  C   UNL A   1      41.287  31.962  30.291  1.00  0.00     0.031 C 
ATOM     45  C   UNL A   1      40.380  25.563  27.869  1.00  0.00     0.029 A 
ATOM     46  C   UNL A   1      41.731  25.885  28.315  1.00  0.00     0.049 A 
ATOM     47  H   UNL A   1      42.390  27.666  29.173  1.00  0.00     0.167 HD
ATOM     48  C   UNL A   1      43.683  31.545  30.754  1.00  0.00     0.037 A 
ATOM     49  C   UNL A   1      42.794  25.059  28.244  1.00  0.00     0.037 A 
ATOM     50  C   UNL A   1      44.850  30.706  30.804  1.00  0.00     0.049 A 
ATOM     51  C   UNL A   1      44.126  25.535  28.761  1.00  0.00     0.074 A 
ATOM     52  C   UNL A   1      46.107  31.008  31.297  1.00  0.00     0.029 A 
ATOM     53  N   UNL A   1      44.903  29.397  30.346  1.00  0.00    -0.354 N 
ATOM     54  N   UNL A   1      44.441  26.698  29.276  1.00  0.00    -0.248 NA
ATOM     55  C   UNL A   1      45.243  24.582  28.694  1.00  0.00     0.031 C 
ATOM     56  C   UNL A   1      46.931  29.895  31.103  1.00  0.00     0.029 A 
ATOM     57  C   UNL A   1      46.177  28.884  30.531  1.00  0.00     0.049 A 
ATOM     58  H   UNL A   1      44.149  28.906  29.949  1.00  0.00     0.167 HD
ATOM     59  C   UNL A   1      45.786  26.609  29.619  1.00  0.00     0.074 A 
ATOM     60  C   UNL A   1      46.221  25.274  29.264  1.00  0.00     0.031 C 
ATOM     61  C   UNL A   1      46.588  27.547  30.179  1.00  0.00     0.037 A 
BRANCH  48  62
ATOM     62  C   UNL A   1      43.800  32.965  31.234  1.00  0.00     0.058 A 
ATOM     63  C   UNL A   1      43.530  33.315  32.568  1.00  0.00     0.135 A 
ATOM     64  C   UNL A   1      44.211  33.984  30.361  1.00  0.00     0.135 A 
ATOM     65  F   UNL A   1      43.115  32.383  33.441  1.00  0.00    -0.206 F 
ATOM     66  C   UNL A   1      43.633  34.629  33.011  1.00  0.00     0.059 A 
ATOM     67  C   UNL A   1      44.350  35.302  30.790  1.00  0.00     0.059 A 
ATOM     68  F   UNL A   1      44.480  33.707  29.076  1.00  0.00    -0.206 F 
ATOM     69  C   UNL A   1      44.043  35.616  32.113  1.00  0.00     0.060 A 
BRANCH  69  70
ATOM     70  S   UNL A   1      44.175  37.316  32.704  1.00  0.00     0.124 S 
ATOM     71  O   UNL A   1      43.152  37.341  33.746  1.00  0.00    -0.237 OA
ATOM     72  O   UNL A   1      45.556  37.377  33.173  1.00  0.00    -0.237 OA
ATOM     73  O   UNL A   1      43.882  38.113  31.518  1.00  0.00    -0.744 OA
ENDBRANCH  69  70
ENDBRANCH  48  62
BRANCH  49  74
ATOM     74  C   UNL A   1      42.637  23.689  27.687  1.00  0.00     0.058 A 
ATOM     75  C   UNL A   1      42.476  22.582  28.534  1.00  0.00     0.135 A 
ATOM     76  C   UNL A   1      42.636  23.458  26.303  1.00  0.00     0.135 A 
ATOM     77  F   UNL A   1      42.476  22.751  29.866  1.00  0.00    -0.206 F 
ATOM     78  C   UNL A   1      42.337  21.293  28.032  1.00  0.00     0.059 A 
ATOM     79  C   UNL A   1      42.473  22.181  25.776  1.00  0.00     0.059 A 
ATOM     80  F   UNL A   1      42.768  24.485  25.449  1.00  0.00    -0.206 F 
ATOM     81  C   UNL A   1      42.334  21.102  26.648  1.00  0.00     0.060 A 
BRANCH  81  82
ATOM     82  S   UNL A   1      42.104  19.431  26.004  1.00  0.00     0.124 S 
ATOM     83  O   UNL A   1      42.585  18.619  27.115  1.00  0.00    -0.237 OA
ATOM     84  O   UNL A   1      40.666  19.391  25.758  1.00  0.00    -0.237 OA
ATOM     85  O   UNL A   1      42.937  19.418  24.804  1.00  0.00    -0.744 OA
ENDBRANCH  81  82
ENDBRANCH  49  74
BRANCH  61  86
ATOM     86  C   UNL A   1      48.009  27.156  30.477  1.00  0.00     0.058 A 
ATOM     87  C   UNL A   1      49.042  27.371  29.551  1.00  0.00     0.135 A 
ATOM     88  C   UNL A   1      48.348  26.609  31.725  1.00  0.00     0.135 A 
ATOM     89  F   UNL A   1      48.770  27.886  28.342  1.00  0.00    -0.206 F 
ATOM     90  C   UNL A   1      50.359  27.037  29.845  1.00  0.00     0.059 A 
ATOM     91  C   UNL A   1      49.662  26.292  32.050  1.00  0.00     0.059 A 
ATOM     92  F   UNL A   1      47.398  26.393  32.649  1.00  0.00    -0.206 F 
ATOM     93  C   UNL A   1      50.660  26.499  31.098  1.00  0.00     0.060 A 
BRANCH  93  94
ATOM     94  S   UNL A   1      52.379  26.101  31.481  1.00  0.00     0.124 S 
ATOM     95  O   UNL A   1      52.254  24.755  32.029  1.00  0.00    -0.237 OA
ATOM     96  O   UNL A   1      53.020  26.196  30.174  1.00  0.00    -0.237 OA
ATOM     97  O   UNL A   1      52.762  27.135  32.438  1.00  0.00    -0.744 OA
ENDBRANCH  93  94
ENDBRANCH  61  86
ENDBRANCH  35  36
ENDBRANCH  27  30
ENDBRANCH  25  26
ENDBRANCH  24  25
ENDBRANCH   1  24
TORSDOF 17
ENDMDL
MODEL 2
REMARK VINA RESULT:     -11.0      1.138      1.679
REMARK SMILES C[C@H](C(=O)N[C@H](C)C(=O)NCCCCNC(=O)c1ccc(-c2c3nc(c(-c4c(F)cc(S(=O)(=O)[O-])cc4F)c4ccc([nH]4)c(-c4c(F)cc(S(=O)(=O)[O-])cc4F)c4nc(c(-c5c(F)cc(S(=O)(=O)[O-])cc5F)c5ccc2[nH]5)C=C4)C=C3)cc1)n1cnc2ccccc21
REMARK SMILES IDX 12 1 11 2 10 3 8 4 9 5 6 7 7 8 5 9 3 10 4 11 2 13 1 14 84 15
REMARK SMILES IDX 85 16 92 17 86 18 87 19 91 20 88 21 90 22 89 23 13 24 14 25
REMARK SMILES IDX 15 26 16 27 17 29 18 30 19 31 83 32 20 33 82 34 21 35 22 36
REMARK SMILES IDX 23 37 76 38 24 39 81 40 75 41 77 42 25 43 80 44 74 45 73 46
REMARK SMILES IDX 26 48 60 49 39 50 59 51 40 52 43 53 58 54 78 55 41 56 42 57
REMARK SMILES IDX 57 59 79 60 44 61 27 62 28 63 37 64 29 65 30 66 36 67 38 68
REMARK SMILES IDX 31 69 32 70 33 71 34 72 35 73 61 74 62 75 71 76 63 77 64 78
REMARK SMILES IDX 70 79 72 80 65 81 66 82 67 83 68 84 69 85 45 86 46 87 55 88
REMARK SMILES IDX 47 89 48 90 54 91 56 92 49 93 50 94 51 95 52 96 53 97
REMARK H PARENT 10 6 5 12 15 28 77 47 43 58
REMARK Flexibility Score: inf
ROOT
ATOM      1  C   UNL A   1      32.906  29.549  24.973  1.00  0.00     0.023 C 
ENDROOT
BRANCH   1   2
ATOM      2  C   UNL A   1      31.382  29.588  25.080  1.00  0.00     0.116 C 
BRANCH   2   3
ATOM      3  N   UNL A   1      30.736  29.547  23.789  1.00  0.00    -0.354 N 
ATOM      4  C   UNL A   1      30.498  28.484  22.968  1.00  0.00     0.242 C 
ATOM      5  O   UNL A   1      29.955  28.711  21.884  1.00  0.00    -0.273 OA
ATOM      6  H   UNL A   1      30.419  30.416  23.453  1.00  0.00     0.163 HD
BRANCH   4   7
ATOM      7  C   UNL A   1      30.981  27.048  23.315  1.00  0.00     0.168 C 
ATOM      8  C   UNL A   1      29.841  26.180  23.804  1.00  0.00     0.041 C 
BRANCH   7   9
ATOM      9  N   UNL A   1      31.921  26.513  22.318  1.00  0.00    -0.343 N 
ATOM     10  C   UNL A   1      32.705  25.434  22.094  1.00  0.00     0.243 C 
ATOM     11  O   UNL A   1      33.579  25.650  21.243  1.00  0.00    -0.273 OA
ATOM     12  H   UNL A   1      32.009  27.148  21.571  1.00  0.00     0.164 HD
BRANCH  10  13
ATOM     13  C   UNL A   1      32.616  24.073  22.809  1.00  0.00     0.174 C 
ATOM     14  C   UNL A   1      32.883  22.817  21.984  1.00  0.00     0.042 C 
BRANCH  13  15
ATOM     15  N   UNL A   1      33.574  23.996  23.937  1.00  0.00    -0.318 N 
ATOM     16  C   UNL A   1      34.300  25.064  24.398  1.00  0.00     0.201 A 
ATOM     17  C   UNL A   1      33.628  23.007  24.902  1.00  0.00     0.069 A 
ATOM     18  N   UNL A   1      34.770  24.853  25.606  1.00  0.00    -0.237 NA
ATOM     19  C   UNL A   1      34.345  23.590  25.944  1.00  0.00     0.088 A 
ATOM     20  C   UNL A   1      33.098  21.711  24.987  1.00  0.00     0.028 A 
ATOM     21  C   UNL A   1      34.515  22.879  27.142  1.00  0.00     0.030 A 
ATOM     22  C   UNL A   1      33.291  21.012  26.182  1.00  0.00     0.002 A 
ATOM     23  C   UNL A   1      33.978  21.589  27.250  1.00  0.00     0.002 A 
ENDBRANCH  13  15
ENDBRANCH  10  13
ENDBRANCH   7   9
ENDBRANCH   4   7
ENDBRANCH   2   3
ENDBRANCH   1   2
BRANCH   1  24
ATOM     24  C   UNL A   1      33.561  28.418  25.759  1.00  0.00     0.023 C 
BRANCH  24  25
ATOM     25  C   UNL A   1      33.500  28.576  27.273  1.00  0.00     0.116 C 
BRANCH  25  26
ATOM     26  N   UNL A   1      33.469  29.961  27.725  1.00  0.00    -0.352 N 
ATOM     27  C   UNL A   1      34.493  30.687  28.292  1.00  0.00     0.251 C 
ATOM     28  H   UNL A   1      32.613  30.435  27.611  1.00  0.00     0.163 HD
ATOM     29  O   UNL A   1      34.300  31.823  28.709  1.00  0.00    -0.269 OA
BRANCH  27  30
ATOM     30  C   UNL A   1      35.817  30.046  28.434  1.00  0.00     0.039 A 
ATOM     31  C   UNL A   1      36.695  30.057  27.349  1.00  0.00     0.014 A 
ATOM     32  C   UNL A   1      36.220  29.539  29.672  1.00  0.00     0.014 A 
ATOM     33  C   UNL A   1      38.017  29.643  27.535  1.00  0.00     0.010 A 
ATOM     34  C   UNL A   1      37.556  29.214  29.874  1.00  0.00     0.010 A 
ATOM     35  C   UNL A   1      38.470  29.269  28.810  1.00  0.00    -0.014 A 
BRANCH  35  36
ATOM     36  C   UNL A   1      39.898  28.943  29.061  1.00  0.00     0.031 A 
ATOM     37  C   UNL A   1      40.817  29.990  29.630  1.00  0.00     0.074 A 
ATOM     38  C   UNL A   1      40.382  27.737  28.704  1.00  0.00     0.049 A 
ATOM     39  N   UNL A   1      42.106  29.929  29.840  1.00  0.00    -0.248 NA
ATOM     40  C   UNL A   1      40.214  31.288  29.973  1.00  0.00     0.031 C 
ATOM     41  C   UNL A   1      39.607  26.658  28.085  1.00  0.00     0.029 A 
ATOM     42  N   UNL A   1      41.649  27.216  28.799  1.00  0.00    -0.354 N 
ATOM     43  C   UNL A   1      42.469  31.180  30.323  1.00  0.00     0.074 A 
ATOM     44  C   UNL A   1      41.277  31.998  30.317  1.00  0.00     0.031 C 
ATOM     45  C   UNL A   1      40.407  25.599  27.881  1.00  0.00     0.029 A 
ATOM     46  C   UNL A   1      41.759  25.932  28.317  1.00  0.00     0.049 A 
ATOM     47  H   UNL A   1      42.410  27.716  29.176  1.00  0.00     0.167 HD
ATOM     48  C   UNL A   1      43.680  31.602  30.758  1.00  0.00     0.037 A 
ATOM     49  C   UNL A   1      42.829  25.116  28.234  1.00  0.00     0.037 A 
ATOM     50  C   UNL A   1      44.856  30.772  30.796  1.00  0.00     0.049 A 
ATOM     51  C   UNL A   1      44.160  25.602  28.742  1.00  0.00     0.074 A 
ATOM     52  C   UNL A   1      46.113  31.084  31.280  1.00  0.00     0.029 A 
ATOM     53  N   UNL A   1      44.917  29.466  30.333  1.00  0.00    -0.354 N 
ATOM     54  N   UNL A   1      44.470  26.767  29.258  1.00  0.00    -0.248 NA
ATOM     55  C   UNL A   1      45.285  24.659  28.662  1.00  0.00     0.031 C 
ATOM     56  C   UNL A   1      46.946  29.980  31.075  1.00  0.00     0.029 A 
ATOM     57  C   UNL A   1      46.196  28.963  30.507  1.00  0.00     0.049 A 
ATOM     58  H   UNL A   1      44.163  28.969  29.941  1.00  0.00     0.167 HD
ATOM     59  C   UNL A   1      45.818  26.688  29.590  1.00  0.00     0.074 A 
ATOM     60  C   UNL A   1      46.261  25.358  29.227  1.00  0.00     0.031 C 
ATOM     61  C   UNL A   1      46.617  27.632  30.147  1.00  0.00     0.037 A 
BRANCH  48  62
ATOM     62  C   UNL A   1      43.789  33.021  31.243  1.00  0.00     0.058 A 
ATOM     63  C   UNL A   1      43.643  33.348  32.601  1.00  0.00     0.135 A 
ATOM     64  C   UNL A   1      44.066  34.064  30.345  1.00  0.00     0.135 A 
ATOM     65  F   UNL A   1      43.359  32.392  33.501  1.00  0.00    -0.206 F 
ATOM     66  C   UNL A   1      43.738  34.661  33.049  1.00  0.00     0.059 A 
ATOM     67  C   UNL A   1      44.195  35.382  30.774  1.00  0.00     0.059 A 
ATOM     68  F   UNL A   1      44.213  33.809  29.036  1.00  0.00    -0.206 F 
ATOM     69  C   UNL A   1      44.014  35.672  32.126  1.00  0.00     0.060 A 
BRANCH  69  70
ATOM     70  S   UNL A   1      44.138  37.371  32.723  1.00  0.00     0.124 S 
ATOM     71  O   UNL A   1      45.481  37.379  33.296  1.00  0.00    -0.237 OA
ATOM     72  O   UNL A   1      43.968  38.145  31.497  1.00  0.00    -0.237 OA
ATOM     73  O   UNL A   1      43.045  37.475  33.684  1.00  0.00    -0.744 OA
ENDBRANCH  69  70
ENDBRANCH  48  62
BRANCH  49  74
ATOM     74  C   UNL A   1      42.680  23.746  27.675  1.00  0.00     0.058 A 
ATOM     75  C   UNL A   1      42.497  22.640  28.518  1.00  0.00     0.135 A 
ATOM     76  C   UNL A   1      42.707  23.515  26.291  1.00  0.00     0.135 A 
ATOM     77  F   UNL A   1      42.470  22.809  29.849  1.00  0.00    -0.206 F 
ATOM     78  C   UNL A   1      42.364  21.351  28.012  1.00  0.00     0.059 A 
ATOM     79  C   UNL A   1      42.552  22.239  25.760  1.00  0.00     0.059 A 
ATOM     80  F   UNL A   1      42.860  24.542  25.440  1.00  0.00    -0.206 F 
ATOM     81  C   UNL A   1      42.391  21.161  26.629  1.00  0.00     0.060 A 
BRANCH  81  82
ATOM     82  S   UNL A   1      42.169  19.490  25.980  1.00  0.00     0.124 S 
ATOM     83  O   UNL A   1      40.727  19.444  25.771  1.00  0.00    -0.237 OA
ATOM     84  O   UNL A   1      42.989  19.518  24.773  1.00  0.00    -0.237 OA
ATOM     85  O   UNL A   1      42.680  18.643  27.054  1.00  0.00    -0.744 OA
ENDBRANCH  81  82
ENDBRANCH  49  74
BRANCH  61  86
ATOM     86  C   UNL A   1      48.043  27.252  30.431  1.00  0.00     0.058 A 
ATOM     87  C   UNL A   1      49.089  27.620  29.571  1.00  0.00     0.135 A 
ATOM     88  C   UNL A   1      48.371  26.558  31.607  1.00  0.00     0.135 A 
ATOM     89  F   UNL A   1      48.827  28.280  28.432  1.00  0.00    -0.206 F 
ATOM     90  C   UNL A   1      50.411  27.294  29.857  1.00  0.00     0.059 A 
ATOM     91  C   UNL A   1      49.688  26.245  31.925  1.00  0.00     0.059 A 
ATOM     92  F   UNL A   1      47.409  26.192  32.468  1.00  0.00    -0.206 F 
ATOM     93  C   UNL A   1      50.700  26.607  31.037  1.00  0.00     0.060 A 
BRANCH  93  94
ATOM     94  S   UNL A   1      52.423  26.220  31.414  1.00  0.00     0.124 S 
ATOM     95  O   UNL A   1      52.962  25.955  30.084  1.00  0.00    -0.237 OA
ATOM     96  O   UNL A   1      52.887  27.447  32.053  1.00  0.00    -0.237 OA
ATOM     97  O   UNL A   1      52.326  25.060  32.294  1.00  0.00    -0.744 OA
ENDBRANCH  93  94
ENDBRANCH  61  86
ENDBRANCH  35  36
ENDBRANCH  27  30
ENDBRANCH  25  26
ENDBRANCH  24  25
ENDBRANCH   1  24
TORSDOF 17
ENDMDL
MODEL 3
REMARK VINA RESULT:     -11.0      2.974      4.411
REMARK SMILES C[C@H](C(=O)N[C@H](C)C(=O)NCCCCNC(=O)c1ccc(-c2c3nc(c(-c4c(F)cc(S(=O)(=O)[O-])cc4F)c4ccc([nH]4)c(-c4c(F)cc(S(=O)(=O)[O-])cc4F)c4nc(c(-c5c(F)cc(S(=O)(=O)[O-])cc5F)c5ccc2[nH]5)C=C4)C=C3)cc1)n1cnc2ccccc21
REMARK SMILES IDX 12 1 11 2 10 3 8 4 9 5 6 7 7 8 5 9 3 10 4 11 2 13 1 14 84 15
REMARK SMILES IDX 85 16 92 17 86 18 87 19 91 20 88 21 90 22 89 23 13 24 14 25
REMARK SMILES IDX 15 26 16 27 17 29 18 30 19 31 83 32 20 33 82 34 21 35 22 36
REMARK SMILES IDX 23 37 76 38 24 39 81 40 75 41 77 42 25 43 80 44 74 45 73 46
REMARK SMILES IDX 26 48 60 49 39 50 59 51 40 52 43 53 58 54 78 55 41 56 42 57
REMARK SMILES IDX 57 59 79 60 44 61 27 62 28 63 37 64 29 65 30 66 36 67 38 68
REMARK SMILES IDX 31 69 32 70 33 71 34 72 35 73 61 74 62 75 71 76 63 77 64 78
REMARK SMILES IDX 70 79 72 80 65 81 66 82 67 83 68 84 69 85 45 86 46 87 55 88
REMARK SMILES IDX 47 89 48 90 54 91 56 92 49 93 50 94 51 95 52 96 53 97
REMARK H PARENT 10 6 5 12 15 28 77 47 43 58
REMARK Flexibility Score: inf
ROOT
ATOM      1  C   UNL A   1      34.919  31.339  27.685  1.00  0.00     0.023 C 
ENDROOT
BRANCH   1   2
ATOM      2  C   UNL A   1      33.427  31.459  27.373  1.00  0.00     0.116 C 
BRANCH   2   3
ATOM      3  N   UNL A   1      32.725  30.208  27.545  1.00  0.00    -0.354 N 
ATOM      4  C   UNL A   1      32.369  29.275  26.615  1.00  0.00     0.242 C 
ATOM      5  O   UNL A   1      31.733  28.294  27.007  1.00  0.00    -0.273 OA
ATOM      6  H   UNL A   1      32.465  29.999  28.470  1.00  0.00     0.163 HD
BRANCH   4   7
ATOM      7  C   UNL A   1      32.649  29.470  25.100  1.00  0.00     0.168 C 
ATOM      8  C   UNL A   1      33.843  28.658  24.644  1.00  0.00     0.041 C 
BRANCH   7   9
ATOM      9  N   UNL A   1      31.419  29.462  24.293  1.00  0.00    -0.343 N 
ATOM     10  C   UNL A   1      30.505  28.601  23.789  1.00  0.00     0.243 C 
ATOM     11  O   UNL A   1      29.840  29.099  22.869  1.00  0.00    -0.273 OA
ATOM     12  H   UNL A   1      31.184  30.383  24.038  1.00  0.00     0.164 HD
BRANCH  10  13
ATOM     13  C   UNL A   1      30.287  27.139  24.221  1.00  0.00     0.174 C 
ATOM     14  C   UNL A   1      28.959  26.481  23.858  1.00  0.00     0.042 C 
BRANCH  13  15
ATOM     15  N   UNL A   1      31.321  26.250  23.642  1.00  0.00    -0.318 N 
ATOM     16  C   UNL A   1      31.710  26.284  22.327  1.00  0.00     0.201 A 
ATOM     17  C   UNL A   1      32.280  25.541  24.343  1.00  0.00     0.069 A 
ATOM     18  N   UNL A   1      32.871  25.695  22.144  1.00  0.00    -0.237 NA
ATOM     19  C   UNL A   1      33.250  25.248  23.387  1.00  0.00     0.088 A 
ATOM     20  C   UNL A   1      32.417  25.175  25.691  1.00  0.00     0.028 A 
ATOM     21  C   UNL A   1      34.429  24.598  23.784  1.00  0.00     0.030 A 
ATOM     22  C   UNL A   1      33.591  24.514  26.063  1.00  0.00     0.002 A 
ATOM     23  C   UNL A   1      34.590  24.240  25.129  1.00  0.00     0.002 A 
ENDBRANCH  13  15
ENDBRANCH  10  13
ENDBRANCH   7   9
ENDBRANCH   4   7
ENDBRANCH   2   3
ENDBRANCH   1   2
BRANCH   1  24
ATOM     24  C   UNL A   1      35.572  32.643  28.128  1.00  0.00     0.023 C 
BRANCH  24  25
ATOM     25  C   UNL A   1      36.221  32.596  29.506  1.00  0.00     0.116 C 
BRANCH  25  26
ATOM     26  N   UNL A   1      35.796  31.466  30.323  1.00  0.00    -0.352 N 
ATOM     27  C   UNL A   1      36.522  30.341  30.649  1.00  0.00     0.251 C 
ATOM     28  H   UNL A   1      34.882  31.512  30.685  1.00  0.00     0.163 HD
ATOM     29  O   UNL A   1      36.005  29.422  31.275  1.00  0.00    -0.269 OA
BRANCH  27  30
ATOM     30  C   UNL A   1      37.920  30.243  30.182  1.00  0.00     0.039 A 
ATOM     31  C   UNL A   1      38.952  30.272  31.122  1.00  0.00     0.014 A 
ATOM     32  C   UNL A   1      38.193  30.013  28.831  1.00  0.00     0.014 A 
ATOM     33  C   UNL A   1      40.255  29.973  30.716  1.00  0.00     0.010 A 
ATOM     34  C   UNL A   1      39.472  29.629  28.449  1.00  0.00     0.010 A 
ATOM     35  C   UNL A   1      40.516  29.598  29.387  1.00  0.00    -0.014 A 
BRANCH  35  36
ATOM     36  C   UNL A   1      41.867  29.157  28.957  1.00  0.00     0.031 A 
ATOM     37  C   UNL A   1      42.994  30.152  28.886  1.00  0.00     0.074 A 
ATOM     38  C   UNL A   1      42.060  27.885  28.556  1.00  0.00     0.049 A 
ATOM     39  N   UNL A   1      44.217  29.983  28.457  1.00  0.00    -0.248 NA
ATOM     40  C   UNL A   1      42.695  31.526  29.322  1.00  0.00     0.031 C 
ATOM     41  C   UNL A   1      41.033  26.840  28.518  1.00  0.00     0.029 A 
ATOM     42  N   UNL A   1      43.187  27.253  28.090  1.00  0.00    -0.354 N 
ATOM     43  C   UNL A   1      44.827  31.229  28.555  1.00  0.00     0.074 A 
ATOM     44  C   UNL A   1      43.822  32.155  29.026  1.00  0.00     0.031 C 
ATOM     45  C   UNL A   1      41.582  25.696  28.080  1.00  0.00     0.029 A 
ATOM     46  C   UNL A   1      42.989  25.929  27.770  1.00  0.00     0.049 A 
ATOM     47  H   UNL A   1      44.056  27.705  27.994  1.00  0.00     0.167 HD
ATOM     48  C   UNL A   1      46.113  31.564  28.301  1.00  0.00     0.037 A 
ATOM     49  C   UNL A   1      43.843  25.010  27.280  1.00  0.00     0.037 A 
ATOM     50  C   UNL A   1      47.118  30.630  27.866  1.00  0.00     0.049 A 
ATOM     51  C   UNL A   1      45.273  25.403  27.023  1.00  0.00     0.074 A 
ATOM     52  C   UNL A   1      48.465  30.857  27.646  1.00  0.00     0.029 A 
ATOM     53  N   UNL A   1      46.886  29.291  27.588  1.00  0.00    -0.354 N 
ATOM     54  N   UNL A   1      45.849  26.570  27.186  1.00  0.00    -0.248 NA
ATOM     55  C   UNL A   1      46.172  24.353  26.524  1.00  0.00     0.031 C 
ATOM     56  C   UNL A   1      49.040  29.664  27.197  1.00  0.00     0.029 A 
ATOM     57  C   UNL A   1      48.063  28.682  27.183  1.00  0.00     0.049 A 
ATOM     58  H   UNL A   1      46.015  28.840  27.668  1.00  0.00     0.167 HD
ATOM     59  C   UNL A   1      47.182  26.389  26.836  1.00  0.00     0.074 A 
ATOM     60  C   UNL A   1      47.330  24.997  26.463  1.00  0.00     0.031 C 
ATOM     61  C   UNL A   1      48.193  27.292  26.825  1.00  0.00     0.037 A 
BRANCH  48  62
ATOM     62  C   UNL A   1      46.509  33.001  28.503  1.00  0.00     0.058 A 
ATOM     63  C   UNL A   1      46.435  33.937  27.458  1.00  0.00     0.135 A 
ATOM     64  C   UNL A   1      46.942  33.454  29.758  1.00  0.00     0.135 A 
ATOM     65  F   UNL A   1      46.045  33.554  26.232  1.00  0.00    -0.206 F 
ATOM     66  C   UNL A   1      46.806  35.265  27.643  1.00  0.00     0.059 A 
ATOM     67  C   UNL A   1      47.290  34.785  29.975  1.00  0.00     0.059 A 
ATOM     68  F   UNL A   1      47.033  32.602  30.791  1.00  0.00    -0.206 F 
ATOM     69  C   UNL A   1      47.233  35.679  28.906  1.00  0.00     0.060 A 
BRANCH  69  70
ATOM     70  S   UNL A   1      47.708  37.405  29.131  1.00  0.00     0.124 S 
ATOM     71  O   UNL A   1      49.118  37.274  29.487  1.00  0.00    -0.237 OA
ATOM     72  O   UNL A   1      47.438  37.977  27.816  1.00  0.00    -0.237 OA
ATOM     73  O   UNL A   1      46.831  37.863  30.203  1.00  0.00    -0.744 OA
ENDBRANCH  69  70
ENDBRANCH  48  62
BRANCH  49  74
ATOM     74  C   UNL A   1      43.378  23.620  27.026  1.00  0.00     0.058 A 
ATOM     75  C   UNL A   1      43.098  23.181  25.724  1.00  0.00     0.135 A 
ATOM     76  C   UNL A   1      43.211  22.702  28.075  1.00  0.00     0.135 A 
ATOM     77  F   UNL A   1      43.237  24.023  24.687  1.00  0.00    -0.206 F 
ATOM     78  C   UNL A   1      42.655  21.888  25.469  1.00  0.00     0.059 A 
ATOM     79  C   UNL A   1      42.792  21.396  27.843  1.00  0.00     0.059 A 
ATOM     80  F   UNL A   1      43.483  23.067  29.337  1.00  0.00    -0.206 F 
ATOM     81  C   UNL A   1      42.506  21.000  26.537  1.00  0.00     0.060 A 
BRANCH  81  82
ATOM     82  S   UNL A   1      41.975  19.309  26.192  1.00  0.00     0.124 S 
ATOM     83  O   UNL A   1      40.547  19.491  25.958  1.00  0.00    -0.237 OA
ATOM     84  O   UNL A   1      42.776  18.969  25.020  1.00  0.00    -0.237 OA
ATOM     85  O   UNL A   1      42.330  18.591  27.413  1.00  0.00    -0.744 OA
ENDBRANCH  81  82
ENDBRANCH  49  74
BRANCH  61  86
ATOM     86  C   UNL A   1      49.557  26.800  26.431  1.00  0.00     0.058 A 
ATOM     87  C   UNL A   1      50.413  26.180  27.355  1.00  0.00     0.135 A 
ATOM     88  C   UNL A   1      49.992  26.902  25.099  1.00  0.00     0.135 A 
ATOM     89  F   UNL A   1      50.047  26.063  28.641  1.00  0.00    -0.206 F 
ATOM     90  C   UNL A   1      51.661  25.697  26.977  1.00  0.00     0.059 A 
ATOM     91  C   UNL A   1      51.225  26.403  24.694  1.00  0.00     0.059 A 
ATOM     92  F   UNL A   1      49.207  27.477  24.174  1.00  0.00    -0.206 F 
ATOM     93  C   UNL A   1      52.057  25.813  25.643  1.00  0.00     0.060 A 
BRANCH  93  94
ATOM     94  S   UNL A   1      53.666  25.151  25.157  1.00  0.00     0.124 S 
ATOM     95  O   UNL A   1      54.534  25.700  26.194  1.00  0.00    -0.237 OA
ATOM     96  O   UNL A   1      53.442  23.711  25.215  1.00  0.00    -0.237 OA
ATOM     97  O   UNL A   1      53.867  25.696  23.818  1.00  0.00    -0.744 OA
ENDBRANCH  93  94
ENDBRANCH  61  86
ENDBRANCH  35  36
ENDBRANCH  27  30
ENDBRANCH  25  26
ENDBRANCH  24  25
ENDBRANCH   1  24
TORSDOF 17
ENDMDL
