MODEL 1
REMARK VINA RESULT:     -10.3      0.000      0.000
REMARK SMILES N#CCS(=O)(=O)NC[C@H]1CC[C@H](C(=O)NCCCCNC(=O)c2ccc(-c3c4nc(c(-c5c(F)cc(S(=O)(=O)[O-])cc5F)c5ccc([nH]5)c(-c5c(F)cc(S(=O)(=O)[O-])cc5F)c5nc(c(-c6c(F)cc(S(=O)(=O)[O-])cc6F)c6ccc3[nH]6)C=C5)C=C4)cc2)O1
REMARK SMILES IDX 16 1 15 2 13 3 14 4 12 6 9 7 10 8 89 9 11 10 8 11 7 12 4 14
REMARK SMILES IDX 5 15 6 16 3 17 2 18 1 19 17 20 18 21 19 22 20 23 21 24 22 26
REMARK SMILES IDX 23 27 24 28 88 29 25 30 87 31 26 32 27 33 28 34 81 35 29 36
REMARK SMILES IDX 86 37 80 38 82 39 30 40 85 41 79 42 78 43 31 45 65 46 44 47
REMARK SMILES IDX 64 48 45 49 48 50 63 51 83 52 46 53 47 54 62 56 84 57 49 58
REMARK SMILES IDX 32 59 33 60 42 61 34 62 35 63 41 64 43 65 36 66 37 67 38 68
REMARK SMILES IDX 39 69 40 70 66 71 67 72 76 73 68 74 69 75 75 76 77 77 70 78
REMARK SMILES IDX 71 79 72 80 73 81 74 82 50 83 51 84 60 85 52 86 53 87 59 88
REMARK SMILES IDX 61 89 54 90 55 91 56 92 57 93 58 94
REMARK H PARENT 15 5 7 13 20 25 82 44 48 55
REMARK Flexibility Score: inf
ROOT
ATOM      1  C   UNL A   1      39.357  21.704  26.247  1.00  0.00     0.116 C 
ENDROOT
BRANCH   1   2
ATOM      2  N   UNL A   1      39.028  23.038  26.683  1.00  0.00    -0.354 N 
ATOM      3  C   UNL A   1      37.895  23.769  26.488  1.00  0.00     0.249 C 
ATOM      4  O   UNL A   1      37.868  24.904  26.977  1.00  0.00    -0.272 OA
ATOM      5  H   UNL A   1      39.731  23.492  27.203  1.00  0.00     0.163 HD
BRANCH   3   6
ATOM      6  C   UNL A   1      36.700  23.257  25.639  1.00  0.00     0.207 C 
ATOM      7  C   UNL A   1      36.049  21.042  25.200  1.00  0.00     0.134 C 
ATOM      8  C   UNL A   1      36.820  21.507  23.979  1.00  0.00     0.037 C 
ATOM      9  O   UNL A   1      35.977  22.132  26.126  1.00  0.00    -0.364 OA
ATOM     10  C   UNL A   1      37.042  22.987  24.185  1.00  0.00     0.045 C 
BRANCH   7  11
ATOM     11  C   UNL A   1      34.654  20.465  24.949  1.00  0.00     0.130 C 
BRANCH  11  12
ATOM     12  N   UNL A   1      34.601  18.983  24.993  1.00  0.00    -0.212 NA
ATOM     13  H   UNL A   1      35.351  18.661  24.380  1.00  0.00     0.141 HD
BRANCH  12  14
ATOM     14  S   UNL A   1      33.247  18.076  24.573  1.00  0.00     0.225 S 
ATOM     15  O   UNL A   1      32.611  18.665  23.419  1.00  0.00    -0.211 OA
ATOM     16  O   UNL A   1      32.507  17.988  25.816  1.00  0.00    -0.211 OA
BRANCH  14  17
ATOM     17  C   UNL A   1      33.816  16.431  24.199  1.00  0.00     0.273 C 
BRANCH  17  18
ATOM     18  C   UNL A   1      34.991  16.138  24.995  1.00  0.00     0.080 C 
ATOM     19  N   UNL A   1      35.881  15.926  25.712  1.00  0.00    -0.197 NA
ENDBRANCH  17  18
ENDBRANCH  14  17
ENDBRANCH  12  14
ENDBRANCH  11  12
ENDBRANCH   7  11
ENDBRANCH   3   6
ENDBRANCH   1   2
BRANCH   1  20
ATOM     20  C   UNL A   1      40.864  21.491  26.150  1.00  0.00     0.023 C 
BRANCH  20  21
ATOM     21  C   UNL A   1      41.597  21.729  27.467  1.00  0.00     0.023 C 
BRANCH  21  22
ATOM     22  C   UNL A   1      42.519  22.939  27.454  1.00  0.00     0.116 C 
BRANCH  22  23
ATOM     23  N   UNL A   1      42.432  23.719  26.227  1.00  0.00    -0.352 N 
ATOM     24  C   UNL A   1      42.127  25.055  26.101  1.00  0.00     0.251 C 
ATOM     25  H   UNL A   1      42.612  23.234  25.390  1.00  0.00     0.163 HD
ATOM     26  O   UNL A   1      41.939  25.554  24.998  1.00  0.00    -0.269 OA
BRANCH  24  27
ATOM     27  C   UNL A   1      41.995  25.861  27.331  1.00  0.00     0.039 A 
ATOM     28  C   UNL A   1      42.904  26.891  27.571  1.00  0.00     0.014 A 
ATOM     29  C   UNL A   1      40.919  25.644  28.197  1.00  0.00     0.014 A 
ATOM     30  C   UNL A   1      42.698  27.742  28.656  1.00  0.00     0.010 A 
ATOM     31  C   UNL A   1      40.658  26.557  29.208  1.00  0.00     0.010 A 
ATOM     32  C   UNL A   1      41.554  27.605  29.462  1.00  0.00    -0.014 A 
BRANCH  32  33
ATOM     33  C   UNL A   1      41.295  28.531  30.594  1.00  0.00     0.031 A 
ATOM     34  C   UNL A   1      42.126  28.432  31.845  1.00  0.00     0.074 A 
ATOM     35  C   UNL A   1      40.288  29.422  30.515  1.00  0.00     0.049 A 
ATOM     36  N   UNL A   1      42.039  29.127  32.950  1.00  0.00    -0.248 NA
ATOM     37  C   UNL A   1      43.173  27.399  31.872  1.00  0.00     0.031 C 
ATOM     38  C   UNL A   1      39.379  29.574  29.377  1.00  0.00     0.029 A 
ATOM     39  N   UNL A   1      39.856  30.368  31.411  1.00  0.00    -0.354 N 
ATOM     40  C   UNL A   1      43.007  28.607  33.800  1.00  0.00     0.074 A 
ATOM     41  C   UNL A   1      43.619  27.493  33.113  1.00  0.00     0.031 C 
ATOM     42  C   UNL A   1      38.522  30.577  29.628  1.00  0.00     0.029 A 
ATOM     43  C   UNL A   1      38.787  31.107  30.962  1.00  0.00     0.049 A 
ATOM     44  H   UNL A   1      40.272  30.503  32.293  1.00  0.00     0.167 HD
ATOM     45  C   UNL A   1      43.375  29.036  35.031  1.00  0.00     0.037 A 
ATOM     46  C   UNL A   1      38.094  32.096  31.561  1.00  0.00     0.037 A 
ATOM     47  C   UNL A   1      42.764  30.154  35.702  1.00  0.00     0.049 A 
ATOM     48  C   UNL A   1      38.506  32.547  32.936  1.00  0.00     0.074 A 
ATOM     49  C   UNL A   1      43.095  30.706  36.926  1.00  0.00     0.029 A 
ATOM     50  N   UNL A   1      41.688  30.882  35.213  1.00  0.00    -0.354 N 
ATOM     51  N   UNL A   1      39.473  32.094  33.697  1.00  0.00    -0.248 NA
ATOM     52  C   UNL A   1      37.741  33.651  33.530  1.00  0.00     0.031 C 
ATOM     53  C   UNL A   1      42.174  31.720  37.210  1.00  0.00     0.029 A 
ATOM     54  C   UNL A   1      41.321  31.856  36.127  1.00  0.00     0.049 A 
ATOM     55  H   UNL A   1      41.249  30.727  34.345  1.00  0.00     0.167 HD
ATOM     56  C   UNL A   1      39.456  32.879  34.845  1.00  0.00     0.074 A 
ATOM     57  C   UNL A   1      38.388  33.842  34.671  1.00  0.00     0.031 C 
ATOM     58  C   UNL A   1      40.255  32.813  35.940  1.00  0.00     0.037 A 
BRANCH  45  59
ATOM     59  C   UNL A   1      44.477  28.285  35.731  1.00  0.00     0.058 A 
ATOM     60  C   UNL A   1      44.213  27.212  36.600  1.00  0.00     0.135 A 
ATOM     61  C   UNL A   1      45.821  28.633  35.520  1.00  0.00     0.135 A 
ATOM     62  F   UNL A   1      42.947  26.841  36.855  1.00  0.00    -0.206 F 
ATOM     63  C   UNL A   1      45.236  26.543  37.266  1.00  0.00     0.059 A 
ATOM     64  C   UNL A   1      46.862  27.951  36.143  1.00  0.00     0.059 A 
ATOM     65  F   UNL A   1      46.136  29.648  34.700  1.00  0.00    -0.206 F 
ATOM     66  C   UNL A   1      46.558  26.920  37.030  1.00  0.00     0.060 A 
BRANCH  66  67
ATOM     67  S   UNL A   1      47.871  26.046  37.905  1.00  0.00     0.124 S 
ATOM     68  O   UNL A   1      47.614  24.663  37.511  1.00  0.00    -0.237 OA
ATOM     69  O   UNL A   1      49.074  26.650  37.342  1.00  0.00    -0.237 OA
ATOM     70  O   UNL A   1      47.613  26.355  39.307  1.00  0.00    -0.744 OA
ENDBRANCH  66  67
ENDBRANCH  45  59
BRANCH  46  71
ATOM     71  C   UNL A   1      36.954  32.737  30.849  1.00  0.00     0.058 A 
ATOM     72  C   UNL A   1      37.168  33.656  29.810  1.00  0.00     0.135 A 
ATOM     73  C   UNL A   1      35.625  32.422  31.174  1.00  0.00     0.135 A 
ATOM     74  F   UNL A   1      38.419  33.997  29.464  1.00  0.00    -0.206 F 
ATOM     75  C   UNL A   1      36.109  34.247  29.128  1.00  0.00     0.059 A 
ATOM     76  C   UNL A   1      34.550  32.976  30.486  1.00  0.00     0.059 A 
ATOM     77  F   UNL A   1      35.363  31.538  32.150  1.00  0.00    -0.206 F 
ATOM     78  C   UNL A   1      34.803  33.893  29.468  1.00  0.00     0.060 A 
BRANCH  78  79
ATOM     79  S   UNL A   1      33.440  34.616  28.530  1.00  0.00     0.124 S 
ATOM     80  O   UNL A   1      32.522  35.006  29.595  1.00  0.00    -0.237 OA
ATOM     81  O   UNL A   1      34.102  35.708  27.824  1.00  0.00    -0.237 OA
ATOM     82  O   UNL A   1      32.991  33.513  27.684  1.00  0.00    -0.744 OA
ENDBRANCH  78  79
ENDBRANCH  46  71
BRANCH  58  83
ATOM     83  C   UNL A   1      40.044  33.842  37.021  1.00  0.00     0.058 A 
ATOM     84  C   UNL A   1      40.645  35.110  36.974  1.00  0.00     0.135 A 
ATOM     85  C   UNL A   1      39.185  33.565  38.098  1.00  0.00     0.135 A 
ATOM     86  F   UNL A   1      41.479  35.428  35.971  1.00  0.00    -0.206 F 
ATOM     87  C   UNL A   1      40.428  36.053  37.974  1.00  0.00     0.059 A 
ATOM     88  C   UNL A   1      38.923  34.507  39.086  1.00  0.00     0.059 A 
ATOM     89  F   UNL A   1      38.573  32.373  38.187  1.00  0.00    -0.206 F 
ATOM     90  C   UNL A   1      39.562  35.743  39.024  1.00  0.00     0.060 A 
BRANCH  90  91
ATOM     91  S   UNL A   1      39.271  36.986  40.301  1.00  0.00     0.124 S 
ATOM     92  O   UNL A   1      40.624  37.232  40.786  1.00  0.00    -0.237 OA
ATOM     93  O   UNL A   1      38.661  38.074  39.541  1.00  0.00    -0.237 OA
ATOM     94  O   UNL A   1      38.381  36.309  41.239  1.00  0.00    -0.744 OA
ENDBRANCH  90  91
ENDBRANCH  58  83
ENDBRANCH  32  33
ENDBRANCH  24  27
ENDBRANCH  22  23
ENDBRANCH  21  22
ENDBRANCH  20  21
ENDBRANCH   1  20
TORSDOF 19
ENDMDL
MODEL 2
REMARK VINA RESULT:     -10.1      3.193      9.158
REMARK SMILES N#CCS(=O)(=O)NC[C@H]1CC[C@H](C(=O)NCCCCNC(=O)c2ccc(-c3c4nc(c(-c5c(F)cc(S(=O)(=O)[O-])cc5F)c5ccc([nH]5)c(-c5c(F)cc(S(=O)(=O)[O-])cc5F)c5nc(c(-c6c(F)cc(S(=O)(=O)[O-])cc6F)c6ccc3[nH]6)C=C5)C=C4)cc2)O1
REMARK SMILES IDX 16 1 15 2 13 3 14 4 12 6 9 7 10 8 89 9 11 10 8 11 7 12 4 14
REMARK SMILES IDX 5 15 6 16 3 17 2 18 1 19 17 20 18 21 19 22 20 23 21 24 22 26
REMARK SMILES IDX 23 27 24 28 88 29 25 30 87 31 26 32 27 33 28 34 81 35 29 36
REMARK SMILES IDX 86 37 80 38 82 39 30 40 85 41 79 42 78 43 31 45 65 46 44 47
REMARK SMILES IDX 64 48 45 49 48 50 63 51 83 52 46 53 47 54 62 56 84 57 49 58
REMARK SMILES IDX 32 59 33 60 42 61 34 62 35 63 41 64 43 65 36 66 37 67 38 68
REMARK SMILES IDX 39 69 40 70 66 71 67 72 76 73 68 74 69 75 75 76 77 77 70 78
REMARK SMILES IDX 71 79 72 80 73 81 74 82 50 83 51 84 60 85 52 86 53 87 59 88
REMARK SMILES IDX 61 89 54 90 55 91 56 92 57 93 58 94
REMARK H PARENT 15 5 7 13 20 25 82 44 48 55
REMARK Flexibility Score: inf
ROOT
ATOM      1  C   UNL A   1      34.004  26.255  25.103  1.00  0.00     0.116 C 
ENDROOT
BRANCH   1   2
ATOM      2  N   UNL A   1      33.949  25.576  23.832  1.00  0.00    -0.354 N 
ATOM      3  C   UNL A   1      34.010  24.245  23.548  1.00  0.00     0.249 C 
ATOM      4  O   UNL A   1      33.936  23.922  22.357  1.00  0.00    -0.272 OA
ATOM      5  H   UNL A   1      33.852  26.165  23.049  1.00  0.00     0.163 HD
BRANCH   3   6
ATOM      6  C   UNL A   1      34.228  23.161  24.637  1.00  0.00     0.207 C 
ATOM      7  C   UNL A   1      33.818  20.851  24.517  1.00  0.00     0.134 C 
ATOM      8  C   UNL A   1      32.630  21.455  25.242  1.00  0.00     0.037 C 
ATOM      9  O   UNL A   1      34.745  21.902  24.222  1.00  0.00    -0.364 OA
ATOM     10  C   UNL A   1      33.008  22.894  25.500  1.00  0.00     0.045 C 
BRANCH   7  11
ATOM     11  C   UNL A   1      34.532  19.693  25.219  1.00  0.00     0.130 C 
BRANCH  11  12
ATOM     12  N   UNL A   1      34.369  18.386  24.537  1.00  0.00    -0.212 NA
ATOM     13  H   UNL A   1      34.734  18.519  23.593  1.00  0.00     0.141 HD
BRANCH  12  14
ATOM     14  S   UNL A   1      32.894  17.599  24.349  1.00  0.00     0.225 S 
ATOM     15  O   UNL A   1      32.427  17.765  22.993  1.00  0.00    -0.211 OA
ATOM     16  O   UNL A   1      32.094  18.126  25.438  1.00  0.00    -0.211 OA
BRANCH  14  17
ATOM     17  C   UNL A   1      33.171  15.877  24.706  1.00  0.00     0.273 C 
BRANCH  17  18
ATOM     18  C   UNL A   1      34.550  15.688  25.112  1.00  0.00     0.080 C 
ATOM     19  N   UNL A   1      35.663  15.471  25.368  1.00  0.00    -0.197 NA
ENDBRANCH  17  18
ENDBRANCH  14  17
ENDBRANCH  12  14
ENDBRANCH  11  12
ENDBRANCH   7  11
ENDBRANCH   3   6
ENDBRANCH   1   2
BRANCH   1  20
ATOM     20  C   UNL A   1      32.619  26.673  25.586  1.00  0.00     0.023 C 
BRANCH  20  21
ATOM     21  C   UNL A   1      32.635  27.908  26.481  1.00  0.00     0.023 C 
BRANCH  21  22
ATOM     22  C   UNL A   1      33.949  28.675  26.458  1.00  0.00     0.116 C 
BRANCH  22  23
ATOM     23  N   UNL A   1      33.786  30.106  26.680  1.00  0.00    -0.352 N 
ATOM     24  C   UNL A   1      34.568  30.929  27.457  1.00  0.00     0.251 C 
ATOM     25  H   UNL A   1      33.028  30.533  26.220  1.00  0.00     0.163 HD
ATOM     26  O   UNL A   1      34.233  32.087  27.679  1.00  0.00    -0.269 OA
BRANCH  24  27
ATOM     27  C   UNL A   1      35.801  30.371  28.047  1.00  0.00     0.039 A 
ATOM     28  C   UNL A   1      37.029  30.645  27.445  1.00  0.00     0.014 A 
ATOM     29  C   UNL A   1      35.739  29.647  29.241  1.00  0.00     0.014 A 
ATOM     30  C   UNL A   1      38.204  30.238  28.078  1.00  0.00     0.010 A 
ATOM     31  C   UNL A   1      36.910  29.343  29.920  1.00  0.00     0.010 A 
ATOM     32  C   UNL A   1      38.155  29.617  29.338  1.00  0.00    -0.014 A 
BRANCH  32  33
ATOM     33  C   UNL A   1      39.398  29.218  30.048  1.00  0.00     0.031 A 
ATOM     34  C   UNL A   1      39.807  29.941  31.303  1.00  0.00     0.074 A 
ATOM     35  C   UNL A   1      40.178  28.244  29.540  1.00  0.00     0.049 A 
ATOM     36  N   UNL A   1      40.865  29.763  32.050  1.00  0.00    -0.248 NA
ATOM     37  C   UNL A   1      38.927  31.028  31.764  1.00  0.00     0.031 C 
ATOM     38  C   UNL A   1      39.915  27.509  28.301  1.00  0.00     0.029 A 
ATOM     39  N   UNL A   1      41.353  27.706  30.001  1.00  0.00    -0.354 N 
ATOM     40  C   UNL A   1      40.783  30.718  33.056  1.00  0.00     0.074 A 
ATOM     41  C   UNL A   1      39.612  31.520  32.783  1.00  0.00     0.031 C 
ATOM     42  C   UNL A   1      40.879  26.592  28.120  1.00  0.00     0.029 A 
ATOM     43  C   UNL A   1      41.854  26.706  29.200  1.00  0.00     0.049 A 
ATOM     44  H   UNL A   1      41.796  28.007  30.826  1.00  0.00     0.167 HD
ATOM     45  C   UNL A   1      41.592  30.894  34.128  1.00  0.00     0.037 A 
ATOM     46  C   UNL A   1      42.976  25.968  29.320  1.00  0.00     0.037 A 
ATOM     47  C   UNL A   1      42.750  30.082  34.395  1.00  0.00     0.049 A 
ATOM     48  C   UNL A   1      43.872  26.191  30.508  1.00  0.00     0.074 A 
ATOM     49  C   UNL A   1      43.608  30.140  35.479  1.00  0.00     0.029 A 
ATOM     50  N   UNL A   1      43.223  29.075  33.564  1.00  0.00    -0.354 N 
ATOM     51  N   UNL A   1      43.740  27.049  31.492  1.00  0.00    -0.248 NA
ATOM     52  C   UNL A   1      45.063  25.338  30.611  1.00  0.00     0.031 C 
ATOM     53  C   UNL A   1      44.639  29.219  35.268  1.00  0.00     0.029 A 
ATOM     54  C   UNL A   1      44.379  28.528  34.095  1.00  0.00     0.049 A 
ATOM     55  H   UNL A   1      42.798  28.793  32.721  1.00  0.00     0.167 HD
ATOM     56  C   UNL A   1      44.812  26.817  32.348  1.00  0.00     0.074 A 
ATOM     57  C   UNL A   1      45.574  25.730  31.769  1.00  0.00     0.031 C 
ATOM     58  C   UNL A   1      45.130  27.442  33.510  1.00  0.00     0.037 A 
BRANCH  45  59
ATOM     59  C   UNL A   1      41.256  32.014  35.079  1.00  0.00     0.058 A 
ATOM     60  C   UNL A   1      40.359  31.840  36.148  1.00  0.00     0.135 A 
ATOM     61  C   UNL A   1      41.851  33.276  34.929  1.00  0.00     0.135 A 
ATOM     62  F   UNL A   1      39.746  30.660  36.335  1.00  0.00    -0.206 F 
ATOM     63  C   UNL A   1      40.033  32.889  37.003  1.00  0.00     0.059 A 
ATOM     64  C   UNL A   1      41.570  34.328  35.797  1.00  0.00     0.059 A 
ATOM     65  F   UNL A   1      42.716  33.502  33.928  1.00  0.00    -0.206 F 
ATOM     66  C   UNL A   1      40.645  34.129  36.819  1.00  0.00     0.060 A 
BRANCH  66  67
ATOM     67  S   UNL A   1      40.206  35.478  37.934  1.00  0.00     0.124 S 
ATOM     68  O   UNL A   1      40.105  36.602  37.006  1.00  0.00    -0.237 OA
ATOM     69  O   UNL A   1      38.946  35.013  38.503  1.00  0.00    -0.237 OA
ATOM     70  O   UNL A   1      41.330  35.534  38.864  1.00  0.00    -0.744 OA
ENDBRANCH  66  67
ENDBRANCH  45  59
BRANCH  46  71
ATOM     71  C   UNL A   1      43.298  24.938  28.294  1.00  0.00     0.058 A 
ATOM     72  C   UNL A   1      42.934  23.595  28.472  1.00  0.00     0.135 A 
ATOM     73  C   UNL A   1      43.952  25.282  27.100  1.00  0.00     0.135 A 
ATOM     74  F   UNL A   1      42.313  23.212  29.599  1.00  0.00    -0.206 F 
ATOM     75  C   UNL A   1      43.216  22.628  27.512  1.00  0.00     0.059 A 
ATOM     76  C   UNL A   1      44.217  24.340  26.111  1.00  0.00     0.059 A 
ATOM     77  F   UNL A   1      44.309  26.556  26.872  1.00  0.00    -0.206 F 
ATOM     78  C   UNL A   1      43.850  23.013  26.330  1.00  0.00     0.060 A 
BRANCH  78  79
ATOM     79  S   UNL A   1      44.148  21.762  25.063  1.00  0.00     0.124 S 
ATOM     80  O   UNL A   1      43.108  20.784  25.360  1.00  0.00    -0.237 OA
ATOM     81  O   UNL A   1      43.974  22.528  23.832  1.00  0.00    -0.237 OA
ATOM     82  O   UNL A   1      45.516  21.329  25.333  1.00  0.00    -0.744 OA
ENDBRANCH  78  79
ENDBRANCH  46  71
BRANCH  58  83
ATOM     83  C   UNL A   1      46.330  26.936  34.267  1.00  0.00     0.058 A 
ATOM     84  C   UNL A   1      47.615  27.470  34.077  1.00  0.00     0.135 A 
ATOM     85  C   UNL A   1      46.179  25.930  35.236  1.00  0.00     0.135 A 
ATOM     86  F   UNL A   1      47.821  28.430  33.162  1.00  0.00    -0.206 F 
ATOM     87  C   UNL A   1      48.710  27.001  34.795  1.00  0.00     0.059 A 
ATOM     88  C   UNL A   1      47.251  25.474  35.993  1.00  0.00     0.059 A 
ATOM     89  F   UNL A   1      44.971  25.391  35.470  1.00  0.00    -0.206 F 
ATOM     90  C   UNL A   1      48.517  26.005  35.754  1.00  0.00     0.060 A 
BRANCH  90  91
ATOM     91  S   UNL A   1      49.943  25.423  36.696  1.00  0.00     0.124 S 
ATOM     92  O   UNL A   1      50.919  26.474  36.433  1.00  0.00    -0.237 OA
ATOM     93  O   UNL A   1      49.416  25.371  38.057  1.00  0.00    -0.237 OA
ATOM     94  O   UNL A   1      50.242  24.125  36.096  1.00  0.00    -0.744 OA
ENDBRANCH  90  91
ENDBRANCH  58  83
ENDBRANCH  32  33
ENDBRANCH  24  27
ENDBRANCH  22  23
ENDBRANCH  21  22
ENDBRANCH  20  21
ENDBRANCH   1  20
TORSDOF 19
ENDMDL
MODEL 3
REMARK VINA RESULT:     -10.1      4.747     10.275
REMARK SMILES N#CCS(=O)(=O)NC[C@H]1CC[C@H](C(=O)NCCCCNC(=O)c2ccc(-c3c4nc(c(-c5c(F)cc(S(=O)(=O)[O-])cc5F)c5ccc([nH]5)c(-c5c(F)cc(S(=O)(=O)[O-])cc5F)c5nc(c(-c6c(F)cc(S(=O)(=O)[O-])cc6F)c6ccc3[nH]6)C=C5)C=C4)cc2)O1
REMARK SMILES IDX 16 1 15 2 13 3 14 4 12 6 9 7 10 8 89 9 11 10 8 11 7 12 4 14
REMARK SMILES IDX 5 15 6 16 3 17 2 18 1 19 17 20 18 21 19 22 20 23 21 24 22 26
REMARK SMILES IDX 23 27 24 28 88 29 25 30 87 31 26 32 27 33 28 34 81 35 29 36
REMARK SMILES IDX 86 37 80 38 82 39 30 40 85 41 79 42 78 43 31 45 65 46 44 47
REMARK SMILES IDX 64 48 45 49 48 50 63 51 83 52 46 53 47 54 62 56 84 57 49 58
REMARK SMILES IDX 32 59 33 60 42 61 34 62 35 63 41 64 43 65 36 66 37 67 38 68
REMARK SMILES IDX 39 69 40 70 66 71 67 72 76 73 68 74 69 75 75 76 77 77 70 78
REMARK SMILES IDX 71 79 72 80 73 81 74 82 50 83 51 84 60 85 52 86 53 87 59 88
REMARK SMILES IDX 61 89 54 90 55 91 56 92 57 93 58 94
REMARK H PARENT 15 5 7 13 20 25 82 44 48 55
REMARK Flexibility Score: inf
ROOT
ATOM      1  C   UNL A   1      33.086  25.119  25.169  1.00  0.00     0.116 C 
ENDROOT
BRANCH   1   2
ATOM      2  N   UNL A   1      33.455  24.324  24.024  1.00  0.00    -0.354 N 
ATOM      3  C   UNL A   1      32.962  24.337  22.754  1.00  0.00     0.249 C 
ATOM      4  O   UNL A   1      33.463  23.544  21.949  1.00  0.00    -0.272 OA
ATOM      5  H   UNL A   1      34.175  23.672  24.184  1.00  0.00     0.163 HD
BRANCH   3   6
ATOM      6  C   UNL A   1      31.781  25.246  22.320  1.00  0.00     0.207 C 
ATOM      7  C   UNL A   1      31.149  27.344  23.169  1.00  0.00     0.134 C 
ATOM      8  C   UNL A   1      30.231  26.329  23.823  1.00  0.00     0.037 C 
ATOM      9  O   UNL A   1      32.012  26.649  22.262  1.00  0.00    -0.364 OA
ATOM     10  C   UNL A   1      30.504  25.025  23.111  1.00  0.00     0.045 C 
BRANCH   7  11
ATOM     11  C   UNL A   1      30.473  28.522  22.462  1.00  0.00     0.130 C 
BRANCH  11  12
ATOM     12  N   UNL A   1      29.434  29.196  23.280  1.00  0.00    -0.212 NA
ATOM     13  H   UNL A   1      28.995  28.459  23.832  1.00  0.00     0.141 HD
BRANCH  12  14
ATOM     14  S   UNL A   1      28.170  30.100  22.637  1.00  0.00     0.225 S 
ATOM     15  O   UNL A   1      26.929  29.707  23.260  1.00  0.00    -0.211 OA
ATOM     16  O   UNL A   1      28.327  29.922  21.206  1.00  0.00    -0.211 OA
BRANCH  14  17
ATOM     17  C   UNL A   1      28.524  31.811  22.980  1.00  0.00     0.273 C 
BRANCH  17  18
ATOM     18  C   UNL A   1      28.105  32.622  21.854  1.00  0.00     0.080 C 
ATOM     19  N   UNL A   1      27.691  33.216  20.945  1.00  0.00    -0.197 NA
ENDBRANCH  17  18
ENDBRANCH  14  17
ENDBRANCH  12  14
ENDBRANCH  11  12
ENDBRANCH   7  11
ENDBRANCH   3   6
ENDBRANCH   1   2
BRANCH   1  20
ATOM     20  C   UNL A   1      34.147  26.161  25.506  1.00  0.00     0.023 C 
BRANCH  20  21
ATOM     21  C   UNL A   1      33.573  27.437  26.115  1.00  0.00     0.023 C 
BRANCH  21  22
ATOM     22  C   UNL A   1      34.579  28.570  26.246  1.00  0.00     0.116 C 
BRANCH  22  23
ATOM     23  N   UNL A   1      33.962  29.859  26.530  1.00  0.00    -0.352 N 
ATOM     24  C   UNL A   1      34.338  30.778  27.483  1.00  0.00     0.251 C 
ATOM     25  H   UNL A   1      33.186  30.101  25.976  1.00  0.00     0.163 HD
ATOM     26  O   UNL A   1      33.640  31.758  27.720  1.00  0.00    -0.269 OA
BRANCH  24  27
ATOM     27  C   UNL A   1      35.582  30.532  28.239  1.00  0.00     0.039 A 
ATOM     28  C   UNL A   1      35.547  29.699  29.358  1.00  0.00     0.014 A 
ATOM     29  C   UNL A   1      36.792  31.064  27.785  1.00  0.00     0.014 A 
ATOM     30  C   UNL A   1      36.742  29.354  29.987  1.00  0.00     0.010 A 
ATOM     31  C   UNL A   1      37.985  30.631  28.345  1.00  0.00     0.010 A 
ATOM     32  C   UNL A   1      37.974  29.787  29.464  1.00  0.00    -0.014 A 
BRANCH  32  33
ATOM     33  C   UNL A   1      39.259  29.391  30.095  1.00  0.00     0.031 A 
ATOM     34  C   UNL A   1      39.752  30.127  31.312  1.00  0.00     0.074 A 
ATOM     35  C   UNL A   1      40.001  28.409  29.548  1.00  0.00     0.049 A 
ATOM     36  N   UNL A   1      40.857  29.953  31.990  1.00  0.00    -0.248 NA
ATOM     37  C   UNL A   1      38.908  31.221  31.818  1.00  0.00     0.031 C 
ATOM     38  C   UNL A   1      39.654  27.661  28.337  1.00  0.00     0.029 A 
ATOM     39  N   UNL A   1      41.202  27.871  29.936  1.00  0.00    -0.354 N 
ATOM     40  C   UNL A   1      40.844  30.919  32.989  1.00  0.00     0.074 A 
ATOM     41  C   UNL A   1      39.660  31.723  32.784  1.00  0.00     0.031 C 
ATOM     42  C   UNL A   1      40.602  26.738  28.103  1.00  0.00     0.029 A 
ATOM     43  C   UNL A   1      41.646  26.860  29.116  1.00  0.00     0.049 A 
ATOM     44  H   UNL A   1      41.699  28.180  30.727  1.00  0.00     0.167 HD
ATOM     45  C   UNL A   1      41.722  31.103  34.003  1.00  0.00     0.037 A 
ATOM     46  C   UNL A   1      42.771  26.120  29.170  1.00  0.00     0.037 A 
ATOM     47  C   UNL A   1      42.893  30.290  34.202  1.00  0.00     0.049 A 
ATOM     48  C   UNL A   1      43.744  26.352  30.294  1.00  0.00     0.074 A 
ATOM     49  C   UNL A   1      43.821  30.356  35.227  1.00  0.00     0.029 A 
ATOM     50  N   UNL A   1      43.307  29.272  33.354  1.00  0.00    -0.354 N 
ATOM     51  N   UNL A   1      43.680  27.221  31.274  1.00  0.00    -0.248 NA
ATOM     52  C   UNL A   1      44.937  25.496  30.328  1.00  0.00     0.031 C 
ATOM     53  C   UNL A   1      44.833  29.429  34.958  1.00  0.00     0.029 A 
ATOM     54  C   UNL A   1      44.494  28.726  33.813  1.00  0.00     0.049 A 
ATOM     55  H   UNL A   1      42.827  28.983  32.544  1.00  0.00     0.167 HD
ATOM     56  C   UNL A   1      44.805  26.994  32.061  1.00  0.00     0.074 A 
ATOM     57  C   UNL A   1      45.525  25.898  31.445  1.00  0.00     0.031 C 
ATOM     58  C   UNL A   1      45.201  27.631  33.192  1.00  0.00     0.037 A 
BRANCH  45  59
ATOM     59  C   UNL A   1      41.454  32.235  34.961  1.00  0.00     0.058 A 
ATOM     60  C   UNL A   1      40.536  32.114  36.019  1.00  0.00     0.135 A 
ATOM     61  C   UNL A   1      42.135  33.455  34.829  1.00  0.00     0.135 A 
ATOM     62  F   UNL A   1      39.842  30.976  36.189  1.00  0.00    -0.206 F 
ATOM     63  C   UNL A   1      40.273  33.174  36.882  1.00  0.00     0.059 A 
ATOM     64  C   UNL A   1      41.917  34.516  35.705  1.00  0.00     0.059 A 
ATOM     65  F   UNL A   1      43.023  33.631  33.839  1.00  0.00    -0.206 F 
ATOM     66  C   UNL A   1      40.969  34.371  36.716  1.00  0.00     0.060 A 
BRANCH  66  67
ATOM     67  S   UNL A   1      40.612  35.737  37.839  1.00  0.00     0.124 S 
ATOM     68  O   UNL A   1      39.845  35.063  38.883  1.00  0.00    -0.237 OA
ATOM     69  O   UNL A   1      41.947  36.182  38.222  1.00  0.00    -0.237 OA
ATOM     70  O   UNL A   1      39.854  36.671  37.012  1.00  0.00    -0.744 OA
ENDBRANCH  66  67
ENDBRANCH  45  59
BRANCH  46  71
ATOM     71  C   UNL A   1      43.021  25.077  28.137  1.00  0.00     0.058 A 
ATOM     72  C   UNL A   1      43.573  25.406  26.889  1.00  0.00     0.135 A 
ATOM     73  C   UNL A   1      42.740  23.725  28.386  1.00  0.00     0.135 A 
ATOM     74  F   UNL A   1      43.855  26.686  26.597  1.00  0.00    -0.206 F 
ATOM     75  C   UNL A   1      43.826  24.437  25.923  1.00  0.00     0.059 A 
ATOM     76  C   UNL A   1      43.012  22.733  27.449  1.00  0.00     0.059 A 
ATOM     77  F   UNL A   1      42.224  23.353  29.569  1.00  0.00    -0.206 F 
ATOM     78  C   UNL A   1      43.550  23.101  26.217  1.00  0.00     0.060 A 
BRANCH  78  79
ATOM     79  S   UNL A   1      43.946  21.845  24.982  1.00  0.00     0.124 S 
ATOM     80  O   UNL A   1      43.021  20.775  25.341  1.00  0.00    -0.237 OA
ATOM     81  O   UNL A   1      43.659  22.545  23.734  1.00  0.00    -0.237 OA
ATOM     82  O   UNL A   1      45.358  21.566  25.225  1.00  0.00    -0.744 OA
ENDBRANCH  78  79
ENDBRANCH  46  71
BRANCH  58  83
ATOM     83  C   UNL A   1      46.447  27.129  33.874  1.00  0.00     0.058 A 
ATOM     84  C   UNL A   1      46.413  26.107  34.837  1.00  0.00     0.135 A 
ATOM     85  C   UNL A   1      47.703  27.650  33.520  1.00  0.00     0.135 A 
ATOM     86  F   UNL A   1      45.241  25.575  35.219  1.00  0.00    -0.206 F 
ATOM     87  C   UNL A   1      47.575  25.645  35.448  1.00  0.00     0.059 A 
ATOM     88  C   UNL A   1      48.880  27.176  34.087  1.00  0.00     0.059 A 
ATOM     89  F   UNL A   1      47.798  28.619  32.595  1.00  0.00    -0.206 F 
ATOM     90  C   UNL A   1      48.805  26.184  35.063  1.00  0.00     0.060 A 
BRANCH  90  91
ATOM     91  S   UNL A   1      50.306  25.558  35.845  1.00  0.00     0.124 S 
ATOM     92  O   UNL A   1      50.092  24.117  35.783  1.00  0.00    -0.237 OA
ATOM     93  O   UNL A   1      51.353  26.083  34.972  1.00  0.00    -0.237 OA
ATOM     94  O   UNL A   1      50.263  26.142  37.183  1.00  0.00    -0.744 OA
ENDBRANCH  90  91
ENDBRANCH  58  83
ENDBRANCH  32  33
ENDBRANCH  24  27
ENDBRANCH  22  23
ENDBRANCH  21  22
ENDBRANCH  20  21
ENDBRANCH   1  20
TORSDOF 19
ENDMDL
