MODEL 1
REMARK VINA RESULT:     -11.3      0.000      0.000
REMARK SMILES CC1(C)CCN(c2ncccc2C(=O)NCCCCNC(=O)c2ccc(-c3c4nc(c(-c5c(F)cc(S(=O)(=O)[O-])cc5F)c5ccc([nH]5)c(-c5c(F)cc(S(=O)(=O)[O-])cc5F)c5nc(c(-c6c(F)cc(S(=O)(=O)[O-])cc6F)c6ccc3[nH]6)C=C5)C=C4)cc2)C1
REMARK SMILES IDX 18 1 17 2 16 3 15 4 13 5 14 6 12 8 7 9 8 10 9 11 11 12 10 13
REMARK SMILES IDX 6 14 1 15 2 16 3 17 4 18 89 19 5 20 19 21 20 22 21 23 22 25
REMARK SMILES IDX 23 26 24 27 88 28 25 29 87 30 26 31 27 32 28 33 81 34 29 35
REMARK SMILES IDX 86 36 80 37 82 38 30 39 85 40 79 41 78 42 31 44 65 45 44 46
REMARK SMILES IDX 64 47 45 48 48 49 63 50 83 51 46 52 47 53 62 55 84 56 49 57
REMARK SMILES IDX 32 58 33 59 42 60 34 61 35 62 41 63 43 64 36 65 37 66 38 67
REMARK SMILES IDX 39 68 40 69 66 70 67 71 76 72 68 73 69 74 75 75 77 76 70 77
REMARK SMILES IDX 71 78 72 79 73 80 74 81 50 82 51 83 60 84 52 85 53 86 59 87
REMARK SMILES IDX 61 88 54 89 55 90 56 91 57 92 58 93
REMARK H PARENT 15 7 20 24 82 43 48 54
REMARK Flexibility Score: inf
ROOT
ATOM      1  C   UNL A   1      32.518  28.016  26.093  1.00  0.00     0.023 C 
ENDROOT
BRANCH   1   2
ATOM      2  C   UNL A   1      32.685  28.498  24.644  1.00  0.00     0.023 C 
BRANCH   2   3
ATOM      3  C   UNL A   1      34.051  28.186  24.033  1.00  0.00     0.116 C 
BRANCH   3   4
ATOM      4  N   UNL A   1      33.896  27.464  22.788  1.00  0.00    -0.352 N 
ATOM      5  C   UNL A   1      33.324  26.278  22.397  1.00  0.00     0.255 C 
ATOM      6  O   UNL A   1      33.443  26.074  21.190  1.00  0.00    -0.269 OA
ATOM      7  H   UNL A   1      34.303  27.945  22.031  1.00  0.00     0.163 HD
BRANCH   5   8
ATOM      8  C   UNL A   1      32.577  25.335  23.306  1.00  0.00     0.082 A 
ATOM      9  C   UNL A   1      33.219  24.206  23.867  1.00  0.00     0.141 A 
ATOM     10  N   UNL A   1      32.512  23.221  24.494  1.00  0.00    -0.238 NA
ATOM     11  C   UNL A   1      31.186  23.371  24.661  1.00  0.00     0.113 A 
ATOM     12  C   UNL A   1      31.212  25.486  23.591  1.00  0.00     0.019 A 
ATOM     13  C   UNL A   1      30.502  24.493  24.261  1.00  0.00     0.021 A 
BRANCH   9  14
ATOM     14  N   UNL A   1      34.586  24.058  23.928  1.00  0.00    -0.355 N 
ATOM     15  C   UNL A   1      36.096  21.883  25.803  1.00  0.00     0.013 C 
ATOM     16  C   UNL A   1      36.450  23.241  25.173  1.00  0.00    -0.016 C 
ATOM     17  C   UNL A   1      37.670  23.827  25.889  1.00  0.00     0.013 C 
ATOM     18  C   UNL A   1      36.691  23.107  23.660  1.00  0.00     0.030 C 
ATOM     19  C   UNL A   1      35.242  24.203  25.232  1.00  0.00     0.124 C 
ATOM     20  C   UNL A   1      35.281  23.113  23.074  1.00  0.00     0.119 C 
ENDBRANCH   9  14
ENDBRANCH   5   8
ENDBRANCH   3   4
ENDBRANCH   2   3
ENDBRANCH   1   2
BRANCH   1  21
ATOM     21  C   UNL A   1      33.622  28.442  27.057  1.00  0.00     0.116 C 
BRANCH  21  22
ATOM     22  N   UNL A   1      33.479  29.813  27.521  1.00  0.00    -0.352 N 
ATOM     23  C   UNL A   1      34.401  30.605  28.162  1.00  0.00     0.251 C 
ATOM     24  H   UNL A   1      32.603  30.229  27.352  1.00  0.00     0.163 HD
ATOM     25  O   UNL A   1      34.077  31.710  28.577  1.00  0.00    -0.269 OA
BRANCH  23  26
ATOM     26  C   UNL A   1      35.770  30.094  28.380  1.00  0.00     0.039 A 
ATOM     27  C   UNL A   1      36.670  30.115  27.312  1.00  0.00     0.014 A 
ATOM     28  C   UNL A   1      36.168  29.619  29.633  1.00  0.00     0.014 A 
ATOM     29  C   UNL A   1      37.993  29.720  27.519  1.00  0.00     0.010 A 
ATOM     30  C   UNL A   1      37.500  29.282  29.851  1.00  0.00     0.010 A 
ATOM     31  C   UNL A   1      38.426  29.333  28.797  1.00  0.00    -0.014 A 
BRANCH  31  32
ATOM     32  C   UNL A   1      39.847  28.990  29.054  1.00  0.00     0.031 A 
ATOM     33  C   UNL A   1      40.780  30.016  29.631  1.00  0.00     0.074 A 
ATOM     34  C   UNL A   1      40.306  27.771  28.708  1.00  0.00     0.049 A 
ATOM     35  N   UNL A   1      42.064  29.925  29.867  1.00  0.00    -0.248 NA
ATOM     36  C   UNL A   1      40.200  31.327  29.962  1.00  0.00     0.031 C 
ATOM     37  C   UNL A   1      39.506  26.707  28.096  1.00  0.00     0.029 A 
ATOM     38  N   UNL A   1      41.561  27.225  28.811  1.00  0.00    -0.354 N 
ATOM     39  C   UNL A   1      42.447  31.166  30.360  1.00  0.00     0.074 A 
ATOM     40  C   UNL A   1      41.270  32.009  30.343  1.00  0.00     0.031 C 
ATOM     41  C   UNL A   1      40.283  25.630  27.901  1.00  0.00     0.029 A 
ATOM     42  C   UNL A   1      41.641  25.935  28.342  1.00  0.00     0.049 A 
ATOM     43  H   UNL A   1      42.330  27.710  29.187  1.00  0.00     0.167 HD
ATOM     44  C   UNL A   1      43.663  31.560  30.810  1.00  0.00     0.037 A 
ATOM     45  C   UNL A   1      42.691  25.095  28.272  1.00  0.00     0.037 A 
ATOM     46  C   UNL A   1      44.823  30.711  30.844  1.00  0.00     0.049 A 
ATOM     47  C   UNL A   1      44.031  25.553  28.781  1.00  0.00     0.074 A 
ATOM     48  C   UNL A   1      46.089  30.998  31.325  1.00  0.00     0.029 A 
ATOM     49  N   UNL A   1      44.861  29.404  30.380  1.00  0.00    -0.354 N 
ATOM     50  N   UNL A   1      44.364  26.712  29.296  1.00  0.00    -0.248 NA
ATOM     51  C   UNL A   1      45.136  24.588  28.705  1.00  0.00     0.031 C 
ATOM     52  C   UNL A   1      46.899  29.875  31.122  1.00  0.00     0.029 A 
ATOM     53  C   UNL A   1      46.130  28.876  30.550  1.00  0.00     0.049 A 
ATOM     54  H   UNL A   1      44.097  28.922  29.986  1.00  0.00     0.167 HD
ATOM     55  C   UNL A   1      45.708  26.608  29.629  1.00  0.00     0.074 A 
ATOM     56  C   UNL A   1      46.126  25.269  29.265  1.00  0.00     0.031 C 
ATOM     57  C   UNL A   1      46.525  27.537  30.187  1.00  0.00     0.037 A 
BRANCH  44  58
ATOM     58  C   UNL A   1      43.790  32.975  31.304  1.00  0.00     0.058 A 
ATOM     59  C   UNL A   1      43.500  33.315  32.635  1.00  0.00     0.135 A 
ATOM     60  C   UNL A   1      44.214  33.999  30.444  1.00  0.00     0.135 A 
ATOM     61  F   UNL A   1      43.076  32.377  33.497  1.00  0.00    -0.206 F 
ATOM     62  C   UNL A   1      43.590  34.628  33.087  1.00  0.00     0.059 A 
ATOM     63  C   UNL A   1      44.337  35.316  30.881  1.00  0.00     0.059 A 
ATOM     64  F   UNL A   1      44.504  33.730  29.162  1.00  0.00    -0.206 F 
ATOM     65  C   UNL A   1      44.004  35.623  32.200  1.00  0.00     0.060 A 
BRANCH  65  66
ATOM     66  S   UNL A   1      44.099  37.324  32.796  1.00  0.00     0.124 S 
ATOM     67  O   UNL A   1      43.890  38.076  31.562  1.00  0.00    -0.237 OA
ATOM     68  O   UNL A   1      43.007  37.380  33.762  1.00  0.00    -0.237 OA
ATOM     69  O   UNL A   1      45.440  37.410  33.365  1.00  0.00    -0.744 OA
ENDBRANCH  65  66
ENDBRANCH  44  58
BRANCH  45  70
ATOM     70  C   UNL A   1      42.508  23.722  27.732  1.00  0.00     0.058 A 
ATOM     71  C   UNL A   1      42.504  23.492  26.349  1.00  0.00     0.135 A 
ATOM     72  C   UNL A   1      42.356  22.616  28.581  1.00  0.00     0.135 A 
ATOM     73  F   UNL A   1      42.641  24.520  25.497  1.00  0.00    -0.206 F 
ATOM     74  C   UNL A   1      42.345  22.214  25.824  1.00  0.00     0.059 A 
ATOM     75  C   UNL A   1      42.218  21.325  28.080  1.00  0.00     0.059 A 
ATOM     76  F   UNL A   1      42.370  22.783  29.913  1.00  0.00    -0.206 F 
ATOM     77  C   UNL A   1      42.206  21.135  26.698  1.00  0.00     0.060 A 
BRANCH  77  78
ATOM     78  S   UNL A   1      42.057  19.473  26.007  1.00  0.00     0.124 S 
ATOM     79  O   UNL A   1      42.896  19.572  24.819  1.00  0.00    -0.237 OA
ATOM     80  O   UNL A   1      42.576  18.643  27.089  1.00  0.00    -0.237 OA
ATOM     81  O   UNL A   1      40.623  19.342  25.761  1.00  0.00    -0.744 OA
ENDBRANCH  77  78
ENDBRANCH  45  70
BRANCH  57  82
ATOM     82  C   UNL A   1      47.942  27.127  30.469  1.00  0.00     0.058 A 
ATOM     83  C   UNL A   1      48.971  27.343  29.539  1.00  0.00     0.135 A 
ATOM     84  C   UNL A   1      48.283  26.553  31.705  1.00  0.00     0.135 A 
ATOM     85  F   UNL A   1      48.696  27.882  28.341  1.00  0.00    -0.206 F 
ATOM     86  C   UNL A   1      50.287  26.987  29.817  1.00  0.00     0.059 A 
ATOM     87  C   UNL A   1      49.596  26.211  32.013  1.00  0.00     0.059 A 
ATOM     88  F   UNL A   1      47.338  26.333  32.632  1.00  0.00    -0.206 F 
ATOM     89  C   UNL A   1      50.589  26.421  31.057  1.00  0.00     0.060 A 
BRANCH  89  90
ATOM     90  S   UNL A   1      52.305  25.993  31.420  1.00  0.00     0.124 S 
ATOM     91  O   UNL A   1      52.928  26.145  30.109  1.00  0.00    -0.237 OA
ATOM     92  O   UNL A   1      52.674  26.994  32.418  1.00  0.00    -0.237 OA
ATOM     93  O   UNL A   1      52.216  24.624  31.920  1.00  0.00    -0.744 OA
ENDBRANCH  89  90
ENDBRANCH  57  82
ENDBRANCH  31  32
ENDBRANCH  23  26
ENDBRANCH  21  22
ENDBRANCH   1  21
TORSDOF 15
ENDMDL
MODEL 2
REMARK VINA RESULT:     -11.1      3.070      4.518
REMARK SMILES CC1(C)CCN(c2ncccc2C(=O)NCCCCNC(=O)c2ccc(-c3c4nc(c(-c5c(F)cc(S(=O)(=O)[O-])cc5F)c5ccc([nH]5)c(-c5c(F)cc(S(=O)(=O)[O-])cc5F)c5nc(c(-c6c(F)cc(S(=O)(=O)[O-])cc6F)c6ccc3[nH]6)C=C5)C=C4)cc2)C1
REMARK SMILES IDX 18 1 17 2 16 3 15 4 13 5 14 6 12 8 7 9 8 10 9 11 11 12 10 13
REMARK SMILES IDX 6 14 1 15 2 16 3 17 4 18 89 19 5 20 19 21 20 22 21 23 22 25
REMARK SMILES IDX 23 26 24 27 88 28 25 29 87 30 26 31 27 32 28 33 81 34 29 35
REMARK SMILES IDX 86 36 80 37 82 38 30 39 85 40 79 41 78 42 31 44 65 45 44 46
REMARK SMILES IDX 64 47 45 48 48 49 63 50 83 51 46 52 47 53 62 55 84 56 49 57
REMARK SMILES IDX 32 58 33 59 42 60 34 61 35 62 41 63 43 64 36 65 37 66 38 67
REMARK SMILES IDX 39 68 40 69 66 70 67 71 76 72 68 73 69 74 75 75 77 76 70 77
REMARK SMILES IDX 71 78 72 79 73 80 74 81 50 82 51 83 60 84 52 85 53 86 59 87
REMARK SMILES IDX 61 88 54 89 55 90 56 91 57 92 58 93
REMARK H PARENT 15 7 20 24 82 43 48 54
REMARK Flexibility Score: inf
ROOT
ATOM      1  C   UNL A   1      34.216  29.444  26.917  1.00  0.00     0.023 C 
ENDROOT
BRANCH   1   2
ATOM      2  C   UNL A   1      33.304  28.237  27.179  1.00  0.00     0.023 C 
BRANCH   2   3
ATOM      3  C   UNL A   1      31.815  28.578  27.241  1.00  0.00     0.116 C 
BRANCH   3   4
ATOM      4  N   UNL A   1      31.015  27.397  27.005  1.00  0.00    -0.352 N 
ATOM      5  C   UNL A   1      30.755  26.576  25.935  1.00  0.00     0.255 C 
ATOM      6  O   UNL A   1      29.983  25.661  26.220  1.00  0.00    -0.269 OA
ATOM      7  H   UNL A   1      30.535  27.109  27.815  1.00  0.00     0.163 HD
BRANCH   5   8
ATOM      8  C   UNL A   1      31.374  26.714  24.566  1.00  0.00     0.082 A 
ATOM      9  C   UNL A   1      30.653  27.302  23.500  1.00  0.00     0.141 A 
ATOM     10  N   UNL A   1      31.096  27.225  22.211  1.00  0.00    -0.238 NA
ATOM     11  C   UNL A   1      32.290  26.658  21.961  1.00  0.00     0.113 A 
ATOM     12  C   UNL A   1      32.651  26.222  24.263  1.00  0.00     0.019 A 
ATOM     13  C   UNL A   1      33.114  26.177  22.950  1.00  0.00     0.021 A 
BRANCH   9  14
ATOM     14  N   UNL A   1      29.528  28.076  23.674  1.00  0.00    -0.355 N 
ATOM     15  C   UNL A   1      28.371  30.126  21.442  1.00  0.00     0.013 C 
ATOM     16  C   UNL A   1      28.304  29.999  22.973  1.00  0.00    -0.016 C 
ATOM     17  C   UNL A   1      27.877  31.342  23.572  1.00  0.00     0.013 C 
ATOM     18  C   UNL A   1      27.358  28.864  23.397  1.00  0.00     0.030 C 
ATOM     19  C   UNL A   1      29.662  29.531  23.544  1.00  0.00     0.124 C 
ATOM     20  C   UNL A   1      28.219  27.611  23.253  1.00  0.00     0.119 C 
ENDBRANCH   9  14
ENDBRANCH   5   8
ENDBRANCH   3   4
ENDBRANCH   2   3
ENDBRANCH   1   2
BRANCH   1  21
ATOM     21  C   UNL A   1      35.533  29.450  27.689  1.00  0.00     0.116 C 
BRANCH  21  22
ATOM     22  N   UNL A   1      35.374  29.816  29.088  1.00  0.00    -0.352 N 
ATOM     23  C   UNL A   1      36.332  29.904  30.069  1.00  0.00     0.251 C 
ATOM     24  H   UNL A   1      34.455  30.030  29.369  1.00  0.00     0.163 HD
ATOM     25  O   UNL A   1      36.006  30.128  31.227  1.00  0.00    -0.269 OA
BRANCH  23  26
ATOM     26  C   UNL A   1      37.751  29.685  29.718  1.00  0.00     0.039 A 
ATOM     27  C   UNL A   1      38.625  29.239  30.712  1.00  0.00     0.014 A 
ATOM     28  C   UNL A   1      38.209  29.896  28.415  1.00  0.00     0.014 A 
ATOM     29  C   UNL A   1      39.947  28.940  30.382  1.00  0.00     0.010 A 
ATOM     30  C   UNL A   1      39.511  29.543  28.076  1.00  0.00     0.010 A 
ATOM     31  C   UNL A   1      40.392  29.057  29.055  1.00  0.00    -0.014 A 
BRANCH  31  32
ATOM     32  C   UNL A   1      41.771  28.666  28.671  1.00  0.00     0.031 A 
ATOM     33  C   UNL A   1      42.865  29.695  28.630  1.00  0.00     0.074 A 
ATOM     34  C   UNL A   1      42.018  27.395  28.297  1.00  0.00     0.049 A 
ATOM     35  N   UNL A   1      44.112  29.560  28.260  1.00  0.00    -0.248 NA
ATOM     36  C   UNL A   1      42.502  31.063  29.035  1.00  0.00     0.031 C 
ATOM     37  C   UNL A   1      41.026  26.318  28.250  1.00  0.00     0.029 A 
ATOM     38  N   UNL A   1      43.179  26.796  27.877  1.00  0.00    -0.354 N 
ATOM     39  C   UNL A   1      44.680  30.823  28.374  1.00  0.00     0.074 A 
ATOM     40  C   UNL A   1      43.627  31.722  28.800  1.00  0.00     0.031 C 
ATOM     41  C   UNL A   1      41.626  25.186  27.848  1.00  0.00     0.029 A 
ATOM     42  C   UNL A   1      43.034  25.462  27.577  1.00  0.00     0.049 A 
ATOM     43  H   UNL A   1      44.035  27.276  27.798  1.00  0.00     0.167 HD
ATOM     44  C   UNL A   1      45.965  31.196  28.166  1.00  0.00     0.037 A 
ATOM     45  C   UNL A   1      43.933  24.563  27.133  1.00  0.00     0.037 A 
ATOM     46  C   UNL A   1      47.011  30.293  27.764  1.00  0.00     0.049 A 
ATOM     47  C   UNL A   1      45.356  25.000  26.913  1.00  0.00     0.074 A 
ATOM     48  C   UNL A   1      48.356  30.560  27.574  1.00  0.00     0.029 A 
ATOM     49  N   UNL A   1      46.830  28.945  27.490  1.00  0.00    -0.354 N 
ATOM     50  N   UNL A   1      45.889  26.186  27.078  1.00  0.00    -0.248 NA
ATOM     51  C   UNL A   1      46.301  23.974  26.452  1.00  0.00     0.031 C 
ATOM     52  C   UNL A   1      48.981  29.381  27.154  1.00  0.00     0.029 A 
ATOM     53  C   UNL A   1      48.034  28.370  27.120  1.00  0.00     0.049 A 
ATOM     54  H   UNL A   1      45.971  28.467  27.550  1.00  0.00     0.167 HD
ATOM     55  C   UNL A   1      47.236  26.045  26.767  1.00  0.00     0.074 A 
ATOM     56  C   UNL A   1      47.439  24.655  26.412  1.00  0.00     0.031 C 
ATOM     57  C   UNL A   1      48.217  26.981  26.776  1.00  0.00     0.037 A 
BRANCH  44  58
ATOM     58  C   UNL A   1      46.306  32.646  28.378  1.00  0.00     0.058 A 
ATOM     59  C   UNL A   1      46.707  33.128  29.634  1.00  0.00     0.135 A 
ATOM     60  C   UNL A   1      46.242  33.559  27.315  1.00  0.00     0.135 A 
ATOM     61  F   UNL A   1      46.771  32.300  30.689  1.00  0.00    -0.206 F 
ATOM     62  C   UNL A   1      46.995  34.474  29.839  1.00  0.00     0.059 A 
ATOM     63  C   UNL A   1      46.551  34.906  27.491  1.00  0.00     0.059 A 
ATOM     64  F   UNL A   1      45.866  33.152  26.094  1.00  0.00    -0.206 F 
ATOM     65  C   UNL A   1      46.909  35.356  28.761  1.00  0.00     0.060 A 
BRANCH  65  66
ATOM     66  S   UNL A   1      47.269  37.102  29.045  1.00  0.00     0.124 S 
ATOM     67  O   UNL A   1      46.671  37.718  27.864  1.00  0.00    -0.237 OA
ATOM     68  O   UNL A   1      46.586  37.363  30.308  1.00  0.00    -0.237 OA
ATOM     69  O   UNL A   1      48.727  37.143  29.105  1.00  0.00    -0.744 OA
ENDBRANCH  65  66
ENDBRANCH  44  58
BRANCH  45  70
ATOM     70  C   UNL A   1      43.521  23.154  26.902  1.00  0.00     0.058 A 
ATOM     71  C   UNL A   1      43.419  22.643  25.600  1.00  0.00     0.135 A 
ATOM     72  C   UNL A   1      43.245  22.288  27.970  1.00  0.00     0.135 A 
ATOM     73  F   UNL A   1      43.669  23.435  24.546  1.00  0.00    -0.206 F 
ATOM     74  C   UNL A   1      43.047  21.324  25.363  1.00  0.00     0.059 A 
ATOM     75  C   UNL A   1      42.892  20.959  27.758  1.00  0.00     0.059 A 
ATOM     76  F   UNL A   1      43.346  22.726  29.234  1.00  0.00    -0.206 F 
ATOM     77  C   UNL A   1      42.787  20.487  26.450  1.00  0.00     0.060 A 
BRANCH  77  78
ATOM     78  S   UNL A   1      42.359  18.762  26.132  1.00  0.00     0.124 S 
ATOM     79  O   UNL A   1      43.312  18.410  25.086  1.00  0.00    -0.237 OA
ATOM     80  O   UNL A   1      42.585  18.145  27.436  1.00  0.00    -0.237 OA
ATOM     81  O   UNL A   1      40.961  18.836  25.717  1.00  0.00    -0.744 OA
ENDBRANCH  77  78
ENDBRANCH  45  70
BRANCH  57  82
ATOM     82  C   UNL A   1      49.605  26.527  26.423  1.00  0.00     0.058 A 
ATOM     83  C   UNL A   1      50.101  26.623  25.113  1.00  0.00     0.135 A 
ATOM     84  C   UNL A   1      50.465  26.033  27.417  1.00  0.00     0.135 A 
ATOM     85  F   UNL A   1      49.316  27.082  24.126  1.00  0.00    -0.206 F 
ATOM     86  C   UNL A   1      51.396  26.227  24.797  1.00  0.00     0.059 A 
ATOM     87  C   UNL A   1      51.772  25.653  27.127  1.00  0.00     0.059 A 
ATOM     88  F   UNL A   1      50.043  25.929  28.686  1.00  0.00    -0.206 F 
ATOM     89  C   UNL A   1      52.224  25.743  25.811  1.00  0.00     0.060 A 
BRANCH  89  90
ATOM     90  S   UNL A   1      53.914  25.263  25.396  1.00  0.00     0.124 S 
ATOM     91  O   UNL A   1      53.696  24.015  24.673  1.00  0.00    -0.237 OA
ATOM     92  O   UNL A   1      54.373  26.391  24.591  1.00  0.00    -0.237 OA
ATOM     93  O   UNL A   1      54.559  25.130  26.700  1.00  0.00    -0.744 OA
ENDBRANCH  89  90
ENDBRANCH  57  82
ENDBRANCH  31  32
ENDBRANCH  23  26
ENDBRANCH  21  22
ENDBRANCH   1  21
TORSDOF 15
ENDMDL
MODEL 3
REMARK VINA RESULT:     -11.1      5.074     10.524
REMARK SMILES CC1(C)CCN(c2ncccc2C(=O)NCCCCNC(=O)c2ccc(-c3c4nc(c(-c5c(F)cc(S(=O)(=O)[O-])cc5F)c5ccc([nH]5)c(-c5c(F)cc(S(=O)(=O)[O-])cc5F)c5nc(c(-c6c(F)cc(S(=O)(=O)[O-])cc6F)c6ccc3[nH]6)C=C5)C=C4)cc2)C1
REMARK SMILES IDX 18 1 17 2 16 3 15 4 13 5 14 6 12 8 7 9 8 10 9 11 11 12 10 13
REMARK SMILES IDX 6 14 1 15 2 16 3 17 4 18 89 19 5 20 19 21 20 22 21 23 22 25
REMARK SMILES IDX 23 26 24 27 88 28 25 29 87 30 26 31 27 32 28 33 81 34 29 35
REMARK SMILES IDX 86 36 80 37 82 38 30 39 85 40 79 41 78 42 31 44 65 45 44 46
REMARK SMILES IDX 64 47 45 48 48 49 63 50 83 51 46 52 47 53 62 55 84 56 49 57
REMARK SMILES IDX 32 58 33 59 42 60 34 61 35 62 41 63 43 64 36 65 37 66 38 67
REMARK SMILES IDX 39 68 40 69 66 70 67 71 76 72 68 73 69 74 75 75 77 76 70 77
REMARK SMILES IDX 71 78 72 79 73 80 74 81 50 82 51 83 60 84 52 85 53 86 59 87
REMARK SMILES IDX 61 88 54 89 55 90 56 91 57 92 58 93
REMARK H PARENT 15 7 20 24 82 43 48 54
REMARK Flexibility Score: inf
ROOT
ATOM      1  C   UNL A   1      37.758  23.188  26.317  1.00  0.00     0.023 C 
ENDROOT
BRANCH   1   2
ATOM      2  C   UNL A   1      38.291  21.913  25.647  1.00  0.00     0.023 C 
BRANCH   2   3
ATOM      3  C   UNL A   1      37.236  21.120  24.877  1.00  0.00     0.116 C 
BRANCH   3   4
ATOM      4  N   UNL A   1      36.573  21.966  23.909  1.00  0.00    -0.352 N 
ATOM      5  C   UNL A   1      35.354  22.592  23.813  1.00  0.00     0.255 C 
ATOM      6  O   UNL A   1      35.233  23.228  22.766  1.00  0.00    -0.269 OA
ATOM      7  H   UNL A   1      37.138  22.136  23.120  1.00  0.00     0.163 HD
BRANCH   5   8
ATOM      8  C   UNL A   1      34.284  22.572  24.874  1.00  0.00     0.082 A 
ATOM      9  C   UNL A   1      33.246  21.611  24.841  1.00  0.00     0.141 A 
ATOM     10  N   UNL A   1      32.148  21.719  25.645  1.00  0.00    -0.238 NA
ATOM     11  C   UNL A   1      32.095  22.709  26.553  1.00  0.00     0.113 A 
ATOM     12  C   UNL A   1      34.222  23.526  25.901  1.00  0.00     0.019 A 
ATOM     13  C   UNL A   1      33.115  23.610  26.741  1.00  0.00     0.021 A 
BRANCH   9  14
ATOM     14  N   UNL A   1      33.299  20.456  24.095  1.00  0.00    -0.355 N 
ATOM     15  C   UNL A   1      32.349  17.549  25.177  1.00  0.00     0.013 C 
ATOM     16  C   UNL A   1      33.328  18.071  24.112  1.00  0.00    -0.016 C 
ATOM     17  C   UNL A   1      34.305  16.955  23.734  1.00  0.00     0.013 C 
ATOM     18  C   UNL A   1      32.579  18.608  22.881  1.00  0.00     0.030 C 
ATOM     19  C   UNL A   1      34.073  19.326  24.621  1.00  0.00     0.124 C 
ATOM     20  C   UNL A   1      32.165  20.015  23.304  1.00  0.00     0.119 C 
ENDBRANCH   9  14
ENDBRANCH   5   8
ENDBRANCH   3   4
ENDBRANCH   2   3
ENDBRANCH   1   2
BRANCH   1  21
ATOM     21  C   UNL A   1      38.672  24.407  26.228  1.00  0.00     0.116 C 
BRANCH  21  22
ATOM     22  N   UNL A   1      40.081  24.059  26.126  1.00  0.00    -0.352 N 
ATOM     23  C   UNL A   1      41.160  24.648  26.740  1.00  0.00     0.251 C 
ATOM     24  H   UNL A   1      40.289  23.297  25.538  1.00  0.00     0.163 HD
ATOM     25  O   UNL A   1      42.296  24.290  26.460  1.00  0.00    -0.269 OA
BRANCH  23  26
ATOM     26  C   UNL A   1      40.935  25.742  27.707  1.00  0.00     0.039 A 
ATOM     27  C   UNL A   1      39.861  25.641  28.595  1.00  0.00     0.014 A 
ATOM     28  C   UNL A   1      41.790  26.847  27.753  1.00  0.00     0.014 A 
ATOM     29  C   UNL A   1      39.683  26.619  29.575  1.00  0.00     0.010 A 
ATOM     30  C   UNL A   1      41.645  27.789  28.766  1.00  0.00     0.010 A 
ATOM     31  C   UNL A   1      40.593  27.682  29.690  1.00  0.00    -0.014 A 
BRANCH  31  32
ATOM     32  C   UNL A   1      40.468  28.685  30.776  1.00  0.00     0.031 A 
ATOM     33  C   UNL A   1      41.327  28.581  32.004  1.00  0.00     0.074 A 
ATOM     34  C   UNL A   1      39.534  29.651  30.680  1.00  0.00     0.049 A 
ATOM     35  N   UNL A   1      41.319  29.321  33.083  1.00  0.00    -0.248 NA
ATOM     36  C   UNL A   1      42.307  27.484  32.035  1.00  0.00     0.031 C 
ATOM     37  C   UNL A   1      38.608  29.826  29.557  1.00  0.00     0.029 A 
ATOM     38  N   UNL A   1      39.201  30.665  31.544  1.00  0.00    -0.354 N 
ATOM     39  C   UNL A   1      42.280  28.774  33.924  1.00  0.00     0.074 A 
ATOM     40  C   UNL A   1      42.816  27.609  33.252  1.00  0.00     0.031 C 
ATOM     41  C   UNL A   1      37.830  30.895  29.791  1.00  0.00     0.029 A 
ATOM     42  C   UNL A   1      38.177  31.462  31.092  1.00  0.00     0.049 A 
ATOM     43  H   UNL A   1      39.654  30.807  32.406  1.00  0.00     0.167 HD
ATOM     44  C   UNL A   1      42.695  29.215  35.136  1.00  0.00     0.037 A 
ATOM     45  C   UNL A   1      37.583  32.528  31.661  1.00  0.00     0.037 A 
ATOM     46  C   UNL A   1      42.173  30.386  35.789  1.00  0.00     0.049 A 
ATOM     47  C   UNL A   1      38.064  33.003  33.005  1.00  0.00     0.074 A 
ATOM     48  C   UNL A   1      42.559  30.946  36.995  1.00  0.00     0.029 A 
ATOM     49  N   UNL A   1      41.151  31.181  35.290  1.00  0.00    -0.354 N 
ATOM     50  N   UNL A   1      39.011  32.506  33.763  1.00  0.00    -0.248 NA
ATOM     51  C   UNL A   1      37.398  34.185  33.569  1.00  0.00     0.031 C 
ATOM     52  C   UNL A   1      41.748  32.060  37.239  1.00  0.00     0.029 A 
ATOM     53  C   UNL A   1      40.884  32.218  36.168  1.00  0.00     0.049 A 
ATOM     54  H   UNL A   1      40.684  31.029  34.436  1.00  0.00     0.167 HD
ATOM     55  C   UNL A   1      39.075  33.330  34.881  1.00  0.00     0.074 A 
ATOM     56  C   UNL A   1      38.075  34.362  34.696  1.00  0.00     0.031 C 
ATOM     57  C   UNL A   1      39.888  33.241  35.963  1.00  0.00     0.037 A 
BRANCH  44  58
ATOM     58  C   UNL A   1      43.772  28.424  35.827  1.00  0.00     0.058 A 
ATOM     59  C   UNL A   1      43.460  27.392  36.726  1.00  0.00     0.135 A 
ATOM     60  C   UNL A   1      45.127  28.691  35.581  1.00  0.00     0.135 A 
ATOM     61  F   UNL A   1      42.180  27.104  37.009  1.00  0.00    -0.206 F 
ATOM     62  C   UNL A   1      44.454  26.678  37.388  1.00  0.00     0.059 A 
ATOM     63  C   UNL A   1      46.140  27.971  36.211  1.00  0.00     0.059 A 
ATOM     64  F   UNL A   1      45.482  29.665  34.729  1.00  0.00    -0.206 F 
ATOM     65  C   UNL A   1      45.792  26.979  37.127  1.00  0.00     0.060 A 
BRANCH  65  66
ATOM     66  S   UNL A   1      47.071  26.056  38.005  1.00  0.00     0.124 S 
ATOM     67  O   UNL A   1      47.827  27.135  38.634  1.00  0.00    -0.237 OA
ATOM     68  O   UNL A   1      46.289  25.221  38.911  1.00  0.00    -0.237 OA
ATOM     69  O   UNL A   1      47.765  25.340  36.939  1.00  0.00    -0.744 OA
ENDBRANCH  65  66
ENDBRANCH  44  58
BRANCH  45  70
ATOM     70  C   UNL A   1      36.494  33.241  30.943  1.00  0.00     0.058 A 
ATOM     71  C   UNL A   1      35.164  33.138  31.377  1.00  0.00     0.135 A 
ATOM     72  C   UNL A   1      36.759  34.053  29.830  1.00  0.00     0.135 A 
ATOM     73  F   UNL A   1      34.861  32.369  32.434  1.00  0.00    -0.206 F 
ATOM     74  C   UNL A   1      34.132  33.806  30.727  1.00  0.00     0.059 A 
ATOM     75  C   UNL A   1      35.746  34.748  29.177  1.00  0.00     0.059 A 
ATOM     76  F   UNL A   1      38.018  34.197  29.388  1.00  0.00    -0.206 F 
ATOM     77  C   UNL A   1      34.434  34.612  29.628  1.00  0.00     0.060 A 
BRANCH  77  78
ATOM     78  S   UNL A   1      33.094  35.519  28.825  1.00  0.00     0.124 S 
ATOM     79  O   UNL A   1      32.464  34.472  28.031  1.00  0.00    -0.237 OA
ATOM     80  O   UNL A   1      32.326  36.005  29.967  1.00  0.00    -0.237 OA
ATOM     81  O   UNL A   1      33.797  36.552  28.069  1.00  0.00    -0.744 OA
ENDBRANCH  77  78
ENDBRANCH  45  70
BRANCH  57  82
ATOM     82  C   UNL A   1      39.754  34.305  37.014  1.00  0.00     0.058 A 
ATOM     83  C   UNL A   1      39.037  34.083  38.201  1.00  0.00     0.135 A 
ATOM     84  C   UNL A   1      40.390  35.546  36.853  1.00  0.00     0.135 A 
ATOM     85  F   UNL A   1      38.405  32.915  38.400  1.00  0.00    -0.206 F 
ATOM     86  C   UNL A   1      38.940  35.062  39.183  1.00  0.00     0.059 A 
ATOM     87  C   UNL A   1      40.325  36.532  37.833  1.00  0.00     0.059 A 
ATOM     88  F   UNL A   1      41.095  35.806  35.741  1.00  0.00    -0.206 F 
ATOM     89  C   UNL A   1      39.587  36.284  38.990  1.00  0.00     0.060 A 
BRANCH  89  90
ATOM     90  S   UNL A   1      39.482  37.536  40.287  1.00  0.00     0.124 S 
ATOM     91  O   UNL A   1      38.763  36.815  41.332  1.00  0.00    -0.237 OA
ATOM     92  O   UNL A   1      40.887  37.821  40.564  1.00  0.00    -0.237 OA
ATOM     93  O   UNL A   1      38.744  38.623  39.650  1.00  0.00    -0.744 OA
ENDBRANCH  89  90
ENDBRANCH  57  82
ENDBRANCH  31  32
ENDBRANCH  23  26
ENDBRANCH  21  22
ENDBRANCH   1  21
TORSDOF 15
ENDMDL
