MODEL 1
REMARK VINA RESULT:     -13.5      0.000      0.000
REMARK SMILES Cc1cccc(C[C@H](C(=O)NCCCCNC(=O)c2ccc(-c3c4nc(c(-c5c(F)cc(S(=O)(=O)[O-])cc5F)c5ccc([nH]5)c(-c5c(F)cc(S(=O)(=O)[O-])cc5F)c5nc(c(-c6c(F)cc(S(=O)(=O)[O-])cc6F)c6ccc3[nH]6)C=C5)C=C4)cc2)[C@@H]2CCCC[C@@H]2O)c1
REMARK SMILES IDX 14 1 13 2 12 3 11 4 9 5 10 6 8 8 7 9 6 10 1 11 2 12 3 13
REMARK SMILES IDX 92 14 4 15 5 16 85 17 86 18 90 19 87 20 89 21 88 22 91 23
REMARK SMILES IDX 15 25 16 26 17 27 18 29 19 30 20 31 84 32 21 33 83 34 22 35
REMARK SMILES IDX 23 36 24 37 77 38 25 39 82 40 76 41 78 42 26 43 81 44 75 45
REMARK SMILES IDX 74 46 27 48 61 49 40 50 60 51 41 52 44 53 59 54 79 55 42 56
REMARK SMILES IDX 43 57 58 59 80 60 45 61 28 62 29 63 38 64 30 65 31 66 37 67
REMARK SMILES IDX 39 68 32 69 33 70 34 71 35 72 36 73 62 74 63 75 72 76 64 77
REMARK SMILES IDX 65 78 71 79 73 80 66 81 67 82 68 83 69 84 70 85 46 86 47 87
REMARK SMILES IDX 56 88 48 89 49 90 55 91 57 92 50 93 51 94 52 95 53 96 54 97
REMARK H PARENT 11 7 91 24 16 28 78 47 44 58
REMARK Flexibility Score: inf
ROOT
ATOM      1  C   UNL A   1      32.877  30.197  26.773  1.00  0.00     0.023 C 
ENDROOT
BRANCH   1   2
ATOM      2  C   UNL A   1      32.658  29.709  25.339  1.00  0.00     0.023 C 
BRANCH   2   3
ATOM      3  C   UNL A   1      32.837  28.190  25.127  1.00  0.00     0.116 C 
BRANCH   3   4
ATOM      4  N   UNL A   1      31.910  27.353  25.888  1.00  0.00    -0.356 N 
ATOM      5  C   UNL A   1      31.713  26.003  25.936  1.00  0.00     0.223 C 
ATOM      6  O   UNL A   1      30.853  25.606  26.731  1.00  0.00    -0.275 OA
ATOM      7  H   UNL A   1      31.311  27.863  26.479  1.00  0.00     0.163 HD
BRANCH   5   8
ATOM      8  C   UNL A   1      32.508  25.010  25.039  1.00  0.00     0.088 C 
BRANCH   8   9
ATOM      9  C   UNL A   1      33.949  24.916  25.641  1.00  0.00     0.049 C 
BRANCH   9  10
ATOM     10  C   UNL A   1      35.042  24.114  24.965  1.00  0.00    -0.047 A 
ATOM     11  C   UNL A   1      38.245  22.284  26.013  1.00  0.00     0.044 C 
ATOM     12  C   UNL A   1      37.107  22.804  25.185  1.00  0.00    -0.051 A 
ATOM     13  C   UNL A   1      37.063  22.520  23.819  1.00  0.00     0.003 A 
ATOM     14  C   UNL A   1      36.081  23.578  25.753  1.00  0.00     0.007 A 
ATOM     15  C   UNL A   1      36.073  23.086  23.023  1.00  0.00     0.001 A 
ATOM     16  C   UNL A   1      35.105  23.918  23.589  1.00  0.00     0.004 A 
ENDBRANCH   9  10
ENDBRANCH   8   9
BRANCH   8  17
ATOM     17  C   UNL A   1      31.692  23.678  24.929  1.00  0.00     0.030 C 
ATOM     18  C   UNL A   1      31.980  22.553  25.930  1.00  0.00     0.007 C 
ATOM     19  C   UNL A   1      31.357  23.145  23.512  1.00  0.00     0.118 C 
ATOM     20  C   UNL A   1      32.888  21.457  25.402  1.00  0.00     0.001 C 
ATOM     21  C   UNL A   1      32.191  21.968  23.018  1.00  0.00     0.032 C 
ATOM     22  C   UNL A   1      32.394  20.894  24.076  1.00  0.00     0.003 C 
BRANCH  19  23
ATOM     23  O   UNL A   1      31.324  24.180  22.537  1.00  0.00    -0.393 OA
ATOM     24  H   UNL A   1      32.133  24.144  22.000  1.00  0.00     0.210 HD
ENDBRANCH  19  23
ENDBRANCH   8  17
ENDBRANCH   5   8
ENDBRANCH   3   4
ENDBRANCH   2   3
ENDBRANCH   1   2
BRANCH   1  25
ATOM     25  C   UNL A   1      34.291  29.921  27.251  1.00  0.00     0.116 C 
BRANCH  25  26
ATOM     26  N   UNL A   1      35.021  31.101  27.692  1.00  0.00    -0.352 N 
ATOM     27  C   UNL A   1      36.225  31.131  28.380  1.00  0.00     0.251 C 
ATOM     28  H   UNL A   1      34.616  31.972  27.478  1.00  0.00     0.163 HD
ATOM     29  O   UNL A   1      36.635  32.123  28.954  1.00  0.00    -0.269 OA
BRANCH  27  30
ATOM     30  C   UNL A   1      37.067  29.919  28.271  1.00  0.00     0.039 A 
ATOM     31  C   UNL A   1      37.184  29.126  29.419  1.00  0.00     0.014 A 
ATOM     32  C   UNL A   1      37.965  29.799  27.214  1.00  0.00     0.014 A 
ATOM     33  C   UNL A   1      38.320  28.339  29.589  1.00  0.00     0.010 A 
ATOM     34  C   UNL A   1      39.137  29.105  27.434  1.00  0.00     0.010 A 
ATOM     35  C   UNL A   1      39.334  28.408  28.634  1.00  0.00    -0.014 A 
BRANCH  35  36
ATOM     36  C   UNL A   1      40.664  27.844  28.832  1.00  0.00     0.031 A 
ATOM     37  C   UNL A   1      40.946  26.454  28.416  1.00  0.00     0.074 A 
ATOM     38  C   UNL A   1      41.674  28.598  29.322  1.00  0.00     0.049 A 
ATOM     39  N   UNL A   1      41.882  25.728  28.929  1.00  0.00    -0.248 NA
ATOM     40  C   UNL A   1      40.172  25.756  27.394  1.00  0.00     0.031 C 
ATOM     41  C   UNL A   1      43.100  28.279  29.288  1.00  0.00     0.029 A 
ATOM     42  N   UNL A   1      41.590  29.725  30.140  1.00  0.00    -0.354 N 
ATOM     43  C   UNL A   1      42.031  24.625  28.126  1.00  0.00     0.074 A 
ATOM     44  C   UNL A   1      40.901  24.649  27.226  1.00  0.00     0.031 C 
ATOM     45  C   UNL A   1      43.729  28.997  30.229  1.00  0.00     0.029 A 
ATOM     46  C   UNL A   1      42.712  29.697  30.991  1.00  0.00     0.049 A 
ATOM     47  H   UNL A   1      40.883  30.409  30.126  1.00  0.00     0.167 HD
ATOM     48  C   UNL A   1      43.168  23.880  28.191  1.00  0.00     0.037 A 
ATOM     49  C   UNL A   1      42.575  29.632  32.346  1.00  0.00     0.037 A 
ATOM     50  C   UNL A   1      44.098  24.387  29.194  1.00  0.00     0.049 A 
ATOM     51  C   UNL A   1      43.200  28.408  32.978  1.00  0.00     0.074 A 
ATOM     52  C   UNL A   1      45.236  25.175  29.118  1.00  0.00     0.029 A 
ATOM     53  N   UNL A   1      43.741  24.360  30.540  1.00  0.00    -0.354 N 
ATOM     54  N   UNL A   1      43.591  27.350  32.322  1.00  0.00    -0.248 NA
ATOM     55  C   UNL A   1      43.430  28.282  34.411  1.00  0.00     0.031 C 
ATOM     56  C   UNL A   1      45.566  25.617  30.423  1.00  0.00     0.029 A 
ATOM     57  C   UNL A   1      44.630  25.098  31.299  1.00  0.00     0.049 A 
ATOM     58  H   UNL A   1      42.960  23.881  30.902  1.00  0.00     0.167 HD
ATOM     59  C   UNL A   1      44.079  26.403  33.197  1.00  0.00     0.074 A 
ATOM     60  C   UNL A   1      43.989  27.061  34.487  1.00  0.00     0.031 C 
ATOM     61  C   UNL A   1      44.498  25.172  32.754  1.00  0.00     0.037 A 
BRANCH  48  62
ATOM     62  C   UNL A   1      43.507  22.895  27.101  1.00  0.00     0.058 A 
ATOM     63  C   UNL A   1      42.838  21.660  26.991  1.00  0.00     0.135 A 
ATOM     64  C   UNL A   1      44.553  23.098  26.178  1.00  0.00     0.135 A 
ATOM     65  F   UNL A   1      41.788  21.357  27.764  1.00  0.00    -0.206 F 
ATOM     66  C   UNL A   1      43.243  20.660  26.107  1.00  0.00     0.059 A 
ATOM     67  C   UNL A   1      45.010  22.093  25.318  1.00  0.00     0.059 A 
ATOM     68  F   UNL A   1      45.174  24.287  26.099  1.00  0.00    -0.206 F 
ATOM     69  C   UNL A   1      44.351  20.870  25.298  1.00  0.00     0.060 A 
BRANCH  69  70
ATOM     70  S   UNL A   1      44.937  19.511  24.267  1.00  0.00     0.124 S 
ATOM     71  O   UNL A   1      44.256  18.359  24.852  1.00  0.00    -0.237 OA
ATOM     72  O   UNL A   1      44.474  19.916  22.944  1.00  0.00    -0.237 OA
ATOM     73  O   UNL A   1      46.384  19.536  24.464  1.00  0.00    -0.744 OA
ENDBRANCH  69  70
ENDBRANCH  48  62
BRANCH  49  74
ATOM     74  C   UNL A   1      41.380  30.367  32.844  1.00  0.00     0.058 A 
ATOM     75  C   UNL A   1      40.213  29.616  33.091  1.00  0.00     0.135 A 
ATOM     76  C   UNL A   1      41.501  31.608  33.482  1.00  0.00     0.135 A 
ATOM     77  F   UNL A   1      40.039  28.428  32.488  1.00  0.00    -0.206 F 
ATOM     78  C   UNL A   1      39.291  29.995  34.060  1.00  0.00     0.059 A 
ATOM     79  C   UNL A   1      40.581  32.014  34.451  1.00  0.00     0.059 A 
ATOM     80  F   UNL A   1      42.588  32.368  33.281  1.00  0.00    -0.206 F 
ATOM     81  C   UNL A   1      39.522  31.165  34.781  1.00  0.00     0.060 A 
BRANCH  81  82
ATOM     82  S   UNL A   1      38.523  31.454  36.262  1.00  0.00     0.124 S 
ATOM     83  O   UNL A   1      37.443  32.285  35.741  1.00  0.00    -0.237 OA
ATOM     84  O   UNL A   1      38.146  30.091  36.636  1.00  0.00    -0.237 OA
ATOM     85  O   UNL A   1      39.452  32.120  37.166  1.00  0.00    -0.744 OA
ENDBRANCH  81  82
ENDBRANCH  49  74
BRANCH  61  86
ATOM     86  C   UNL A   1      44.912  23.935  33.561  1.00  0.00     0.058 A 
ATOM     87  C   UNL A   1      44.086  22.850  33.898  1.00  0.00     0.135 A 
ATOM     88  C   UNL A   1      46.269  23.772  33.972  1.00  0.00     0.135 A 
ATOM     89  F   UNL A   1      42.805  22.790  33.523  1.00  0.00    -0.206 F 
ATOM     90  C   UNL A   1      44.541  21.732  34.609  1.00  0.00     0.059 A 
ATOM     91  C   UNL A   1      46.756  22.644  34.633  1.00  0.00     0.059 A 
ATOM     92  F   UNL A   1      47.202  24.705  33.736  1.00  0.00    -0.206 F 
ATOM     93  C   UNL A   1      45.879  21.632  34.967  1.00  0.00     0.060 A 
BRANCH  93  94
ATOM     94  S   UNL A   1      46.468  20.152  35.807  1.00  0.00     0.124 S 
ATOM     95  O   UNL A   1      46.420  20.569  37.205  1.00  0.00    -0.237 OA
ATOM     96  O   UNL A   1      45.479  19.154  35.411  1.00  0.00    -0.237 OA
ATOM     97  O   UNL A   1      47.803  19.953  35.254  1.00  0.00    -0.744 OA
ENDBRANCH  93  94
ENDBRANCH  61  86
ENDBRANCH  35  36
ENDBRANCH  27  30
ENDBRANCH  25  26
ENDBRANCH   1  25
TORSDOF 18
ENDMDL
MODEL 2
REMARK VINA RESULT:     -13.4      1.444      3.220
REMARK SMILES Cc1cccc(C[C@H](C(=O)NCCCCNC(=O)c2ccc(-c3c4nc(c(-c5c(F)cc(S(=O)(=O)[O-])cc5F)c5ccc([nH]5)c(-c5c(F)cc(S(=O)(=O)[O-])cc5F)c5nc(c(-c6c(F)cc(S(=O)(=O)[O-])cc6F)c6ccc3[nH]6)C=C5)C=C4)cc2)[C@@H]2CCCC[C@@H]2O)c1
REMARK SMILES IDX 14 1 13 2 12 3 11 4 9 5 10 6 8 8 7 9 6 10 1 11 2 12 3 13
REMARK SMILES IDX 92 14 4 15 5 16 85 17 86 18 90 19 87 20 89 21 88 22 91 23
REMARK SMILES IDX 15 25 16 26 17 27 18 29 19 30 20 31 84 32 21 33 83 34 22 35
REMARK SMILES IDX 23 36 24 37 77 38 25 39 82 40 76 41 78 42 26 43 81 44 75 45
REMARK SMILES IDX 74 46 27 48 61 49 40 50 60 51 41 52 44 53 59 54 79 55 42 56
REMARK SMILES IDX 43 57 58 59 80 60 45 61 28 62 29 63 38 64 30 65 31 66 37 67
REMARK SMILES IDX 39 68 32 69 33 70 34 71 35 72 36 73 62 74 63 75 72 76 64 77
REMARK SMILES IDX 65 78 71 79 73 80 66 81 67 82 68 83 69 84 70 85 46 86 47 87
REMARK SMILES IDX 56 88 48 89 49 90 55 91 57 92 50 93 51 94 52 95 53 96 54 97
REMARK H PARENT 11 7 91 24 16 28 78 47 44 58
REMARK Flexibility Score: inf
ROOT
ATOM      1  C   UNL A   1      33.101  30.164  26.493  1.00  0.00     0.023 C 
ENDROOT
BRANCH   1   2
ATOM      2  C   UNL A   1      31.983  29.242  26.984  1.00  0.00     0.023 C 
BRANCH   2   3
ATOM      3  C   UNL A   1      32.224  27.734  26.749  1.00  0.00     0.116 C 
BRANCH   3   4
ATOM      4  N   UNL A   1      31.033  26.896  26.878  1.00  0.00    -0.356 N 
ATOM      5  C   UNL A   1      30.371  26.089  25.998  1.00  0.00     0.223 C 
ATOM      6  O   UNL A   1      29.396  25.476  26.447  1.00  0.00    -0.275 OA
ATOM      7  H   UNL A   1      30.628  26.920  27.775  1.00  0.00     0.163 HD
BRANCH   5   8
ATOM      8  C   UNL A   1      30.802  25.948  24.509  1.00  0.00     0.088 C 
BRANCH   8   9
ATOM      9  C   UNL A   1      30.964  27.400  23.949  1.00  0.00     0.049 C 
BRANCH   9  10
ATOM     10  C   UNL A   1      29.764  28.276  23.652  1.00  0.00    -0.047 A 
ATOM     11  C   UNL A   1      28.972  32.027  23.574  1.00  0.00     0.044 C 
ATOM     12  C   UNL A   1      28.837  30.539  23.437  1.00  0.00    -0.051 A 
ATOM     13  C   UNL A   1      27.623  29.993  23.017  1.00  0.00     0.003 A 
ATOM     14  C   UNL A   1      29.907  29.676  23.726  1.00  0.00     0.007 A 
ATOM     15  C   UNL A   1      27.453  28.613  22.990  1.00  0.00     0.001 A 
ATOM     16  C   UNL A   1      28.503  27.768  23.357  1.00  0.00     0.004 A 
ENDBRANCH   9  10
ENDBRANCH   8   9
BRANCH   8  17
ATOM     17  C   UNL A   1      32.055  25.012  24.440  1.00  0.00     0.030 C 
ATOM     18  C   UNL A   1      33.254  25.446  23.589  1.00  0.00     0.007 C 
ATOM     19  C   UNL A   1      31.817  23.480  24.400  1.00  0.00     0.118 C 
ATOM     20  C   UNL A   1      33.318  24.802  22.216  1.00  0.00     0.001 C 
ATOM     21  C   UNL A   1      31.992  22.805  23.044  1.00  0.00     0.032 C 
ATOM     22  C   UNL A   1      33.224  23.283  22.292  1.00  0.00     0.003 C 
BRANCH  19  23
ATOM     23  O   UNL A   1      30.578  23.107  24.990  1.00  0.00    -0.393 OA
ATOM     24  H   UNL A   1      29.954  23.848  24.926  1.00  0.00     0.210 HD
ENDBRANCH  19  23
ENDBRANCH   8  17
ENDBRANCH   5   8
ENDBRANCH   3   4
ENDBRANCH   2   3
ENDBRANCH   1   2
BRANCH   1  25
ATOM     25  C   UNL A   1      34.422  29.859  27.175  1.00  0.00     0.116 C 
BRANCH  25  26
ATOM     26  N   UNL A   1      35.140  31.032  27.654  1.00  0.00    -0.352 N 
ATOM     27  C   UNL A   1      36.332  31.051  28.363  1.00  0.00     0.251 C 
ATOM     28  H   UNL A   1      34.736  31.906  27.451  1.00  0.00     0.163 HD
ATOM     29  O   UNL A   1      36.728  32.032  28.965  1.00  0.00    -0.269 OA
BRANCH  27  30
ATOM     30  C   UNL A   1      37.180  29.844  28.243  1.00  0.00     0.039 A 
ATOM     31  C   UNL A   1      37.306  29.044  29.385  1.00  0.00     0.014 A 
ATOM     32  C   UNL A   1      38.074  29.736  27.182  1.00  0.00     0.014 A 
ATOM     33  C   UNL A   1      38.446  28.262  29.546  1.00  0.00     0.010 A 
ATOM     34  C   UNL A   1      39.251  29.047  27.392  1.00  0.00     0.010 A 
ATOM     35  C   UNL A   1      39.456  28.342  28.588  1.00  0.00    -0.014 A 
BRANCH  35  36
ATOM     36  C   UNL A   1      40.790  27.785  28.776  1.00  0.00     0.031 A 
ATOM     37  C   UNL A   1      41.074  26.394  28.364  1.00  0.00     0.074 A 
ATOM     38  C   UNL A   1      41.801  28.544  29.255  1.00  0.00     0.049 A 
ATOM     39  N   UNL A   1      42.017  25.674  28.872  1.00  0.00    -0.248 NA
ATOM     40  C   UNL A   1      40.294  25.689  27.351  1.00  0.00     0.031 C 
ATOM     41  C   UNL A   1      43.228  28.231  29.212  1.00  0.00     0.029 A 
ATOM     42  N   UNL A   1      41.720  29.674  30.070  1.00  0.00    -0.354 N 
ATOM     43  C   UNL A   1      42.163  24.569  28.072  1.00  0.00     0.074 A 
ATOM     44  C   UNL A   1      41.026  24.585  27.181  1.00  0.00     0.031 C 
ATOM     45  C   UNL A   1      43.862  28.955  30.144  1.00  0.00     0.029 A 
ATOM     46  C   UNL A   1      42.849  29.654  30.911  1.00  0.00     0.049 A 
ATOM     47  H   UNL A   1      41.009  30.355  30.059  1.00  0.00     0.167 HD
ATOM     48  C   UNL A   1      43.304  23.828  28.131  1.00  0.00     0.037 A 
ATOM     49  C   UNL A   1      42.723  29.593  32.268  1.00  0.00     0.037 A 
ATOM     50  C   UNL A   1      44.240  24.342  29.124  1.00  0.00     0.049 A 
ATOM     51  C   UNL A   1      43.358  28.375  32.900  1.00  0.00     0.074 A 
ATOM     52  C   UNL A   1      45.374  25.134  29.036  1.00  0.00     0.029 A 
ATOM     53  N   UNL A   1      43.894  24.319  30.472  1.00  0.00    -0.354 N 
ATOM     54  N   UNL A   1      43.747  27.315  32.244  1.00  0.00    -0.248 NA
ATOM     55  C   UNL A   1      43.600  28.255  34.331  1.00  0.00     0.031 C 
ATOM     56  C   UNL A   1      45.713  25.583  30.336  1.00  0.00     0.029 A 
ATOM     57  C   UNL A   1      44.787  25.063  31.222  1.00  0.00     0.049 A 
ATOM     58  H   UNL A   1      43.118  23.838  30.843  1.00  0.00     0.167 HD
ATOM     59  C   UNL A   1      44.246  26.373  33.119  1.00  0.00     0.074 A 
ATOM     60  C   UNL A   1      44.164  27.036  34.408  1.00  0.00     0.031 C 
ATOM     61  C   UNL A   1      44.666  25.142  32.677  1.00  0.00     0.037 A 
BRANCH  48  62
ATOM     62  C   UNL A   1      43.638  22.840  27.042  1.00  0.00     0.058 A 
ATOM     63  C   UNL A   1      42.926  21.633  26.899  1.00  0.00     0.135 A 
ATOM     64  C   UNL A   1      44.718  23.010  26.152  1.00  0.00     0.135 A 
ATOM     65  F   UNL A   1      41.842  21.364  27.638  1.00  0.00    -0.206 F 
ATOM     66  C   UNL A   1      43.319  20.626  26.018  1.00  0.00     0.059 A 
ATOM     67  C   UNL A   1      45.162  21.997  25.297  1.00  0.00     0.059 A 
ATOM     68  F   UNL A   1      45.386  24.175  26.103  1.00  0.00    -0.206 F 
ATOM     69  C   UNL A   1      44.458  20.800  25.245  1.00  0.00     0.060 A 
BRANCH  69  70
ATOM     70  S   UNL A   1      45.022  19.428  24.218  1.00  0.00     0.124 S 
ATOM     71  O   UNL A   1      46.475  19.577  24.269  1.00  0.00    -0.237 OA
ATOM     72  O   UNL A   1      44.478  18.276  24.928  1.00  0.00    -0.237 OA
ATOM     73  O   UNL A   1      44.421  19.710  22.917  1.00  0.00    -0.744 OA
ENDBRANCH  69  70
ENDBRANCH  48  62
BRANCH  49  74
ATOM     74  C   UNL A   1      41.529  30.326  32.773  1.00  0.00     0.058 A 
ATOM     75  C   UNL A   1      40.362  29.574  33.019  1.00  0.00     0.135 A 
ATOM     76  C   UNL A   1      41.652  31.563  33.417  1.00  0.00     0.135 A 
ATOM     77  F   UNL A   1      40.188  28.389  32.411  1.00  0.00    -0.206 F 
ATOM     78  C   UNL A   1      39.444  29.948  33.993  1.00  0.00     0.059 A 
ATOM     79  C   UNL A   1      40.734  31.965  34.390  1.00  0.00     0.059 A 
ATOM     80  F   UNL A   1      42.738  32.325  33.217  1.00  0.00    -0.206 F 
ATOM     81  C   UNL A   1      39.677  31.114  34.719  1.00  0.00     0.060 A 
BRANCH  81  82
ATOM     82  S   UNL A   1      38.681  31.395  36.204  1.00  0.00     0.124 S 
ATOM     83  O   UNL A   1      37.558  32.161  35.675  1.00  0.00    -0.237 OA
ATOM     84  O   UNL A   1      38.373  30.027  36.619  1.00  0.00    -0.237 OA
ATOM     85  O   UNL A   1      39.588  32.128  37.079  1.00  0.00    -0.744 OA
ENDBRANCH  81  82
ENDBRANCH  49  74
BRANCH  61  86
ATOM     86  C   UNL A   1      45.091  23.910  33.485  1.00  0.00     0.058 A 
ATOM     87  C   UNL A   1      46.387  23.628  33.948  1.00  0.00     0.135 A 
ATOM     88  C   UNL A   1      44.113  22.959  33.904  1.00  0.00     0.135 A 
ATOM     89  F   UNL A   1      47.415  24.451  33.724  1.00  0.00    -0.206 F 
ATOM     90  C   UNL A   1      46.698  22.498  34.716  1.00  0.00     0.059 A 
ATOM     91  C   UNL A   1      44.390  21.855  34.712  1.00  0.00     0.059 A 
ATOM     92  F   UNL A   1      42.822  23.064  33.558  1.00  0.00    -0.206 F 
ATOM     93  C   UNL A   1      45.693  21.619  35.100  1.00  0.00     0.060 A 
BRANCH  93  94
ATOM     94  S   UNL A   1      46.093  20.215  36.154  1.00  0.00     0.124 S 
ATOM     95  O   UNL A   1      47.527  20.073  35.923  1.00  0.00    -0.237 OA
ATOM     96  O   UNL A   1      45.713  20.701  37.478  1.00  0.00    -0.237 OA
ATOM     97  O   UNL A   1      45.258  19.142  35.626  1.00  0.00    -0.744 OA
ENDBRANCH  93  94
ENDBRANCH  61  86
ENDBRANCH  35  36
ENDBRANCH  27  30
ENDBRANCH  25  26
ENDBRANCH   1  25
TORSDOF 18
ENDMDL
MODEL 3
REMARK VINA RESULT:     -13.2      4.916     11.346
REMARK SMILES Cc1cccc(C[C@H](C(=O)NCCCCNC(=O)c2ccc(-c3c4nc(c(-c5c(F)cc(S(=O)(=O)[O-])cc5F)c5ccc([nH]5)c(-c5c(F)cc(S(=O)(=O)[O-])cc5F)c5nc(c(-c6c(F)cc(S(=O)(=O)[O-])cc6F)c6ccc3[nH]6)C=C5)C=C4)cc2)[C@@H]2CCCC[C@@H]2O)c1
REMARK SMILES IDX 14 1 13 2 12 3 11 4 9 5 10 6 8 8 7 9 6 10 1 11 2 12 3 13
REMARK SMILES IDX 92 14 4 15 5 16 85 17 86 18 90 19 87 20 89 21 88 22 91 23
REMARK SMILES IDX 15 25 16 26 17 27 18 29 19 30 20 31 84 32 21 33 83 34 22 35
REMARK SMILES IDX 23 36 24 37 77 38 25 39 82 40 76 41 78 42 26 43 81 44 75 45
REMARK SMILES IDX 74 46 27 48 61 49 40 50 60 51 41 52 44 53 59 54 79 55 42 56
REMARK SMILES IDX 43 57 58 59 80 60 45 61 28 62 29 63 38 64 30 65 31 66 37 67
REMARK SMILES IDX 39 68 32 69 33 70 34 71 35 72 36 73 62 74 63 75 72 76 64 77
REMARK SMILES IDX 65 78 71 79 73 80 66 81 67 82 68 83 69 84 70 85 46 86 47 87
REMARK SMILES IDX 56 88 48 89 49 90 55 91 57 92 50 93 51 94 52 95 53 96 54 97
REMARK H PARENT 11 7 91 24 16 28 78 47 44 58
REMARK Flexibility Score: inf
ROOT
ATOM      1  C   UNL A   1      37.473  22.265  24.834  1.00  0.00     0.023 C 
ENDROOT
BRANCH   1   2
ATOM      2  C   UNL A   1      36.699  21.123  25.497  1.00  0.00     0.023 C 
BRANCH   2   3
ATOM      3  C   UNL A   1      35.258  21.471  25.930  1.00  0.00     0.116 C 
BRANCH   3   4
ATOM      4  N   UNL A   1      34.232  21.177  24.932  1.00  0.00    -0.356 N 
ATOM      5  C   UNL A   1      33.213  21.920  24.407  1.00  0.00     0.223 C 
ATOM      6  O   UNL A   1      32.532  21.372  23.533  1.00  0.00    -0.275 OA
ATOM      7  H   UNL A   1      34.284  20.264  24.567  1.00  0.00     0.163 HD
BRANCH   5   8
ATOM      8  C   UNL A   1      32.907  23.370  24.883  1.00  0.00     0.088 C 
BRANCH   8   9
ATOM      9  C   UNL A   1      33.792  24.324  24.014  1.00  0.00     0.049 C 
BRANCH   9  10
ATOM     10  C   UNL A   1      33.753  25.827  24.194  1.00  0.00    -0.047 A 
ATOM     11  C   UNL A   1      33.642  28.307  27.117  1.00  0.00     0.044 C 
ATOM     12  C   UNL A   1      33.724  27.743  25.729  1.00  0.00    -0.051 A 
ATOM     13  C   UNL A   1      33.787  28.610  24.636  1.00  0.00     0.003 A 
ATOM     14  C   UNL A   1      33.734  26.358  25.500  1.00  0.00     0.007 A 
ATOM     15  C   UNL A   1      33.754  28.101  23.342  1.00  0.00     0.001 A 
ATOM     16  C   UNL A   1      33.683  26.722  23.130  1.00  0.00     0.004 A 
ENDBRANCH   9  10
ENDBRANCH   8   9
BRANCH   8  17
ATOM     17  C   UNL A   1      31.358  23.592  24.835  1.00  0.00     0.030 C 
ATOM     18  C   UNL A   1      30.719  24.040  23.516  1.00  0.00     0.007 C 
ATOM     19  C   UNL A   1      30.675  24.224  26.076  1.00  0.00     0.118 C 
ATOM     20  C   UNL A   1      30.432  25.529  23.428  1.00  0.00     0.001 C 
ATOM     21  C   UNL A   1      30.281  25.692  25.954  1.00  0.00     0.032 C 
ATOM     22  C   UNL A   1      29.629  26.028  24.622  1.00  0.00     0.003 C 
BRANCH  19  23
ATOM     23  O   UNL A   1      31.409  24.000  27.273  1.00  0.00    -0.393 OA
ATOM     24  H   UNL A   1      31.535  23.046  27.401  1.00  0.00     0.210 HD
ENDBRANCH  19  23
ENDBRANCH   8  17
ENDBRANCH   5   8
ENDBRANCH   3   4
ENDBRANCH   2   3
ENDBRANCH   1   2
BRANCH   1  25
ATOM     25  C   UNL A   1      37.916  23.307  25.846  1.00  0.00     0.116 C 
BRANCH  25  26
ATOM     26  N   UNL A   1      39.162  22.993  26.530  1.00  0.00    -0.352 N 
ATOM     27  C   UNL A   1      40.091  23.894  27.031  1.00  0.00     0.251 C 
ATOM     28  H   UNL A   1      39.368  22.038  26.651  1.00  0.00     0.163 HD
ATOM     29  O   UNL A   1      41.224  23.574  27.338  1.00  0.00    -0.269 OA
BRANCH  27  30
ATOM     30  C   UNL A   1      39.590  25.259  27.305  1.00  0.00     0.039 A 
ATOM     31  C   UNL A   1      40.158  26.301  26.561  1.00  0.00     0.014 A 
ATOM     32  C   UNL A   1      38.883  25.509  28.478  1.00  0.00     0.014 A 
ATOM     33  C   UNL A   1      40.177  27.586  27.096  1.00  0.00     0.010 A 
ATOM     34  C   UNL A   1      39.000  26.758  29.053  1.00  0.00     0.010 A 
ATOM     35  C   UNL A   1      39.680  27.786  28.384  1.00  0.00    -0.014 A 
BRANCH  35  36
ATOM     36  C   UNL A   1      39.885  29.013  29.144  1.00  0.00     0.031 A 
ATOM     37  C   UNL A   1      38.853  30.072  29.128  1.00  0.00     0.074 A 
ATOM     38  C   UNL A   1      40.973  29.172  29.930  1.00  0.00     0.049 A 
ATOM     39  N   UNL A   1      39.102  31.317  29.360  1.00  0.00    -0.248 NA
ATOM     40  C   UNL A   1      37.450  29.812  28.823  1.00  0.00     0.031 C 
ATOM     41  C   UNL A   1      41.165  30.184  30.966  1.00  0.00     0.029 A 
ATOM     42  N   UNL A   1      42.223  28.563  29.805  1.00  0.00    -0.354 N 
ATOM     43  C   UNL A   1      37.896  31.948  29.535  1.00  0.00     0.074 A 
ATOM     44  C   UNL A   1      36.896  30.990  29.124  1.00  0.00     0.031 C 
ATOM     45  C   UNL A   1      42.477  30.321  31.205  1.00  0.00     0.029 A 
ATOM     46  C   UNL A   1      43.180  29.503  30.236  1.00  0.00     0.049 A 
ATOM     47  H   UNL A   1      42.402  27.652  29.478  1.00  0.00     0.167 HD
ATOM     48  C   UNL A   1      37.841  33.160  30.153  1.00  0.00     0.037 A 
ATOM     49  C   UNL A   1      44.156  29.958  29.398  1.00  0.00     0.037 A 
ATOM     50  C   UNL A   1      39.166  33.644  30.528  1.00  0.00     0.049 A 
ATOM     51  C   UNL A   1      44.127  31.451  29.160  1.00  0.00     0.074 A 
ATOM     52  C   UNL A   1      39.871  33.646  31.721  1.00  0.00     0.029 A 
ATOM     53  N   UNL A   1      40.094  33.945  29.535  1.00  0.00    -0.354 N 
ATOM     54  N   UNL A   1      43.128  32.234  29.464  1.00  0.00    -0.248 NA
ATOM     55  C   UNL A   1      45.231  32.181  28.552  1.00  0.00     0.031 C 
ATOM     56  C   UNL A   1      41.225  33.955  31.445  1.00  0.00     0.029 A 
ATOM     57  C   UNL A   1      41.349  34.145  30.080  1.00  0.00     0.049 A 
ATOM     58  H   UNL A   1      39.886  34.007  28.575  1.00  0.00     0.167 HD
ATOM     59  C   UNL A   1      43.406  33.529  29.082  1.00  0.00     0.074 A 
ATOM     60  C   UNL A   1      44.754  33.439  28.552  1.00  0.00     0.031 C 
ATOM     61  C   UNL A   1      42.482  34.532  29.241  1.00  0.00     0.037 A 
BRANCH  48  62
ATOM     62  C   UNL A   1      36.533  33.705  30.667  1.00  0.00     0.058 A 
ATOM     63  C   UNL A   1      35.541  34.187  29.791  1.00  0.00     0.135 A 
ATOM     64  C   UNL A   1      36.242  33.844  32.040  1.00  0.00     0.135 A 
ATOM     65  F   UNL A   1      35.657  34.067  28.463  1.00  0.00    -0.206 F 
ATOM     66  C   UNL A   1      34.400  34.852  30.237  1.00  0.00     0.059 A 
ATOM     67  C   UNL A   1      35.131  34.551  32.511  1.00  0.00     0.059 A 
ATOM     68  F   UNL A   1      37.050  33.302  32.968  1.00  0.00    -0.206 F 
ATOM     69  C   UNL A   1      34.218  35.062  31.597  1.00  0.00     0.060 A 
BRANCH  69  70
ATOM     70  S   UNL A   1      32.806  36.045  32.139  1.00  0.00     0.124 S 
ATOM     71  O   UNL A   1      32.459  36.785  30.928  1.00  0.00    -0.237 OA
ATOM     72  O   UNL A   1      31.858  35.013  32.544  1.00  0.00    -0.237 OA
ATOM     73  O   UNL A   1      33.355  36.858  33.221  1.00  0.00    -0.744 OA
ENDBRANCH  69  70
ENDBRANCH  48  62
BRANCH  49  74
ATOM     74  C   UNL A   1      44.625  28.922  28.438  1.00  0.00     0.058 A 
ATOM     75  C   UNL A   1      44.113  28.974  27.125  1.00  0.00     0.135 A 
ATOM     76  C   UNL A   1      45.828  28.233  28.638  1.00  0.00     0.135 A 
ATOM     77  F   UNL A   1      42.952  29.606  26.883  1.00  0.00    -0.206 F 
ATOM     78  C   UNL A   1      44.846  28.519  26.035  1.00  0.00     0.059 A 
ATOM     79  C   UNL A   1      46.575  27.757  27.558  1.00  0.00     0.059 A 
ATOM     80  F   UNL A   1      46.360  28.146  29.866  1.00  0.00    -0.206 F 
ATOM     81  C   UNL A   1      46.107  27.972  26.260  1.00  0.00     0.060 A 
BRANCH  81  82
ATOM     82  S   UNL A   1      47.184  27.718  24.828  1.00  0.00     0.124 S 
ATOM     83  O   UNL A   1      46.984  26.301  24.546  1.00  0.00    -0.237 OA
ATOM     84  O   UNL A   1      46.605  28.643  23.854  1.00  0.00    -0.237 OA
ATOM     85  O   UNL A   1      48.502  28.082  25.333  1.00  0.00    -0.744 OA
ENDBRANCH  81  82
ENDBRANCH  49  74
BRANCH  61  86
ATOM     86  C   UNL A   1      42.522  35.982  28.741  1.00  0.00     0.058 A 
ATOM     87  C   UNL A   1      43.007  37.091  29.452  1.00  0.00     0.135 A 
ATOM     88  C   UNL A   1      42.114  36.289  27.408  1.00  0.00     0.135 A 
ATOM     89  F   UNL A   1      43.509  36.980  30.685  1.00  0.00    -0.206 F 
ATOM     90  C   UNL A   1      43.048  38.386  28.918  1.00  0.00     0.059 A 
ATOM     91  C   UNL A   1      42.196  37.560  26.838  1.00  0.00     0.059 A 
ATOM     92  F   UNL A   1      41.624  35.356  26.579  1.00  0.00    -0.206 F 
ATOM     93  C   UNL A   1      42.648  38.612  27.607  1.00  0.00     0.060 A 
BRANCH  93  94
ATOM     94  S   UNL A   1      42.783  40.265  26.907  1.00  0.00     0.124 S 
ATOM     95  O   UNL A   1      41.390  40.565  26.591  1.00  0.00    -0.237 OA
ATOM     96  O   UNL A   1      43.357  41.027  28.013  1.00  0.00    -0.237 OA
ATOM     97  O   UNL A   1      43.665  40.080  25.760  1.00  0.00    -0.744 OA
ENDBRANCH  93  94
ENDBRANCH  61  86
ENDBRANCH  35  36
ENDBRANCH  27  30
ENDBRANCH  25  26
ENDBRANCH   1  25
TORSDOF 18
ENDMDL
