MODEL 1
REMARK VINA RESULT:     -12.4      0.000      0.000
REMARK SMILES NC(=O)C[C@H](NC(=O)C1(c2ccccc2)CCN(C(=O)[C@@H]2CCC[NH2+]2)CC1)C(=O)NCCCCNC(=O)c1ccc(-c2c3nc(c(-c4c(F)cc(S(=O)(=O)[O-])cc4F)c4ccc([nH]4)c(-c4c(F)cc(S(=O)(=O)[O-])cc4F)c4nc(c(-c5c(F)cc(S(=O)(=O)[O-])cc5F)c5ccc2[nH]5)C=C4)C=C3)cc1
REMARK SMILES IDX 32 1 31 2 30 3 28 4 29 5 5 7 4 8 2 9 1 10 3 13 6 14 7 15
REMARK SMILES IDX 8 17 9 18 16 19 27 20 17 21 26 22 18 23 19 24 20 25 10 26
REMARK SMILES IDX 11 27 15 28 12 29 14 30 13 31 21 32 22 33 25 34 23 35 24 36
REMARK SMILES IDX 33 39 34 40 35 41 36 42 37 44 38 45 39 46 103 47 40 48
REMARK SMILES IDX 102 49 41 50 42 51 43 52 96 53 44 54 101 55 95 56 97 57
REMARK SMILES IDX 45 58 100 59 94 60 93 61 46 63 80 64 59 65 79 66 60 67 63 68
REMARK SMILES IDX 78 69 98 70 61 71 62 72 77 74 99 75 64 76 47 77 48 78 57 79
REMARK SMILES IDX 49 80 50 81 56 82 58 83 51 84 52 85 53 86 54 87 55 88 81 89
REMARK SMILES IDX 82 90 91 91 83 92 84 93 90 94 92 95 85 96 86 97 87 98 88 99
REMARK SMILES IDX 89 100 65 101 66 102 75 103 67 104 68 105 74 106 76 107
REMARK SMILES IDX 69 108 70 109 71 110 72 111 73 112
REMARK H PARENT 30 6 1 11 1 12 6 16 25 37 25 38 35 43 97 62 63 73
REMARK Flexibility Score: inf
ROOT
ATOM      1  C   UNL A   1      32.965  28.863  27.317  1.00  0.00     0.023 C 
ENDROOT
BRANCH   1   2
ATOM      2  C   UNL A   1      32.505  27.584  26.632  1.00  0.00     0.116 C 
BRANCH   2   3
ATOM      3  N   UNL A   1      33.416  27.120  25.607  1.00  0.00    -0.354 N 
ATOM      4  C   UNL A   1      33.507  25.926  24.964  1.00  0.00     0.243 C 
ATOM      5  O   UNL A   1      34.201  25.888  23.942  1.00  0.00    -0.273 OA
ATOM      6  H   UNL A   1      34.086  27.784  25.327  1.00  0.00     0.163 HD
BRANCH   4   7
ATOM      7  C   UNL A   1      32.748  24.657  25.402  1.00  0.00     0.180 C 
BRANCH   7   8
ATOM      8  C   UNL A   1      31.231  24.839  25.518  1.00  0.00     0.134 C 
BRANCH   8   9
ATOM      9  C   UNL A   1      30.482  23.777  26.275  1.00  0.00     0.220 C 
ATOM     10  N   UNL A   1      29.380  24.194  26.961  1.00  0.00    -0.370 N 
ATOM     11  H   UNL A   1      28.847  23.546  27.476  1.00  0.00     0.159 HD
ATOM     12  H   UNL A   1      29.118  25.143  26.941  1.00  0.00     0.159 HD
ATOM     13  O   UNL A   1      30.823  22.601  26.294  1.00  0.00    -0.275 OA
ENDBRANCH   8   9
ENDBRANCH   7   8
BRANCH   7  14
ATOM     14  N   UNL A   1      33.340  23.948  26.536  1.00  0.00    -0.343 N 
ATOM     15  C   UNL A   1      34.282  23.000  26.712  1.00  0.00     0.231 C 
ATOM     16  H   UNL A   1      32.947  24.237  27.392  1.00  0.00     0.164 HD
ATOM     17  O   UNL A   1      34.447  22.720  27.913  1.00  0.00    -0.274 OA
BRANCH  15  18
ATOM     18  C   UNL A   1      35.122  22.236  25.633  1.00  0.00     0.077 C 
ATOM     19  C   UNL A   1      34.812  22.367  24.127  1.00  0.00     0.043 C 
ATOM     20  C   UNL A   1      34.899  20.728  25.974  1.00  0.00     0.043 C 
ATOM     21  C   UNL A   1      33.496  21.755  23.660  1.00  0.00     0.121 C 
ATOM     22  C   UNL A   1      33.475  20.293  25.642  1.00  0.00     0.121 C 
ATOM     23  N   UNL A   1      33.216  20.437  24.215  1.00  0.00    -0.337 N 
ATOM     24  C   UNL A   1      32.475  19.567  23.415  1.00  0.00     0.280 C 
ATOM     25  O   UNL A   1      32.039  19.942  22.320  1.00  0.00    -0.268 OA
BRANCH  18  26
ATOM     26  C   UNL A   1      36.606  22.669  25.800  1.00  0.00    -0.032 A 
ATOM     27  C   UNL A   1      36.995  23.990  26.084  1.00  0.00     0.005 A 
ATOM     28  C   UNL A   1      37.622  21.695  25.722  1.00  0.00     0.005 A 
ATOM     29  C   UNL A   1      38.335  24.319  26.311  1.00  0.00     0.000 A 
ATOM     30  C   UNL A   1      38.962  22.026  25.946  1.00  0.00     0.000 A 
ATOM     31  C   UNL A   1      39.317  23.337  26.248  1.00  0.00     0.000 A 
ENDBRANCH  18  26
BRANCH  24  32
ATOM     32  C   UNL A   1      32.161  18.129  23.863  1.00  0.00     0.272 C 
ATOM     33  C   UNL A   1      32.287  17.858  25.350  1.00  0.00     0.081 C 
ATOM     34  N   UNL A   1      32.952  17.095  23.155  1.00  0.00    -0.336 N 
ATOM     35  C   UNL A   1      32.538  16.364  25.389  1.00  0.00     0.068 C 
ATOM     36  C   UNL A   1      33.373  16.103  24.147  1.00  0.00     0.261 C 
ATOM     37  H   UNL A   1      33.772  17.520  22.719  1.00  0.00     0.346 HD
ATOM     38  H   UNL A   1      32.394  16.655  22.423  1.00  0.00     0.346 HD
ENDBRANCH  24  32
ENDBRANCH  15  18
ENDBRANCH   7  14
ENDBRANCH   4   7
ENDBRANCH   2   3
ENDBRANCH   1   2
BRANCH   1  39
ATOM     39  C   UNL A   1      34.441  28.889  27.711  1.00  0.00     0.023 C 
BRANCH  39  40
ATOM     40  C   UNL A   1      35.115  30.258  27.663  1.00  0.00     0.116 C 
BRANCH  40  41
ATOM     41  N   UNL A   1      35.243  30.891  28.971  1.00  0.00    -0.352 N 
ATOM     42  C   UNL A   1      36.276  30.811  29.882  1.00  0.00     0.251 C 
ATOM     43  H   UNL A   1      34.484  31.456  29.243  1.00  0.00     0.163 HD
ATOM     44  O   UNL A   1      36.191  31.343  30.972  1.00  0.00    -0.269 OA
BRANCH  42  45
ATOM     45  C   UNL A   1      37.469  30.018  29.516  1.00  0.00     0.039 A 
ATOM     46  C   UNL A   1      37.933  30.076  28.201  1.00  0.00     0.014 A 
ATOM     47  C   UNL A   1      38.183  29.331  30.501  1.00  0.00     0.014 A 
ATOM     48  C   UNL A   1      39.186  29.542  27.898  1.00  0.00     0.010 A 
ATOM     49  C   UNL A   1      39.460  28.864  30.212  1.00  0.00     0.010 A 
ATOM     50  C   UNL A   1      39.985  28.994  28.916  1.00  0.00    -0.014 A 
BRANCH  50  51
ATOM     51  C   UNL A   1      41.401  28.620  28.671  1.00  0.00     0.031 A 
ATOM     52  C   UNL A   1      42.471  29.671  28.678  1.00  0.00     0.074 A 
ATOM     53  C   UNL A   1      41.697  27.347  28.336  1.00  0.00     0.049 A 
ATOM     54  N   UNL A   1      43.735  29.560  28.366  1.00  0.00    -0.248 NA
ATOM     55  C   UNL A   1      42.060  31.032  29.056  1.00  0.00     0.031 C 
ATOM     56  C   UNL A   1      40.732  26.248  28.238  1.00  0.00     0.029 A 
ATOM     57  N   UNL A   1      42.892  26.766  27.993  1.00  0.00    -0.354 N 
ATOM     58  C   UNL A   1      44.268  30.836  28.491  1.00  0.00     0.074 A 
ATOM     59  C   UNL A   1      43.180  31.714  28.867  1.00  0.00     0.031 C 
ATOM     60  C   UNL A   1      41.375  25.126  27.877  1.00  0.00     0.029 A 
ATOM     61  C   UNL A   1      42.788  25.431  27.676  1.00  0.00     0.049 A 
ATOM     62  H   UNL A   1      43.745  27.257  27.977  1.00  0.00     0.167 HD
ATOM     63  C   UNL A   1      45.552  31.234  28.328  1.00  0.00     0.037 A 
ATOM     64  C   UNL A   1      43.720  24.556  27.254  1.00  0.00     0.037 A 
ATOM     65  C   UNL A   1      46.633  30.350  27.987  1.00  0.00     0.049 A 
ATOM     66  C   UNL A   1      45.137  25.024  27.072  1.00  0.00     0.074 A 
ATOM     67  C   UNL A   1      47.983  30.640  27.888  1.00  0.00     0.029 A 
ATOM     68  N   UNL A   1      46.489  29.004  27.682  1.00  0.00    -0.354 N 
ATOM     69  N   UNL A   1      45.638  26.220  27.269  1.00  0.00    -0.248 NA
ATOM     70  C   UNL A   1      46.112  24.031  26.601  1.00  0.00     0.031 C 
ATOM     71  C   UNL A   1      48.650  29.477  27.488  1.00  0.00     0.029 A 
ATOM     72  C   UNL A   1      47.721  28.456  27.367  1.00  0.00     0.049 A 
ATOM     73  H   UNL A   1      45.637  28.512  27.689  1.00  0.00     0.167 HD
ATOM     74  C   UNL A   1      46.988  26.122  26.954  1.00  0.00     0.074 A 
ATOM     75  C   UNL A   1      47.230  24.746  26.570  1.00  0.00     0.031 C 
ATOM     76  C   UNL A   1      47.940  27.085  26.978  1.00  0.00     0.037 A 
BRANCH  63  77
ATOM     77  C   UNL A   1      45.855  32.691  28.530  1.00  0.00     0.058 A 
ATOM     78  C   UNL A   1      45.806  33.604  27.463  1.00  0.00     0.135 A 
ATOM     79  C   UNL A   1      46.172  33.187  29.804  1.00  0.00     0.135 A 
ATOM     80  F   UNL A   1      45.524  33.178  26.222  1.00  0.00    -0.206 F 
ATOM     81  C   UNL A   1      46.088  34.952  27.648  1.00  0.00     0.059 A 
ATOM     82  C   UNL A   1      46.435  34.536  30.017  1.00  0.00     0.059 A 
ATOM     83  F   UNL A   1      46.234  32.355  30.856  1.00  0.00    -0.206 F 
ATOM     84  C   UNL A   1      46.406  35.409  28.929  1.00  0.00     0.060 A 
BRANCH  84  85
ATOM     85  S   UNL A   1      46.769  37.163  29.153  1.00  0.00     0.124 S 
ATOM     86  O   UNL A   1      46.602  37.311  30.596  1.00  0.00    -0.237 OA
ATOM     87  O   UNL A   1      48.140  37.264  28.662  1.00  0.00    -0.237 OA
ATOM     88  O   UNL A   1      45.761  37.825  28.332  1.00  0.00    -0.744 OA
ENDBRANCH  84  85
ENDBRANCH  63  77
BRANCH  64  89
ATOM     89  C   UNL A   1      43.343  23.145  26.978  1.00  0.00     0.058 A 
ATOM     90  C   UNL A   1      43.266  22.667  25.663  1.00  0.00     0.135 A 
ATOM     91  C   UNL A   1      43.074  22.244  28.020  1.00  0.00     0.135 A 
ATOM     92  F   UNL A   1      43.507  23.494  24.634  1.00  0.00    -0.206 F 
ATOM     93  C   UNL A   1      42.930  21.345  25.387  1.00  0.00     0.059 A 
ATOM     94  C   UNL A   1      42.755  20.913  27.770  1.00  0.00     0.059 A 
ATOM     95  F   UNL A   1      43.150  22.650  29.297  1.00  0.00    -0.206 F 
ATOM     96  C   UNL A   1      42.679  20.475  26.448  1.00  0.00     0.060 A 
BRANCH  96  97
ATOM     97  S   UNL A   1      42.303  18.746  26.083  1.00  0.00     0.124 S 
ATOM     98  O   UNL A   1      40.898  18.825  25.705  1.00  0.00    -0.237 OA
ATOM     99  O   UNL A   1      43.240  18.447  25.004  1.00  0.00    -0.237 OA
ATOM    100  O   UNL A   1      42.582  18.070  27.347  1.00  0.00    -0.744 OA
ENDBRANCH  96  97
ENDBRANCH  64  89
BRANCH  76 101
ATOM    101  C   UNL A   1      49.331  26.691  26.575  1.00  0.00     0.058 A 
ATOM    102  C   UNL A   1      50.201  26.069  27.483  1.00  0.00     0.135 A 
ATOM    103  C   UNL A   1      49.773  26.871  25.255  1.00  0.00     0.135 A 
ATOM    104  F   UNL A   1      49.828  25.884  28.758  1.00  0.00    -0.206 F 
ATOM    105  C   UNL A   1      51.466  25.640  27.096  1.00  0.00     0.059 A 
ATOM    106  C   UNL A   1      51.027  26.432  24.842  1.00  0.00     0.059 A 
ATOM    107  F   UNL A   1      48.975  27.457  24.349  1.00  0.00    -0.206 F 
ATOM    108  C   UNL A   1      51.869  25.822  25.771  1.00  0.00     0.060 A 
BRANCH 108 109
ATOM    109  S   UNL A   1      53.490  25.208  25.267  1.00  0.00     0.124 S 
ATOM    110  O   UNL A   1      54.360  25.826  26.262  1.00  0.00    -0.237 OA
ATOM    111  O   UNL A   1      53.327  23.762  25.378  1.00  0.00    -0.237 OA
ATOM    112  O   UNL A   1      53.634  25.713  23.905  1.00  0.00    -0.744 OA
ENDBRANCH 108 109
ENDBRANCH  76 101
ENDBRANCH  50  51
ENDBRANCH  42  45
ENDBRANCH  40  41
ENDBRANCH  39  40
ENDBRANCH   1  39
TORSDOF 20
ENDMDL
MODEL 2
REMARK VINA RESULT:     -12.2      1.273      1.712
REMARK SMILES NC(=O)C[C@H](NC(=O)C1(c2ccccc2)CCN(C(=O)[C@@H]2CCC[NH2+]2)CC1)C(=O)NCCCCNC(=O)c1ccc(-c2c3nc(c(-c4c(F)cc(S(=O)(=O)[O-])cc4F)c4ccc([nH]4)c(-c4c(F)cc(S(=O)(=O)[O-])cc4F)c4nc(c(-c5c(F)cc(S(=O)(=O)[O-])cc5F)c5ccc2[nH]5)C=C4)C=C3)cc1
REMARK SMILES IDX 32 1 31 2 30 3 28 4 29 5 5 7 4 8 2 9 1 10 3 13 6 14 7 15
REMARK SMILES IDX 8 17 9 18 16 19 27 20 17 21 26 22 18 23 19 24 20 25 10 26
REMARK SMILES IDX 11 27 15 28 12 29 14 30 13 31 21 32 22 33 25 34 23 35 24 36
REMARK SMILES IDX 33 39 34 40 35 41 36 42 37 44 38 45 39 46 103 47 40 48
REMARK SMILES IDX 102 49 41 50 42 51 43 52 96 53 44 54 101 55 95 56 97 57
REMARK SMILES IDX 45 58 100 59 94 60 93 61 46 63 80 64 59 65 79 66 60 67 63 68
REMARK SMILES IDX 78 69 98 70 61 71 62 72 77 74 99 75 64 76 47 77 48 78 57 79
REMARK SMILES IDX 49 80 50 81 56 82 58 83 51 84 52 85 53 86 54 87 55 88 81 89
REMARK SMILES IDX 82 90 91 91 83 92 84 93 90 94 92 95 85 96 86 97 87 98 88 99
REMARK SMILES IDX 89 100 65 101 66 102 75 103 67 104 68 105 74 106 76 107
REMARK SMILES IDX 69 108 70 109 71 110 72 111 73 112
REMARK H PARENT 30 6 1 11 1 12 6 16 25 37 25 38 35 43 97 62 63 73
REMARK Flexibility Score: inf
ROOT
ATOM      1  C   UNL A   1      31.812  28.622  27.265  1.00  0.00     0.023 C 
ENDROOT
BRANCH   1   2
ATOM      2  C   UNL A   1      31.900  27.210  26.703  1.00  0.00     0.116 C 
BRANCH   2   3
ATOM      3  N   UNL A   1      32.799  27.095  25.574  1.00  0.00    -0.354 N 
ATOM      4  C   UNL A   1      33.082  26.045  24.759  1.00  0.00     0.243 C 
ATOM      5  O   UNL A   1      33.681  26.295  23.706  1.00  0.00    -0.273 OA
ATOM      6  H   UNL A   1      33.291  27.920  25.359  1.00  0.00     0.163 HD
BRANCH   4   7
ATOM      7  C   UNL A   1      32.642  24.595  25.044  1.00  0.00     0.180 C 
BRANCH   7   8
ATOM      8  C   UNL A   1      31.139  24.348  24.879  1.00  0.00     0.134 C 
BRANCH   8   9
ATOM      9  C   UNL A   1      30.504  23.388  25.846  1.00  0.00     0.220 C 
ATOM     10  N   UNL A   1      29.867  23.946  26.914  1.00  0.00    -0.370 N 
ATOM     11  H   UNL A   1      29.431  23.369  27.583  1.00  0.00     0.159 HD
ATOM     12  H   UNL A   1      29.842  24.925  27.016  1.00  0.00     0.159 HD
ATOM     13  O   UNL A   1      30.548  22.172  25.709  1.00  0.00    -0.275 OA
ENDBRANCH   8   9
ENDBRANCH   7   8
BRANCH   7  14
ATOM     14  N   UNL A   1      33.199  24.014  26.266  1.00  0.00    -0.343 N 
ATOM     15  C   UNL A   1      34.145  23.104  26.573  1.00  0.00     0.231 C 
ATOM     16  H   UNL A   1      32.770  24.383  27.073  1.00  0.00     0.164 HD
ATOM     17  O   UNL A   1      34.266  22.951  27.801  1.00  0.00    -0.274 OA
BRANCH  15  18
ATOM     18  C   UNL A   1      35.034  22.248  25.610  1.00  0.00     0.077 C 
ATOM     19  C   UNL A   1      34.782  22.221  24.087  1.00  0.00     0.043 C 
ATOM     20  C   UNL A   1      34.814  20.778  26.092  1.00  0.00     0.043 C 
ATOM     21  C   UNL A   1      33.491  21.546  23.635  1.00  0.00     0.121 C 
ATOM     22  C   UNL A   1      33.409  20.291  25.753  1.00  0.00     0.121 C 
ATOM     23  N   UNL A   1      33.204  20.287  24.309  1.00  0.00    -0.337 N 
ATOM     24  C   UNL A   1      32.504  19.331  23.575  1.00  0.00     0.280 C 
ATOM     25  O   UNL A   1      32.107  19.587  22.431  1.00  0.00    -0.268 OA
BRANCH  18  26
ATOM     26  C   UNL A   1      36.506  22.716  25.788  1.00  0.00    -0.032 A 
ATOM     27  C   UNL A   1      36.857  24.033  26.135  1.00  0.00     0.005 A 
ATOM     28  C   UNL A   1      37.550  21.778  25.655  1.00  0.00     0.005 A 
ATOM     29  C   UNL A   1      38.188  24.391  26.369  1.00  0.00     0.000 A 
ATOM     30  C   UNL A   1      38.881  22.139  25.885  1.00  0.00     0.000 A 
ATOM     31  C   UNL A   1      39.199  23.443  26.250  1.00  0.00     0.000 A 
ENDBRANCH  18  26
BRANCH  24  32
ATOM     32  C   UNL A   1      32.188  17.941  24.154  1.00  0.00     0.272 C 
ATOM     33  C   UNL A   1      32.488  17.756  25.628  1.00  0.00     0.081 C 
ATOM     34  N   UNL A   1      32.838  16.826  23.425  1.00  0.00    -0.336 N 
ATOM     35  C   UNL A   1      32.678  16.256  25.737  1.00  0.00     0.068 C 
ATOM     36  C   UNL A   1      33.338  15.877  24.423  1.00  0.00     0.261 C 
ATOM     37  H   UNL A   1      33.614  17.182  22.864  1.00  0.00     0.346 HD
ATOM     38  H   UNL A   1      32.175  16.371  22.799  1.00  0.00     0.346 HD
ENDBRANCH  24  32
ENDBRANCH  15  18
ENDBRANCH   7  14
ENDBRANCH   4   7
ENDBRANCH   2   3
ENDBRANCH   1   2
BRANCH   1  39
ATOM     39  C   UNL A   1      32.848  29.601  26.719  1.00  0.00     0.023 C 
BRANCH  39  40
ATOM     40  C   UNL A   1      34.174  29.653  27.473  1.00  0.00     0.116 C 
BRANCH  40  41
ATOM     41  N   UNL A   1      34.251  30.737  28.445  1.00  0.00    -0.352 N 
ATOM     42  C   UNL A   1      35.292  31.087  29.282  1.00  0.00     0.251 C 
ATOM     43  H   UNL A   1      33.446  31.299  28.516  1.00  0.00     0.163 HD
ATOM     44  O   UNL A   1      35.164  31.979  30.098  1.00  0.00    -0.269 OA
BRANCH  42  45
ATOM     45  C   UNL A   1      36.548  30.315  29.193  1.00  0.00     0.039 A 
ATOM     46  C   UNL A   1      37.189  30.219  27.956  1.00  0.00     0.014 A 
ATOM     47  C   UNL A   1      37.141  29.804  30.350  1.00  0.00     0.014 A 
ATOM     48  C   UNL A   1      38.488  29.714  27.900  1.00  0.00     0.010 A 
ATOM     49  C   UNL A   1      38.460  29.368  30.301  1.00  0.00     0.010 A 
ATOM     50  C   UNL A   1      39.155  29.350  29.081  1.00  0.00    -0.014 A 
BRANCH  50  51
ATOM     51  C   UNL A   1      40.603  29.019  29.081  1.00  0.00     0.031 A 
ATOM     52  C   UNL A   1      41.620  30.085  29.364  1.00  0.00     0.074 A 
ATOM     53  C   UNL A   1      40.996  27.780  28.719  1.00  0.00     0.049 A 
ATOM     54  N   UNL A   1      42.924  30.019  29.289  1.00  0.00    -0.248 NA
ATOM     55  C   UNL A   1      41.104  31.407  29.754  1.00  0.00     0.031 C 
ATOM     56  C   UNL A   1      40.100  26.676  28.363  1.00  0.00     0.029 A 
ATOM     57  N   UNL A   1      42.251  27.247  28.567  1.00  0.00    -0.354 N 
ATOM     58  C   UNL A   1      43.384  31.291  29.603  1.00  0.00     0.074 A 
ATOM     59  C   UNL A   1      42.218  32.120  29.828  1.00  0.00     0.031 C 
ATOM     60  C   UNL A   1      40.834  25.595  28.051  1.00  0.00     0.029 A 
ATOM     61  C   UNL A   1      42.250  25.939  28.143  1.00  0.00     0.049 A 
ATOM     62  H   UNL A   1      43.077  27.752  28.747  1.00  0.00     0.167 HD
ATOM     63  C   UNL A   1      44.662  31.722  29.712  1.00  0.00     0.037 A 
ATOM     64  C   UNL A   1      43.270  25.113  27.843  1.00  0.00     0.037 A 
ATOM     65  C   UNL A   1      45.816  30.885  29.520  1.00  0.00     0.049 A 
ATOM     66  C   UNL A   1      44.681  25.617  27.964  1.00  0.00     0.074 A 
ATOM     67  C   UNL A   1      47.150  31.204  29.698  1.00  0.00     0.029 A 
ATOM     68  N   UNL A   1      45.772  29.563  29.099  1.00  0.00    -0.354 N 
ATOM     69  N   UNL A   1      45.100  26.803  28.337  1.00  0.00    -0.248 NA
ATOM     70  C   UNL A   1      45.757  24.680  27.616  1.00  0.00     0.031 C 
ATOM     71  C   UNL A   1      47.916  30.086  29.349  1.00  0.00     0.029 A 
ATOM     72  C   UNL A   1      47.058  29.061  28.984  1.00  0.00     0.049 A 
ATOM     73  H   UNL A   1      44.949  29.058  28.910  1.00  0.00     0.167 HD
ATOM     74  C   UNL A   1      46.487  26.753  28.275  1.00  0.00     0.074 A 
ATOM     75  C   UNL A   1      46.839  25.414  27.847  1.00  0.00     0.031 C 
ATOM     76  C   UNL A   1      47.388  27.728  28.546  1.00  0.00     0.037 A 
BRANCH  63  77
ATOM     77  C   UNL A   1      44.878  33.164  30.070  1.00  0.00     0.058 A 
ATOM     78  C   UNL A   1      44.989  34.155  29.081  1.00  0.00     0.135 A 
ATOM     79  C   UNL A   1      44.947  33.566  31.413  1.00  0.00     0.135 A 
ATOM     80  F   UNL A   1      44.944  33.821  27.782  1.00  0.00    -0.206 F 
ATOM     81  C   UNL A   1      45.189  35.491  29.412  1.00  0.00     0.059 A 
ATOM     82  C   UNL A   1      45.125  34.900  31.767  1.00  0.00     0.059 A 
ATOM     83  F   UNL A   1      44.849  32.657  32.396  1.00  0.00    -0.206 F 
ATOM     84  C   UNL A   1      45.260  35.853  30.758  1.00  0.00     0.060 A 
BRANCH  84  85
ATOM     85  S   UNL A   1      45.521  37.591  31.170  1.00  0.00     0.124 S 
ATOM     86  O   UNL A   1      46.779  37.527  31.909  1.00  0.00    -0.237 OA
ATOM     87  O   UNL A   1      45.592  38.219  29.854  1.00  0.00    -0.237 OA
ATOM     88  O   UNL A   1      44.344  37.932  31.963  1.00  0.00    -0.744 OA
ENDBRANCH  84  85
ENDBRANCH  63  77
BRANCH  64  89
ATOM     89  C   UNL A   1      42.995  23.721  27.401  1.00  0.00     0.058 A 
ATOM     90  C   UNL A   1      43.005  23.385  26.041  1.00  0.00     0.135 A 
ATOM     91  C   UNL A   1      42.739  22.698  28.328  1.00  0.00     0.135 A 
ATOM     92  F   UNL A   1      43.238  24.331  25.118  1.00  0.00    -0.206 F 
ATOM     93  C   UNL A   1      42.765  22.083  25.611  1.00  0.00     0.059 A 
ATOM     94  C   UNL A   1      42.515  21.386  27.924  1.00  0.00     0.059 A 
ATOM     95  F   UNL A   1      42.733  22.968  29.643  1.00  0.00    -0.206 F 
ATOM     96  C   UNL A   1      42.523  21.090  26.561  1.00  0.00     0.060 A 
BRANCH  96  97
ATOM     97  S   UNL A   1      42.274  19.391  25.997  1.00  0.00     0.124 S 
ATOM     98  O   UNL A   1      40.849  19.391  25.690  1.00  0.00    -0.237 OA
ATOM     99  O   UNL A   1      43.175  19.310  24.853  1.00  0.00    -0.237 OA
ATOM    100  O   UNL A   1      42.671  18.595  27.155  1.00  0.00    -0.744 OA
ENDBRANCH  96  97
ENDBRANCH  64  89
BRANCH  76 101
ATOM    101  C   UNL A   1      48.841  27.389  28.386  1.00  0.00     0.058 A 
ATOM    102  C   UNL A   1      49.548  27.752  27.231  1.00  0.00     0.135 A 
ATOM    103  C   UNL A   1      49.549  26.762  29.424  1.00  0.00     0.135 A 
ATOM    104  F   UNL A   1      48.913  28.344  26.208  1.00  0.00    -0.206 F 
ATOM    105  C   UNL A   1      50.911  27.501  27.106  1.00  0.00     0.059 A 
ATOM    106  C   UNL A   1      50.915  26.520  29.329  1.00  0.00     0.059 A 
ATOM    107  F   UNL A   1      48.917  26.401  30.551  1.00  0.00    -0.206 F 
ATOM    108  C   UNL A   1      51.587  26.888  28.164  1.00  0.00     0.060 A 
BRANCH 108 109
ATOM    109  S   UNL A   1      53.366  26.622  28.015  1.00  0.00     0.124 S 
ATOM    110  O   UNL A   1      53.761  27.743  27.169  1.00  0.00    -0.237 OA
ATOM    111  O   UNL A   1      53.811  26.686  29.404  1.00  0.00    -0.237 OA
ATOM    112  O   UNL A   1      53.460  25.303  27.395  1.00  0.00    -0.744 OA
ENDBRANCH 108 109
ENDBRANCH  76 101
ENDBRANCH  50  51
ENDBRANCH  42  45
ENDBRANCH  40  41
ENDBRANCH  39  40
ENDBRANCH   1  39
TORSDOF 20
ENDMDL
MODEL 3
REMARK VINA RESULT:     -11.8      1.973      4.117
REMARK SMILES NC(=O)C[C@H](NC(=O)C1(c2ccccc2)CCN(C(=O)[C@@H]2CCC[NH2+]2)CC1)C(=O)NCCCCNC(=O)c1ccc(-c2c3nc(c(-c4c(F)cc(S(=O)(=O)[O-])cc4F)c4ccc([nH]4)c(-c4c(F)cc(S(=O)(=O)[O-])cc4F)c4nc(c(-c5c(F)cc(S(=O)(=O)[O-])cc5F)c5ccc2[nH]5)C=C4)C=C3)cc1
REMARK SMILES IDX 32 1 31 2 30 3 28 4 29 5 5 7 4 8 2 9 1 10 3 13 6 14 7 15
REMARK SMILES IDX 8 17 9 18 16 19 27 20 17 21 26 22 18 23 19 24 20 25 10 26
REMARK SMILES IDX 11 27 15 28 12 29 14 30 13 31 21 32 22 33 25 34 23 35 24 36
REMARK SMILES IDX 33 39 34 40 35 41 36 42 37 44 38 45 39 46 103 47 40 48
REMARK SMILES IDX 102 49 41 50 42 51 43 52 96 53 44 54 101 55 95 56 97 57
REMARK SMILES IDX 45 58 100 59 94 60 93 61 46 63 80 64 59 65 79 66 60 67 63 68
REMARK SMILES IDX 78 69 98 70 61 71 62 72 77 74 99 75 64 76 47 77 48 78 57 79
REMARK SMILES IDX 49 80 50 81 56 82 58 83 51 84 52 85 53 86 54 87 55 88 81 89
REMARK SMILES IDX 82 90 91 91 83 92 84 93 90 94 92 95 85 96 86 97 87 98 88 99
REMARK SMILES IDX 89 100 65 101 66 102 75 103 67 104 68 105 74 106 76 107
REMARK SMILES IDX 69 108 70 109 71 110 72 111 73 112
REMARK H PARENT 30 6 1 11 1 12 6 16 25 37 25 38 35 43 97 62 63 73
REMARK Flexibility Score: inf
ROOT
ATOM      1  C   UNL A   1      34.313  30.622  27.961  1.00  0.00     0.023 C 
ENDROOT
BRANCH   1   2
ATOM      2  C   UNL A   1      34.582  29.244  27.375  1.00  0.00     0.116 C 
BRANCH   2   3
ATOM      3  N   UNL A   1      34.361  29.172  25.946  1.00  0.00    -0.354 N 
ATOM      4  C   UNL A   1      33.224  29.273  25.209  1.00  0.00     0.243 C 
ATOM      5  O   UNL A   1      33.355  29.448  23.992  1.00  0.00    -0.273 OA
ATOM      6  H   UNL A   1      35.177  29.022  25.415  1.00  0.00     0.163 HD
BRANCH   4   7
ATOM      7  C   UNL A   1      31.806  29.250  25.815  1.00  0.00     0.180 C 
BRANCH   7   8
ATOM      8  C   UNL A   1      31.502  30.424  26.752  1.00  0.00     0.134 C 
BRANCH   8   9
ATOM      9  C   UNL A   1      31.065  31.708  26.103  1.00  0.00     0.220 C 
ATOM     10  N   UNL A   1      30.415  31.586  24.911  1.00  0.00    -0.370 N 
ATOM     11  H   UNL A   1      30.104  32.390  24.435  1.00  0.00     0.159 HD
ATOM     12  H   UNL A   1      30.258  30.694  24.525  1.00  0.00     0.159 HD
ATOM     13  O   UNL A   1      31.273  32.811  26.592  1.00  0.00    -0.275 OA
ENDBRANCH   8   9
ENDBRANCH   7   8
BRANCH   7  14
ATOM     14  N   UNL A   1      31.387  27.954  26.347  1.00  0.00    -0.343 N 
ATOM     15  C   UNL A   1      31.077  26.743  25.841  1.00  0.00     0.231 C 
ATOM     16  H   UNL A   1      31.310  27.971  27.329  1.00  0.00     0.164 HD
ATOM     17  O   UNL A   1      30.780  25.926  26.730  1.00  0.00    -0.274 OA
BRANCH  15  18
ATOM     18  C   UNL A   1      31.025  26.288  24.343  1.00  0.00     0.077 C 
ATOM     19  C   UNL A   1      30.408  24.935  23.930  1.00  0.00     0.043 C 
ATOM     20  C   UNL A   1      32.527  26.207  23.917  1.00  0.00     0.043 C 
ATOM     21  C   UNL A   1      31.172  23.691  24.371  1.00  0.00     0.121 C 
ATOM     22  C   UNL A   1      33.227  25.030  24.588  1.00  0.00     0.121 C 
ATOM     23  N   UNL A   1      32.613  23.772  24.182  1.00  0.00    -0.337 N 
ATOM     24  C   UNL A   1      33.277  22.574  23.918  1.00  0.00     0.280 C 
ATOM     25  O   UNL A   1      32.657  21.503  23.911  1.00  0.00    -0.268 OA
BRANCH  18  26
ATOM     26  C   UNL A   1      30.241  27.372  23.550  1.00  0.00    -0.032 A 
ATOM     27  C   UNL A   1      28.858  27.580  23.696  1.00  0.00     0.005 A 
ATOM     28  C   UNL A   1      30.941  28.233  22.681  1.00  0.00     0.005 A 
ATOM     29  C   UNL A   1      28.208  28.622  23.027  1.00  0.00     0.000 A 
ATOM     30  C   UNL A   1      30.288  29.271  22.010  1.00  0.00     0.000 A 
ATOM     31  C   UNL A   1      28.923  29.471  22.189  1.00  0.00     0.000 A 
ENDBRANCH  18  26
BRANCH  24  32
ATOM     32  C   UNL A   1      34.790  22.533  23.644  1.00  0.00     0.272 C 
ATOM     33  C   UNL A   1      35.579  21.511  24.440  1.00  0.00     0.081 C 
ATOM     34  N   UNL A   1      35.465  23.842  23.811  1.00  0.00    -0.336 N 
ATOM     35  C   UNL A   1      36.974  22.103  24.440  1.00  0.00     0.068 C 
ATOM     36  C   UNL A   1      36.733  23.602  24.504  1.00  0.00     0.261 C 
ATOM     37  H   UNL A   1      34.879  24.468  24.366  1.00  0.00     0.346 HD
ATOM     38  H   UNL A   1      35.629  24.280  22.905  1.00  0.00     0.346 HD
ENDBRANCH  24  32
ENDBRANCH  15  18
ENDBRANCH   7  14
ENDBRANCH   4   7
ENDBRANCH   2   3
ENDBRANCH   1   2
BRANCH   1  39
ATOM     39  C   UNL A   1      35.489  31.593  27.894  1.00  0.00     0.023 C 
BRANCH  39  40
ATOM     40  C   UNL A   1      36.017  32.088  29.238  1.00  0.00     0.116 C 
BRANCH  40  41
ATOM     41  N   UNL A   1      35.798  31.150  30.333  1.00  0.00    -0.352 N 
ATOM     42  C   UNL A   1      36.693  30.292  30.941  1.00  0.00     0.251 C 
ATOM     43  H   UNL A   1      34.881  31.124  30.690  1.00  0.00     0.163 HD
ATOM     44  O   UNL A   1      36.326  29.510  31.796  1.00  0.00    -0.269 OA
BRANCH  42  45
ATOM     45  C   UNL A   1      38.099  30.316  30.487  1.00  0.00     0.039 A 
ATOM     46  C   UNL A   1      39.112  30.242  31.444  1.00  0.00     0.014 A 
ATOM     47  C   UNL A   1      38.396  30.283  29.122  1.00  0.00     0.014 A 
ATOM     48  C   UNL A   1      40.425  30.012  31.030  1.00  0.00     0.010 A 
ATOM     49  C   UNL A   1      39.691  29.983  28.717  1.00  0.00     0.010 A 
ATOM     50  C   UNL A   1      40.709  29.814  29.669  1.00  0.00    -0.014 A 
BRANCH  50  51
ATOM     51  C   UNL A   1      42.047  29.353  29.218  1.00  0.00     0.031 A 
ATOM     52  C   UNL A   1      43.180  30.329  29.096  1.00  0.00     0.074 A 
ATOM     53  C   UNL A   1      42.204  28.073  28.818  1.00  0.00     0.049 A 
ATOM     54  N   UNL A   1      44.378  30.143  28.607  1.00  0.00    -0.248 NA
ATOM     55  C   UNL A   1      42.923  31.702  29.557  1.00  0.00     0.031 C 
ATOM     56  C   UNL A   1      41.159  27.046  28.834  1.00  0.00     0.029 A 
ATOM     57  N   UNL A   1      43.295  27.424  28.298  1.00  0.00    -0.354 N 
ATOM     58  C   UNL A   1      45.012  31.376  28.683  1.00  0.00     0.074 A 
ATOM     59  C   UNL A   1      44.051  32.313  29.227  1.00  0.00     0.031 C 
ATOM     60  C   UNL A   1      41.665  25.894  28.362  1.00  0.00     0.029 A 
ATOM     61  C   UNL A   1      43.054  26.110  27.971  1.00  0.00     0.049 A 
ATOM     62  H   UNL A   1      44.171  27.858  28.173  1.00  0.00     0.167 HD
ATOM     63  C   UNL A   1      46.285  31.691  28.349  1.00  0.00     0.037 A 
ATOM     64  C   UNL A   1      43.854  25.187  27.403  1.00  0.00     0.037 A 
ATOM     65  C   UNL A   1      47.243  30.748  27.840  1.00  0.00     0.049 A 
ATOM     66  C   UNL A   1      45.261  25.565  27.033  1.00  0.00     0.074 A 
ATOM     67  C   UNL A   1      48.583  30.949  27.558  1.00  0.00     0.029 A 
ATOM     68  N   UNL A   1      46.963  29.425  27.531  1.00  0.00    -0.354 N 
ATOM     69  N   UNL A   1      45.868  26.718  27.183  1.00  0.00    -0.248 NA
ATOM     70  C   UNL A   1      46.088  24.524  26.409  1.00  0.00     0.031 C 
ATOM     71  C   UNL A   1      49.104  29.758  27.044  1.00  0.00     0.029 A 
ATOM     72  C   UNL A   1      48.097  28.805  27.034  1.00  0.00     0.049 A 
ATOM     73  H   UNL A   1      46.088  28.991  27.646  1.00  0.00     0.167 HD
ATOM     74  C   UNL A   1      47.151  26.540  26.678  1.00  0.00     0.074 A 
ATOM     75  C   UNL A   1      47.239  25.163  26.236  1.00  0.00     0.031 C 
ATOM     76  C   UNL A   1      48.163  27.436  26.588  1.00  0.00     0.037 A 
BRANCH  63  77
ATOM     77  C   UNL A   1      46.715  33.118  28.536  1.00  0.00     0.058 A 
ATOM     78  C   UNL A   1      47.344  33.544  29.718  1.00  0.00     0.135 A 
ATOM     79  C   UNL A   1      46.524  34.064  27.517  1.00  0.00     0.135 A 
ATOM     80  F   UNL A   1      47.537  32.682  30.729  1.00  0.00    -0.206 F 
ATOM     81  C   UNL A   1      47.742  34.864  29.893  1.00  0.00     0.059 A 
ATOM     82  C   UNL A   1      46.935  35.385  27.662  1.00  0.00     0.059 A 
ATOM     83  F   UNL A   1      45.926  33.708  26.369  1.00  0.00    -0.206 F 
ATOM     84  C   UNL A   1      47.529  35.779  28.860  1.00  0.00     0.060 A 
BRANCH  84  85
ATOM     85  S   UNL A   1      48.051  37.490  29.103  1.00  0.00     0.124 S 
ATOM     86  O   UNL A   1      49.503  37.366  29.007  1.00  0.00    -0.237 OA
ATOM     87  O   UNL A   1      47.400  38.178  27.992  1.00  0.00    -0.237 OA
ATOM     88  O   UNL A   1      47.535  37.817  30.428  1.00  0.00    -0.744 OA
ENDBRANCH  84  85
ENDBRANCH  63  77
BRANCH  64  89
ATOM     89  C   UNL A   1      43.343  23.815  27.154  1.00  0.00     0.058 A 
ATOM     90  C   UNL A   1      42.844  23.453  25.895  1.00  0.00     0.135 A 
ATOM     91  C   UNL A   1      43.363  22.834  28.157  1.00  0.00     0.135 A 
ATOM     92  F   UNL A   1      42.799  24.359  24.906  1.00  0.00    -0.206 F 
ATOM     93  C   UNL A   1      42.377  22.167  25.639  1.00  0.00     0.059 A 
ATOM     94  C   UNL A   1      42.920  21.537  27.920  1.00  0.00     0.059 A 
ATOM     95  F   UNL A   1      43.846  23.128  29.375  1.00  0.00    -0.206 F 
ATOM     96  C   UNL A   1      42.421  21.215  26.658  1.00  0.00     0.060 A 
BRANCH  96  97
ATOM     97  S   UNL A   1      41.869  19.532  26.299  1.00  0.00     0.124 S 
ATOM     98  O   UNL A   1      42.624  19.228  25.091  1.00  0.00    -0.237 OA
ATOM     99  O   UNL A   1      42.271  18.812  27.503  1.00  0.00    -0.237 OA
ATOM    100  O   UNL A   1      40.428  19.686  26.124  1.00  0.00    -0.744 OA
ENDBRANCH  96  97
ENDBRANCH  64  89
BRANCH  76 101
ATOM    101  C   UNL A   1      49.453  26.962  25.986  1.00  0.00     0.058 A 
ATOM    102  C   UNL A   1      49.736  27.160  24.626  1.00  0.00     0.135 A 
ATOM    103  C   UNL A   1      50.443  26.371  26.786  1.00  0.00     0.135 A 
ATOM    104  F   UNL A   1      48.817  27.712  23.819  1.00  0.00    -0.206 F 
ATOM    105  C   UNL A   1      50.957  26.785  24.078  1.00  0.00     0.059 A 
ATOM    106  C   UNL A   1      51.679  26.006  26.263  1.00  0.00     0.059 A 
ATOM    107  F   UNL A   1      50.221  26.165  28.094  1.00  0.00    -0.206 F 
ATOM    108  C   UNL A   1      51.925  26.212  24.906  1.00  0.00     0.060 A 
BRANCH 108 109
ATOM    109  S   UNL A   1      53.528  25.783  24.195  1.00  0.00     0.124 S 
ATOM    110  O   UNL A   1      54.389  26.814  24.767  1.00  0.00    -0.237 OA
ATOM    111  O   UNL A   1      53.742  24.428  24.696  1.00  0.00    -0.237 OA
ATOM    112  O   UNL A   1      53.298  25.883  22.757  1.00  0.00    -0.744 OA
ENDBRANCH 108 109
ENDBRANCH  76 101
ENDBRANCH  50  51
ENDBRANCH  42  45
ENDBRANCH  40  41
ENDBRANCH  39  40
ENDBRANCH   1  39
TORSDOF 20
ENDMDL
