MODEL 1
REMARK VINA RESULT:     -11.8      0.000      0.000
REMARK SMILES CCCc1cc(S(F)(F)(F)(F)F)cc2c1O[C@@H](C(F)(F)F)C(C(=O)NCCCCNC(=O)c1ccc(-c3c4nc(c(-c5c(F)cc(S(=O)(=O)[O-])cc5F)c5ccc([nH]5)c(-c5c(F)cc(S(=O)(=O)[O-])cc5F)c5nc(c(-c6c(F)cc(S(=O)(=O)[O-])cc6F)c6ccc3[nH]6)C=C5)C=C4)cc1)=C2
REMARK SMILES IDX 28 1 27 2 26 3 25 4 23 5 24 6 22 8 4 9 5 10 15 11 6 12 14 13
REMARK SMILES IDX 16 14 13 15 99 16 17 17 3 18 2 19 1 20 7 21 8 22 9 23 10 24
REMARK SMILES IDX 11 25 12 26 18 27 19 28 20 29 21 30 29 31 30 32 31 33 32 35
REMARK SMILES IDX 33 36 34 37 98 38 35 39 97 40 36 41 37 42 38 43 91 44 39 45
REMARK SMILES IDX 96 46 90 47 92 48 40 49 95 50 89 51 88 52 41 54 75 55 54 56
REMARK SMILES IDX 74 57 55 58 58 59 73 60 93 61 56 62 57 63 72 65 94 66 59 67
REMARK SMILES IDX 42 68 43 69 52 70 44 71 45 72 51 73 53 74 46 75 47 76 48 77
REMARK SMILES IDX 49 78 50 79 76 80 77 81 86 82 78 83 79 84 85 85 87 86 80 87
REMARK SMILES IDX 81 88 82 89 83 90 84 91 60 92 61 93 70 94 62 95 63 96 69 97
REMARK SMILES IDX 71 98 64 99 65 100 66 101 67 102 68 103
REMARK H PARENT 25 7 30 34 92 53 58 64
REMARK Flexibility Score: inf
ROOT
ATOM      1  C   UNL A   1      33.073  27.409  26.677  1.00  0.00     0.023 C 
ENDROOT
BRANCH   1   2
ATOM      2  C   UNL A   1      31.831  28.200  26.299  1.00  0.00     0.023 C 
BRANCH   2   3
ATOM      3  C   UNL A   1      30.740  27.245  25.844  1.00  0.00     0.116 C 
BRANCH   3   4
ATOM      4  N   UNL A   1      30.299  27.614  24.491  1.00  0.00    -0.352 N 
ATOM      5  C   UNL A   1      30.842  26.907  23.322  1.00  0.00     0.251 C 
ATOM      6  O   UNL A   1      30.461  27.226  22.153  1.00  0.00    -0.270 OA
ATOM      7  H   UNL A   1      29.640  28.335  24.367  1.00  0.00     0.163 HD
BRANCH   5   8
ATOM      8  C   UNL A   1      31.860  25.794  23.513  1.00  0.00     0.067 C 
ATOM      9  C   UNL A   1      34.726  22.755  23.533  1.00  0.00    -0.004 A 
ATOM     10  C   UNL A   1      34.359  21.462  23.857  1.00  0.00     0.032 A 
ATOM     11  C   UNL A   1      33.754  23.724  23.482  1.00  0.00     0.131 A 
ATOM     12  C   UNL A   1      33.051  21.146  24.119  1.00  0.00     0.108 A 
ATOM     13  C   UNL A   1      32.427  23.446  23.758  1.00  0.00     0.019 A 
ATOM     14  O   UNL A   1      34.114  24.976  23.050  1.00  0.00    -0.475 OA
ATOM     15  C   UNL A   1      32.091  22.135  24.077  1.00  0.00     0.036 A 
ATOM     16  C   UNL A   1      31.469  24.531  23.640  1.00  0.00     0.025 C 
ATOM     17  C   UNL A   1      33.350  26.103  23.565  1.00  0.00     0.314 C 
BRANCH   9  18
ATOM     18  C   UNL A   1      36.178  23.097  23.239  1.00  0.00     0.039 C 
BRANCH  18  19
ATOM     19  C   UNL A   1      37.044  22.685  24.417  1.00  0.00     0.001 C 
ATOM     20  C   UNL A   1      36.896  23.704  25.536  1.00  0.00     0.004 C 
ENDBRANCH  18  19
ENDBRANCH   9  18
BRANCH  12  21
ATOM     21  S   UNL A   1      32.587  19.441  24.518  1.00  0.00     0.310 S 
ATOM     22  F   UNL A   1      34.109  19.064  24.275  1.00  0.00    -0.094 F 
ATOM     23  F   UNL A   1      32.333  19.103  23.000  1.00  0.00    -0.094 F 
ATOM     24  F   UNL A   1      32.347  17.958  24.917  1.00  0.00    -0.094 F 
ATOM     25  F   UNL A   1      32.982  19.772  26.011  1.00  0.00    -0.094 F 
ATOM     26  F   UNL A   1      32.945  20.927  24.110  1.00  0.00    -0.094 F 
ENDBRANCH  12  21
BRANCH  17  27
ATOM     27  C   UNL A   1      33.633  27.327  22.709  1.00  0.00     0.429 C 
ATOM     28  F   UNL A   1      32.932  28.360  23.170  1.00  0.00    -0.167 F 
ATOM     29  F   UNL A   1      34.930  27.613  22.761  1.00  0.00    -0.167 F 
ATOM     30  F   UNL A   1      33.283  27.079  21.451  1.00  0.00    -0.167 F 
ENDBRANCH  17  27
ENDBRANCH   5   8
ENDBRANCH   3   4
ENDBRANCH   2   3
ENDBRANCH   1   2
BRANCH   1  31
ATOM     31  C   UNL A   1      34.215  28.368  26.967  1.00  0.00     0.116 C 
BRANCH  31  32
ATOM     32  N   UNL A   1      33.670  29.670  27.377  1.00  0.00    -0.352 N 
ATOM     33  C   UNL A   1      34.520  30.628  28.099  1.00  0.00     0.251 C 
ATOM     34  H   UNL A   1      32.736  29.901  27.168  1.00  0.00     0.163 HD
ATOM     35  O   UNL A   1      34.048  31.754  28.454  1.00  0.00    -0.269 OA
BRANCH  33  36
ATOM     36  C   UNL A   1      35.961  30.272  28.421  1.00  0.00     0.039 A 
ATOM     37  C   UNL A   1      36.916  30.493  27.443  1.00  0.00     0.014 A 
ATOM     38  C   UNL A   1      36.289  29.748  29.597  1.00  0.00     0.014 A 
ATOM     39  C   UNL A   1      38.155  29.856  27.695  1.00  0.00     0.010 A 
ATOM     40  C   UNL A   1      37.556  29.268  29.819  1.00  0.00     0.010 A 
ATOM     41  C   UNL A   1      38.535  29.399  28.874  1.00  0.00    -0.014 A 
BRANCH  41  42
ATOM     42  C   UNL A   1      39.983  29.040  29.163  1.00  0.00     0.031 A 
ATOM     43  C   UNL A   1      40.421  27.759  28.821  1.00  0.00     0.074 A 
ATOM     44  C   UNL A   1      40.801  30.019  29.698  1.00  0.00     0.049 A 
ATOM     45  N   UNL A   1      41.660  27.272  28.907  1.00  0.00    -0.248 NA
ATOM     46  C   UNL A   1      39.546  26.704  28.285  1.00  0.00     0.031 C 
ATOM     47  C   UNL A   1      40.370  31.316  30.038  1.00  0.00     0.029 A 
ATOM     48  N   UNL A   1      42.144  29.931  29.993  1.00  0.00    -0.354 N 
ATOM     49  C   UNL A   1      41.692  26.012  28.468  1.00  0.00     0.074 A 
ATOM     50  C   UNL A   1      40.332  25.627  28.068  1.00  0.00     0.031 C 
ATOM     51  C   UNL A   1      41.433  31.996  30.542  1.00  0.00     0.029 A 
ATOM     52  C   UNL A   1      42.547  31.136  30.525  1.00  0.00     0.049 A 
ATOM     53  H   UNL A   1      42.716  29.143  29.851  1.00  0.00     0.167 HD
ATOM     54  C   UNL A   1      42.801  25.169  28.384  1.00  0.00     0.037 A 
ATOM     55  C   UNL A   1      43.810  31.483  30.977  1.00  0.00     0.037 A 
ATOM     56  C   UNL A   1      44.074  25.532  28.796  1.00  0.00     0.049 A 
ATOM     57  C   UNL A   1      44.909  30.621  30.947  1.00  0.00     0.074 A 
ATOM     58  C   UNL A   1      45.205  24.698  28.712  1.00  0.00     0.029 A 
ATOM     59  N   UNL A   1      44.472  26.729  29.350  1.00  0.00    -0.354 N 
ATOM     60  N   UNL A   1      44.949  29.376  30.472  1.00  0.00    -0.248 NA
ATOM     61  C   UNL A   1      46.244  30.968  31.452  1.00  0.00     0.031 C 
ATOM     62  C   UNL A   1      46.269  25.379  29.217  1.00  0.00     0.029 A 
ATOM     63  C   UNL A   1      45.819  26.648  29.625  1.00  0.00     0.049 A 
ATOM     64  H   UNL A   1      43.894  27.507  29.521  1.00  0.00     0.167 HD
ATOM     65  C   UNL A   1      46.179  28.875  30.597  1.00  0.00     0.074 A 
ATOM     66  C   UNL A   1      47.029  29.890  31.237  1.00  0.00     0.031 C 
ATOM     67  C   UNL A   1      46.630  27.614  30.200  1.00  0.00     0.037 A 
BRANCH  54  68
ATOM     68  C   UNL A   1      42.603  23.776  27.809  1.00  0.00     0.058 A 
ATOM     69  C   UNL A   1      42.625  23.598  26.437  1.00  0.00     0.135 A 
ATOM     70  C   UNL A   1      42.410  22.753  28.634  1.00  0.00     0.135 A 
ATOM     71  F   UNL A   1      43.060  24.529  25.591  1.00  0.00    -0.206 F 
ATOM     72  C   UNL A   1      42.144  22.337  26.014  1.00  0.00     0.059 A 
ATOM     73  C   UNL A   1      42.074  21.514  28.144  1.00  0.00     0.059 A 
ATOM     74  F   UNL A   1      42.544  22.930  29.946  1.00  0.00    -0.206 F 
ATOM     75  C   UNL A   1      42.020  21.281  26.798  1.00  0.00     0.060 A 
BRANCH  75  76
ATOM     76  S   UNL A   1      41.790  19.616  26.127  1.00  0.00     0.124 S 
ATOM     77  O   UNL A   1      42.174  18.582  27.186  1.00  0.00    -0.237 OA
ATOM     78  O   UNL A   1      40.325  19.423  25.732  1.00  0.00    -0.237 OA
ATOM     79  O   UNL A   1      42.783  19.416  24.749  1.00  0.00    -0.744 OA
ENDBRANCH  75  76
ENDBRANCH  54  68
BRANCH  55  80
ATOM     80  C   UNL A   1      44.012  32.883  31.536  1.00  0.00     0.058 A 
ATOM     81  C   UNL A   1      44.349  33.916  30.678  1.00  0.00     0.135 A 
ATOM     82  C   UNL A   1      43.860  33.091  32.839  1.00  0.00     0.135 A 
ATOM     83  F   UNL A   1      44.266  33.816  29.354  1.00  0.00    -0.206 F 
ATOM     84  C   UNL A   1      44.792  35.087  31.337  1.00  0.00     0.059 A 
ATOM     85  C   UNL A   1      44.184  34.305  33.396  1.00  0.00     0.059 A 
ATOM     86  F   UNL A   1      43.390  32.116  33.612  1.00  0.00    -0.206 F 
ATOM     87  C   UNL A   1      44.582  35.353  32.613  1.00  0.00     0.060 A 
BRANCH  87  88
ATOM     88  S   UNL A   1      44.809  37.016  33.291  1.00  0.00     0.124 S 
ATOM     89  O   UNL A   1      44.392  37.028  34.763  1.00  0.00    -0.237 OA
ATOM     90  O   UNL A   1      46.282  37.418  33.176  1.00  0.00    -0.237 OA
ATOM     91  O   UNL A   1      43.845  38.126  32.417  1.00  0.00    -0.744 OA
ENDBRANCH  87  88
ENDBRANCH  55  80
BRANCH  67  92
ATOM     92  C   UNL A   1      48.098  27.281  30.413  1.00  0.00     0.058 A 
ATOM     93  C   UNL A   1      48.447  26.684  31.613  1.00  0.00     0.135 A 
ATOM     94  C   UNL A   1      49.015  27.591  29.505  1.00  0.00     0.135 A 
ATOM     95  F   UNL A   1      47.559  26.130  32.434  1.00  0.00    -0.206 F 
ATOM     96  C   UNL A   1      49.835  26.715  31.885  1.00  0.00     0.059 A 
ATOM     97  C   UNL A   1      50.353  27.468  29.792  1.00  0.00     0.059 A 
ATOM     98  F   UNL A   1      48.635  28.024  28.305  1.00  0.00    -0.206 F 
ATOM     99  C   UNL A   1      50.771  26.940  30.982  1.00  0.00     0.060 A 
BRANCH  99 100
ATOM    100  S   UNL A   1      52.514  26.572  31.302  1.00  0.00     0.124 S 
ATOM    101  O   UNL A   1      53.247  26.380  29.973  1.00  0.00    -0.237 OA
ATOM    102  O   UNL A   1      53.148  27.733  32.071  1.00  0.00    -0.237 OA
ATOM    103  O   UNL A   1      52.633  25.140  32.230  1.00  0.00    -0.744 OA
ENDBRANCH  99 100
ENDBRANCH  67  92
ENDBRANCH  41  42
ENDBRANCH  33  36
ENDBRANCH  31  32
ENDBRANCH   1  31
TORSDOF 18
ENDMDL
MODEL 2
REMARK VINA RESULT:     -11.7      4.980      9.888
REMARK SMILES CCCc1cc(S(F)(F)(F)(F)F)cc2c1O[C@@H](C(F)(F)F)C(C(=O)NCCCCNC(=O)c1ccc(-c3c4nc(c(-c5c(F)cc(S(=O)(=O)[O-])cc5F)c5ccc([nH]5)c(-c5c(F)cc(S(=O)(=O)[O-])cc5F)c5nc(c(-c6c(F)cc(S(=O)(=O)[O-])cc6F)c6ccc3[nH]6)C=C5)C=C4)cc1)=C2
REMARK SMILES IDX 28 1 27 2 26 3 25 4 23 5 24 6 22 8 4 9 5 10 15 11 6 12 14 13
REMARK SMILES IDX 16 14 13 15 99 16 17 17 3 18 2 19 1 20 7 21 8 22 9 23 10 24
REMARK SMILES IDX 11 25 12 26 18 27 19 28 20 29 21 30 29 31 30 32 31 33 32 35
REMARK SMILES IDX 33 36 34 37 98 38 35 39 97 40 36 41 37 42 38 43 91 44 39 45
REMARK SMILES IDX 96 46 90 47 92 48 40 49 95 50 89 51 88 52 41 54 75 55 54 56
REMARK SMILES IDX 74 57 55 58 58 59 73 60 93 61 56 62 57 63 72 65 94 66 59 67
REMARK SMILES IDX 42 68 43 69 52 70 44 71 45 72 51 73 53 74 46 75 47 76 48 77
REMARK SMILES IDX 49 78 50 79 76 80 77 81 86 82 78 83 79 84 85 85 87 86 80 87
REMARK SMILES IDX 81 88 82 89 83 90 84 91 60 92 61 93 70 94 62 95 63 96 69 97
REMARK SMILES IDX 71 98 64 99 65 100 66 101 67 102 68 103
REMARK H PARENT 25 7 30 34 92 53 58 64
REMARK Flexibility Score: inf
ROOT
ATOM      1  C   UNL A   1      37.841  24.103  26.385  1.00  0.00     0.023 C 
ENDROOT
BRANCH   1   2
ATOM      2  C   UNL A   1      37.597  23.081  25.286  1.00  0.00     0.023 C 
BRANCH   2   3
ATOM      3  C   UNL A   1      36.314  23.426  24.549  1.00  0.00     0.116 C 
BRANCH   3   4
ATOM      4  N   UNL A   1      35.265  22.463  24.913  1.00  0.00    -0.352 N 
ATOM      5  C   UNL A   1      33.884  22.921  25.122  1.00  0.00     0.251 C 
ATOM      6  O   UNL A   1      32.979  22.088  25.436  1.00  0.00    -0.270 OA
ATOM      7  H   UNL A   1      35.488  21.509  25.018  1.00  0.00     0.163 HD
BRANCH   5   8
ATOM      8  C   UNL A   1      33.541  24.393  24.960  1.00  0.00     0.067 C 
ATOM      9  C   UNL A   1      32.930  28.442  24.130  1.00  0.00    -0.004 A 
ATOM     10  C   UNL A   1      33.329  29.401  25.042  1.00  0.00     0.032 A 
ATOM     11  C   UNL A   1      33.192  27.121  24.404  1.00  0.00     0.131 A 
ATOM     12  C   UNL A   1      33.977  29.048  26.198  1.00  0.00     0.108 A 
ATOM     13  C   UNL A   1      33.826  26.726  25.568  1.00  0.00     0.019 A 
ATOM     14  O   UNL A   1      32.892  26.191  23.439  1.00  0.00    -0.475 OA
ATOM     15  C   UNL A   1      34.217  27.717  26.462  1.00  0.00     0.036 A 
ATOM     16  C   UNL A   1      34.091  25.309  25.747  1.00  0.00     0.025 C 
ATOM     17  C   UNL A   1      32.556  24.849  23.891  1.00  0.00     0.314 C 
BRANCH   9  18
ATOM     18  C   UNL A   1      32.218  28.841  22.848  1.00  0.00     0.039 C 
BRANCH  18  19
ATOM     19  C   UNL A   1      30.827  29.354  23.181  1.00  0.00     0.001 C 
ATOM     20  C   UNL A   1      30.021  29.500  21.900  1.00  0.00     0.004 C 
ENDBRANCH  18  19
ENDBRANCH   9  18
BRANCH  12  21
ATOM     21  S   UNL A   1      34.512  30.322  27.368  1.00  0.00     0.310 S 
ATOM     22  F   UNL A   1      34.650  29.158  28.437  1.00  0.00    -0.094 F 
ATOM     23  F   UNL A   1      33.040  30.532  27.889  1.00  0.00    -0.094 F 
ATOM     24  F   UNL A   1      35.062  31.296  28.448  1.00  0.00    -0.094 F 
ATOM     25  F   UNL A   1      35.990  29.991  26.922  1.00  0.00    -0.094 F 
ATOM     26  F   UNL A   1      33.977  29.245  26.341  1.00  0.00    -0.094 F 
ENDBRANCH  12  21
BRANCH  17  27
ATOM     27  C   UNL A   1      32.629  23.895  22.710  1.00  0.00     0.429 C 
ATOM     28  F   UNL A   1      33.893  23.525  22.518  1.00  0.00    -0.167 F 
ATOM     29  F   UNL A   1      31.886  22.822  22.962  1.00  0.00    -0.167 F 
ATOM     30  F   UNL A   1      32.174  24.504  21.619  1.00  0.00    -0.167 F 
ENDBRANCH  17  27
ENDBRANCH   5   8
ENDBRANCH   3   4
ENDBRANCH   2   3
ENDBRANCH   1   2
BRANCH   1  31
ATOM     31  C   UNL A   1      39.248  23.930  26.933  1.00  0.00     0.116 C 
BRANCH  31  32
ATOM     32  N   UNL A   1      40.226  24.295  25.899  1.00  0.00    -0.352 N 
ATOM     33  C   UNL A   1      41.032  25.516  26.048  1.00  0.00     0.251 C 
ATOM     34  H   UNL A   1      40.341  23.723  25.106  1.00  0.00     0.163 HD
ATOM     35  O   UNL A   1      41.878  25.832  25.153  1.00  0.00    -0.269 OA
BRANCH  33  36
ATOM     36  C   UNL A   1      40.854  26.399  27.271  1.00  0.00     0.039 A 
ATOM     37  C   UNL A   1      41.712  27.476  27.421  1.00  0.00     0.014 A 
ATOM     38  C   UNL A   1      39.919  26.132  28.176  1.00  0.00     0.014 A 
ATOM     39  C   UNL A   1      41.692  28.050  28.716  1.00  0.00     0.010 A 
ATOM     40  C   UNL A   1      39.876  26.824  29.362  1.00  0.00     0.010 A 
ATOM     41  C   UNL A   1      40.731  27.863  29.602  1.00  0.00    -0.014 A 
BRANCH  41  42
ATOM     42  C   UNL A   1      40.586  28.755  30.824  1.00  0.00     0.031 A 
ATOM     43  C   UNL A   1      41.454  28.543  31.897  1.00  0.00     0.074 A 
ATOM     44  C   UNL A   1      39.639  29.763  30.783  1.00  0.00     0.049 A 
ATOM     45  N   UNL A   1      41.554  29.261  33.017  1.00  0.00    -0.248 NA
ATOM     46  C   UNL A   1      42.437  27.451  31.958  1.00  0.00     0.031 C 
ATOM     47  C   UNL A   1      38.765  29.989  29.701  1.00  0.00     0.029 A 
ATOM     48  N   UNL A   1      39.370  30.710  31.747  1.00  0.00    -0.354 N 
ATOM     49  C   UNL A   1      42.513  28.762  33.800  1.00  0.00     0.074 A 
ATOM     50  C   UNL A   1      43.090  27.587  33.133  1.00  0.00     0.031 C 
ATOM     51  C   UNL A   1      37.973  31.048  30.013  1.00  0.00     0.029 A 
ATOM     52  C   UNL A   1      38.338  31.502  31.295  1.00  0.00     0.049 A 
ATOM     53  H   UNL A   1      39.832  30.803  32.610  1.00  0.00     0.167 HD
ATOM     54  C   UNL A   1      42.930  29.241  35.043  1.00  0.00     0.037 A 
ATOM     55  C   UNL A   1      37.735  32.565  31.948  1.00  0.00     0.037 A 
ATOM     56  C   UNL A   1      42.356  30.331  35.677  1.00  0.00     0.049 A 
ATOM     57  C   UNL A   1      38.113  33.010  33.218  1.00  0.00     0.074 A 
ATOM     58  C   UNL A   1      42.768  30.832  36.927  1.00  0.00     0.029 A 
ATOM     59  N   UNL A   1      41.308  31.109  35.236  1.00  0.00    -0.354 N 
ATOM     60  N   UNL A   1      39.097  32.536  33.983  1.00  0.00    -0.248 NA
ATOM     61  C   UNL A   1      37.460  34.114  33.934  1.00  0.00     0.031 C 
ATOM     62  C   UNL A   1      41.975  31.892  37.239  1.00  0.00     0.029 A 
ATOM     63  C   UNL A   1      41.053  32.069  36.190  1.00  0.00     0.049 A 
ATOM     64  H   UNL A   1      40.825  30.997  34.386  1.00  0.00     0.167 HD
ATOM     65  C   UNL A   1      39.169  33.228  35.121  1.00  0.00     0.074 A 
ATOM     66  C   UNL A   1      38.112  34.249  35.110  1.00  0.00     0.031 C 
ATOM     67  C   UNL A   1      40.076  33.052  36.168  1.00  0.00     0.037 A 
BRANCH  54  68
ATOM     68  C   UNL A   1      44.078  28.528  35.738  1.00  0.00     0.058 A 
ATOM     69  C   UNL A   1      45.377  28.949  35.511  1.00  0.00     0.135 A 
ATOM     70  C   UNL A   1      43.815  27.513  36.553  1.00  0.00     0.135 A 
ATOM     71  F   UNL A   1      45.673  30.101  34.915  1.00  0.00    -0.206 F 
ATOM     72  C   UNL A   1      46.362  28.042  35.969  1.00  0.00     0.059 A 
ATOM     73  C   UNL A   1      44.834  26.752  37.073  1.00  0.00     0.059 A 
ATOM     74  F   UNL A   1      42.554  27.230  36.868  1.00  0.00    -0.206 F 
ATOM     75  C   UNL A   1      46.142  27.074  36.840  1.00  0.00     0.060 A 
BRANCH  75  76
ATOM     76  S   UNL A   1      47.499  26.222  37.681  1.00  0.00     0.124 S 
ATOM     77  O   UNL A   1      47.653  24.814  37.104  1.00  0.00    -0.237 OA
ATOM     78  O   UNL A   1      48.798  27.003  37.474  1.00  0.00    -0.237 OA
ATOM     79  O   UNL A   1      47.157  26.118  39.353  1.00  0.00    -0.744 OA
ENDBRANCH  75  76
ENDBRANCH  54  68
BRANCH  55  80
ATOM     80  C   UNL A   1      36.598  33.289  31.245  1.00  0.00     0.058 A 
ATOM     81  C   UNL A   1      35.292  33.035  31.625  1.00  0.00     0.135 A 
ATOM     82  C   UNL A   1      36.878  34.155  30.278  1.00  0.00     0.135 A 
ATOM     83  F   UNL A   1      34.974  32.380  32.739  1.00  0.00    -0.206 F 
ATOM     84  C   UNL A   1      34.324  33.534  30.722  1.00  0.00     0.059 A 
ATOM     85  C   UNL A   1      35.873  34.709  29.522  1.00  0.00     0.059 A 
ATOM     86  F   UNL A   1      38.143  34.490  30.038  1.00  0.00    -0.206 F 
ATOM     87  C   UNL A   1      34.559  34.454  29.805  1.00  0.00     0.060 A 
BRANCH  87  88
ATOM     88  S   UNL A   1      33.216  35.332  28.966  1.00  0.00     0.124 S 
ATOM     89  O   UNL A   1      33.802  36.426  28.071  1.00  0.00    -0.237 OA
ATOM     90  O   UNL A   1      32.419  34.345  28.109  1.00  0.00    -0.237 OA
ATOM     91  O   UNL A   1      32.183  36.040  30.130  1.00  0.00    -0.744 OA
ENDBRANCH  87  88
ENDBRANCH  55  80
BRANCH  67  92
ATOM     92  C   UNL A   1      39.987  33.997  37.356  1.00  0.00     0.058 A 
ATOM     93  C   UNL A   1      39.162  33.624  38.405  1.00  0.00     0.135 A 
ATOM     94  C   UNL A   1      40.637  35.154  37.369  1.00  0.00     0.135 A 
ATOM     95  F   UNL A   1      38.696  32.387  38.557  1.00  0.00    -0.206 F 
ATOM     96  C   UNL A   1      38.861  34.677  39.299  1.00  0.00     0.059 A 
ATOM     97  C   UNL A   1      40.392  36.083  38.352  1.00  0.00     0.059 A 
ATOM     98  F   UNL A   1      41.535  35.416  36.423  1.00  0.00    -0.206 F 
ATOM     99  C   UNL A   1      39.543  35.804  39.387  1.00  0.00     0.060 A 
BRANCH  99 100
ATOM    100  S   UNL A   1      39.365  36.920  40.800  1.00  0.00     0.124 S 
ATOM    101  O   UNL A   1      40.749  37.359  41.282  1.00  0.00    -0.237 OA
ATOM    102  O   UNL A   1      38.557  38.150  40.380  1.00  0.00    -0.237 OA
ATOM    103  O   UNL A   1      38.552  36.110  42.068  1.00  0.00    -0.744 OA
ENDBRANCH  99 100
ENDBRANCH  67  92
ENDBRANCH  41  42
ENDBRANCH  33  36
ENDBRANCH  31  32
ENDBRANCH   1  31
TORSDOF 18
ENDMDL
MODEL 3
REMARK VINA RESULT:     -11.7      4.675     10.104
REMARK SMILES CCCc1cc(S(F)(F)(F)(F)F)cc2c1O[C@@H](C(F)(F)F)C(C(=O)NCCCCNC(=O)c1ccc(-c3c4nc(c(-c5c(F)cc(S(=O)(=O)[O-])cc5F)c5ccc([nH]5)c(-c5c(F)cc(S(=O)(=O)[O-])cc5F)c5nc(c(-c6c(F)cc(S(=O)(=O)[O-])cc6F)c6ccc3[nH]6)C=C5)C=C4)cc1)=C2
REMARK SMILES IDX 28 1 27 2 26 3 25 4 23 5 24 6 22 8 4 9 5 10 15 11 6 12 14 13
REMARK SMILES IDX 16 14 13 15 99 16 17 17 3 18 2 19 1 20 7 21 8 22 9 23 10 24
REMARK SMILES IDX 11 25 12 26 18 27 19 28 20 29 21 30 29 31 30 32 31 33 32 35
REMARK SMILES IDX 33 36 34 37 98 38 35 39 97 40 36 41 37 42 38 43 91 44 39 45
REMARK SMILES IDX 96 46 90 47 92 48 40 49 95 50 89 51 88 52 41 54 75 55 54 56
REMARK SMILES IDX 74 57 55 58 58 59 73 60 93 61 56 62 57 63 72 65 94 66 59 67
REMARK SMILES IDX 42 68 43 69 52 70 44 71 45 72 51 73 53 74 46 75 47 76 48 77
REMARK SMILES IDX 49 78 50 79 76 80 77 81 86 82 78 83 79 84 85 85 87 86 80 87
REMARK SMILES IDX 81 88 82 89 83 90 84 91 60 92 61 93 70 94 62 95 63 96 69 97
REMARK SMILES IDX 71 98 64 99 65 100 66 101 67 102 68 103
REMARK H PARENT 25 7 30 34 92 53 58 64
REMARK Flexibility Score: inf
ROOT
ATOM      1  C   UNL A   1      37.753  23.913  25.654  1.00  0.00     0.023 C 
ENDROOT
BRANCH   1   2
ATOM      2  C   UNL A   1      37.367  22.457  25.442  1.00  0.00     0.023 C 
BRANCH   2   3
ATOM      3  C   UNL A   1      36.372  22.357  24.298  1.00  0.00     0.116 C 
BRANCH   3   4
ATOM      4  N   UNL A   1      35.242  21.511  24.704  1.00  0.00    -0.352 N 
ATOM      5  C   UNL A   1      33.910  22.103  24.893  1.00  0.00     0.251 C 
ATOM      6  O   UNL A   1      32.933  21.370  25.244  1.00  0.00    -0.270 OA
ATOM      7  H   UNL A   1      35.377  20.546  24.851  1.00  0.00     0.163 HD
BRANCH   5   8
ATOM      8  C   UNL A   1      33.701  23.592  24.667  1.00  0.00     0.067 C 
ATOM      9  C   UNL A   1      33.556  27.669  23.768  1.00  0.00    -0.004 A 
ATOM     10  C   UNL A   1      33.736  28.603  24.771  1.00  0.00     0.032 A 
ATOM     11  C   UNL A   1      33.662  26.335  24.081  1.00  0.00     0.131 A 
ATOM     12  C   UNL A   1      34.018  28.214  26.055  1.00  0.00     0.108 A 
ATOM     13  C   UNL A   1      33.928  25.904  25.369  1.00  0.00     0.019 A 
ATOM     14  O   UNL A   1      33.594  25.425  23.056  1.00  0.00    -0.475 OA
ATOM     15  C   UNL A   1      34.107  26.871  26.353  1.00  0.00     0.036 A 
ATOM     16  C   UNL A   1      34.059  24.475  25.591  1.00  0.00     0.025 C 
ATOM     17  C   UNL A   1      33.076  24.102  23.375  1.00  0.00     0.314 C 
BRANCH   9  18
ATOM     18  C   UNL A   1      33.248  28.108  22.345  1.00  0.00     0.039 C 
BRANCH  18  19
ATOM     19  C   UNL A   1      31.992  28.963  22.341  1.00  0.00     0.001 C 
ATOM     20  C   UNL A   1      30.793  28.103  22.709  1.00  0.00     0.004 C 
ENDBRANCH  18  19
ENDBRANCH   9  18
BRANCH  12  21
ATOM     21  S   UNL A   1      34.274  29.454  27.348  1.00  0.00     0.310 S 
ATOM     22  F   UNL A   1      33.790  30.531  26.288  1.00  0.00    -0.094 F 
ATOM     23  F   UNL A   1      35.745  29.734  26.858  1.00  0.00    -0.094 F 
ATOM     24  F   UNL A   1      34.371  30.609  28.385  1.00  0.00    -0.094 F 
ATOM     25  F   UNL A   1      32.754  29.251  27.726  1.00  0.00    -0.094 F 
ATOM     26  F   UNL A   1      34.125  28.355  26.221  1.00  0.00    -0.094 F 
ENDBRANCH  12  21
BRANCH  17  27
ATOM     27  C   UNL A   1      33.424  23.147  22.244  1.00  0.00     0.429 C 
ATOM     28  F   UNL A   1      34.734  22.916  22.248  1.00  0.00    -0.167 F 
ATOM     29  F   UNL A   1      32.771  22.002  22.416  1.00  0.00    -0.167 F 
ATOM     30  F   UNL A   1      33.072  23.689  21.082  1.00  0.00    -0.167 F 
ENDBRANCH  17  27
ENDBRANCH   5   8
ENDBRANCH   3   4
ENDBRANCH   2   3
ENDBRANCH   1   2
BRANCH   1  31
ATOM     31  C   UNL A   1      38.860  23.996  26.692  1.00  0.00     0.116 C 
BRANCH  31  32
ATOM     32  N   UNL A   1      40.148  23.677  26.062  1.00  0.00    -0.352 N 
ATOM     33  C   UNL A   1      41.368  24.379  26.486  1.00  0.00     0.251 C 
ATOM     34  H   UNL A   1      40.195  22.992  25.356  1.00  0.00     0.163 HD
ATOM     35  O   UNL A   1      42.483  24.103  25.941  1.00  0.00    -0.269 OA
BRANCH  33  36
ATOM     36  C   UNL A   1      41.297  25.436  27.576  1.00  0.00     0.039 A 
ATOM     37  C   UNL A   1      40.320  25.298  28.548  1.00  0.00     0.014 A 
ATOM     38  C   UNL A   1      42.132  26.468  27.581  1.00  0.00     0.014 A 
ATOM     39  C   UNL A   1      40.116  26.462  29.327  1.00  0.00     0.010 A 
ATOM     40  C   UNL A   1      41.953  27.508  28.461  1.00  0.00     0.010 A 
ATOM     41  C   UNL A   1      40.971  27.465  29.411  1.00  0.00    -0.014 A 
BRANCH  41  42
ATOM     42  C   UNL A   1      40.867  28.515  30.505  1.00  0.00     0.031 A 
ATOM     43  C   UNL A   1      39.887  29.501  30.375  1.00  0.00     0.074 A 
ATOM     44  C   UNL A   1      41.711  28.402  31.595  1.00  0.00     0.049 A 
ATOM     45  N   UNL A   1      39.571  30.454  31.253  1.00  0.00    -0.248 NA
ATOM     46  C   UNL A   1      39.012  29.644  29.202  1.00  0.00     0.031 C 
ATOM     47  C   UNL A   1      42.697  27.406  31.738  1.00  0.00     0.029 A 
ATOM     48  N   UNL A   1      41.759  29.205  32.714  1.00  0.00    -0.354 N 
ATOM     49  C   UNL A   1      38.567  31.199  30.784  1.00  0.00     0.074 A 
ATOM     50  C   UNL A   1      38.197  30.692  29.455  1.00  0.00     0.031 C 
ATOM     51  C   UNL A   1      43.337  27.611  32.919  1.00  0.00     0.029 A 
ATOM     52  C   UNL A   1      42.763  28.739  33.534  1.00  0.00     0.049 A 
ATOM     53  H   UNL A   1      41.178  29.978  32.895  1.00  0.00     0.167 HD
ATOM     54  C   UNL A   1      37.944  32.279  31.412  1.00  0.00     0.037 A 
ATOM     55  C   UNL A   1      43.170  29.256  34.754  1.00  0.00     0.037 A 
ATOM     56  C   UNL A   1      38.323  32.769  32.651  1.00  0.00     0.049 A 
ATOM     57  C   UNL A   1      42.585  30.373  35.357  1.00  0.00     0.074 A 
ATOM     58  C   UNL A   1      37.702  33.851  33.302  1.00  0.00     0.029 A 
ATOM     59  N   UNL A   1      39.342  32.318  33.461  1.00  0.00    -0.354 N 
ATOM     60  N   UNL A   1      41.557  31.092  34.906  1.00  0.00    -0.248 NA
ATOM     61  C   UNL A   1      43.030  30.949  36.633  1.00  0.00     0.031 C 
ATOM     62  C   UNL A   1      38.343  34.057  34.484  1.00  0.00     0.029 A 
ATOM     63  C   UNL A   1      39.376  33.107  34.590  1.00  0.00     0.049 A 
ATOM     64  H   UNL A   1      39.944  31.563  33.266  1.00  0.00     0.167 HD
ATOM     65  C   UNL A   1      41.269  32.071  35.765  1.00  0.00     0.074 A 
ATOM     66  C   UNL A   1      42.217  31.998  36.886  1.00  0.00     0.031 C 
ATOM     67  C   UNL A   1      40.250  33.021  35.662  1.00  0.00     0.037 A 
BRANCH  54  68
ATOM     68  C   UNL A   1      36.786  32.954  30.697  1.00  0.00     0.058 A 
ATOM     69  C   UNL A   1      37.048  33.890  29.711  1.00  0.00     0.135 A 
ATOM     70  C   UNL A   1      35.541  32.636  31.031  1.00  0.00     0.135 A 
ATOM     71  F   UNL A   1      38.253  34.056  29.170  1.00  0.00    -0.206 F 
ATOM     72  C   UNL A   1      35.920  34.654  29.330  1.00  0.00     0.059 A 
ATOM     73  C   UNL A   1      34.478  33.337  30.516  1.00  0.00     0.059 A 
ATOM     74  F   UNL A   1      35.321  31.628  31.871  1.00  0.00    -0.206 F 
ATOM     75  C   UNL A   1      34.668  34.317  29.581  1.00  0.00     0.060 A 
BRANCH  75  76
ATOM     76  S   UNL A   1      33.279  35.107  28.731  1.00  0.00     0.124 S 
ATOM     77  O   UNL A   1      32.277  35.626  29.764  1.00  0.00    -0.237 OA
ATOM     78  O   UNL A   1      33.795  36.276  27.889  1.00  0.00    -0.237 OA
ATOM     79  O   UNL A   1      32.510  33.967  27.715  1.00  0.00    -0.744 OA
ENDBRANCH  75  76
ENDBRANCH  54  68
BRANCH  55  80
ATOM     80  C   UNL A   1      44.317  28.570  35.478  1.00  0.00     0.058 A 
ATOM     81  C   UNL A   1      45.621  28.909  35.160  1.00  0.00     0.135 A 
ATOM     82  C   UNL A   1      44.049  27.657  36.404  1.00  0.00     0.135 A 
ATOM     83  F   UNL A   1      45.937  29.979  34.435  1.00  0.00    -0.206 F 
ATOM     84  C   UNL A   1      46.588  28.014  35.676  1.00  0.00     0.059 A 
ATOM     85  C   UNL A   1      45.058  26.912  36.965  1.00  0.00     0.059 A 
ATOM     86  F   UNL A   1      42.792  27.463  36.794  1.00  0.00    -0.206 F 
ATOM     87  C   UNL A   1      46.367  27.153  36.652  1.00  0.00     0.060 A 
BRANCH  87  88
ATOM     88  S   UNL A   1      47.723  26.336  37.530  1.00  0.00     0.124 S 
ATOM     89  O   UNL A   1      47.509  24.821  37.503  1.00  0.00    -0.237 OA
ATOM     90  O   UNL A   1      49.051  26.675  36.846  1.00  0.00    -0.237 OA
ATOM     91  O   UNL A   1      47.763  26.878  39.151  1.00  0.00    -0.744 OA
ENDBRANCH  87  88
ENDBRANCH  55  80
BRANCH  67  92
ATOM     92  C   UNL A   1      40.090  34.022  36.796  1.00  0.00     0.058 A 
ATOM     93  C   UNL A   1      39.265  33.664  37.849  1.00  0.00     0.135 A 
ATOM     94  C   UNL A   1      40.681  35.210  36.757  1.00  0.00     0.135 A 
ATOM     95  F   UNL A   1      38.859  32.415  38.060  1.00  0.00    -0.206 F 
ATOM     96  C   UNL A   1      38.894  34.747  38.680  1.00  0.00     0.059 A 
ATOM     97  C   UNL A   1      40.371  36.176  37.683  1.00  0.00     0.059 A 
ATOM     98  F   UNL A   1      41.583  35.466  35.813  1.00  0.00    -0.206 F 
ATOM     99  C   UNL A   1      39.517  35.910  38.718  1.00  0.00     0.060 A 
BRANCH  99 100
ATOM    100  S   UNL A   1      39.256  37.090  40.065  1.00  0.00     0.124 S 
ATOM    101  O   UNL A   1      38.505  38.312  39.535  1.00  0.00    -0.237 OA
ATOM    102  O   UNL A   1      38.433  36.425  41.171  1.00  0.00    -0.237 OA
ATOM    103  O   UNL A   1      40.768  37.579  40.696  1.00  0.00    -0.744 OA
ENDBRANCH  99 100
ENDBRANCH  67  92
ENDBRANCH  41  42
ENDBRANCH  33  36
ENDBRANCH  31  32
ENDBRANCH   1  31
TORSDOF 18
ENDMDL
