MODEL 1
REMARK VINA RESULT:     -10.4      0.000      0.000
REMARK SMILES O=C(COCCNC(=O)Nc1cccc(F)c1)NCCCCNC(=O)c1ccc(-c2c3nc(c(-c4c(F)cc(S(=O)(=O)[O-])cc4F)c4ccc([nH]4)c(-c4c(F)cc(S(=O)(=O)[O-])cc4F)c4nc(c(-c5c(F)cc(S(=O)(=O)[O-])cc5F)c5ccc2[nH]5)C=C4)C=C3)cc1
REMARK SMILES IDX 19 1 18 2 1 3 2 4 3 6 4 7 5 8 6 9 7 10 8 11 9 13 10 14 11 16
REMARK SMILES IDX 12 17 17 18 13 19 15 20 14 21 16 22 20 23 21 24 22 25 23 26
REMARK SMILES IDX 24 27 25 29 26 30 27 31 91 32 28 33 90 34 29 35 30 36 31 37
REMARK SMILES IDX 84 38 32 39 89 40 83 41 85 42 33 43 88 44 82 45 81 46 34 48
REMARK SMILES IDX 68 49 47 50 67 51 48 52 51 53 66 54 86 55 49 56 50 57 65 59
REMARK SMILES IDX 87 60 52 61 35 62 36 63 45 64 37 65 38 66 44 67 46 68 39 69
REMARK SMILES IDX 40 70 41 71 42 72 43 73 69 74 70 75 79 76 71 77 72 78 78 79
REMARK SMILES IDX 80 80 73 81 74 82 75 83 76 84 77 85 53 86 54 87 63 88 55 89
REMARK SMILES IDX 56 90 62 91 64 92 57 93 58 94 59 95 60 96 61 97
REMARK H PARENT 18 5 7 12 10 15 23 28 85 47 51 58
REMARK Flexibility Score: inf
ROOT
ATOM      1  C   UNL A   1      31.569  27.272  26.883  1.00  0.00     0.116 C 
ENDROOT
BRANCH   1   2
ATOM      2  N   UNL A   1      31.272  25.890  26.588  1.00  0.00    -0.354 N 
ATOM      3  O   UNL A   1      33.448  25.233  26.226  1.00  0.00    -0.272 OA
ATOM      4  C   UNL A   1      32.252  24.969  26.291  1.00  0.00     0.245 C 
ATOM      5  H   UNL A   1      30.332  25.595  26.599  1.00  0.00     0.163 HD
BRANCH   4   6
ATOM      6  C   UNL A   1      31.698  23.565  26.030  1.00  0.00     0.260 C 
BRANCH   6   7
ATOM      7  O   UNL A   1      31.483  22.753  27.173  1.00  0.00    -0.370 OA
BRANCH   7   8
ATOM      8  C   UNL A   1      32.620  22.568  28.017  1.00  0.00     0.182 C 
BRANCH   8   9
ATOM      9  C   UNL A   1      33.692  21.627  27.467  1.00  0.00     0.146 C 
BRANCH   9  10
ATOM     10  N   UNL A   1      33.220  20.344  26.946  1.00  0.00    -0.336 N 
ATOM     11  C   UNL A   1      33.107  19.809  25.714  1.00  0.00     0.319 C 
ATOM     12  H   UNL A   1      32.916  19.733  27.656  1.00  0.00     0.165 HD
ATOM     13  O   UNL A   1      32.471  18.759  25.595  1.00  0.00    -0.249 OA
ATOM     14  N   UNL A   1      33.572  20.409  24.599  1.00  0.00    -0.308 N 
ATOM     15  H   UNL A   1      33.096  20.155  23.776  1.00  0.00     0.171 HD
BRANCH  14  16
ATOM     16  C   UNL A   1      34.606  21.327  24.401  1.00  0.00     0.045 A 
ATOM     17  C   UNL A   1      34.401  22.568  23.787  1.00  0.00     0.026 A 
ATOM     18  C   UNL A   1      35.886  20.955  24.808  1.00  0.00     0.065 A 
ATOM     19  C   UNL A   1      35.493  23.355  23.419  1.00  0.00     0.005 A 
ATOM     20  C   UNL A   1      36.966  21.746  24.435  1.00  0.00     0.125 A 
ATOM     21  C   UNL A   1      36.784  22.925  23.718  1.00  0.00     0.039 A 
ATOM     22  F   UNL A   1      38.207  21.340  24.730  1.00  0.00    -0.207 F 
ENDBRANCH  14  16
ENDBRANCH   9  10
ENDBRANCH   8   9
ENDBRANCH   7   8
ENDBRANCH   6   7
ENDBRANCH   4   6
ENDBRANCH   1   2
BRANCH   1  23
ATOM     23  C   UNL A   1      31.905  28.056  25.619  1.00  0.00     0.023 C 
BRANCH  23  24
ATOM     24  C   UNL A   1      33.371  28.487  25.514  1.00  0.00     0.023 C 
BRANCH  24  25
ATOM     25  C   UNL A   1      34.120  28.573  26.841  1.00  0.00     0.116 C 
BRANCH  25  26
ATOM     26  N   UNL A   1      33.932  29.851  27.508  1.00  0.00    -0.352 N 
ATOM     27  C   UNL A   1      34.795  30.541  28.329  1.00  0.00     0.251 C 
ATOM     28  H   UNL A   1      33.064  30.286  27.350  1.00  0.00     0.163 HD
ATOM     29  O   UNL A   1      34.398  31.529  28.935  1.00  0.00    -0.269 OA
BRANCH  27  30
ATOM     30  C   UNL A   1      36.189  30.072  28.501  1.00  0.00     0.039 A 
ATOM     31  C   UNL A   1      37.077  30.194  27.429  1.00  0.00     0.014 A 
ATOM     32  C   UNL A   1      36.623  29.518  29.709  1.00  0.00     0.014 A 
ATOM     33  C   UNL A   1      38.414  29.823  27.591  1.00  0.00     0.010 A 
ATOM     34  C   UNL A   1      37.971  29.219  29.891  1.00  0.00     0.010 A 
ATOM     35  C   UNL A   1      38.883  29.369  28.836  1.00  0.00    -0.014 A 
BRANCH  35  36
ATOM     36  C   UNL A   1      40.322  29.064  29.053  1.00  0.00     0.031 A 
ATOM     37  C   UNL A   1      40.873  27.707  28.704  1.00  0.00     0.074 A 
ATOM     38  C   UNL A   1      41.123  29.991  29.616  1.00  0.00     0.049 A 
ATOM     39  N   UNL A   1      42.082  27.238  28.883  1.00  0.00    -0.248 NA
ATOM     40  C   UNL A   1      39.941  26.746  28.096  1.00  0.00     0.031 C 
ATOM     41  C   UNL A   1      40.700  31.330  30.033  1.00  0.00     0.029 A 
ATOM     42  N   UNL A   1      42.457  29.951  29.939  1.00  0.00    -0.354 N 
ATOM     43  C   UNL A   1      42.055  25.930  28.413  1.00  0.00     0.074 A 
ATOM     44  C   UNL A   1      40.696  25.660  27.997  1.00  0.00     0.031 C 
ATOM     45  C   UNL A   1      41.758  31.993  30.527  1.00  0.00     0.029 A 
ATOM     46  C   UNL A   1      42.925  31.114  30.507  1.00  0.00     0.049 A 
ATOM     47  H   UNL A   1      43.026  29.163  29.780  1.00  0.00     0.167 HD
ATOM     48  C   UNL A   1      43.075  25.046  28.310  1.00  0.00     0.037 A 
ATOM     49  C   UNL A   1      44.150  31.438  30.967  1.00  0.00     0.037 A 
ATOM     50  C   UNL A   1      44.430  25.327  28.709  1.00  0.00     0.049 A 
ATOM     51  C   UNL A   1      45.261  30.429  30.871  1.00  0.00     0.074 A 
ATOM     52  C   UNL A   1      45.542  24.508  28.609  1.00  0.00     0.029 A 
ATOM     53  N   UNL A   1      44.861  26.514  29.285  1.00  0.00    -0.354 N 
ATOM     54  N   UNL A   1      45.226  29.211  30.384  1.00  0.00    -0.248 NA
ATOM     55  C   UNL A   1      46.577  30.834  31.384  1.00  0.00     0.031 C 
ATOM     56  C   UNL A   1      46.633  25.180  29.169  1.00  0.00     0.029 A 
ATOM     57  C   UNL A   1      46.216  26.440  29.566  1.00  0.00     0.049 A 
ATOM     58  H   UNL A   1      44.288  27.293  29.468  1.00  0.00     0.167 HD
ATOM     59  C   UNL A   1      46.519  28.713  30.511  1.00  0.00     0.074 A 
ATOM     60  C   UNL A   1      47.314  29.766  31.108  1.00  0.00     0.031 C 
ATOM     61  C   UNL A   1      47.000  27.494  30.162  1.00  0.00     0.037 A 
BRANCH  48  62
ATOM     62  C   UNL A   1      42.775  23.690  27.728  1.00  0.00     0.058 A 
ATOM     63  C   UNL A   1      42.531  22.589  28.563  1.00  0.00     0.135 A 
ATOM     64  C   UNL A   1      42.789  23.468  26.341  1.00  0.00     0.135 A 
ATOM     65  F   UNL A   1      42.502  22.744  29.896  1.00  0.00    -0.206 F 
ATOM     66  C   UNL A   1      42.324  21.314  28.046  1.00  0.00     0.059 A 
ATOM     67  C   UNL A   1      42.555  22.207  25.800  1.00  0.00     0.059 A 
ATOM     68  F   UNL A   1      42.998  24.489  25.495  1.00  0.00    -0.206 F 
ATOM     69  C   UNL A   1      42.338  21.133  26.662  1.00  0.00     0.060 A 
BRANCH  69  70
ATOM     70  S   UNL A   1      42.031  19.479  26.006  1.00  0.00     0.124 S 
ATOM     71  O   UNL A   1      42.477  18.631  27.104  1.00  0.00    -0.237 OA
ATOM     72  O   UNL A   1      40.590  19.509  25.768  1.00  0.00    -0.237 OA
ATOM     73  O   UNL A   1      42.854  19.435  24.801  1.00  0.00    -0.744 OA
ENDBRANCH  69  70
ENDBRANCH  48  62
BRANCH  49  74
ATOM     74  C   UNL A   1      44.386  32.793  31.534  1.00  0.00     0.058 A 
ATOM     75  C   UNL A   1      44.152  33.069  32.890  1.00  0.00     0.135 A 
ATOM     76  C   UNL A   1      44.802  33.854  30.715  1.00  0.00     0.135 A 
ATOM     77  F   UNL A   1      43.742  32.093  33.716  1.00  0.00    -0.206 F 
ATOM     78  C   UNL A   1      44.288  34.353  33.406  1.00  0.00     0.059 A 
ATOM     79  C   UNL A   1      44.973  35.142  31.215  1.00  0.00     0.059 A 
ATOM     80  F   UNL A   1      45.052  33.636  29.414  1.00  0.00    -0.206 F 
ATOM     81  C   UNL A   1      44.694  35.384  32.559  1.00  0.00     0.060 A 
BRANCH  81  82
ATOM     82  S   UNL A   1      44.835  37.049  33.244  1.00  0.00     0.124 S 
ATOM     83  O   UNL A   1      45.693  36.816  34.401  1.00  0.00    -0.237 OA
ATOM     84  O   UNL A   1      45.443  37.782  32.139  1.00  0.00    -0.237 OA
ATOM     85  O   UNL A   1      43.454  37.408  33.549  1.00  0.00    -0.744 OA
ENDBRANCH  81  82
ENDBRANCH  49  74
BRANCH  61  86
ATOM     86  C   UNL A   1      48.460  27.221  30.396  1.00  0.00     0.058 A 
ATOM     87  C   UNL A   1      48.903  26.731  31.636  1.00  0.00     0.135 A 
ATOM     88  C   UNL A   1      49.432  27.528  29.430  1.00  0.00     0.135 A 
ATOM     89  F   UNL A   1      48.018  26.426  32.598  1.00  0.00    -0.206 F 
ATOM     90  C   UNL A   1      50.256  26.580  31.918  1.00  0.00     0.059 A 
ATOM     91  C   UNL A   1      50.791  27.357  29.681  1.00  0.00     0.059 A 
ATOM     92  F   UNL A   1      49.062  27.988  28.224  1.00  0.00    -0.206 F 
ATOM     93  C   UNL A   1      51.193  26.900  30.935  1.00  0.00     0.060 A 
BRANCH  93  94
ATOM     94  S   UNL A   1      52.945  26.700  31.321  1.00  0.00     0.124 S 
ATOM     95  O   UNL A   1      52.990  25.326  31.810  1.00  0.00    -0.237 OA
ATOM     96  O   UNL A   1      53.573  26.933  30.023  1.00  0.00    -0.237 OA
ATOM     97  O   UNL A   1      53.193  27.732  32.324  1.00  0.00    -0.744 OA
ENDBRANCH  93  94
ENDBRANCH  61  86
ENDBRANCH  35  36
ENDBRANCH  27  30
ENDBRANCH  25  26
ENDBRANCH  24  25
ENDBRANCH  23  24
ENDBRANCH   1  23
TORSDOF 19
ENDMDL
MODEL 2
REMARK VINA RESULT:     -10.3      5.012     10.211
REMARK SMILES O=C(COCCNC(=O)Nc1cccc(F)c1)NCCCCNC(=O)c1ccc(-c2c3nc(c(-c4c(F)cc(S(=O)(=O)[O-])cc4F)c4ccc([nH]4)c(-c4c(F)cc(S(=O)(=O)[O-])cc4F)c4nc(c(-c5c(F)cc(S(=O)(=O)[O-])cc5F)c5ccc2[nH]5)C=C4)C=C3)cc1
REMARK SMILES IDX 19 1 18 2 1 3 2 4 3 6 4 7 5 8 6 9 7 10 8 11 9 13 10 14 11 16
REMARK SMILES IDX 12 17 17 18 13 19 15 20 14 21 16 22 20 23 21 24 22 25 23 26
REMARK SMILES IDX 24 27 25 29 26 30 27 31 91 32 28 33 90 34 29 35 30 36 31 37
REMARK SMILES IDX 84 38 32 39 89 40 83 41 85 42 33 43 88 44 82 45 81 46 34 48
REMARK SMILES IDX 68 49 47 50 67 51 48 52 51 53 66 54 86 55 49 56 50 57 65 59
REMARK SMILES IDX 87 60 52 61 35 62 36 63 45 64 37 65 38 66 44 67 46 68 39 69
REMARK SMILES IDX 40 70 41 71 42 72 43 73 69 74 70 75 79 76 71 77 72 78 78 79
REMARK SMILES IDX 80 80 73 81 74 82 75 83 76 84 77 85 53 86 54 87 63 88 55 89
REMARK SMILES IDX 56 90 62 91 64 92 57 93 58 94 59 95 60 96 61 97
REMARK H PARENT 18 5 7 12 10 15 23 28 85 47 51 58
REMARK Flexibility Score: inf
ROOT
ATOM      1  C   UNL A   1      39.515  21.808  26.104  1.00  0.00     0.116 C 
ENDROOT
BRANCH   1   2
ATOM      2  N   UNL A   1      38.239  22.264  25.607  1.00  0.00    -0.354 N 
ATOM      3  O   UNL A   1      37.558  20.237  24.753  1.00  0.00    -0.272 OA
ATOM      4  C   UNL A   1      37.348  21.425  24.973  1.00  0.00     0.245 C 
ATOM      5  H   UNL A   1      37.996  23.211  25.725  1.00  0.00     0.163 HD
BRANCH   4   6
ATOM      6  C   UNL A   1      36.056  22.131  24.549  1.00  0.00     0.260 C 
BRANCH   6   7
ATOM      7  O   UNL A   1      36.009  23.533  24.760  1.00  0.00    -0.370 OA
BRANCH   7   8
ATOM      8  C   UNL A   1      34.755  24.155  24.479  1.00  0.00     0.182 C 
BRANCH   8   9
ATOM      9  C   UNL A   1      34.046  24.763  25.689  1.00  0.00     0.146 C 
BRANCH   9  10
ATOM     10  N   UNL A   1      33.004  23.944  26.307  1.00  0.00    -0.336 N 
ATOM     11  C   UNL A   1      31.798  24.202  26.851  1.00  0.00     0.319 C 
ATOM     12  H   UNL A   1      33.236  22.987  26.330  1.00  0.00     0.165 HD
ATOM     13  O   UNL A   1      31.241  23.298  27.479  1.00  0.00    -0.249 OA
ATOM     14  N   UNL A   1      31.216  25.418  26.823  1.00  0.00    -0.308 N 
ATOM     15  H   UNL A   1      30.586  25.580  27.561  1.00  0.00     0.171 HD
BRANCH  14  16
ATOM     16  C   UNL A   1      31.347  26.489  25.936  1.00  0.00     0.045 A 
ATOM     17  C   UNL A   1      31.949  27.698  26.303  1.00  0.00     0.026 A 
ATOM     18  C   UNL A   1      30.819  26.337  24.656  1.00  0.00     0.065 A 
ATOM     19  C   UNL A   1      31.865  28.806  25.459  1.00  0.00     0.005 A 
ATOM     20  C   UNL A   1      30.739  27.447  23.825  1.00  0.00     0.125 A 
ATOM     21  C   UNL A   1      31.228  28.686  24.226  1.00  0.00     0.039 A 
ATOM     22  F   UNL A   1      30.137  27.331  22.634  1.00  0.00    -0.207 F 
ENDBRANCH  14  16
ENDBRANCH   9  10
ENDBRANCH   8   9
ENDBRANCH   7   8
ENDBRANCH   6   7
ENDBRANCH   4   6
ENDBRANCH   1   2
BRANCH   1  23
ATOM     23  C   UNL A   1      40.002  22.661  27.270  1.00  0.00     0.023 C 
BRANCH  23  24
ATOM     24  C   UNL A   1      41.325  22.196  27.884  1.00  0.00     0.023 C 
BRANCH  24  25
ATOM     25  C   UNL A   1      42.462  23.212  27.824  1.00  0.00     0.116 C 
BRANCH  25  26
ATOM     26  N   UNL A   1      42.570  23.856  26.525  1.00  0.00    -0.352 N 
ATOM     27  C   UNL A   1      42.284  25.154  26.170  1.00  0.00     0.251 C 
ATOM     28  H   UNL A   1      42.896  23.281  25.796  1.00  0.00     0.163 HD
ATOM     29  O   UNL A   1      42.280  25.474  24.987  1.00  0.00    -0.269 OA
BRANCH  27  30
ATOM     30  C   UNL A   1      41.953  26.153  27.213  1.00  0.00     0.039 A 
ATOM     31  C   UNL A   1      40.779  25.990  27.953  1.00  0.00     0.014 A 
ATOM     32  C   UNL A   1      42.793  27.242  27.462  1.00  0.00     0.014 A 
ATOM     33  C   UNL A   1      40.484  26.881  28.988  1.00  0.00     0.010 A 
ATOM     34  C   UNL A   1      42.535  28.085  28.541  1.00  0.00     0.010 A 
ATOM     35  C   UNL A   1      41.378  27.914  29.318  1.00  0.00    -0.014 A 
BRANCH  35  36
ATOM     36  C   UNL A   1      41.127  28.810  30.477  1.00  0.00     0.031 A 
ATOM     37  C   UNL A   1      41.959  28.691  31.726  1.00  0.00     0.074 A 
ATOM     38  C   UNL A   1      40.113  29.698  30.426  1.00  0.00     0.049 A 
ATOM     39  N   UNL A   1      41.844  29.339  32.857  1.00  0.00    -0.248 NA
ATOM     40  C   UNL A   1      43.046  27.700  31.711  1.00  0.00     0.031 C 
ATOM     41  C   UNL A   1      39.212  29.885  29.287  1.00  0.00     0.029 A 
ATOM     42  N   UNL A   1      39.666  30.607  31.354  1.00  0.00    -0.354 N 
ATOM     43  C   UNL A   1      42.840  28.834  33.686  1.00  0.00     0.074 A 
ATOM     44  C   UNL A   1      43.509  27.784  32.949  1.00  0.00     0.031 C 
ATOM     45  C   UNL A   1      38.341  30.867  29.570  1.00  0.00     0.029 A 
ATOM     46  C   UNL A   1      38.589  31.349  30.927  1.00  0.00     0.049 A 
ATOM     47  H   UNL A   1      40.077  30.717  32.241  1.00  0.00     0.167 HD
ATOM     48  C   UNL A   1      43.183  29.229  34.935  1.00  0.00     0.037 A 
ATOM     49  C   UNL A   1      37.875  32.305  31.554  1.00  0.00     0.037 A 
ATOM     50  C   UNL A   1      42.525  30.288  35.656  1.00  0.00     0.049 A 
ATOM     51  C   UNL A   1      38.254  32.706  32.953  1.00  0.00     0.074 A 
ATOM     52  C   UNL A   1      42.825  30.786  36.912  1.00  0.00     0.029 A 
ATOM     53  N   UNL A   1      41.435  31.009  35.192  1.00  0.00    -0.354 N 
ATOM     54  N   UNL A   1      39.226  32.247  33.705  1.00  0.00    -0.248 NA
ATOM     55  C   UNL A   1      37.445  33.755  33.590  1.00  0.00     0.031 C 
ATOM     56  C   UNL A   1      41.887  31.774  37.227  1.00  0.00     0.029 A 
ATOM     57  C   UNL A   1      41.036  31.933  36.145  1.00  0.00     0.049 A 
ATOM     58  H   UNL A   1      41.007  30.884  34.314  1.00  0.00     0.167 HD
ATOM     59  C   UNL A   1      39.160  32.965  34.894  1.00  0.00     0.074 A 
ATOM     60  C   UNL A   1      38.061  33.899  34.757  1.00  0.00     0.031 C 
ATOM     61  C   UNL A   1      39.941  32.859  35.998  1.00  0.00     0.037 A 
BRANCH  48  62
ATOM     62  C   UNL A   1      44.335  28.527  35.603  1.00  0.00     0.058 A 
ATOM     63  C   UNL A   1      44.116  27.410  36.425  1.00  0.00     0.135 A 
ATOM     64  C   UNL A   1      45.653  28.997  35.479  1.00  0.00     0.135 A 
ATOM     65  F   UNL A   1      42.877  26.915  36.577  1.00  0.00    -0.206 F 
ATOM     66  C   UNL A   1      45.158  26.793  37.109  1.00  0.00     0.059 A 
ATOM     67  C   UNL A   1      46.716  28.377  36.130  1.00  0.00     0.059 A 
ATOM     68  F   UNL A   1      45.923  30.050  34.690  1.00  0.00    -0.206 F 
ATOM     69  C   UNL A   1      46.456  27.283  36.954  1.00  0.00     0.060 A 
BRANCH  69  70
ATOM     70  S   UNL A   1      47.802  26.448  37.819  1.00  0.00     0.124 S 
ATOM     71  O   UNL A   1      48.370  25.618  36.764  1.00  0.00    -0.237 OA
ATOM     72  O   UNL A   1      48.624  27.571  38.260  1.00  0.00    -0.237 OA
ATOM     73  O   UNL A   1      47.119  25.726  38.889  1.00  0.00    -0.744 OA
ENDBRANCH  69  70
ENDBRANCH  48  62
BRANCH  49  74
ATOM     74  C   UNL A   1      36.745  32.962  30.843  1.00  0.00     0.058 A 
ATOM     75  C   UNL A   1      36.967  33.970  29.892  1.00  0.00     0.135 A 
ATOM     76  C   UNL A   1      35.415  32.627  31.140  1.00  0.00     0.135 A 
ATOM     77  F   UNL A   1      38.220  34.336  29.578  1.00  0.00    -0.206 F 
ATOM     78  C   UNL A   1      35.913  34.646  29.288  1.00  0.00     0.059 A 
ATOM     79  C   UNL A   1      34.343  33.271  30.528  1.00  0.00     0.059 A 
ATOM     80  F   UNL A   1      35.152  31.660  32.033  1.00  0.00    -0.206 F 
ATOM     81  C   UNL A   1      34.605  34.293  29.617  1.00  0.00     0.060 A 
BRANCH  81  82
ATOM     82  S   UNL A   1      33.252  35.206  28.843  1.00  0.00     0.124 S 
ATOM     83  O   UNL A   1      32.500  35.656  30.010  1.00  0.00    -0.237 OA
ATOM     84  O   UNL A   1      33.967  36.245  28.109  1.00  0.00    -0.237 OA
ATOM     85  O   UNL A   1      32.591  34.199  28.020  1.00  0.00    -0.744 OA
ENDBRANCH  81  82
ENDBRANCH  49  74
BRANCH  61  86
ATOM     86  C   UNL A   1      39.657  33.783  37.151  1.00  0.00     0.058 A 
ATOM     87  C   UNL A   1      40.357  34.995  37.281  1.00  0.00     0.135 A 
ATOM     88  C   UNL A   1      38.763  33.432  38.175  1.00  0.00     0.135 A 
ATOM     89  F   UNL A   1      41.228  35.378  36.335  1.00  0.00    -0.206 F 
ATOM     90  C   UNL A   1      40.199  35.810  38.395  1.00  0.00     0.059 A 
ATOM     91  C   UNL A   1      38.568  34.248  39.285  1.00  0.00     0.059 A 
ATOM     92  F   UNL A   1      38.060  32.290  38.093  1.00  0.00    -0.206 F 
ATOM     93  C   UNL A   1      39.305  35.427  39.395  1.00  0.00     0.060 A 
BRANCH  93  94
ATOM     94  S   UNL A   1      39.115  36.497  40.836  1.00  0.00     0.124 S 
ATOM     95  O   UNL A   1      38.507  37.686  40.249  1.00  0.00    -0.237 OA
ATOM     96  O   UNL A   1      38.247  35.700  41.698  1.00  0.00    -0.237 OA
ATOM     97  O   UNL A   1      40.483  36.665  41.318  1.00  0.00    -0.744 OA
ENDBRANCH  93  94
ENDBRANCH  61  86
ENDBRANCH  35  36
ENDBRANCH  27  30
ENDBRANCH  25  26
ENDBRANCH  24  25
ENDBRANCH  23  24
ENDBRANCH   1  23
TORSDOF 19
ENDMDL
MODEL 3
REMARK VINA RESULT:     -10.2      2.811      8.804
REMARK SMILES O=C(COCCNC(=O)Nc1cccc(F)c1)NCCCCNC(=O)c1ccc(-c2c3nc(c(-c4c(F)cc(S(=O)(=O)[O-])cc4F)c4ccc([nH]4)c(-c4c(F)cc(S(=O)(=O)[O-])cc4F)c4nc(c(-c5c(F)cc(S(=O)(=O)[O-])cc5F)c5ccc2[nH]5)C=C4)C=C3)cc1
REMARK SMILES IDX 19 1 18 2 1 3 2 4 3 6 4 7 5 8 6 9 7 10 8 11 9 13 10 14 11 16
REMARK SMILES IDX 12 17 17 18 13 19 15 20 14 21 16 22 20 23 21 24 22 25 23 26
REMARK SMILES IDX 24 27 25 29 26 30 27 31 91 32 28 33 90 34 29 35 30 36 31 37
REMARK SMILES IDX 84 38 32 39 89 40 83 41 85 42 33 43 88 44 82 45 81 46 34 48
REMARK SMILES IDX 68 49 47 50 67 51 48 52 51 53 66 54 86 55 49 56 50 57 65 59
REMARK SMILES IDX 87 60 52 61 35 62 36 63 45 64 37 65 38 66 44 67 46 68 39 69
REMARK SMILES IDX 40 70 41 71 42 72 43 73 69 74 70 75 79 76 71 77 72 78 78 79
REMARK SMILES IDX 80 80 73 81 74 82 75 83 76 84 77 85 53 86 54 87 63 88 55 89
REMARK SMILES IDX 56 90 62 91 64 92 57 93 58 94 59 95 60 96 61 97
REMARK H PARENT 18 5 7 12 10 15 23 28 85 47 51 58
REMARK Flexibility Score: inf
ROOT
ATOM      1  C   UNL A   1      32.559  28.512  27.501  1.00  0.00     0.116 C 
ENDROOT
BRANCH   1   2
ATOM      2  N   UNL A   1      31.608  27.576  26.950  1.00  0.00    -0.354 N 
ATOM      3  O   UNL A   1      33.149  25.981  26.330  1.00  0.00    -0.272 OA
ATOM      4  C   UNL A   1      31.987  26.365  26.413  1.00  0.00     0.245 C 
ATOM      5  H   UNL A   1      30.652  27.812  26.958  1.00  0.00     0.163 HD
BRANCH   4   6
ATOM      6  C   UNL A   1      30.803  25.536  25.906  1.00  0.00     0.260 C 
BRANCH   6   7
ATOM      7  O   UNL A   1      30.172  24.695  26.858  1.00  0.00    -0.370 OA
BRANCH   7   8
ATOM      8  C   UNL A   1      30.284  23.293  26.609  1.00  0.00     0.182 C 
BRANCH   8   9
ATOM      9  C   UNL A   1      31.661  22.826  26.137  1.00  0.00     0.146 C 
BRANCH   9  10
ATOM     10  N   UNL A   1      31.844  21.380  26.006  1.00  0.00    -0.336 N 
ATOM     11  C   UNL A   1      32.209  20.561  25.001  1.00  0.00     0.319 C 
ATOM     12  H   UNL A   1      31.657  20.896  26.844  1.00  0.00     0.165 HD
ATOM     13  O   UNL A   1      32.069  19.346  25.164  1.00  0.00    -0.249 OA
ATOM     14  N   UNL A   1      32.628  21.004  23.798  1.00  0.00    -0.308 N 
ATOM     15  H   UNL A   1      32.473  20.373  23.059  1.00  0.00     0.171 HD
BRANCH  14  16
ATOM     16  C   UNL A   1      33.244  22.197  23.411  1.00  0.00     0.045 A 
ATOM     17  C   UNL A   1      34.533  22.546  23.830  1.00  0.00     0.026 A 
ATOM     18  C   UNL A   1      32.513  23.069  22.607  1.00  0.00     0.065 A 
ATOM     19  C   UNL A   1      35.018  23.834  23.597  1.00  0.00     0.005 A 
ATOM     20  C   UNL A   1      33.006  24.349  22.384  1.00  0.00     0.125 A 
ATOM     21  C   UNL A   1      34.236  24.749  22.897  1.00  0.00     0.039 A 
ATOM     22  F   UNL A   1      32.260  25.227  21.701  1.00  0.00    -0.207 F 
ENDBRANCH  14  16
ENDBRANCH   9  10
ENDBRANCH   8   9
ENDBRANCH   7   8
ENDBRANCH   6   7
ENDBRANCH   4   6
ENDBRANCH   1   2
BRANCH   1  23
ATOM     23  C   UNL A   1      33.216  29.353  26.412  1.00  0.00     0.023 C 
BRANCH  23  24
ATOM     24  C   UNL A   1      34.350  30.255  26.907  1.00  0.00     0.023 C 
BRANCH  24  25
ATOM     25  C   UNL A   1      35.417  29.557  27.746  1.00  0.00     0.116 C 
BRANCH  25  26
ATOM     26  N   UNL A   1      35.344  29.913  29.154  1.00  0.00    -0.352 N 
ATOM     27  C   UNL A   1      36.339  29.919  30.104  1.00  0.00     0.251 C 
ATOM     28  H   UNL A   1      34.455  30.188  29.473  1.00  0.00     0.163 HD
ATOM     29  O   UNL A   1      36.054  30.092  31.283  1.00  0.00    -0.269 OA
BRANCH  27  30
ATOM     30  C   UNL A   1      37.747  29.691  29.704  1.00  0.00     0.039 A 
ATOM     31  C   UNL A   1      38.689  29.399  30.694  1.00  0.00     0.014 A 
ATOM     32  C   UNL A   1      38.140  29.762  28.364  1.00  0.00     0.014 A 
ATOM     33  C   UNL A   1      40.008  29.111  30.332  1.00  0.00     0.010 A 
ATOM     34  C   UNL A   1      39.435  29.403  28.000  1.00  0.00     0.010 A 
ATOM     35  C   UNL A   1      40.384  29.071  28.979  1.00  0.00    -0.014 A 
BRANCH  35  36
ATOM     36  C   UNL A   1      41.757  28.672  28.572  1.00  0.00     0.031 A 
ATOM     37  C   UNL A   1      42.862  29.693  28.515  1.00  0.00     0.074 A 
ATOM     38  C   UNL A   1      41.999  27.398  28.201  1.00  0.00     0.049 A 
ATOM     39  N   UNL A   1      44.102  29.544  28.122  1.00  0.00    -0.248 NA
ATOM     40  C   UNL A   1      42.525  31.063  28.932  1.00  0.00     0.031 C 
ATOM     41  C   UNL A   1      41.004  26.323  28.178  1.00  0.00     0.029 A 
ATOM     42  N   UNL A   1      43.152  26.790  27.769  1.00  0.00    -0.354 N 
ATOM     43  C   UNL A   1      44.690  30.798  28.242  1.00  0.00     0.074 A 
ATOM     44  C   UNL A   1      43.657  31.708  28.686  1.00  0.00     0.031 C 
ATOM     45  C   UNL A   1      41.596  25.184  27.785  1.00  0.00     0.029 A 
ATOM     46  C   UNL A   1      42.999  25.453  27.482  1.00  0.00     0.049 A 
ATOM     47  H   UNL A   1      44.008  27.266  27.674  1.00  0.00     0.167 HD
ATOM     48  C   UNL A   1      45.980  31.152  28.029  1.00  0.00     0.037 A 
ATOM     49  C   UNL A   1      43.882  24.546  27.020  1.00  0.00     0.037 A 
ATOM     50  C   UNL A   1      47.008  30.238  27.605  1.00  0.00     0.049 A 
ATOM     51  C   UNL A   1      45.302  24.968  26.761  1.00  0.00     0.074 A 
ATOM     52  C   UNL A   1      48.353  30.494  27.399  1.00  0.00     0.029 A 
ATOM     53  N   UNL A   1      46.811  28.895  27.318  1.00  0.00    -0.354 N 
ATOM     54  N   UNL A   1      45.851  26.149  26.922  1.00  0.00    -0.248 NA
ATOM     55  C   UNL A   1      46.225  23.939  26.262  1.00  0.00     0.031 C 
ATOM     56  C   UNL A   1      48.958  29.320  26.942  1.00  0.00     0.029 A 
ATOM     57  C   UNL A   1      48.004  28.315  26.916  1.00  0.00     0.049 A 
ATOM     58  H   UNL A   1      45.950  28.423  27.390  1.00  0.00     0.167 HD
ATOM     59  C   UNL A   1      47.187  26.000  26.564  1.00  0.00     0.074 A 
ATOM     60  C   UNL A   1      47.367  24.612  26.193  1.00  0.00     0.031 C 
ATOM     61  C   UNL A   1      48.173  26.931  26.548  1.00  0.00     0.037 A 
BRANCH  48  62
ATOM     62  C   UNL A   1      46.363  32.588  28.268  1.00  0.00     0.058 A 
ATOM     63  C   UNL A   1      46.304  33.529  27.227  1.00  0.00     0.135 A 
ATOM     64  C   UNL A   1      46.849  33.022  29.513  1.00  0.00     0.135 A 
ATOM     65  F   UNL A   1      45.845  33.172  26.017  1.00  0.00    -0.206 F 
ATOM     66  C   UNL A   1      46.724  34.843  27.408  1.00  0.00     0.059 A 
ATOM     67  C   UNL A   1      47.246  34.339  29.725  1.00  0.00     0.059 A 
ATOM     68  F   UNL A   1      46.909  32.169  30.548  1.00  0.00    -0.206 F 
ATOM     69  C   UNL A   1      47.193  35.239  28.662  1.00  0.00     0.060 A 
BRANCH  69  70
ATOM     70  S   UNL A   1      47.698  36.957  28.890  1.00  0.00     0.124 S 
ATOM     71  O   UNL A   1      48.441  37.218  27.664  1.00  0.00    -0.237 OA
ATOM     72  O   UNL A   1      46.412  37.639  29.013  1.00  0.00    -0.237 OA
ATOM     73  O   UNL A   1      48.493  36.916  30.113  1.00  0.00    -0.744 OA
ENDBRANCH  69  70
ENDBRANCH  48  62
BRANCH  49  74
ATOM     74  C   UNL A   1      43.444  23.140  26.802  1.00  0.00     0.058 A 
ATOM     75  C   UNL A   1      43.235  22.264  27.878  1.00  0.00     0.135 A 
ATOM     76  C   UNL A   1      43.275  22.632  25.504  1.00  0.00     0.135 A 
ATOM     77  F   UNL A   1      43.392  22.697  29.139  1.00  0.00    -0.206 F 
ATOM     78  C   UNL A   1      42.908  20.928  27.677  1.00  0.00     0.059 A 
ATOM     79  C   UNL A   1      42.921  21.304  25.278  1.00  0.00     0.059 A 
ATOM     80  F   UNL A   1      43.450  23.435  24.443  1.00  0.00    -0.206 F 
ATOM     81  C   UNL A   1      42.760  20.456  26.373  1.00  0.00     0.060 A 
BRANCH  81  82
ATOM     82  S   UNL A   1      42.366  18.710  26.134  1.00  0.00     0.124 S 
ATOM     83  O   UNL A   1      40.980  18.783  25.683  1.00  0.00    -0.237 OA
ATOM     84  O   UNL A   1      43.342  18.313  25.125  1.00  0.00    -0.237 OA
ATOM     85  O   UNL A   1      42.566  18.133  27.460  1.00  0.00    -0.744 OA
ENDBRANCH  81  82
ENDBRANCH  49  74
BRANCH  61  86
ATOM     86  C   UNL A   1      49.550  26.490  26.131  1.00  0.00     0.058 A 
ATOM     87  C   UNL A   1      50.435  25.936  27.071  1.00  0.00     0.135 A 
ATOM     88  C   UNL A   1      50.026  26.697  24.827  1.00  0.00     0.135 A 
ATOM     89  F   UNL A   1      50.033  25.720  28.334  1.00  0.00    -0.206 F 
ATOM     90  C   UNL A   1      51.749  25.628  26.740  1.00  0.00     0.059 A 
ATOM     91  C   UNL A   1      51.330  26.369  24.466  1.00  0.00     0.059 A 
ATOM     92  F   UNL A   1      49.217  27.213  23.888  1.00  0.00    -0.206 F 
ATOM     93  C   UNL A   1      52.189  25.852  25.435  1.00  0.00     0.060 A 
BRANCH  93  94
ATOM     94  S   UNL A   1      53.900  25.448  25.024  1.00  0.00     0.124 S 
ATOM     95  O   UNL A   1      54.608  25.886  26.222  1.00  0.00    -0.237 OA
ATOM     96  O   UNL A   1      53.833  24.004  24.818  1.00  0.00    -0.237 OA
ATOM     97  O   UNL A   1      54.156  26.235  23.820  1.00  0.00    -0.744 OA
ENDBRANCH  93  94
ENDBRANCH  61  86
ENDBRANCH  35  36
ENDBRANCH  27  30
ENDBRANCH  25  26
ENDBRANCH  24  25
ENDBRANCH  23  24
ENDBRANCH   1  23
TORSDOF 19
ENDMDL
