MODEL 1
REMARK VINA RESULT:     -10.6      0.000      0.000
REMARK SMILES CCN(CC(C)(C)O)C(=O)N[C@@H](C(=O)NCCCCNC(=O)c1ccc(-c2c3nc(c(-c4c(F)cc(S(=O)(=O)[O-])cc4F)c4ccc([nH]4)c(-c4c(F)cc(S(=O)(=O)[O-])cc4F)c4nc(c(-c5c(F)cc(S(=O)(=O)[O-])cc5F)c5ccc2[nH]5)C=C4)C=C3)cc1)C(C)(C)C
REMARK SMILES IDX 16 1 15 2 13 3 14 4 12 6 11 7 9 8 10 9 3 11 2 12 1 13 4 14
REMARK SMILES IDX 5 15 6 16 7 17 8 18 89 20 90 21 91 22 92 23 17 24 18 25
REMARK SMILES IDX 19 26 20 27 21 28 22 30 23 31 24 32 88 33 25 34 87 35 26 36
REMARK SMILES IDX 27 37 28 38 81 39 29 40 86 41 80 42 82 43 30 44 85 45 79 46
REMARK SMILES IDX 78 47 31 49 65 50 44 51 64 52 45 53 48 54 63 55 83 56 46 57
REMARK SMILES IDX 47 58 62 60 84 61 49 62 32 63 33 64 42 65 34 66 35 67 41 68
REMARK SMILES IDX 43 69 36 70 37 71 38 72 39 73 40 74 66 75 67 76 76 77 68 78
REMARK SMILES IDX 69 79 75 80 77 81 70 82 71 83 72 84 73 85 74 86 50 87 51 88
REMARK SMILES IDX 60 89 52 90 53 91 59 92 61 93 54 94 55 95 56 96 57 97 58 98
REMARK H PARENT 15 5 11 10 8 19 20 29 82 48 48 59
REMARK Flexibility Score: inf
ROOT
ATOM      1  C   UNL A   1      36.701  23.712  25.862  1.00  0.00     0.116 C 
ENDROOT
BRANCH   1   2
ATOM      2  N   UNL A   1      35.925  22.915  26.804  1.00  0.00    -0.354 N 
ATOM      3  C   UNL A   1      34.601  22.556  26.828  1.00  0.00     0.243 C 
ATOM      4  O   UNL A   1      34.308  21.691  27.662  1.00  0.00    -0.273 OA
ATOM      5  H   UNL A   1      36.448  22.571  27.563  1.00  0.00     0.163 HD
BRANCH   3   6
ATOM      6  C   UNL A   1      33.561  23.006  25.737  1.00  0.00     0.178 C 
BRANCH   6   7
ATOM      7  N   UNL A   1      32.249  23.277  26.290  1.00  0.00    -0.326 N 
ATOM      8  C   UNL A   1      31.433  24.339  26.314  1.00  0.00     0.318 C 
ATOM      9  O   UNL A   1      30.525  24.239  27.148  1.00  0.00    -0.249 OA
ATOM     10  H   UNL A   1      31.869  22.497  26.756  1.00  0.00     0.166 HD
BRANCH   8  11
ATOM     11  N   UNL A   1      31.589  25.455  25.535  1.00  0.00    -0.322 N 
BRANCH  11  12
ATOM     12  C   UNL A   1      30.831  25.422  24.272  1.00  0.00     0.118 C 
ATOM     13  C   UNL A   1      29.523  26.211  24.339  1.00  0.00     0.027 C 
ENDBRANCH  11  12
BRANCH  11  14
ATOM     14  C   UNL A   1      32.570  26.563  25.637  1.00  0.00     0.155 C 
BRANCH  14  15
ATOM     15  C   UNL A   1      32.196  27.818  26.514  1.00  0.00     0.077 C 
ATOM     16  C   UNL A   1      33.350  28.433  27.311  1.00  0.00     0.043 C 
ATOM     17  C   UNL A   1      31.665  28.923  25.586  1.00  0.00     0.043 C 
BRANCH  15  18
ATOM     18  O   UNL A   1      31.151  27.492  27.435  1.00  0.00    -0.389 OA
ATOM     19  H   UNL A   1      31.275  27.994  28.256  1.00  0.00     0.211 HD
ENDBRANCH  15  18
ENDBRANCH  14  15
ENDBRANCH  11  14
ENDBRANCH   8  11
ENDBRANCH   6   7
BRANCH   6  20
ATOM     20  C   UNL A   1      33.454  22.094  24.453  1.00  0.00    -0.009 C 
ATOM     21  C   UNL A   1      33.717  22.900  23.150  1.00  0.00     0.013 C 
ATOM     22  C   UNL A   1      34.531  20.991  24.512  1.00  0.00     0.013 C 
ATOM     23  C   UNL A   1      32.067  21.445  24.291  1.00  0.00     0.013 C 
ENDBRANCH   6  20
ENDBRANCH   3   6
ENDBRANCH   1   2
BRANCH   1  24
ATOM     24  C   UNL A   1      38.145  23.982  26.289  1.00  0.00     0.023 C 
BRANCH  24  25
ATOM     25  C   UNL A   1      39.084  22.778  26.359  1.00  0.00     0.023 C 
BRANCH  25  26
ATOM     26  C   UNL A   1      40.398  22.995  27.107  1.00  0.00     0.116 C 
BRANCH  26  27
ATOM     27  N   UNL A   1      41.487  23.447  26.251  1.00  0.00    -0.352 N 
ATOM     28  C   UNL A   1      42.102  24.680  26.166  1.00  0.00     0.251 C 
ATOM     29  H   UNL A   1      41.841  22.765  25.636  1.00  0.00     0.163 HD
ATOM     30  O   UNL A   1      42.927  24.896  25.292  1.00  0.00    -0.269 OA
BRANCH  28  31
ATOM     31  C   UNL A   1      41.736  25.755  27.117  1.00  0.00     0.039 A 
ATOM     32  C   UNL A   1      40.838  25.469  28.150  1.00  0.00     0.014 A 
ATOM     33  C   UNL A   1      42.287  27.031  27.002  1.00  0.00     0.014 A 
ATOM     34  C   UNL A   1      40.582  26.432  29.132  1.00  0.00     0.010 A 
ATOM     35  C   UNL A   1      42.089  27.962  28.019  1.00  0.00     0.010 A 
ATOM     36  C   UNL A   1      41.252  27.666  29.106  1.00  0.00    -0.014 A 
BRANCH  36  37
ATOM     37  C   UNL A   1      41.129  28.648  30.217  1.00  0.00     0.031 A 
ATOM     38  C   UNL A   1      42.016  28.539  31.428  1.00  0.00     0.074 A 
ATOM     39  C   UNL A   1      40.149  29.574  30.183  1.00  0.00     0.049 A 
ATOM     40  N   UNL A   1      41.967  29.208  32.551  1.00  0.00    -0.248 NA
ATOM     41  C   UNL A   1      43.078  27.522  31.380  1.00  0.00     0.031 C 
ATOM     42  C   UNL A   1      39.192  29.755  29.088  1.00  0.00     0.029 A 
ATOM     43  N   UNL A   1      39.778  30.525  31.103  1.00  0.00    -0.354 N 
ATOM     44  C   UNL A   1      42.975  28.682  33.350  1.00  0.00     0.074 A 
ATOM     45  C   UNL A   1      43.589  27.608  32.601  1.00  0.00     0.031 C 
ATOM     46  C   UNL A   1      38.356  30.760  29.393  1.00  0.00     0.029 A 
ATOM     47  C   UNL A   1      38.685  31.268  30.721  1.00  0.00     0.049 A 
ATOM     48  H   UNL A   1      40.251  30.662  31.955  1.00  0.00     0.167 HD
ATOM     49  C   UNL A   1      43.364  29.071  34.588  1.00  0.00     0.037 A 
ATOM     50  C   UNL A   1      38.011  32.238  31.371  1.00  0.00     0.037 A 
ATOM     51  C   UNL A   1      42.770  30.161  35.318  1.00  0.00     0.049 A 
ATOM     52  C   UNL A   1      38.462  32.652  32.746  1.00  0.00     0.074 A 
ATOM     53  C   UNL A   1      43.135  30.670  36.553  1.00  0.00     0.029 A 
ATOM     54  N   UNL A   1      41.686  30.909  34.883  1.00  0.00    -0.354 N 
ATOM     55  N   UNL A   1      39.454  32.179  33.464  1.00  0.00    -0.248 NA
ATOM     56  C   UNL A   1      37.708  33.730  33.399  1.00  0.00     0.031 C 
ATOM     57  C   UNL A   1      42.248  31.700  36.881  1.00  0.00     0.029 A 
ATOM     58  C   UNL A   1      41.358  31.864  35.831  1.00  0.00     0.049 A 
ATOM     59  H   UNL A   1      41.219  30.782  34.026  1.00  0.00     0.167 HD
ATOM     60  C   UNL A   1      39.458  32.923  34.639  1.00  0.00     0.074 A 
ATOM     61  C   UNL A   1      38.376  33.879  34.535  1.00  0.00     0.031 C 
ATOM     62  C   UNL A   1      40.287  32.821  35.708  1.00  0.00     0.037 A 
BRANCH  49  63
ATOM     63  C   UNL A   1      44.494  28.315  35.233  1.00  0.00     0.058 A 
ATOM     64  C   UNL A   1      44.258  27.196  36.049  1.00  0.00     0.135 A 
ATOM     65  C   UNL A   1      45.827  28.692  35.008  1.00  0.00     0.135 A 
ATOM     66  F   UNL A   1      43.002  26.801  36.308  1.00  0.00    -0.206 F 
ATOM     67  C   UNL A   1      45.303  26.498  36.644  1.00  0.00     0.059 A 
ATOM     68  C   UNL A   1      46.890  27.991  35.570  1.00  0.00     0.059 A 
ATOM     69  F   UNL A   1      46.109  29.753  34.235  1.00  0.00    -0.206 F 
ATOM     70  C   UNL A   1      46.617  26.905  36.401  1.00  0.00     0.060 A 
BRANCH  70  71
ATOM     71  S   UNL A   1      47.961  25.990  37.185  1.00  0.00     0.124 S 
ATOM     72  O   UNL A   1      48.899  27.063  37.498  1.00  0.00    -0.237 OA
ATOM     73  O   UNL A   1      47.297  25.375  38.330  1.00  0.00    -0.237 OA
ATOM     74  O   UNL A   1      48.393  25.063  36.143  1.00  0.00    -0.744 OA
ENDBRANCH  70  71
ENDBRANCH  49  63
BRANCH  50  75
ATOM     75  C   UNL A   1      36.845  32.896  30.724  1.00  0.00     0.058 A 
ATOM     76  C   UNL A   1      35.533  32.535  31.068  1.00  0.00     0.135 A 
ATOM     77  C   UNL A   1      37.013  33.902  29.760  1.00  0.00     0.135 A 
ATOM     78  F   UNL A   1      35.321  31.573  31.979  1.00  0.00    -0.206 F 
ATOM     79  C   UNL A   1      34.430  33.136  30.471  1.00  0.00     0.059 A 
ATOM     80  C   UNL A   1      35.926  34.535  29.166  1.00  0.00     0.059 A 
ATOM     81  F   UNL A   1      38.247  34.295  29.407  1.00  0.00    -0.206 F 
ATOM     82  C   UNL A   1      34.638  34.139  29.521  1.00  0.00     0.060 A 
BRANCH  82  83
ATOM     83  S   UNL A   1      33.199  34.947  28.788  1.00  0.00     0.124 S 
ATOM     84  O   UNL A   1      32.379  35.210  29.965  1.00  0.00    -0.237 OA
ATOM     85  O   UNL A   1      33.795  36.117  28.150  1.00  0.00    -0.237 OA
ATOM     86  O   UNL A   1      32.681  33.939  27.869  1.00  0.00    -0.744 OA
ENDBRANCH  82  83
ENDBRANCH  50  75
BRANCH  62  87
ATOM     87  C   UNL A   1      40.088  33.791  36.839  1.00  0.00     0.058 A 
ATOM     88  C   UNL A   1      40.748  35.028  36.874  1.00  0.00     0.135 A 
ATOM     89  C   UNL A   1      39.168  33.508  37.862  1.00  0.00     0.135 A 
ATOM     90  F   UNL A   1      41.643  35.344  35.925  1.00  0.00    -0.206 F 
ATOM     91  C   UNL A   1      40.511  35.948  37.891  1.00  0.00     0.059 A 
ATOM     92  C   UNL A   1      38.898  34.422  38.875  1.00  0.00     0.059 A 
ATOM     93  F   UNL A   1      38.504  32.341  37.870  1.00  0.00    -0.206 F 
ATOM     94  C   UNL A   1      39.579  35.638  38.885  1.00  0.00     0.060 A 
BRANCH  94  95
ATOM     95  S   UNL A   1      39.240  36.862  40.167  1.00  0.00     0.124 S 
ATOM     96  O   UNL A   1      38.612  37.930  39.397  1.00  0.00    -0.237 OA
ATOM     97  O   UNL A   1      38.359  36.131  41.073  1.00  0.00    -0.237 OA
ATOM     98  O   UNL A   1      40.564  37.169  40.702  1.00  0.00    -0.744 OA
ENDBRANCH  94  95
ENDBRANCH  62  87
ENDBRANCH  36  37
ENDBRANCH  28  31
ENDBRANCH  26  27
ENDBRANCH  25  26
ENDBRANCH  24  25
ENDBRANCH   1  24
TORSDOF 21
ENDMDL
MODEL 2
REMARK VINA RESULT:     -10.5      5.990     10.737
REMARK SMILES CCN(CC(C)(C)O)C(=O)N[C@@H](C(=O)NCCCCNC(=O)c1ccc(-c2c3nc(c(-c4c(F)cc(S(=O)(=O)[O-])cc4F)c4ccc([nH]4)c(-c4c(F)cc(S(=O)(=O)[O-])cc4F)c4nc(c(-c5c(F)cc(S(=O)(=O)[O-])cc5F)c5ccc2[nH]5)C=C4)C=C3)cc1)C(C)(C)C
REMARK SMILES IDX 16 1 15 2 13 3 14 4 12 6 11 7 9 8 10 9 3 11 2 12 1 13 4 14
REMARK SMILES IDX 5 15 6 16 7 17 8 18 89 20 90 21 91 22 92 23 17 24 18 25
REMARK SMILES IDX 19 26 20 27 21 28 22 30 23 31 24 32 88 33 25 34 87 35 26 36
REMARK SMILES IDX 27 37 28 38 81 39 29 40 86 41 80 42 82 43 30 44 85 45 79 46
REMARK SMILES IDX 78 47 31 49 65 50 44 51 64 52 45 53 48 54 63 55 83 56 46 57
REMARK SMILES IDX 47 58 62 60 84 61 49 62 32 63 33 64 42 65 34 66 35 67 41 68
REMARK SMILES IDX 43 69 36 70 37 71 38 72 39 73 40 74 66 75 67 76 76 77 68 78
REMARK SMILES IDX 69 79 75 80 77 81 70 82 71 83 72 84 73 85 74 86 50 87 51 88
REMARK SMILES IDX 60 89 52 90 53 91 59 92 61 93 54 94 55 95 56 96 57 97 58 98
REMARK H PARENT 15 5 11 10 8 19 20 29 82 48 48 59
REMARK Flexibility Score: inf
ROOT
ATOM      1  C   UNL A   1      37.007  23.089  25.481  1.00  0.00     0.116 C 
ENDROOT
BRANCH   1   2
ATOM      2  N   UNL A   1      36.076  22.687  26.528  1.00  0.00    -0.354 N 
ATOM      3  C   UNL A   1      34.707  22.749  26.611  1.00  0.00     0.243 C 
ATOM      4  O   UNL A   1      34.212  22.125  27.556  1.00  0.00    -0.273 OA
ATOM      5  H   UNL A   1      36.508  22.300  27.322  1.00  0.00     0.163 HD
BRANCH   3   6
ATOM      6  C   UNL A   1      33.797  23.351  25.478  1.00  0.00     0.178 C 
BRANCH   6   7
ATOM      7  N   UNL A   1      32.630  24.034  25.999  1.00  0.00    -0.326 N 
ATOM      8  C   UNL A   1      32.246  25.313  26.095  1.00  0.00     0.318 C 
ATOM      9  O   UNL A   1      31.302  25.484  26.875  1.00  0.00    -0.249 OA
ATOM     10  H   UNL A   1      31.963  23.411  26.368  1.00  0.00     0.166 HD
BRANCH   8  11
ATOM     11  N   UNL A   1      32.848  26.355  25.439  1.00  0.00    -0.322 N 
BRANCH  11  12
ATOM     12  C   UNL A   1      32.955  26.171  23.980  1.00  0.00     0.118 C 
ATOM     13  C   UNL A   1      33.694  27.316  23.286  1.00  0.00     0.027 C 
ENDBRANCH  11  12
BRANCH  11  14
ATOM     14  C   UNL A   1      33.617  27.505  25.973  1.00  0.00     0.155 C 
BRANCH  14  15
ATOM     15  C   UNL A   1      32.822  28.715  26.599  1.00  0.00     0.077 C 
ATOM     16  C   UNL A   1      33.412  30.101  26.327  1.00  0.00     0.043 C 
ATOM     17  C   UNL A   1      31.400  28.719  26.016  1.00  0.00     0.043 C 
BRANCH  15  18
ATOM     18  O   UNL A   1      32.706  28.557  28.016  1.00  0.00    -0.389 OA
ATOM     19  H   UNL A   1      31.803  28.282  28.238  1.00  0.00     0.211 HD
ENDBRANCH  15  18
ENDBRANCH  14  15
ENDBRANCH  11  14
ENDBRANCH   8  11
ENDBRANCH   6   7
BRANCH   6  20
ATOM     20  C   UNL A   1      33.400  22.372  24.305  1.00  0.00    -0.009 C 
ATOM     21  C   UNL A   1      31.865  22.353  24.064  1.00  0.00     0.013 C 
ATOM     22  C   UNL A   1      34.046  22.855  22.989  1.00  0.00     0.013 C 
ATOM     23  C   UNL A   1      33.817  20.914  24.572  1.00  0.00     0.013 C 
ENDBRANCH   6  20
ENDBRANCH   3   6
ENDBRANCH   1   2
BRANCH   1  24
ATOM     24  C   UNL A   1      37.409  21.971  24.518  1.00  0.00     0.023 C 
BRANCH  24  25
ATOM     25  C   UNL A   1      37.950  20.682  25.138  1.00  0.00     0.023 C 
BRANCH  25  26
ATOM     26  C   UNL A   1      39.202  20.828  26.001  1.00  0.00     0.116 C 
BRANCH  26  27
ATOM     27  N   UNL A   1      40.070  19.658  25.969  1.00  0.00    -0.352 N 
ATOM     28  C   UNL A   1      41.442  19.561  26.093  1.00  0.00     0.251 C 
ATOM     29  H   UNL A   1      39.605  18.800  25.839  1.00  0.00     0.163 HD
ATOM     30  O   UNL A   1      42.000  18.489  25.919  1.00  0.00    -0.269 OA
BRANCH  28  31
ATOM     31  C   UNL A   1      42.242  20.768  26.406  1.00  0.00     0.039 A 
ATOM     32  C   UNL A   1      42.789  21.510  25.356  1.00  0.00     0.014 A 
ATOM     33  C   UNL A   1      42.436  21.175  27.727  1.00  0.00     0.014 A 
ATOM     34  C   UNL A   1      43.435  22.722  25.626  1.00  0.00     0.010 A 
ATOM     35  C   UNL A   1      43.014  22.415  27.988  1.00  0.00     0.010 A 
ATOM     36  C   UNL A   1      43.500  23.212  26.940  1.00  0.00    -0.014 A 
BRANCH  36  37
ATOM     37  C   UNL A   1      44.033  24.568  27.245  1.00  0.00     0.031 A 
ATOM     38  C   UNL A   1      43.104  25.668  27.682  1.00  0.00     0.074 A 
ATOM     39  C   UNL A   1      45.337  24.835  27.027  1.00  0.00     0.049 A 
ATOM     40  N   UNL A   1      43.355  26.939  27.858  1.00  0.00    -0.248 NA
ATOM     41  C   UNL A   1      41.703  25.293  27.923  1.00  0.00     0.031 C 
ATOM     42  C   UNL A   1      46.334  23.869  26.559  1.00  0.00     0.029 A 
ATOM     43  N   UNL A   1      46.047  26.005  27.150  1.00  0.00    -0.354 N 
ATOM     44  C   UNL A   1      42.143  27.520  28.210  1.00  0.00     0.074 A 
ATOM     45  C   UNL A   1      41.148  26.470  28.178  1.00  0.00     0.031 C 
ATOM     46  C   UNL A   1      47.524  24.480  26.447  1.00  0.00     0.029 A 
ATOM     47  C   UNL A   1      47.371  25.890  26.791  1.00  0.00     0.049 A 
ATOM     48  H   UNL A   1      45.647  26.847  27.465  1.00  0.00     0.167 HD
ATOM     49  C   UNL A   1      41.886  28.807  28.546  1.00  0.00     0.037 A 
ATOM     50  C   UNL A   1      48.348  26.816  26.730  1.00  0.00     0.037 A 
ATOM     51  C   UNL A   1      42.884  29.843  28.605  1.00  0.00     0.049 A 
ATOM     52  C   UNL A   1      48.038  28.239  27.107  1.00  0.00     0.074 A 
ATOM     53  C   UNL A   1      42.732  31.163  28.993  1.00  0.00     0.029 A 
ATOM     54  N   UNL A   1      44.219  29.678  28.266  1.00  0.00    -0.354 N 
ATOM     55  N   UNL A   1      46.896  28.759  27.491  1.00  0.00    -0.248 NA
ATOM     56  C   UNL A   1      49.145  29.203  27.046  1.00  0.00     0.031 C 
ATOM     57  C   UNL A   1      43.966  31.805  28.852  1.00  0.00     0.029 A 
ATOM     58  C   UNL A   1      44.898  30.875  28.420  1.00  0.00     0.049 A 
ATOM     59  H   UNL A   1      44.624  28.834  27.961  1.00  0.00     0.167 HD
ATOM     60  C   UNL A   1      47.156  30.101  27.744  1.00  0.00     0.074 A 
ATOM     61  C   UNL A   1      48.562  30.313  27.476  1.00  0.00     0.031 C 
ATOM     62  C   UNL A   1      46.303  31.069  28.163  1.00  0.00     0.037 A 
BRANCH  49  63
ATOM     63  C   UNL A   1      40.464  29.168  28.882  1.00  0.00     0.058 A 
ATOM     64  C   UNL A   1      40.035  29.303  30.213  1.00  0.00     0.135 A 
ATOM     65  C   UNL A   1      39.529  29.415  27.865  1.00  0.00     0.135 A 
ATOM     66  F   UNL A   1      40.885  29.065  31.225  1.00  0.00    -0.206 F 
ATOM     67  C   UNL A   1      38.721  29.636  30.522  1.00  0.00     0.059 A 
ATOM     68  C   UNL A   1      38.216  29.778  28.151  1.00  0.00     0.059 A 
ATOM     69  F   UNL A   1      39.886  29.302  26.576  1.00  0.00    -0.206 F 
ATOM     70  C   UNL A   1      37.817  29.870  29.484  1.00  0.00     0.060 A 
BRANCH  70  71
ATOM     71  S   UNL A   1      36.115  30.299  29.904  1.00  0.00     0.124 S 
ATOM     72  O   UNL A   1      36.098  31.731  29.619  1.00  0.00    -0.237 OA
ATOM     73  O   UNL A   1      35.345  29.463  28.990  1.00  0.00    -0.237 OA
ATOM     74  O   UNL A   1      36.013  29.939  31.315  1.00  0.00    -0.744 OA
ENDBRANCH  70  71
ENDBRANCH  49  63
BRANCH  50  75
ATOM     75  C   UNL A   1      49.719  26.424  26.306  1.00  0.00     0.058 A 
ATOM     76  C   UNL A   1      50.155  26.643  24.991  1.00  0.00     0.135 A 
ATOM     77  C   UNL A   1      50.623  25.834  27.204  1.00  0.00     0.135 A 
ATOM     78  F   UNL A   1      49.325  27.197  24.094  1.00  0.00    -0.206 F 
ATOM     79  C   UNL A   1      51.432  26.280  24.576  1.00  0.00     0.059 A 
ATOM     80  C   UNL A   1      51.913  25.485  26.819  1.00  0.00     0.059 A 
ATOM     81  F   UNL A   1      50.259  25.618  28.478  1.00  0.00    -0.206 F 
ATOM     82  C   UNL A   1      52.306  25.702  25.499  1.00  0.00     0.060 A 
BRANCH  82  83
ATOM     83  S   UNL A   1      53.977  25.279  24.963  1.00  0.00     0.124 S 
ATOM     84  O   UNL A   1      54.786  25.893  26.011  1.00  0.00    -0.237 OA
ATOM     85  O   UNL A   1      53.939  23.820  24.957  1.00  0.00    -0.237 OA
ATOM     86  O   UNL A   1      54.072  25.900  23.646  1.00  0.00    -0.744 OA
ENDBRANCH  82  83
ENDBRANCH  50  75
BRANCH  62  87
ATOM     87  C   UNL A   1      46.870  32.442  28.397  1.00  0.00     0.058 A 
ATOM     88  C   UNL A   1      47.480  32.791  29.612  1.00  0.00     0.135 A 
ATOM     89  C   UNL A   1      46.866  33.396  27.366  1.00  0.00     0.135 A 
ATOM     90  F   UNL A   1      47.502  31.918  30.632  1.00  0.00    -0.206 F 
ATOM     91  C   UNL A   1      48.058  34.043  29.800  1.00  0.00     0.059 A 
ATOM     92  C   UNL A   1      47.460  34.644  27.524  1.00  0.00     0.059 A 
ATOM     93  F   UNL A   1      46.302  33.109  26.182  1.00  0.00    -0.206 F 
ATOM     94  C   UNL A   1      48.048  34.961  28.747  1.00  0.00     0.060 A 
BRANCH  94  95
ATOM     95  S   UNL A   1      48.850  36.560  28.986  1.00  0.00     0.124 S 
ATOM     96  O   UNL A   1      48.664  36.773  30.417  1.00  0.00    -0.237 OA
ATOM     97  O   UNL A   1      50.219  36.290  28.558  1.00  0.00    -0.237 OA
ATOM     98  O   UNL A   1      48.093  37.453  28.114  1.00  0.00    -0.744 OA
ENDBRANCH  94  95
ENDBRANCH  62  87
ENDBRANCH  36  37
ENDBRANCH  28  31
ENDBRANCH  26  27
ENDBRANCH  25  26
ENDBRANCH  24  25
ENDBRANCH   1  24
TORSDOF 21
ENDMDL
MODEL 3
REMARK VINA RESULT:     -10.4      2.440      8.786
REMARK SMILES CCN(CC(C)(C)O)C(=O)N[C@@H](C(=O)NCCCCNC(=O)c1ccc(-c2c3nc(c(-c4c(F)cc(S(=O)(=O)[O-])cc4F)c4ccc([nH]4)c(-c4c(F)cc(S(=O)(=O)[O-])cc4F)c4nc(c(-c5c(F)cc(S(=O)(=O)[O-])cc5F)c5ccc2[nH]5)C=C4)C=C3)cc1)C(C)(C)C
REMARK SMILES IDX 16 1 15 2 13 3 14 4 12 6 11 7 9 8 10 9 3 11 2 12 1 13 4 14
REMARK SMILES IDX 5 15 6 16 7 17 8 18 89 20 90 21 91 22 92 23 17 24 18 25
REMARK SMILES IDX 19 26 20 27 21 28 22 30 23 31 24 32 88 33 25 34 87 35 26 36
REMARK SMILES IDX 27 37 28 38 81 39 29 40 86 41 80 42 82 43 30 44 85 45 79 46
REMARK SMILES IDX 78 47 31 49 65 50 44 51 64 52 45 53 48 54 63 55 83 56 46 57
REMARK SMILES IDX 47 58 62 60 84 61 49 62 32 63 33 64 42 65 34 66 35 67 41 68
REMARK SMILES IDX 43 69 36 70 37 71 38 72 39 73 40 74 66 75 67 76 76 77 68 78
REMARK SMILES IDX 69 79 75 80 77 81 70 82 71 83 72 84 73 85 74 86 50 87 51 88
REMARK SMILES IDX 60 89 52 90 53 91 59 92 61 93 54 94 55 95 56 96 57 97 58 98
REMARK H PARENT 15 5 11 10 8 19 20 29 82 48 48 59
REMARK Flexibility Score: inf
ROOT
ATOM      1  C   UNL A   1      34.248  29.413  27.324  1.00  0.00     0.116 C 
ENDROOT
BRANCH   1   2
ATOM      2  N   UNL A   1      32.955  28.949  27.809  1.00  0.00    -0.354 N 
ATOM      3  C   UNL A   1      31.978  28.181  27.227  1.00  0.00     0.243 C 
ATOM      4  O   UNL A   1      31.090  27.793  27.994  1.00  0.00    -0.273 OA
ATOM      5  H   UNL A   1      32.742  29.241  28.725  1.00  0.00     0.163 HD
BRANCH   3   6
ATOM      6  C   UNL A   1      32.077  27.618  25.761  1.00  0.00     0.178 C 
BRANCH   6   7
ATOM      7  N   UNL A   1      33.296  26.871  25.528  1.00  0.00    -0.326 N 
ATOM      8  C   UNL A   1      33.582  25.602  25.206  1.00  0.00     0.318 C 
ATOM      9  O   UNL A   1      34.768  25.305  25.391  1.00  0.00    -0.249 OA
ATOM     10  H   UNL A   1      34.103  27.425  25.630  1.00  0.00     0.166 HD
BRANCH   8  11
ATOM     11  N   UNL A   1      32.664  24.690  24.755  1.00  0.00    -0.322 N 
BRANCH  11  12
ATOM     12  C   UNL A   1      32.220  23.723  25.775  1.00  0.00     0.118 C 
ATOM     13  C   UNL A   1      30.747  23.886  26.151  1.00  0.00     0.027 C 
ENDBRANCH  11  12
BRANCH  11  14
ATOM     14  C   UNL A   1      32.238  24.367  23.372  1.00  0.00     0.155 C 
BRANCH  14  15
ATOM     15  C   UNL A   1      33.056  23.285  22.568  1.00  0.00     0.077 C 
ATOM     16  C   UNL A   1      34.451  22.973  23.116  1.00  0.00     0.043 C 
ATOM     17  C   UNL A   1      32.271  21.963  22.587  1.00  0.00     0.043 C 
BRANCH  15  18
ATOM     18  O   UNL A   1      33.199  23.680  21.201  1.00  0.00    -0.389 OA
ATOM     19  H   UNL A   1      32.624  24.440  21.021  1.00  0.00     0.211 HD
ENDBRANCH  15  18
ENDBRANCH  14  15
ENDBRANCH  11  14
ENDBRANCH   8  11
ENDBRANCH   6   7
BRANCH   6  20
ATOM     20  C   UNL A   1      31.818  28.651  24.595  1.00  0.00    -0.009 C 
ATOM     21  C   UNL A   1      33.123  28.986  23.821  1.00  0.00     0.013 C 
ATOM     22  C   UNL A   1      30.844  28.036  23.568  1.00  0.00     0.013 C 
ATOM     23  C   UNL A   1      31.251  29.992  25.097  1.00  0.00     0.013 C 
ENDBRANCH   6  20
ENDBRANCH   3   6
ENDBRANCH   1   2
BRANCH   1  24
ATOM     24  C   UNL A   1      34.745  30.710  27.964  1.00  0.00     0.023 C 
BRANCH  24  25
ATOM     25  C   UNL A   1      34.263  32.020  27.342  1.00  0.00     0.023 C 
BRANCH  25  26
ATOM     26  C   UNL A   1      32.880  32.501  27.778  1.00  0.00     0.116 C 
BRANCH  26  27
ATOM     27  N   UNL A   1      32.769  33.951  27.866  1.00  0.00    -0.352 N 
ATOM     28  C   UNL A   1      33.429  34.849  28.682  1.00  0.00     0.251 C 
ATOM     29  H   UNL A   1      32.122  34.356  27.244  1.00  0.00     0.163 HD
ATOM     30  O   UNL A   1      33.107  36.027  28.685  1.00  0.00    -0.269 OA
BRANCH  28  31
ATOM     31  C   UNL A   1      34.508  34.375  29.579  1.00  0.00     0.039 A 
ATOM     32  C   UNL A   1      34.165  33.730  30.771  1.00  0.00     0.014 A 
ATOM     33  C   UNL A   1      35.849  34.552  29.239  1.00  0.00     0.014 A 
ATOM     34  C   UNL A   1      35.167  33.161  31.564  1.00  0.00     0.010 A 
ATOM     35  C   UNL A   1      36.839  33.923  29.991  1.00  0.00     0.010 A 
ATOM     36  C   UNL A   1      36.508  33.204  31.150  1.00  0.00    -0.014 A 
BRANCH  36  37
ATOM     37  C   UNL A   1      37.577  32.473  31.882  1.00  0.00     0.031 A 
ATOM     38  C   UNL A   1      38.064  32.974  33.215  1.00  0.00     0.074 A 
ATOM     39  C   UNL A   1      38.182  31.417  31.299  1.00  0.00     0.049 A 
ATOM     40  N   UNL A   1      39.073  32.558  33.935  1.00  0.00    -0.248 NA
ATOM     41  C   UNL A   1      37.338  34.112  33.798  1.00  0.00     0.031 C 
ATOM     42  C   UNL A   1      37.836  30.859  29.989  1.00  0.00     0.029 A 
ATOM     43  N   UNL A   1      39.230  30.636  31.722  1.00  0.00    -0.354 N 
ATOM     44  C   UNL A   1      39.117  33.394  35.045  1.00  0.00     0.074 A 
ATOM     45  C   UNL A   1      38.061  34.369  34.879  1.00  0.00     0.031 C 
ATOM     46  C   UNL A   1      38.646  29.822  29.722  1.00  0.00     0.029 A 
ATOM     47  C   UNL A   1      39.598  29.666  30.818  1.00  0.00     0.049 A 
ATOM     48  H   UNL A   1      39.677  30.759  32.590  1.00  0.00     0.167 HD
ATOM     49  C   UNL A   1      39.950  33.343  36.112  1.00  0.00     0.037 A 
ATOM     50  C   UNL A   1      40.597  28.761  30.857  1.00  0.00     0.037 A 
ATOM     51  C   UNL A   1      40.981  32.353  36.287  1.00  0.00     0.049 A 
ATOM     52  C   UNL A   1      41.509  28.724  32.053  1.00  0.00     0.074 A 
ATOM     53  C   UNL A   1      41.835  32.181  37.363  1.00  0.00     0.029 A 
ATOM     54  N   UNL A   1      41.298  31.367  35.364  1.00  0.00    -0.354 N 
ATOM     55  N   UNL A   1      41.500  29.489  33.119  1.00  0.00    -0.248 NA
ATOM     56  C   UNL A   1      42.566  27.703  32.054  1.00  0.00     0.031 C 
ATOM     57  C   UNL A   1      42.695  31.117  37.073  1.00  0.00     0.029 A 
ATOM     58  C   UNL A   1      42.347  30.595  35.838  1.00  0.00     0.049 A 
ATOM     59  H   UNL A   1      40.846  31.235  34.500  1.00  0.00     0.167 HD
ATOM     60  C   UNL A   1      42.529  29.022  33.929  1.00  0.00     0.074 A 
ATOM     61  C   UNL A   1      43.136  27.906  33.234  1.00  0.00     0.031 C 
ATOM     62  C   UNL A   1      42.932  29.477  35.141  1.00  0.00     0.037 A 
BRANCH  49  63
ATOM     63  C   UNL A   1      39.778  34.387  37.181  1.00  0.00     0.058 A 
ATOM     64  C   UNL A   1      38.975  34.158  38.311  1.00  0.00     0.135 A 
ATOM     65  C   UNL A   1      40.447  35.618  37.093  1.00  0.00     0.135 A 
ATOM     66  F   UNL A   1      38.302  33.003  38.439  1.00  0.00    -0.206 F 
ATOM     67  C   UNL A   1      38.816  35.124  39.298  1.00  0.00     0.059 A 
ATOM     68  C   UNL A   1      40.325  36.589  38.083  1.00  0.00     0.059 A 
ATOM     69  F   UNL A   1      41.227  35.890  36.035  1.00  0.00    -0.206 F 
ATOM     70  C   UNL A   1      39.494  36.339  39.174  1.00  0.00     0.060 A 
BRANCH  70  71
ATOM     71  S   UNL A   1      39.274  37.583  40.464  1.00  0.00     0.124 S 
ATOM     72  O   UNL A   1      38.183  38.382  39.913  1.00  0.00    -0.237 OA
ATOM     73  O   UNL A   1      38.939  36.772  41.629  1.00  0.00    -0.237 OA
ATOM     74  O   UNL A   1      40.573  38.248  40.518  1.00  0.00    -0.744 OA
ENDBRANCH  70  71
ENDBRANCH  49  63
BRANCH  50  75
ATOM     75  C   UNL A   1      40.779  27.805  29.732  1.00  0.00     0.058 A 
ATOM     76  C   UNL A   1      41.830  27.965  28.816  1.00  0.00     0.135 A 
ATOM     77  C   UNL A   1      39.918  26.711  29.554  1.00  0.00     0.135 A 
ATOM     78  F   UNL A   1      42.674  29.000  28.940  1.00  0.00    -0.206 F 
ATOM     79  C   UNL A   1      42.014  27.083  27.756  1.00  0.00     0.059 A 
ATOM     80  C   UNL A   1      40.097  25.802  28.516  1.00  0.00     0.059 A 
ATOM     81  F   UNL A   1      38.907  26.505  30.412  1.00  0.00    -0.206 F 
ATOM     82  C   UNL A   1      41.141  26.002  27.615  1.00  0.00     0.060 A 
BRANCH  82  83
ATOM     83  S   UNL A   1      41.419  24.836  26.265  1.00  0.00     0.124 S 
ATOM     84  O   UNL A   1      41.535  25.734  25.121  1.00  0.00    -0.237 OA
ATOM     85  O   UNL A   1      42.649  24.170  26.681  1.00  0.00    -0.237 OA
ATOM     86  O   UNL A   1      40.223  24.000  26.294  1.00  0.00    -0.744 OA
ENDBRANCH  82  83
ENDBRANCH  50  75
BRANCH  62  87
ATOM     87  C   UNL A   1      44.060  28.749  35.819  1.00  0.00     0.058 A 
ATOM     88  C   UNL A   1      45.397  29.135  35.646  1.00  0.00     0.135 A 
ATOM     89  C   UNL A   1      43.790  27.698  36.711  1.00  0.00     0.135 A 
ATOM     90  F   UNL A   1      45.709  30.129  34.799  1.00  0.00    -0.206 F 
ATOM     91  C   UNL A   1      46.431  28.497  36.325  1.00  0.00     0.059 A 
ATOM     92  C   UNL A   1      44.804  27.062  37.419  1.00  0.00     0.059 A 
ATOM     93  F   UNL A   1      42.526  27.296  36.918  1.00  0.00    -0.206 F 
ATOM     94  C   UNL A   1      46.123  27.464  37.214  1.00  0.00     0.060 A 
BRANCH  94  95
ATOM     95  S   UNL A   1      47.467  26.682  38.131  1.00  0.00     0.124 S 
ATOM     96  O   UNL A   1      47.351  25.294  37.697  1.00  0.00    -0.237 OA
ATOM     97  O   UNL A   1      48.639  27.403  37.643  1.00  0.00    -0.237 OA
ATOM     98  O   UNL A   1      47.119  26.935  39.526  1.00  0.00    -0.744 OA
ENDBRANCH  94  95
ENDBRANCH  62  87
ENDBRANCH  36  37
ENDBRANCH  28  31
ENDBRANCH  26  27
ENDBRANCH  25  26
ENDBRANCH  24  25
ENDBRANCH   1  24
TORSDOF 21
ENDMDL
