MODEL 1
REMARK VINA RESULT:     -12.1      0.000      0.000
REMARK SMILES O=C(NCCCCNC(=O)c1cncc(Nc2ccc(Cl)cc2C(F)(F)F)n1)c1ccc(-c2c3nc(c(-c4c(F)cc(S(=O)(=O)[O-])cc4F)c4ccc([nH]4)c(-c4c(F)cc(S(=O)(=O)[O-])cc4F)c4nc(c(-c5c(F)cc(S(=O)(=O)[O-])cc5F)c5ccc2[nH]5)C=C4)C=C3)cc1
REMARK SMILES IDX 5 1 4 2 3 3 1 4 2 5 29 7 30 8 94 9 31 10 93 11 32 12 33 13
REMARK SMILES IDX 34 14 87 15 35 16 92 17 86 18 88 19 36 20 91 21 85 22 84 23
REMARK SMILES IDX 37 25 71 26 50 27 70 28 51 29 54 30 69 31 89 32 52 33 53 34
REMARK SMILES IDX 68 36 90 37 55 38 38 39 39 40 48 41 40 42 41 43 47 44 49 45
REMARK SMILES IDX 42 46 43 47 44 48 45 49 46 50 72 51 73 52 82 53 74 54 75 55
REMARK SMILES IDX 81 56 83 57 76 58 77 59 78 60 79 61 80 62 56 63 57 64 66 65
REMARK SMILES IDX 58 66 59 67 65 68 67 69 60 70 61 71 62 72 63 73 64 74 6 75
REMARK SMILES IDX 7 76 8 77 9 78 10 80 11 81 12 82 28 83 13 84 15 85 14 86
REMARK SMILES IDX 16 87 17 89 18 90 23 91 19 92 22 93 20 94 21 95 24 96 25 97
REMARK SMILES IDX 26 98 27 99
REMARK H PARENT 3 6 88 24 54 35 8 79 16 88
REMARK Flexibility Score: inf
ROOT
ATOM      1  C   UNL A   1      37.952  22.691  26.192  1.00  0.00     0.023 C 
ENDROOT
BRANCH   1   2
ATOM      2  C   UNL A   1      38.607  24.060  26.329  1.00  0.00     0.116 C 
BRANCH   2   3
ATOM      3  N   UNL A   1      40.038  24.046  26.061  1.00  0.00    -0.352 N 
ATOM      4  O   UNL A   1      42.173  24.764  26.117  1.00  0.00    -0.269 OA
ATOM      5  C   UNL A   1      41.030  24.862  26.555  1.00  0.00     0.251 C 
ATOM      6  H   UNL A   1      40.340  23.350  25.434  1.00  0.00     0.163 HD
BRANCH   5   7
ATOM      7  C   UNL A   1      40.711  25.883  27.580  1.00  0.00     0.039 A 
ATOM      8  C   UNL A   1      41.399  27.096  27.619  1.00  0.00     0.014 A 
ATOM      9  C   UNL A   1      39.725  25.608  28.532  1.00  0.00     0.014 A 
ATOM     10  C   UNL A   1      41.233  27.947  28.708  1.00  0.00     0.010 A 
ATOM     11  C   UNL A   1      39.494  26.511  29.577  1.00  0.00     0.010 A 
ATOM     12  C   UNL A   1      40.283  27.663  29.703  1.00  0.00    -0.014 A 
BRANCH  12  13
ATOM     13  C   UNL A   1      40.138  28.596  30.853  1.00  0.00     0.031 A 
ATOM     14  C   UNL A   1      41.059  28.516  32.043  1.00  0.00     0.074 A 
ATOM     15  C   UNL A   1      39.202  29.564  30.793  1.00  0.00     0.049 A 
ATOM     16  N   UNL A   1      41.115  29.295  33.096  1.00  0.00    -0.248 NA
ATOM     17  C   UNL A   1      42.038  27.419  32.065  1.00  0.00     0.031 C 
ATOM     18  C   UNL A   1      38.238  29.735  29.702  1.00  0.00     0.029 A 
ATOM     19  N   UNL A   1      38.924  30.601  31.645  1.00  0.00    -0.354 N 
ATOM     20  C   UNL A   1      42.108  28.768  33.914  1.00  0.00     0.074 A 
ATOM     21  C   UNL A   1      42.617  27.590  33.245  1.00  0.00     0.031 C 
ATOM     22  C   UNL A   1      37.521  30.847  29.919  1.00  0.00     0.029 A 
ATOM     23  C   UNL A   1      37.933  31.438  31.186  1.00  0.00     0.049 A 
ATOM     24  H   UNL A   1      39.389  30.735  32.502  1.00  0.00     0.167 HD
ATOM     25  C   UNL A   1      42.558  29.227  35.107  1.00  0.00     0.037 A 
ATOM     26  C   UNL A   1      37.415  32.558  31.723  1.00  0.00     0.037 A 
ATOM     27  C   UNL A   1      42.073  30.422  35.752  1.00  0.00     0.049 A 
ATOM     28  C   UNL A   1      37.947  33.059  33.034  1.00  0.00     0.074 A 
ATOM     29  C   UNL A   1      42.499  30.993  36.940  1.00  0.00     0.029 A 
ATOM     30  N   UNL A   1      41.056  31.230  35.265  1.00  0.00    -0.354 N 
ATOM     31  N   UNL A   1      38.908  32.561  33.775  1.00  0.00    -0.248 NA
ATOM     32  C   UNL A   1      37.326  34.272  33.581  1.00  0.00     0.031 C 
ATOM     33  C   UNL A   1      41.718  32.128  37.186  1.00  0.00     0.029 A 
ATOM     34  C   UNL A   1      40.831  32.286  36.134  1.00  0.00     0.049 A 
ATOM     35  H   UNL A   1      40.567  31.076  34.425  1.00  0.00     0.167 HD
ATOM     36  C   UNL A   1      39.016  33.409  34.872  1.00  0.00     0.074 A 
ATOM     37  C   UNL A   1      38.035  34.460  34.686  1.00  0.00     0.031 C 
ATOM     38  C   UNL A   1      39.852  33.323  35.936  1.00  0.00     0.037 A 
BRANCH  25  39
ATOM     39  C   UNL A   1      43.622  28.427  35.808  1.00  0.00     0.058 A 
ATOM     40  C   UNL A   1      44.989  28.678  35.609  1.00  0.00     0.135 A 
ATOM     41  C   UNL A   1      43.267  27.420  36.719  1.00  0.00     0.135 A 
ATOM     42  F   UNL A   1      45.383  29.620  34.738  1.00  0.00    -0.206 F 
ATOM     43  C   UNL A   1      45.967  27.940  36.269  1.00  0.00     0.059 A 
ATOM     44  C   UNL A   1      44.228  26.683  37.407  1.00  0.00     0.059 A 
ATOM     45  F   UNL A   1      41.974  27.140  36.948  1.00  0.00    -0.206 F 
ATOM     46  C   UNL A   1      45.577  26.941  37.163  1.00  0.00     0.060 A 
BRANCH  46  47
ATOM     47  S   UNL A   1      46.854  25.986  38.011  1.00  0.00     0.124 S 
ATOM     48  O   UNL A   1      46.076  25.329  39.058  1.00  0.00    -0.237 OA
ATOM     49  O   UNL A   1      47.351  25.115  36.951  1.00  0.00    -0.237 OA
ATOM     50  O   UNL A   1      47.792  27.005  38.471  1.00  0.00    -0.744 OA
ENDBRANCH  46  47
ENDBRANCH  25  39
BRANCH  26  51
ATOM     51  C   UNL A   1      36.340  33.288  31.002  1.00  0.00     0.058 A 
ATOM     52  C   UNL A   1      35.017  33.258  31.463  1.00  0.00     0.135 A 
ATOM     53  C   UNL A   1      36.622  34.056  29.863  1.00  0.00     0.135 A 
ATOM     54  F   UNL A   1      34.699  32.535  32.547  1.00  0.00    -0.206 F 
ATOM     55  C   UNL A   1      34.006  33.959  30.814  1.00  0.00     0.059 A 
ATOM     56  C   UNL A   1      35.634  34.785  29.211  1.00  0.00     0.059 A 
ATOM     57  F   UNL A   1      37.878  34.129  29.395  1.00  0.00    -0.206 F 
ATOM     58  C   UNL A   1      34.326  34.723  29.690  1.00  0.00     0.060 A 
BRANCH  58  59
ATOM     59  S   UNL A   1      33.023  35.684  28.890  1.00  0.00     0.124 S 
ATOM     60  O   UNL A   1      33.800  36.669  28.147  1.00  0.00    -0.237 OA
ATOM     61  O   UNL A   1      32.340  34.673  28.088  1.00  0.00    -0.237 OA
ATOM     62  O   UNL A   1      32.252  36.202  30.016  1.00  0.00    -0.744 OA
ENDBRANCH  58  59
ENDBRANCH  26  51
BRANCH  38  63
ATOM     63  C   UNL A   1      39.755  34.411  36.967  1.00  0.00     0.058 A 
ATOM     64  C   UNL A   1      40.488  35.602  36.849  1.00  0.00     0.135 A 
ATOM     65  C   UNL A   1      38.904  34.267  38.074  1.00  0.00     0.135 A 
ATOM     66  F   UNL A   1      41.320  35.784  35.812  1.00  0.00    -0.206 F 
ATOM     67  C   UNL A   1      40.405  36.603  37.812  1.00  0.00     0.059 A 
ATOM     68  C   UNL A   1      38.789  35.264  39.037  1.00  0.00     0.059 A 
ATOM     69  F   UNL A   1      38.175  33.151  38.226  1.00  0.00    -0.206 F 
ATOM     70  C   UNL A   1      39.555  36.422  38.906  1.00  0.00     0.060 A 
BRANCH  70  71
ATOM     71  S   UNL A   1      39.443  37.730  40.145  1.00  0.00     0.124 S 
ATOM     72  O   UNL A   1      38.293  38.490  39.666  1.00  0.00    -0.237 OA
ATOM     73  O   UNL A   1      39.237  36.980  41.379  1.00  0.00    -0.237 OA
ATOM     74  O   UNL A   1      40.733  38.407  40.039  1.00  0.00    -0.744 OA
ENDBRANCH  70  71
ENDBRANCH  38  63
ENDBRANCH  12  13
ENDBRANCH   5   7
ENDBRANCH   2   3
ENDBRANCH   1   2
BRANCH   1  75
ATOM     75  C   UNL A   1      36.689  22.645  25.333  1.00  0.00     0.023 C 
BRANCH  75  76
ATOM     76  C   UNL A   1      35.508  21.887  25.936  1.00  0.00     0.116 C 
BRANCH  76  77
ATOM     77  N   UNL A   1      34.579  21.390  24.934  1.00  0.00    -0.351 N 
ATOM     78  C   UNL A   1      33.306  21.828  24.643  1.00  0.00     0.271 C 
ATOM     79  H   UNL A   1      34.904  20.637  24.390  1.00  0.00     0.163 HD
ATOM     80  O   UNL A   1      32.638  21.259  23.785  1.00  0.00    -0.267 OA
BRANCH  78  81
ATOM     81  C   UNL A   1      32.758  23.003  25.354  1.00  0.00     0.148 A 
ATOM     82  C   UNL A   1      31.971  22.818  26.478  1.00  0.00     0.145 A 
ATOM     83  N   UNL A   1      33.047  24.231  24.844  1.00  0.00    -0.222 NA
ATOM     84  N   UNL A   1      31.389  23.855  27.118  1.00  0.00    -0.258 NA
ATOM     85  C   UNL A   1      32.508  25.284  25.489  1.00  0.00     0.149 A 
ATOM     86  C   UNL A   1      31.670  25.076  26.590  1.00  0.00     0.158 A 
BRANCH  85  87
ATOM     87  N   UNL A   1      32.801  26.539  24.953  1.00  0.00    -0.338 N 
ATOM     88  H   UNL A   1      32.792  26.559  23.970  1.00  0.00     0.168 HD
BRANCH  87  89
ATOM     89  C   UNL A   1      33.106  27.778  25.534  1.00  0.00     0.052 A 
ATOM     90  C   UNL A   1      34.184  27.908  26.430  1.00  0.00     0.028 A 
ATOM     91  C   UNL A   1      32.293  28.906  25.303  1.00  0.00     0.080 A 
ATOM     92  C   UNL A   1      34.425  29.097  27.121  1.00  0.00     0.022 A 
ATOM     93  C   UNL A   1      32.535  30.099  26.019  1.00  0.00     0.035 A 
ATOM     94  C   UNL A   1      33.587  30.184  26.925  1.00  0.00     0.041 A 
ATOM     95  Cl  UNL A   1      33.847  31.638  27.805  1.00  0.00    -0.084 Cl
BRANCH  91  96
ATOM     96  C   UNL A   1      31.120  28.884  24.353  1.00  0.00     0.418 C 
ATOM     97  F   UNL A   1      30.419  30.050  24.370  1.00  0.00    -0.166 F 
ATOM     98  F   UNL A   1      31.509  28.704  23.058  1.00  0.00    -0.166 F 
ATOM     99  F   UNL A   1      30.220  27.891  24.600  1.00  0.00    -0.166 F 
ENDBRANCH  91  96
ENDBRANCH  87  89
ENDBRANCH  85  87
ENDBRANCH  78  81
ENDBRANCH  76  77
ENDBRANCH  75  76
ENDBRANCH   1  75
TORSDOF 17
ENDMDL
MODEL 2
REMARK VINA RESULT:     -12.0      5.301      9.886
REMARK SMILES O=C(NCCCCNC(=O)c1cncc(Nc2ccc(Cl)cc2C(F)(F)F)n1)c1ccc(-c2c3nc(c(-c4c(F)cc(S(=O)(=O)[O-])cc4F)c4ccc([nH]4)c(-c4c(F)cc(S(=O)(=O)[O-])cc4F)c4nc(c(-c5c(F)cc(S(=O)(=O)[O-])cc5F)c5ccc2[nH]5)C=C4)C=C3)cc1
REMARK SMILES IDX 5 1 4 2 3 3 1 4 2 5 29 7 30 8 94 9 31 10 93 11 32 12 33 13
REMARK SMILES IDX 34 14 87 15 35 16 92 17 86 18 88 19 36 20 91 21 85 22 84 23
REMARK SMILES IDX 37 25 71 26 50 27 70 28 51 29 54 30 69 31 89 32 52 33 53 34
REMARK SMILES IDX 68 36 90 37 55 38 38 39 39 40 48 41 40 42 41 43 47 44 49 45
REMARK SMILES IDX 42 46 43 47 44 48 45 49 46 50 72 51 73 52 82 53 74 54 75 55
REMARK SMILES IDX 81 56 83 57 76 58 77 59 78 60 79 61 80 62 56 63 57 64 66 65
REMARK SMILES IDX 58 66 59 67 65 68 67 69 60 70 61 71 62 72 63 73 64 74 6 75
REMARK SMILES IDX 7 76 8 77 9 78 10 80 11 81 12 82 28 83 13 84 15 85 14 86
REMARK SMILES IDX 16 87 17 89 18 90 23 91 19 92 22 93 20 94 21 95 24 96 25 97
REMARK SMILES IDX 26 98 27 99
REMARK H PARENT 3 6 88 24 54 35 8 79 16 88
REMARK Flexibility Score: inf
ROOT
ATOM      1  C   UNL A   1      34.038  27.898  25.900  1.00  0.00     0.023 C 
ENDROOT
BRANCH   1   2
ATOM      2  C   UNL A   1      33.457  28.213  27.273  1.00  0.00     0.116 C 
BRANCH   2   3
ATOM      3  N   UNL A   1      33.386  29.638  27.559  1.00  0.00    -0.352 N 
ATOM      4  O   UNL A   1      34.070  31.645  28.326  1.00  0.00    -0.269 OA
ATOM      5  C   UNL A   1      34.359  30.486  28.041  1.00  0.00     0.251 C 
ATOM      6  H   UNL A   1      32.514  30.059  27.381  1.00  0.00     0.163 HD
BRANCH   5   7
ATOM      7  C   UNL A   1      35.738  29.989  28.253  1.00  0.00     0.039 A 
ATOM      8  C   UNL A   1      36.138  29.499  29.496  1.00  0.00     0.014 A 
ATOM      9  C   UNL A   1      36.651  30.039  27.196  1.00  0.00     0.014 A 
ATOM     10  C   UNL A   1      37.484  29.236  29.732  1.00  0.00     0.010 A 
ATOM     11  C   UNL A   1      37.989  29.685  27.412  1.00  0.00     0.010 A 
ATOM     12  C   UNL A   1      38.427  29.331  28.696  1.00  0.00    -0.014 A 
BRANCH  12  13
ATOM     13  C   UNL A   1      39.858  29.045  28.990  1.00  0.00     0.031 A 
ATOM     14  C   UNL A   1      40.483  27.728  28.610  1.00  0.00     0.074 A 
ATOM     15  C   UNL A   1      40.613  30.008  29.553  1.00  0.00     0.049 A 
ATOM     16  N   UNL A   1      41.730  27.342  28.729  1.00  0.00    -0.248 NA
ATOM     17  C   UNL A   1      39.599  26.705  28.028  1.00  0.00     0.031 C 
ATOM     18  C   UNL A   1      40.120  31.320  29.984  1.00  0.00     0.029 A 
ATOM     19  N   UNL A   1      41.955  30.052  29.833  1.00  0.00    -0.354 N 
ATOM     20  C   UNL A   1      41.774  26.031  28.269  1.00  0.00     0.074 A 
ATOM     21  C   UNL A   1      40.425  25.678  27.884  1.00  0.00     0.031 C 
ATOM     22  C   UNL A   1      41.153  32.059  30.412  1.00  0.00     0.029 A 
ATOM     23  C   UNL A   1      42.371  31.261  30.338  1.00  0.00     0.049 A 
ATOM     24  H   UNL A   1      42.561  29.290  29.686  1.00  0.00     0.167 HD
ATOM     25  C   UNL A   1      42.842  25.202  28.169  1.00  0.00     0.037 A 
ATOM     26  C   UNL A   1      43.597  31.684  30.699  1.00  0.00     0.037 A 
ATOM     27  C   UNL A   1      44.191  25.570  28.520  1.00  0.00     0.049 A 
ATOM     28  C   UNL A   1      44.766  30.755  30.556  1.00  0.00     0.074 A 
ATOM     29  C   UNL A   1      45.346  24.813  28.410  1.00  0.00     0.029 A 
ATOM     30  N   UNL A   1      44.568  26.797  29.045  1.00  0.00    -0.354 N 
ATOM     31  N   UNL A   1      44.790  29.529  30.091  1.00  0.00    -0.248 NA
ATOM     32  C   UNL A   1      46.074  31.264  30.989  1.00  0.00     0.031 C 
ATOM     33  C   UNL A   1      46.416  25.572  28.899  1.00  0.00     0.029 A 
ATOM     34  C   UNL A   1      45.934  26.814  29.278  1.00  0.00     0.049 A 
ATOM     35  H   UNL A   1      43.955  27.545  29.225  1.00  0.00     0.167 HD
ATOM     36  C   UNL A   1      46.118  29.125  30.161  1.00  0.00     0.074 A 
ATOM     37  C   UNL A   1      46.868  30.242  30.698  1.00  0.00     0.031 C 
ATOM     38  C   UNL A   1      46.665  27.934  29.813  1.00  0.00     0.037 A 
BRANCH  25  39
ATOM     39  C   UNL A   1      42.596  23.802  27.675  1.00  0.00     0.058 A 
ATOM     40  C   UNL A   1      42.426  22.724  28.558  1.00  0.00     0.135 A 
ATOM     41  C   UNL A   1      42.492  23.544  26.299  1.00  0.00     0.135 A 
ATOM     42  F   UNL A   1      42.529  22.913  29.883  1.00  0.00    -0.206 F 
ATOM     43  C   UNL A   1      42.188  21.434  28.092  1.00  0.00     0.059 A 
ATOM     44  C   UNL A   1      42.234  22.265  25.811  1.00  0.00     0.059 A 
ATOM     45  F   UNL A   1      42.644  24.539  25.411  1.00  0.00    -0.206 F 
ATOM     46  C   UNL A   1      42.098  21.214  26.717  1.00  0.00     0.060 A 
BRANCH  46  47
ATOM     47  S   UNL A   1      41.795  19.534  26.123  1.00  0.00     0.124 S 
ATOM     48  O   UNL A   1      42.666  19.481  24.953  1.00  0.00    -0.237 OA
ATOM     49  O   UNL A   1      42.212  18.719  27.260  1.00  0.00    -0.237 OA
ATOM     50  O   UNL A   1      40.363  19.527  25.842  1.00  0.00    -0.744 OA
ENDBRANCH  46  47
ENDBRANCH  25  39
BRANCH  26  51
ATOM     51  C   UNL A   1      43.774  33.067  31.214  1.00  0.00     0.058 A 
ATOM     52  C   UNL A   1      43.960  34.143  30.335  1.00  0.00     0.135 A 
ATOM     53  C   UNL A   1      43.726  33.342  32.589  1.00  0.00     0.135 A 
ATOM     54  F   UNL A   1      44.016  33.928  29.012  1.00  0.00    -0.206 F 
ATOM     55  C   UNL A   1      44.099  35.446  30.801  1.00  0.00     0.059 A 
ATOM     56  C   UNL A   1      43.838  34.638  33.078  1.00  0.00     0.059 A 
ATOM     57  F   UNL A   1      43.532  32.345  33.467  1.00  0.00    -0.206 F 
ATOM     58  C   UNL A   1      44.033  35.683  32.176  1.00  0.00     0.060 A 
BRANCH  58  59
ATOM     59  S   UNL A   1      44.149  37.384  32.773  1.00  0.00     0.124 S 
ATOM     60  O   UNL A   1      43.039  37.439  33.716  1.00  0.00    -0.237 OA
ATOM     61  O   UNL A   1      45.487  37.416  33.357  1.00  0.00    -0.237 OA
ATOM     62  O   UNL A   1      43.988  38.175  31.556  1.00  0.00    -0.744 OA
ENDBRANCH  58  59
ENDBRANCH  26  51
BRANCH  38  63
ATOM     63  C   UNL A   1      48.151  27.793  29.980  1.00  0.00     0.058 A 
ATOM     64  C   UNL A   1      49.046  28.214  28.985  1.00  0.00     0.135 A 
ATOM     65  C   UNL A   1      48.685  27.248  31.159  1.00  0.00     0.135 A 
ATOM     66  F   UNL A   1      48.584  28.735  27.837  1.00  0.00    -0.206 F 
ATOM     67  C   UNL A   1      50.422  28.072  29.139  1.00  0.00     0.059 A 
ATOM     68  C   UNL A   1      50.058  27.117  31.343  1.00  0.00     0.059 A 
ATOM     69  F   UNL A   1      47.871  26.840  32.145  1.00  0.00    -0.206 F 
ATOM     70  C   UNL A   1      50.918  27.517  30.320  1.00  0.00     0.060 A 
BRANCH  70  71
ATOM     71  S   UNL A   1      52.704  27.346  30.518  1.00  0.00     0.124 S 
ATOM     72  O   UNL A   1      53.044  28.590  31.200  1.00  0.00    -0.237 OA
ATOM     73  O   UNL A   1      52.819  26.132  31.320  1.00  0.00    -0.237 OA
ATOM     74  O   UNL A   1      53.185  27.230  29.144  1.00  0.00    -0.744 OA
ENDBRANCH  70  71
ENDBRANCH  38  63
ENDBRANCH  12  13
ENDBRANCH   5   7
ENDBRANCH   2   3
ENDBRANCH   1   2
BRANCH   1  75
ATOM     75  C   UNL A   1      33.580  28.809  24.763  1.00  0.00     0.023 C 
BRANCH  75  76
ATOM     76  C   UNL A   1      33.735  28.238  23.356  1.00  0.00     0.116 C 
BRANCH  76  77
ATOM     77  N   UNL A   1      32.490  28.232  22.604  1.00  0.00    -0.351 N 
ATOM     78  C   UNL A   1      31.374  27.446  22.788  1.00  0.00     0.271 C 
ATOM     79  H   UNL A   1      32.439  28.875  21.862  1.00  0.00     0.163 HD
ATOM     80  O   UNL A   1      30.417  27.544  22.026  1.00  0.00    -0.267 OA
BRANCH  78  81
ATOM     81  C   UNL A   1      31.325  26.501  23.924  1.00  0.00     0.148 A 
ATOM     82  C   UNL A   1      30.529  26.788  25.021  1.00  0.00     0.145 A 
ATOM     83  N   UNL A   1      32.096  25.383  23.839  1.00  0.00    -0.222 NA
ATOM     84  N   UNL A   1      30.507  25.993  26.111  1.00  0.00    -0.258 NA
ATOM     85  C   UNL A   1      32.061  24.555  24.901  1.00  0.00     0.149 A 
ATOM     86  C   UNL A   1      31.295  24.888  26.023  1.00  0.00     0.158 A 
BRANCH  85  87
ATOM     87  N   UNL A   1      32.863  23.416  24.809  1.00  0.00    -0.338 N 
ATOM     88  H   UNL A   1      32.411  22.649  24.390  1.00  0.00     0.168 HD
BRANCH  87  89
ATOM     89  C   UNL A   1      34.184  23.145  25.193  1.00  0.00     0.052 A 
ATOM     90  C   UNL A   1      35.067  24.189  25.524  1.00  0.00     0.028 A 
ATOM     91  C   UNL A   1      34.686  21.828  25.179  1.00  0.00     0.080 A 
ATOM     92  C   UNL A   1      36.420  23.954  25.779  1.00  0.00     0.022 A 
ATOM     93  C   UNL A   1      36.058  21.602  25.423  1.00  0.00     0.035 A 
ATOM     94  C   UNL A   1      36.914  22.661  25.711  1.00  0.00     0.041 A 
ATOM     95  Cl  UNL A   1      38.586  22.365  25.980  1.00  0.00    -0.084 Cl
BRANCH  91  96
ATOM     96  C   UNL A   1      33.826  20.631  24.852  1.00  0.00     0.418 C 
ATOM     97  F   UNL A   1      33.103  20.808  23.714  1.00  0.00    -0.166 F 
ATOM     98  F   UNL A   1      34.567  19.504  24.650  1.00  0.00    -0.166 F 
ATOM     99  F   UNL A   1      32.932  20.303  25.827  1.00  0.00    -0.166 F 
ENDBRANCH  91  96
ENDBRANCH  87  89
ENDBRANCH  85  87
ENDBRANCH  78  81
ENDBRANCH  76  77
ENDBRANCH  75  76
ENDBRANCH   1  75
TORSDOF 17
ENDMDL
MODEL 3
REMARK VINA RESULT:     -11.9      3.911      5.838
REMARK SMILES O=C(NCCCCNC(=O)c1cncc(Nc2ccc(Cl)cc2C(F)(F)F)n1)c1ccc(-c2c3nc(c(-c4c(F)cc(S(=O)(=O)[O-])cc4F)c4ccc([nH]4)c(-c4c(F)cc(S(=O)(=O)[O-])cc4F)c4nc(c(-c5c(F)cc(S(=O)(=O)[O-])cc5F)c5ccc2[nH]5)C=C4)C=C3)cc1
REMARK SMILES IDX 5 1 4 2 3 3 1 4 2 5 29 7 30 8 94 9 31 10 93 11 32 12 33 13
REMARK SMILES IDX 34 14 87 15 35 16 92 17 86 18 88 19 36 20 91 21 85 22 84 23
REMARK SMILES IDX 37 25 71 26 50 27 70 28 51 29 54 30 69 31 89 32 52 33 53 34
REMARK SMILES IDX 68 36 90 37 55 38 38 39 39 40 48 41 40 42 41 43 47 44 49 45
REMARK SMILES IDX 42 46 43 47 44 48 45 49 46 50 72 51 73 52 82 53 74 54 75 55
REMARK SMILES IDX 81 56 83 57 76 58 77 59 78 60 79 61 80 62 56 63 57 64 66 65
REMARK SMILES IDX 58 66 59 67 65 68 67 69 60 70 61 71 62 72 63 73 64 74 6 75
REMARK SMILES IDX 7 76 8 77 9 78 10 80 11 81 12 82 28 83 13 84 15 85 14 86
REMARK SMILES IDX 16 87 17 89 18 90 23 91 19 92 22 93 20 94 21 95 24 96 25 97
REMARK SMILES IDX 26 98 27 99
REMARK H PARENT 3 6 88 24 54 35 8 79 16 88
REMARK Flexibility Score: inf
ROOT
ATOM      1  C   UNL A   1      46.039  23.989  25.689  1.00  0.00     0.023 C 
ENDROOT
BRANCH   1   2
ATOM      2  C   UNL A   1      45.026  24.947  26.304  1.00  0.00     0.116 C 
BRANCH   2   3
ATOM      3  N   UNL A   1      43.919  25.266  25.415  1.00  0.00    -0.352 N 
ATOM      4  O   UNL A   1      41.917  26.100  24.799  1.00  0.00    -0.269 OA
ATOM      5  C   UNL A   1      42.805  26.042  25.645  1.00  0.00     0.251 C 
ATOM      6  H   UNL A   1      43.974  24.869  24.516  1.00  0.00     0.163 HD
BRANCH   5   7
ATOM      7  C   UNL A   1      42.660  26.771  26.927  1.00  0.00     0.039 A 
ATOM      8  C   UNL A   1      41.984  26.197  28.004  1.00  0.00     0.014 A 
ATOM      9  C   UNL A   1      43.187  28.061  27.040  1.00  0.00     0.014 A 
ATOM     10  C   UNL A   1      41.678  26.973  29.117  1.00  0.00     0.010 A 
ATOM     11  C   UNL A   1      42.956  28.809  28.202  1.00  0.00     0.010 A 
ATOM     12  C   UNL A   1      42.154  28.290  29.228  1.00  0.00    -0.014 A 
BRANCH  12  13
ATOM     13  C   UNL A   1      41.802  29.088  30.434  1.00  0.00     0.031 A 
ATOM     14  C   UNL A   1      42.699  29.110  31.644  1.00  0.00     0.074 A 
ATOM     15  C   UNL A   1      40.688  29.847  30.410  1.00  0.00     0.049 A 
ATOM     16  N   UNL A   1      42.577  29.805  32.748  1.00  0.00    -0.248 NA
ATOM     17  C   UNL A   1      43.882  28.235  31.621  1.00  0.00     0.031 C 
ATOM     18  C   UNL A   1      39.728  29.898  29.304  1.00  0.00     0.029 A 
ATOM     19  N   UNL A   1      40.190  30.742  31.322  1.00  0.00    -0.354 N 
ATOM     20  C   UNL A   1      43.644  29.432  33.559  1.00  0.00     0.074 A 
ATOM     21  C   UNL A   1      44.394  28.434  32.828  1.00  0.00     0.031 C 
ATOM     22  C   UNL A   1      38.795  30.822  29.574  1.00  0.00     0.029 A 
ATOM     23  C   UNL A   1      39.057  31.391  30.891  1.00  0.00     0.049 A 
ATOM     24  H   UNL A   1      40.604  30.904  32.200  1.00  0.00     0.167 HD
ATOM     25  C   UNL A   1      43.970  29.885  34.794  1.00  0.00     0.037 A 
ATOM     26  C   UNL A   1      38.311  32.340  31.486  1.00  0.00     0.037 A 
ATOM     27  C   UNL A   1      43.240  30.906  35.503  1.00  0.00     0.049 A 
ATOM     28  C   UNL A   1      38.708  32.842  32.844  1.00  0.00     0.074 A 
ATOM     29  C   UNL A   1      43.521  31.463  36.740  1.00  0.00     0.029 A 
ATOM     30  N   UNL A   1      42.088  31.525  35.041  1.00  0.00    -0.354 N 
ATOM     31  N   UNL A   1      39.737  32.497  33.579  1.00  0.00    -0.248 NA
ATOM     32  C   UNL A   1      37.843  33.860  33.453  1.00  0.00     0.031 C 
ATOM     33  C   UNL A   1      42.520  32.396  37.039  1.00  0.00     0.029 A 
ATOM     34  C   UNL A   1      41.637  32.446  35.972  1.00  0.00     0.049 A 
ATOM     35  H   UNL A   1      41.655  31.336  34.178  1.00  0.00     0.167 HD
ATOM     36  C   UNL A   1      39.652  33.267  34.734  1.00  0.00     0.074 A 
ATOM     37  C   UNL A   1      38.479  34.107  34.590  1.00  0.00     0.031 C 
ATOM     38  C   UNL A   1      40.470  33.275  35.815  1.00  0.00     0.037 A 
BRANCH  25  39
ATOM     39  C   UNL A   1      45.164  29.269  35.471  1.00  0.00     0.058 A 
ATOM     40  C   UNL A   1      46.445  29.833  35.373  1.00  0.00     0.135 A 
ATOM     41  C   UNL A   1      45.015  28.117  36.261  1.00  0.00     0.135 A 
ATOM     42  F   UNL A   1      46.646  30.927  34.620  1.00  0.00    -0.206 F 
ATOM     43  C   UNL A   1      47.542  29.263  36.011  1.00  0.00     0.059 A 
ATOM     44  C   UNL A   1      46.094  27.541  36.926  1.00  0.00     0.059 A 
ATOM     45  F   UNL A   1      43.811  27.537  36.391  1.00  0.00    -0.206 F 
ATOM     46  C   UNL A   1      47.358  28.114  36.782  1.00  0.00     0.060 A 
BRANCH  46  47
ATOM     47  S   UNL A   1      48.790  27.378  37.603  1.00  0.00     0.124 S 
ATOM     48  O   UNL A   1      49.547  28.567  37.983  1.00  0.00    -0.237 OA
ATOM     49  O   UNL A   1      48.177  26.640  38.702  1.00  0.00    -0.237 OA
ATOM     50  O   UNL A   1      49.393  26.556  36.559  1.00  0.00    -0.744 OA
ENDBRANCH  46  47
ENDBRANCH  25  39
BRANCH  26  51
ATOM     51  C   UNL A   1      37.121  32.887  30.784  1.00  0.00     0.058 A 
ATOM     52  C   UNL A   1      35.832  32.433  31.092  1.00  0.00     0.135 A 
ATOM     53  C   UNL A   1      37.250  33.897  29.819  1.00  0.00     0.135 A 
ATOM     54  F   UNL A   1      35.661  31.466  32.006  1.00  0.00    -0.206 F 
ATOM     55  C   UNL A   1      34.708  32.956  30.462  1.00  0.00     0.059 A 
ATOM     56  C   UNL A   1      36.140  34.453  29.193  1.00  0.00     0.059 A 
ATOM     57  F   UNL A   1      38.463  34.376  29.503  1.00  0.00    -0.206 F 
ATOM     58  C   UNL A   1      34.872  33.969  29.516  1.00  0.00     0.060 A 
BRANCH  58  59
ATOM     59  S   UNL A   1      33.405  34.691  28.748  1.00  0.00     0.124 S 
ATOM     60  O   UNL A   1      33.011  33.636  27.822  1.00  0.00    -0.237 OA
ATOM     61  O   UNL A   1      32.525  34.897  29.894  1.00  0.00    -0.237 OA
ATOM     62  O   UNL A   1      33.918  35.913  28.136  1.00  0.00    -0.744 OA
ENDBRANCH  58  59
ENDBRANCH  26  51
BRANCH  38  63
ATOM     63  C   UNL A   1      40.135  34.242  36.914  1.00  0.00     0.058 A 
ATOM     64  C   UNL A   1      39.335  33.868  38.004  1.00  0.00     0.135 A 
ATOM     65  C   UNL A   1      40.637  35.553  36.884  1.00  0.00     0.135 A 
ATOM     66  F   UNL A   1      38.825  32.628  38.074  1.00  0.00    -0.206 F 
ATOM     67  C   UNL A   1      39.018  34.770  39.015  1.00  0.00     0.059 A 
ATOM     68  C   UNL A   1      40.350  36.465  37.895  1.00  0.00     0.059 A 
ATOM     69  F   UNL A   1      41.415  35.957  35.868  1.00  0.00    -0.206 F 
ATOM     70  C   UNL A   1      39.527  36.068  38.949  1.00  0.00     0.060 A 
BRANCH  70  71
ATOM     71  S   UNL A   1      39.120  37.230  40.269  1.00  0.00     0.124 S 
ATOM     72  O   UNL A   1      38.328  36.392  41.163  1.00  0.00    -0.237 OA
ATOM     73  O   UNL A   1      40.435  37.619  40.765  1.00  0.00    -0.237 OA
ATOM     74  O   UNL A   1      38.382  38.283  39.576  1.00  0.00    -0.744 OA
ENDBRANCH  70  71
ENDBRANCH  38  63
ENDBRANCH  12  13
ENDBRANCH   5   7
ENDBRANCH   2   3
ENDBRANCH   1   2
BRANCH   1  75
ATOM     75  C   UNL A   1      45.456  22.875  24.822  1.00  0.00     0.023 C 
BRANCH  75  76
ATOM     76  C   UNL A   1      46.078  21.494  25.015  1.00  0.00     0.116 C 
BRANCH  76  77
ATOM     77  N   UNL A   1      45.810  20.589  23.910  1.00  0.00    -0.351 N 
ATOM     78  C   UNL A   1      44.923  19.536  23.851  1.00  0.00     0.271 C 
ATOM     79  H   UNL A   1      46.335  20.748  23.093  1.00  0.00     0.163 HD
ATOM     80  O   UNL A   1      44.855  18.842  22.841  1.00  0.00    -0.267 OA
BRANCH  78  81
ATOM     81  C   UNL A   1      44.036  19.263  25.001  1.00  0.00     0.148 A 
ATOM     82  C   UNL A   1      44.207  18.104  25.739  1.00  0.00     0.145 A 
ATOM     83  N   UNL A   1      43.065  20.178  25.271  1.00  0.00    -0.222 NA
ATOM     84  N   UNL A   1      43.377  17.776  26.752  1.00  0.00    -0.258 NA
ATOM     85  C   UNL A   1      42.248  19.890  26.302  1.00  0.00     0.149 A 
ATOM     86  C   UNL A   1      42.399  18.687  27.001  1.00  0.00     0.158 A 
BRANCH  85  87
ATOM     87  N   UNL A   1      41.248  20.828  26.565  1.00  0.00    -0.338 N 
ATOM     88  H   UNL A   1      41.540  21.560  27.153  1.00  0.00     0.168 HD
BRANCH  87  89
ATOM     89  C   UNL A   1      39.911  20.938  26.157  1.00  0.00     0.052 A 
ATOM     90  C   UNL A   1      39.226  19.829  25.626  1.00  0.00     0.028 A 
ATOM     91  C   UNL A   1      39.243  22.179  26.191  1.00  0.00     0.080 A 
ATOM     92  C   UNL A   1      37.941  19.946  25.091  1.00  0.00     0.022 A 
ATOM     93  C   UNL A   1      37.950  22.291  25.635  1.00  0.00     0.035 A 
ATOM     94  C   UNL A   1      37.314  21.183  25.083  1.00  0.00     0.041 A 
ATOM     95  Cl  UNL A   1      35.751  21.348  24.387  1.00  0.00    -0.084 Cl
BRANCH  91  96
ATOM     96  C   UNL A   1      39.875  23.430  26.752  1.00  0.00     0.418 C 
ATOM     97  F   UNL A   1      39.724  23.526  28.101  1.00  0.00    -0.166 F 
ATOM     98  F   UNL A   1      41.220  23.473  26.525  1.00  0.00    -0.166 F 
ATOM     99  F   UNL A   1      39.384  24.587  26.228  1.00  0.00    -0.166 F 
ENDBRANCH  91  96
ENDBRANCH  87  89
ENDBRANCH  85  87
ENDBRANCH  78  81
ENDBRANCH  76  77
ENDBRANCH  75  76
ENDBRANCH   1  75
TORSDOF 17
ENDMDL
