MODEL 1
REMARK VINA RESULT:     -14.6      0.000      0.000
REMARK SMILES Cc1ccc(S(=O)(=O)N2c3ccc(C(=O)NCCCCNC(=O)c4ccc(-c5c6nc(c(-c7c(F)cc(S(=O)(=O)[O-])cc7F)c7ccc([nH]7)c(-c7c(F)cc(S(=O)(=O)[O-])cc7F)c7nc(c(-c8c(F)cc(S(=O)(=O)[O-])cc8F)c8ccc5[nH]8)C=C7)C=C6)cc4)cc3C[C@H]2C)cc1
REMARK SMILES IDX 19 1 18 2 17 3 16 4 14 5 15 6 13 8 9 9 10 10 93 11 11 12
REMARK SMILES IDX 91 13 92 14 94 15 12 16 90 17 6 18 7 19 8 20 5 21 1 22 2 23
REMARK SMILES IDX 3 24 96 25 4 26 95 27 20 28 21 29 22 30 23 32 24 33 25 34
REMARK SMILES IDX 89 35 26 36 88 37 27 38 28 39 29 40 82 41 30 42 87 43 81 44
REMARK SMILES IDX 83 45 31 46 86 47 80 48 79 49 32 51 66 52 45 53 65 54 46 55
REMARK SMILES IDX 49 56 64 57 84 58 47 59 48 60 63 62 85 63 50 64 33 65 34 66
REMARK SMILES IDX 43 67 35 68 36 69 42 70 44 71 37 72 38 73 39 74 40 75 41 76
REMARK SMILES IDX 67 77 68 78 77 79 69 80 70 81 76 82 78 83 71 84 72 85 73 86
REMARK SMILES IDX 74 87 75 88 51 89 52 90 61 91 53 92 54 93 60 94 62 95 55 96
REMARK SMILES IDX 56 97 57 98 58 99 59 100
REMARK H PARENT 16 7 21 31 83 50 49 61
REMARK Flexibility Score: inf
ROOT
ATOM      1  C   UNL A   1      33.095  30.280  27.152  1.00  0.00     0.023 C 
ENDROOT
BRANCH   1   2
ATOM      2  C   UNL A   1      32.125  29.234  26.615  1.00  0.00     0.023 C 
BRANCH   2   3
ATOM      3  C   UNL A   1      31.687  29.388  25.158  1.00  0.00     0.116 C 
BRANCH   3   4
ATOM      4  N   UNL A   1      32.788  29.504  24.203  1.00  0.00    -0.352 N 
ATOM      5  C   UNL A   1      33.515  28.556  23.519  1.00  0.00     0.251 C 
ATOM      6  O   UNL A   1      34.452  28.921  22.808  1.00  0.00    -0.269 OA
ATOM      7  H   UNL A   1      33.059  30.432  24.014  1.00  0.00     0.163 HD
BRANCH   5   8
ATOM      8  C   UNL A   1      33.253  27.100  23.666  1.00  0.00     0.040 A 
ATOM      9  N   UNL A   1      32.123  23.128  24.539  1.00  0.00    -0.263 N 
ATOM     10  C   UNL A   1      32.534  24.442  24.083  1.00  0.00     0.055 A 
ATOM     11  C   UNL A   1      32.403  23.145  26.034  1.00  0.00     0.101 C 
ATOM     12  C   UNL A   1      32.391  24.984  22.820  1.00  0.00     0.028 A 
ATOM     13  C   UNL A   1      33.117  25.185  25.107  1.00  0.00    -0.021 A 
ATOM     14  C   UNL A   1      33.354  24.330  26.303  1.00  0.00     0.063 C 
ATOM     15  C   UNL A   1      31.077  23.358  26.777  1.00  0.00     0.032 C 
ATOM     16  C   UNL A   1      32.821  26.296  22.600  1.00  0.00     0.016 A 
ATOM     17  C   UNL A   1      33.470  26.516  24.924  1.00  0.00     0.019 A 
BRANCH   9  18
ATOM     18  S   UNL A   1      32.850  21.866  23.622  1.00  0.00     0.264 S 
ATOM     19  O   UNL A   1      32.874  22.286  22.235  1.00  0.00    -0.201 OA
ATOM     20  O   UNL A   1      32.231  20.612  24.012  1.00  0.00    -0.201 OA
BRANCH  18  21
ATOM     21  C   UNL A   1      34.562  21.684  24.103  1.00  0.00     0.088 A 
ATOM     22  C   UNL A   1      38.598  21.877  25.596  1.00  0.00     0.044 C 
ATOM     23  C   UNL A   1      37.213  21.770  25.031  1.00  0.00    -0.051 A 
ATOM     24  C   UNL A   1      36.755  22.728  24.122  1.00  0.00     0.005 A 
ATOM     25  C   UNL A   1      36.358  20.728  25.408  1.00  0.00     0.005 A 
ATOM     26  C   UNL A   1      35.439  22.686  23.661  1.00  0.00     0.022 A 
ATOM     27  C   UNL A   1      35.038  20.681  24.942  1.00  0.00     0.022 A 
ENDBRANCH  18  21
ENDBRANCH   9  18
ENDBRANCH   5   8
ENDBRANCH   3   4
ENDBRANCH   2   3
ENDBRANCH   1   2
BRANCH   1  28
ATOM     28  C   UNL A   1      34.539  29.826  27.261  1.00  0.00     0.116 C 
BRANCH  28  29
ATOM     29  N   UNL A   1      35.555  30.865  27.259  1.00  0.00    -0.352 N 
ATOM     30  C   UNL A   1      36.413  30.980  28.363  1.00  0.00     0.251 C 
ATOM     31  H   UNL A   1      35.642  31.479  26.494  1.00  0.00     0.163 HD
ATOM     32  O   UNL A   1      36.360  31.851  29.193  1.00  0.00    -0.269 OA
BRANCH  30  33
ATOM     33  C   UNL A   1      37.349  29.832  28.500  1.00  0.00     0.039 A 
ATOM     34  C   UNL A   1      37.365  29.041  29.649  1.00  0.00     0.014 A 
ATOM     35  C   UNL A   1      38.341  29.704  27.530  1.00  0.00     0.014 A 
ATOM     36  C   UNL A   1      38.469  28.216  29.892  1.00  0.00     0.010 A 
ATOM     37  C   UNL A   1      39.474  28.985  27.823  1.00  0.00     0.010 A 
ATOM     38  C   UNL A   1      39.552  28.253  29.010  1.00  0.00    -0.014 A 
BRANCH  38  39
ATOM     39  C   UNL A   1      40.844  27.620  29.232  1.00  0.00     0.031 A 
ATOM     40  C   UNL A   1      41.096  26.242  28.747  1.00  0.00     0.074 A 
ATOM     41  C   UNL A   1      41.873  28.378  29.672  1.00  0.00     0.049 A 
ATOM     42  N   UNL A   1      42.075  25.502  29.142  1.00  0.00    -0.248 NA
ATOM     43  C   UNL A   1      40.239  25.579  27.766  1.00  0.00     0.031 C 
ATOM     44  C   UNL A   1      43.298  28.083  29.563  1.00  0.00     0.029 A 
ATOM     45  N   UNL A   1      41.817  29.519  30.470  1.00  0.00    -0.354 N 
ATOM     46  C   UNL A   1      42.151  24.420  28.294  1.00  0.00     0.074 A 
ATOM     47  C   UNL A   1      40.956  24.485  27.486  1.00  0.00     0.031 C 
ATOM     48  C   UNL A   1      43.968  28.837  30.449  1.00  0.00     0.029 A 
ATOM     49  C   UNL A   1      42.982  29.525  31.262  1.00  0.00     0.049 A 
ATOM     50  H   UNL A   1      41.100  30.194  30.480  1.00  0.00     0.167 HD
ATOM     51  C   UNL A   1      43.281  23.658  28.264  1.00  0.00     0.037 A 
ATOM     52  C   UNL A   1      42.895  29.422  32.623  1.00  0.00     0.037 A 
ATOM     53  C   UNL A   1      44.266  24.138  29.228  1.00  0.00     0.049 A 
ATOM     54  C   UNL A   1      43.527  28.165  33.182  1.00  0.00     0.074 A 
ATOM     55  C   UNL A   1      45.359  24.982  29.102  1.00  0.00     0.029 A 
ATOM     56  N   UNL A   1      44.006  24.034  30.589  1.00  0.00    -0.354 N 
ATOM     57  N   UNL A   1      43.835  27.122  32.460  1.00  0.00    -0.248 NA
ATOM     58  C   UNL A   1      43.867  27.979  34.589  1.00  0.00     0.031 C 
ATOM     59  C   UNL A   1      45.710  25.443  30.392  1.00  0.00     0.029 A 
ATOM     60  C   UNL A   1      44.850  24.862  31.306  1.00  0.00     0.049 A 
ATOM     61  H   UNL A   1      43.319  23.452  30.987  1.00  0.00     0.167 HD
ATOM     62  C   UNL A   1      44.378  26.146  33.257  1.00  0.00     0.074 A 
ATOM     63  C   UNL A   1      44.394  26.741  34.580  1.00  0.00     0.031 C 
ATOM     64  C   UNL A   1      44.769  24.936  32.757  1.00  0.00     0.037 A 
BRANCH  51  65
ATOM     65  C   UNL A   1      43.578  22.680  27.151  1.00  0.00     0.058 A 
ATOM     66  C   UNL A   1      42.837  21.487  27.012  1.00  0.00     0.135 A 
ATOM     67  C   UNL A   1      44.617  22.848  26.214  1.00  0.00     0.135 A 
ATOM     68  F   UNL A   1      41.777  21.224  27.787  1.00  0.00    -0.206 F 
ATOM     69  C   UNL A   1      43.163  20.495  26.087  1.00  0.00     0.059 A 
ATOM     70  C   UNL A   1      44.995  21.847  25.312  1.00  0.00     0.059 A 
ATOM     71  F   UNL A   1      45.291  24.005  26.135  1.00  0.00    -0.206 F 
ATOM     72  C   UNL A   1      44.264  20.667  25.261  1.00  0.00     0.060 A 
BRANCH  72  73
ATOM     73  S   UNL A   1      44.726  19.325  24.148  1.00  0.00     0.124 S 
ATOM     74  O   UNL A   1      46.149  19.163  24.430  1.00  0.00    -0.237 OA
ATOM     75  O   UNL A   1      43.862  18.242  24.604  1.00  0.00    -0.237 OA
ATOM     76  O   UNL A   1      44.417  19.861  22.825  1.00  0.00    -0.744 OA
ENDBRANCH  72  73
ENDBRANCH  51  65
BRANCH  52  77
ATOM     77  C   UNL A   1      41.709  30.144  33.170  1.00  0.00     0.058 A 
ATOM     78  C   UNL A   1      41.840  31.536  33.349  1.00  0.00     0.135 A 
ATOM     79  C   UNL A   1      40.412  29.635  33.005  1.00  0.00     0.135 A 
ATOM     80  F   UNL A   1      43.056  32.072  33.543  1.00  0.00    -0.206 F 
ATOM     81  C   UNL A   1      40.770  32.403  33.155  1.00  0.00     0.059 A 
ATOM     82  C   UNL A   1      39.320  30.489  32.824  1.00  0.00     0.059 A 
ATOM     83  F   UNL A   1      40.218  28.317  32.849  1.00  0.00    -0.206 F 
ATOM     84  C   UNL A   1      39.534  31.869  32.802  1.00  0.00     0.060 A 
BRANCH  84  85
ATOM     85  S   UNL A   1      38.275  32.996  32.149  1.00  0.00     0.124 S 
ATOM     86  O   UNL A   1      38.438  34.169  33.002  1.00  0.00    -0.237 OA
ATOM     87  O   UNL A   1      38.704  33.164  30.757  1.00  0.00    -0.237 OA
ATOM     88  O   UNL A   1      37.034  32.254  32.331  1.00  0.00    -0.744 OA
ENDBRANCH  84  85
ENDBRANCH  52  77
BRANCH  64  89
ATOM     89  C   UNL A   1      45.208  23.730  33.557  1.00  0.00     0.058 A 
ATOM     90  C   UNL A   1      46.515  23.530  34.027  1.00  0.00     0.135 A 
ATOM     91  C   UNL A   1      44.247  22.790  34.011  1.00  0.00     0.135 A 
ATOM     92  F   UNL A   1      47.495  24.403  33.752  1.00  0.00    -0.206 F 
ATOM     93  C   UNL A   1      46.860  22.448  34.841  1.00  0.00     0.059 A 
ATOM     94  C   UNL A   1      44.558  21.739  34.869  1.00  0.00     0.059 A 
ATOM     95  F   UNL A   1      42.959  22.872  33.647  1.00  0.00    -0.206 F 
ATOM     96  C   UNL A   1      45.875  21.560  35.262  1.00  0.00     0.060 A 
BRANCH  96  97
ATOM     97  S   UNL A   1      46.291  20.204  36.373  1.00  0.00     0.124 S 
ATOM     98  O   UNL A   1      47.749  20.219  36.317  1.00  0.00    -0.237 OA
ATOM     99  O   UNL A   1      45.705  20.631  37.641  1.00  0.00    -0.237 OA
ATOM    100  O   UNL A   1      45.644  19.055  35.749  1.00  0.00    -0.744 OA
ENDBRANCH  96  97
ENDBRANCH  64  89
ENDBRANCH  38  39
ENDBRANCH  30  33
ENDBRANCH  28  29
ENDBRANCH   1  28
TORSDOF 16
ENDMDL
MODEL 2
REMARK VINA RESULT:     -14.5      1.253      1.977
REMARK SMILES Cc1ccc(S(=O)(=O)N2c3ccc(C(=O)NCCCCNC(=O)c4ccc(-c5c6nc(c(-c7c(F)cc(S(=O)(=O)[O-])cc7F)c7ccc([nH]7)c(-c7c(F)cc(S(=O)(=O)[O-])cc7F)c7nc(c(-c8c(F)cc(S(=O)(=O)[O-])cc8F)c8ccc5[nH]8)C=C7)C=C6)cc4)cc3C[C@H]2C)cc1
REMARK SMILES IDX 19 1 18 2 17 3 16 4 14 5 15 6 13 8 9 9 10 10 93 11 11 12
REMARK SMILES IDX 91 13 92 14 94 15 12 16 90 17 6 18 7 19 8 20 5 21 1 22 2 23
REMARK SMILES IDX 3 24 96 25 4 26 95 27 20 28 21 29 22 30 23 32 24 33 25 34
REMARK SMILES IDX 89 35 26 36 88 37 27 38 28 39 29 40 82 41 30 42 87 43 81 44
REMARK SMILES IDX 83 45 31 46 86 47 80 48 79 49 32 51 66 52 45 53 65 54 46 55
REMARK SMILES IDX 49 56 64 57 84 58 47 59 48 60 63 62 85 63 50 64 33 65 34 66
REMARK SMILES IDX 43 67 35 68 36 69 42 70 44 71 37 72 38 73 39 74 40 75 41 76
REMARK SMILES IDX 67 77 68 78 77 79 69 80 70 81 76 82 78 83 71 84 72 85 73 86
REMARK SMILES IDX 74 87 75 88 51 89 52 90 61 91 53 92 54 93 60 94 62 95 55 96
REMARK SMILES IDX 56 97 57 98 58 99 59 100
REMARK H PARENT 16 7 21 31 83 50 49 61
REMARK Flexibility Score: inf
ROOT
ATOM      1  C   UNL A   1      34.293  28.610  26.073  1.00  0.00     0.023 C 
ENDROOT
BRANCH   1   2
ATOM      2  C   UNL A   1      33.339  29.047  24.967  1.00  0.00     0.023 C 
BRANCH   2   3
ATOM      3  C   UNL A   1      31.973  29.574  25.407  1.00  0.00     0.116 C 
BRANCH   3   4
ATOM      4  N   UNL A   1      30.880  29.274  24.484  1.00  0.00    -0.352 N 
ATOM      5  C   UNL A   1      30.429  28.089  23.948  1.00  0.00     0.251 C 
ATOM      6  O   UNL A   1      29.511  28.117  23.128  1.00  0.00    -0.269 OA
ATOM      7  H   UNL A   1      30.373  30.066  24.192  1.00  0.00     0.163 HD
BRANCH   5   8
ATOM      8  C   UNL A   1      31.061  26.783  24.272  1.00  0.00     0.040 A 
ATOM      9  N   UNL A   1      33.371  23.316  24.949  1.00  0.00    -0.263 N 
ATOM     10  C   UNL A   1      32.490  24.464  24.850  1.00  0.00     0.055 A 
ATOM     11  C   UNL A   1      33.909  23.133  23.539  1.00  0.00     0.101 C 
ATOM     12  C   UNL A   1      31.829  25.115  25.874  1.00  0.00     0.028 A 
ATOM     13  C   UNL A   1      32.366  24.907  23.536  1.00  0.00    -0.021 A 
ATOM     14  C   UNL A   1      32.988  23.935  22.595  1.00  0.00     0.063 C 
ATOM     15  C   UNL A   1      35.335  23.697  23.482  1.00  0.00     0.032 C 
ATOM     16  C   UNL A   1      31.055  26.238  25.565  1.00  0.00     0.016 A 
ATOM     17  C   UNL A   1      31.669  26.069  23.227  1.00  0.00     0.019 A 
BRANCH   9  18
ATOM     18  S   UNL A   1      32.594  21.961  25.672  1.00  0.00     0.264 S 
ATOM     19  O   UNL A   1      31.165  22.125  25.494  1.00  0.00    -0.201 OA
ATOM     20  O   UNL A   1      33.165  21.765  26.992  1.00  0.00    -0.201 OA
BRANCH  18  21
ATOM     21  C   UNL A   1      33.026  20.475  24.778  1.00  0.00     0.088 A 
ATOM     22  C   UNL A   1      34.076  16.578  23.270  1.00  0.00     0.044 C 
ATOM     23  C   UNL A   1      33.735  17.960  23.742  1.00  0.00    -0.051 A 
ATOM     24  C   UNL A   1      34.610  18.642  24.591  1.00  0.00     0.005 A 
ATOM     25  C   UNL A   1      32.543  18.581  23.355  1.00  0.00     0.005 A 
ATOM     26  C   UNL A   1      34.259  19.890  25.107  1.00  0.00     0.022 A 
ATOM     27  C   UNL A   1      32.190  19.837  23.866  1.00  0.00     0.022 A 
ENDBRANCH  18  21
ENDBRANCH   9  18
ENDBRANCH   5   8
ENDBRANCH   3   4
ENDBRANCH   2   3
ENDBRANCH   1   2
BRANCH   1  28
ATOM     28  C   UNL A   1      34.437  29.587  27.225  1.00  0.00     0.116 C 
BRANCH  28  29
ATOM     29  N   UNL A   1      35.446  30.625  27.083  1.00  0.00    -0.352 N 
ATOM     30  C   UNL A   1      36.340  30.852  28.139  1.00  0.00     0.251 C 
ATOM     31  H   UNL A   1      35.500  31.159  26.257  1.00  0.00     0.163 HD
ATOM     32  O   UNL A   1      36.311  31.803  28.878  1.00  0.00    -0.269 OA
BRANCH  30  33
ATOM     33  C   UNL A   1      37.289  29.728  28.357  1.00  0.00     0.039 A 
ATOM     34  C   UNL A   1      37.343  29.049  29.575  1.00  0.00     0.014 A 
ATOM     35  C   UNL A   1      38.253  29.513  27.374  1.00  0.00     0.014 A 
ATOM     36  C   UNL A   1      38.460  28.257  29.862  1.00  0.00     0.010 A 
ATOM     37  C   UNL A   1      39.400  28.830  27.701  1.00  0.00     0.010 A 
ATOM     38  C   UNL A   1      39.517  28.214  28.949  1.00  0.00    -0.014 A 
BRANCH  38  39
ATOM     39  C   UNL A   1      40.820  27.611  29.193  1.00  0.00     0.031 A 
ATOM     40  C   UNL A   1      41.115  26.244  28.702  1.00  0.00     0.074 A 
ATOM     41  C   UNL A   1      41.820  28.390  29.659  1.00  0.00     0.049 A 
ATOM     42  N   UNL A   1      42.104  25.525  29.111  1.00  0.00    -0.248 NA
ATOM     43  C   UNL A   1      40.295  25.568  27.699  1.00  0.00     0.031 C 
ATOM     44  C   UNL A   1      43.255  28.132  29.577  1.00  0.00     0.029 A 
ATOM     45  N   UNL A   1      41.721  29.524  30.465  1.00  0.00    -0.354 N 
ATOM     46  C   UNL A   1      42.223  24.452  28.256  1.00  0.00     0.074 A 
ATOM     47  C   UNL A   1      41.044  24.495  27.425  1.00  0.00     0.031 C 
ATOM     48  C   UNL A   1      43.888  28.894  30.481  1.00  0.00     0.029 A 
ATOM     49  C   UNL A   1      42.869  29.551  31.280  1.00  0.00     0.049 A 
ATOM     50  H   UNL A   1      40.987  30.181  30.466  1.00  0.00     0.167 HD
ATOM     51  C   UNL A   1      43.373  23.719  28.244  1.00  0.00     0.037 A 
ATOM     52  C   UNL A   1      42.758  29.436  32.638  1.00  0.00     0.037 A 
ATOM     53  C   UNL A   1      44.326  24.214  29.231  1.00  0.00     0.049 A 
ATOM     54  C   UNL A   1      43.409  28.190  33.200  1.00  0.00     0.074 A 
ATOM     55  C   UNL A   1      45.400  25.086  29.134  1.00  0.00     0.029 A 
ATOM     56  N   UNL A   1      44.042  24.093  30.586  1.00  0.00    -0.354 N 
ATOM     57  N   UNL A   1      43.757  27.161  32.477  1.00  0.00    -0.248 NA
ATOM     58  C   UNL A   1      43.725  28.001  34.612  1.00  0.00     0.031 C 
ATOM     59  C   UNL A   1      45.714  25.545  30.434  1.00  0.00     0.029 A 
ATOM     60  C   UNL A   1      44.850  24.936  31.326  1.00  0.00     0.049 A 
ATOM     61  H   UNL A   1      43.361  23.491  30.965  1.00  0.00     0.167 HD
ATOM     62  C   UNL A   1      44.308  26.192  33.277  1.00  0.00     0.074 A 
ATOM     63  C   UNL A   1      44.283  26.776  34.605  1.00  0.00     0.031 C 
ATOM     64  C   UNL A   1      44.738  24.996  32.776  1.00  0.00     0.037 A 
BRANCH  51  65
ATOM     65  C   UNL A   1      43.716  22.757  27.130  1.00  0.00     0.058 A 
ATOM     66  C   UNL A   1      42.995  21.556  26.955  1.00  0.00     0.135 A 
ATOM     67  C   UNL A   1      44.781  22.949  26.227  1.00  0.00     0.135 A 
ATOM     68  F   UNL A   1      41.916  21.271  27.694  1.00  0.00    -0.206 F 
ATOM     69  C   UNL A   1      43.362  20.579  26.029  1.00  0.00     0.059 A 
ATOM     70  C   UNL A   1      45.198  21.964  25.325  1.00  0.00     0.059 A 
ATOM     71  F   UNL A   1      45.441  24.116  26.180  1.00  0.00    -0.206 F 
ATOM     72  C   UNL A   1      44.485  20.775  25.239  1.00  0.00     0.060 A 
BRANCH  72  73
ATOM     73  S   UNL A   1      44.998  19.452  24.125  1.00  0.00     0.124 S 
ATOM     74  O   UNL A   1      44.500  19.921  22.835  1.00  0.00    -0.237 OA
ATOM     75  O   UNL A   1      46.448  19.465  24.288  1.00  0.00    -0.237 OA
ATOM     76  O   UNL A   1      44.316  18.276  24.659  1.00  0.00    -0.744 OA
ENDBRANCH  72  73
ENDBRANCH  51  65
BRANCH  52  77
ATOM     77  C   UNL A   1      41.543  30.123  33.166  1.00  0.00     0.058 A 
ATOM     78  C   UNL A   1      41.596  31.529  33.250  1.00  0.00     0.135 A 
ATOM     79  C   UNL A   1      40.275  29.531  33.069  1.00  0.00     0.135 A 
ATOM     80  F   UNL A   1      42.783  32.147  33.377  1.00  0.00    -0.206 F 
ATOM     81  C   UNL A   1      40.473  32.319  33.027  1.00  0.00     0.059 A 
ATOM     82  C   UNL A   1      39.131  30.307  32.860  1.00  0.00     0.059 A 
ATOM     83  F   UNL A   1      40.156  28.196  33.005  1.00  0.00    -0.206 F 
ATOM     84  C   UNL A   1      39.263  31.692  32.742  1.00  0.00     0.060 A 
BRANCH  84  85
ATOM     85  S   UNL A   1      37.926  32.699  32.047  1.00  0.00     0.124 S 
ATOM     86  O   UNL A   1      38.519  33.187  30.807  1.00  0.00    -0.237 OA
ATOM     87  O   UNL A   1      36.850  31.715  31.888  1.00  0.00    -0.237 OA
ATOM     88  O   UNL A   1      37.698  33.708  33.074  1.00  0.00    -0.744 OA
ENDBRANCH  84  85
ENDBRANCH  52  77
BRANCH  64  89
ATOM     89  C   UNL A   1      45.191  23.794  33.575  1.00  0.00     0.058 A 
ATOM     90  C   UNL A   1      46.438  23.696  34.212  1.00  0.00     0.135 A 
ATOM     91  C   UNL A   1      44.282  22.741  33.851  1.00  0.00     0.135 A 
ATOM     92  F   UNL A   1      47.349  24.675  34.113  1.00  0.00    -0.206 F 
ATOM     93  C   UNL A   1      46.783  22.608  35.017  1.00  0.00     0.059 A 
ATOM     94  C   UNL A   1      44.584  21.677  34.697  1.00  0.00     0.059 A 
ATOM     95  F   UNL A   1      43.052  22.717  33.316  1.00  0.00    -0.206 F 
ATOM     96  C   UNL A   1      45.848  21.605  35.259  1.00  0.00     0.060 A 
BRANCH  96  97
ATOM     97  S   UNL A   1      46.253  20.235  36.357  1.00  0.00     0.124 S 
ATOM     98  O   UNL A   1      45.862  20.777  37.654  1.00  0.00    -0.237 OA
ATOM     99  O   UNL A   1      45.414  19.153  35.849  1.00  0.00    -0.237 OA
ATOM    100  O   UNL A   1      47.686  20.057  36.150  1.00  0.00    -0.744 OA
ENDBRANCH  96  97
ENDBRANCH  64  89
ENDBRANCH  38  39
ENDBRANCH  30  33
ENDBRANCH  28  29
ENDBRANCH   1  28
TORSDOF 16
ENDMDL
MODEL 3
REMARK VINA RESULT:     -14.4      1.646      2.526
REMARK SMILES Cc1ccc(S(=O)(=O)N2c3ccc(C(=O)NCCCCNC(=O)c4ccc(-c5c6nc(c(-c7c(F)cc(S(=O)(=O)[O-])cc7F)c7ccc([nH]7)c(-c7c(F)cc(S(=O)(=O)[O-])cc7F)c7nc(c(-c8c(F)cc(S(=O)(=O)[O-])cc8F)c8ccc5[nH]8)C=C7)C=C6)cc4)cc3C[C@H]2C)cc1
REMARK SMILES IDX 19 1 18 2 17 3 16 4 14 5 15 6 13 8 9 9 10 10 93 11 11 12
REMARK SMILES IDX 91 13 92 14 94 15 12 16 90 17 6 18 7 19 8 20 5 21 1 22 2 23
REMARK SMILES IDX 3 24 96 25 4 26 95 27 20 28 21 29 22 30 23 32 24 33 25 34
REMARK SMILES IDX 89 35 26 36 88 37 27 38 28 39 29 40 82 41 30 42 87 43 81 44
REMARK SMILES IDX 83 45 31 46 86 47 80 48 79 49 32 51 66 52 45 53 65 54 46 55
REMARK SMILES IDX 49 56 64 57 84 58 47 59 48 60 63 62 85 63 50 64 33 65 34 66
REMARK SMILES IDX 43 67 35 68 36 69 42 70 44 71 37 72 38 73 39 74 40 75 41 76
REMARK SMILES IDX 67 77 68 78 77 79 69 80 70 81 76 82 78 83 71 84 72 85 73 86
REMARK SMILES IDX 74 87 75 88 51 89 52 90 61 91 53 92 54 93 60 94 62 95 55 96
REMARK SMILES IDX 56 97 57 98 58 99 59 100
REMARK H PARENT 16 7 21 31 83 50 49 61
REMARK Flexibility Score: inf
ROOT
ATOM      1  C   UNL A   1      33.852  28.657  26.087  1.00  0.00     0.023 C 
ENDROOT
BRANCH   1   2
ATOM      2  C   UNL A   1      33.061  29.229  24.917  1.00  0.00     0.023 C 
BRANCH   2   3
ATOM      3  C   UNL A   1      31.586  29.542  25.173  1.00  0.00     0.116 C 
BRANCH   3   4
ATOM      4  N   UNL A   1      30.695  29.216  24.061  1.00  0.00    -0.352 N 
ATOM      5  C   UNL A   1      30.398  28.024  23.439  1.00  0.00     0.251 C 
ATOM      6  O   UNL A   1      29.646  28.032  22.464  1.00  0.00    -0.269 OA
ATOM      7  H   UNL A   1      30.219  29.994  23.687  1.00  0.00     0.163 HD
BRANCH   5   8
ATOM      8  C   UNL A   1      31.011  26.738  23.861  1.00  0.00     0.040 A 
ATOM      9  N   UNL A   1      33.285  23.325  24.858  1.00  0.00    -0.263 N 
ATOM     10  C   UNL A   1      32.405  24.457  24.642  1.00  0.00     0.055 A 
ATOM     11  C   UNL A   1      33.951  23.105  23.509  1.00  0.00     0.101 C 
ATOM     12  C   UNL A   1      31.647  25.132  25.580  1.00  0.00     0.028 A 
ATOM     13  C   UNL A   1      32.396  24.857  23.308  1.00  0.00    -0.021 A 
ATOM     14  C   UNL A   1      33.111  23.863  22.459  1.00  0.00     0.063 C 
ATOM     15  C   UNL A   1      35.370  23.685  23.563  1.00  0.00     0.032 C 
ATOM     16  C   UNL A   1      30.893  26.234  25.165  1.00  0.00     0.016 A 
ATOM     17  C   UNL A   1      31.719  25.999  22.900  1.00  0.00     0.019 A 
BRANCH   9  18
ATOM     18  S   UNL A   1      32.459  21.983  25.551  1.00  0.00     0.264 S 
ATOM     19  O   UNL A   1      31.044  22.151  25.286  1.00  0.00    -0.201 OA
ATOM     20  O   UNL A   1      32.949  21.804  26.906  1.00  0.00    -0.201 OA
BRANCH  18  21
ATOM     21  C   UNL A   1      32.937  20.483  24.705  1.00  0.00     0.088 A 
ATOM     22  C   UNL A   1      34.067  16.564  23.318  1.00  0.00     0.044 C 
ATOM     23  C   UNL A   1      33.700  17.952  23.749  1.00  0.00    -0.051 A 
ATOM     24  C   UNL A   1      34.534  18.653  24.626  1.00  0.00     0.005 A 
ATOM     25  C   UNL A   1      32.525  18.562  23.296  1.00  0.00     0.005 A 
ATOM     26  C   UNL A   1      34.155  19.909  25.101  1.00  0.00     0.022 A 
ATOM     27  C   UNL A   1      32.146  19.825  23.768  1.00  0.00     0.022 A 
ENDBRANCH  18  21
ENDBRANCH   9  18
ENDBRANCH   5   8
ENDBRANCH   3   4
ENDBRANCH   2   3
ENDBRANCH   1   2
BRANCH   1  28
ATOM     28  C   UNL A   1      34.140  29.634  27.212  1.00  0.00     0.116 C 
BRANCH  28  29
ATOM     29  N   UNL A   1      35.134  30.662  26.950  1.00  0.00    -0.352 N 
ATOM     30  C   UNL A   1      36.109  30.927  27.922  1.00  0.00     0.251 C 
ATOM     31  H   UNL A   1      35.123  31.163  26.102  1.00  0.00     0.163 HD
ATOM     32  O   UNL A   1      36.139  31.906  28.623  1.00  0.00    -0.269 OA
BRANCH  30  33
ATOM     33  C   UNL A   1      37.072  29.809  28.108  1.00  0.00     0.039 A 
ATOM     34  C   UNL A   1      37.024  28.989  29.236  1.00  0.00     0.014 A 
ATOM     35  C   UNL A   1      38.142  29.740  27.218  1.00  0.00     0.014 A 
ATOM     36  C   UNL A   1      38.134  28.196  29.547  1.00  0.00     0.010 A 
ATOM     37  C   UNL A   1      39.274  29.052  27.585  1.00  0.00     0.010 A 
ATOM     38  C   UNL A   1      39.282  28.292  28.757  1.00  0.00    -0.014 A 
BRANCH  38  39
ATOM     39  C   UNL A   1      40.574  27.697  29.068  1.00  0.00     0.031 A 
ATOM     40  C   UNL A   1      40.881  26.310  28.646  1.00  0.00     0.074 A 
ATOM     41  C   UNL A   1      41.562  28.494  29.533  1.00  0.00     0.049 A 
ATOM     42  N   UNL A   1      41.853  25.607  29.117  1.00  0.00    -0.248 NA
ATOM     43  C   UNL A   1      40.091  25.593  27.646  1.00  0.00     0.031 C 
ATOM     44  C   UNL A   1      42.997  28.229  29.508  1.00  0.00     0.029 A 
ATOM     45  N   UNL A   1      41.440  29.661  30.286  1.00  0.00    -0.354 N 
ATOM     46  C   UNL A   1      41.997  24.498  28.313  1.00  0.00     0.074 A 
ATOM     47  C   UNL A   1      40.845  24.508  27.443  1.00  0.00     0.031 C 
ATOM     48  C   UNL A   1      43.603  29.028  30.400  1.00  0.00     0.029 A 
ATOM     49  C   UNL A   1      42.562  29.720  31.136  1.00  0.00     0.049 A 
ATOM     50  H   UNL A   1      40.709  30.318  30.235  1.00  0.00     0.167 HD
ATOM     51  C   UNL A   1      43.143  23.762  28.370  1.00  0.00     0.037 A 
ATOM     52  C   UNL A   1      42.406  29.663  32.494  1.00  0.00     0.037 A 
ATOM     53  C   UNL A   1      44.066  24.298  29.365  1.00  0.00     0.049 A 
ATOM     54  C   UNL A   1      43.034  28.441  33.129  1.00  0.00     0.074 A 
ATOM     55  C   UNL A   1      45.145  25.162  29.266  1.00  0.00     0.029 A 
ATOM     56  N   UNL A   1      43.737  24.235  30.714  1.00  0.00    -0.354 N 
ATOM     57  N   UNL A   1      43.402  27.381  32.462  1.00  0.00    -0.248 NA
ATOM     58  C   UNL A   1      43.304  28.312  34.558  1.00  0.00     0.031 C 
ATOM     59  C   UNL A   1      45.419  25.676  30.555  1.00  0.00     0.029 A 
ATOM     60  C   UNL A   1      44.524  25.107  31.443  1.00  0.00     0.049 A 
ATOM     61  H   UNL A   1      43.042  23.651  31.096  1.00  0.00     0.167 HD
ATOM     62  C   UNL A   1      43.923  26.446  33.320  1.00  0.00     0.074 A 
ATOM     63  C   UNL A   1      43.857  27.086  34.621  1.00  0.00     0.031 C 
ATOM     64  C   UNL A   1      44.366  25.229  32.885  1.00  0.00     0.037 A 
BRANCH  51  65
ATOM     65  C   UNL A   1      43.519  22.754  27.309  1.00  0.00     0.058 A 
ATOM     66  C   UNL A   1      42.777  21.566  27.136  1.00  0.00     0.135 A 
ATOM     67  C   UNL A   1      44.635  22.887  26.458  1.00  0.00     0.135 A 
ATOM     68  F   UNL A   1      41.653  21.333  27.826  1.00  0.00    -0.206 F 
ATOM     69  C   UNL A   1      43.166  20.547  26.266  1.00  0.00     0.059 A 
ATOM     70  C   UNL A   1      45.073  21.860  25.614  1.00  0.00     0.059 A 
ATOM     71  F   UNL A   1      45.328  24.034  26.407  1.00  0.00    -0.206 F 
ATOM     72  C   UNL A   1      44.334  20.687  25.531  1.00  0.00     0.060 A 
BRANCH  72  73
ATOM     73  S   UNL A   1      44.870  19.313  24.493  1.00  0.00     0.124 S 
ATOM     74  O   UNL A   1      46.319  19.486  24.471  1.00  0.00    -0.237 OA
ATOM     75  O   UNL A   1      44.380  18.159  25.241  1.00  0.00    -0.237 OA
ATOM     76  O   UNL A   1      44.200  19.568  23.220  1.00  0.00    -0.744 OA
ENDBRANCH  72  73
ENDBRANCH  51  65
BRANCH  52  77
ATOM     77  C   UNL A   1      41.177  30.375  32.953  1.00  0.00     0.058 A 
ATOM     78  C   UNL A   1      40.068  29.572  33.289  1.00  0.00     0.135 A 
ATOM     79  C   UNL A   1      41.253  31.647  33.538  1.00  0.00     0.135 A 
ATOM     80  F   UNL A   1      39.929  28.358  32.732  1.00  0.00    -0.206 F 
ATOM     81  C   UNL A   1      39.196  29.920  34.316  1.00  0.00     0.059 A 
ATOM     82  C   UNL A   1      40.377  32.023  34.562  1.00  0.00     0.059 A 
ATOM     83  F   UNL A   1      42.274  32.466  33.245  1.00  0.00    -0.206 F 
ATOM     84  C   UNL A   1      39.420  31.109  35.006  1.00  0.00     0.060 A 
BRANCH  84  85
ATOM     85  S   UNL A   1      38.563  31.351  36.584  1.00  0.00     0.124 S 
ATOM     86  O   UNL A   1      38.188  29.988  36.944  1.00  0.00    -0.237 OA
ATOM     87  O   UNL A   1      39.609  31.958  37.413  1.00  0.00    -0.237 OA
ATOM     88  O   UNL A   1      37.458  32.234  36.233  1.00  0.00    -0.744 OA
ENDBRANCH  84  85
ENDBRANCH  52  77
BRANCH  64  89
ATOM     89  C   UNL A   1      44.788  24.062  33.749  1.00  0.00     0.058 A 
ATOM     90  C   UNL A   1      43.912  23.067  34.211  1.00  0.00     0.135 A 
ATOM     91  C   UNL A   1      46.162  23.833  34.013  1.00  0.00     0.135 A 
ATOM     92  F   UNL A   1      42.599  23.114  33.940  1.00  0.00    -0.206 F 
ATOM     93  C   UNL A   1      44.356  21.955  34.930  1.00  0.00     0.059 A 
ATOM     94  C   UNL A   1      46.632  22.703  34.677  1.00  0.00     0.059 A 
ATOM     95  F   UNL A   1      47.107  24.700  33.617  1.00  0.00    -0.206 F 
ATOM     96  C   UNL A   1      45.718  21.778  35.155  1.00  0.00     0.060 A 
BRANCH  96  97
ATOM     97  S   UNL A   1      46.312  20.310  36.015  1.00  0.00     0.124 S 
ATOM     98  O   UNL A   1      45.637  19.247  35.277  1.00  0.00    -0.237 OA
ATOM     99  O   UNL A   1      47.758  20.386  35.827  1.00  0.00    -0.237 OA
ATOM    100  O   UNL A   1      45.855  20.521  37.384  1.00  0.00    -0.744 OA
ENDBRANCH  96  97
ENDBRANCH  64  89
ENDBRANCH  38  39
ENDBRANCH  30  33
ENDBRANCH  28  29
ENDBRANCH   1  28
TORSDOF 16
ENDMDL
