MODEL 1
REMARK VINA RESULT:     -13.1      0.000      0.000
REMARK SMILES O=C(NCCCCNC(=O)c1nnn(-c2cccc(Br)c2)c1[C@H]1COc2ccccc2O1)c1ccc(-c2c3nc(c(-c4c(F)cc(S(=O)(=O)[O-])cc4F)c4ccc([nH]4)c(-c4c(F)cc(S(=O)(=O)[O-])cc4F)c4nc(c(-c5c(F)cc(S(=O)(=O)[O-])cc5F)c5ccc2[nH]5)C=C4)C=C3)cc1
REMARK SMILES IDX 4 1 3 2 1 3 2 4 33 6 34 7 98 8 35 9 97 10 36 11 37 12 38 13
REMARK SMILES IDX 91 14 39 15 96 16 90 17 92 18 40 19 95 20 89 21 88 22 41 24
REMARK SMILES IDX 75 25 54 26 74 27 55 28 58 29 73 30 93 31 56 32 57 33 72 35
REMARK SMILES IDX 94 36 59 37 42 38 43 39 52 40 44 41 45 42 51 43 53 44 46 45
REMARK SMILES IDX 47 46 48 47 49 48 50 49 76 50 77 51 86 52 78 53 79 54 85 55
REMARK SMILES IDX 87 56 80 57 81 58 82 59 83 60 84 61 60 62 61 63 70 64 62 65
REMARK SMILES IDX 63 66 69 67 71 68 64 69 65 70 66 71 67 72 68 73 5 74 6 75
REMARK SMILES IDX 7 76 8 77 9 78 10 80 11 81 12 82 22 83 13 84 14 85 23 86
REMARK SMILES IDX 24 87 32 88 25 89 31 90 26 91 30 92 27 93 29 94 28 95 15 96
REMARK SMILES IDX 16 97 21 98 17 99 19 100 18 101 20 102
REMARK H PARENT 3 5 92 23 58 34 8 79
REMARK Flexibility Score: inf
ROOT
ATOM      1  C   UNL A   1      37.404  22.347  25.816  1.00  0.00     0.116 C 
ENDROOT
BRANCH   1   2
ATOM      2  N   UNL A   1      38.804  22.016  25.655  1.00  0.00    -0.352 N 
ATOM      3  O   UNL A   1      40.984  21.836  25.964  1.00  0.00    -0.269 OA
ATOM      4  C   UNL A   1      39.972  22.511  26.172  1.00  0.00     0.251 C 
ATOM      5  H   UNL A   1      38.950  21.266  25.035  1.00  0.00     0.163 HD
BRANCH   4   6
ATOM      6  C   UNL A   1      40.109  23.815  26.876  1.00  0.00     0.039 A 
ATOM      7  C   UNL A   1      39.268  24.918  26.725  1.00  0.00     0.014 A 
ATOM      8  C   UNL A   1      41.205  23.923  27.754  1.00  0.00     0.014 A 
ATOM      9  C   UNL A   1      39.575  26.128  27.347  1.00  0.00     0.010 A 
ATOM     10  C   UNL A   1      41.507  25.121  28.390  1.00  0.00     0.010 A 
ATOM     11  C   UNL A   1      40.713  26.238  28.154  1.00  0.00    -0.014 A 
BRANCH  11  12
ATOM     12  C   UNL A   1      40.922  27.479  28.905  1.00  0.00     0.031 A 
ATOM     13  C   UNL A   1      42.076  28.288  28.401  1.00  0.00     0.074 A 
ATOM     14  C   UNL A   1      40.074  27.947  29.847  1.00  0.00     0.049 A 
ATOM     15  N   UNL A   1      43.156  28.625  29.027  1.00  0.00    -0.248 NA
ATOM     16  C   UNL A   1      42.089  28.643  26.969  1.00  0.00     0.031 C 
ATOM     17  C   UNL A   1      38.770  27.404  30.237  1.00  0.00     0.029 A 
ATOM     18  N   UNL A   1      40.159  29.079  30.606  1.00  0.00    -0.354 N 
ATOM     19  C   UNL A   1      43.881  29.421  28.141  1.00  0.00     0.074 A 
ATOM     20  C   UNL A   1      43.266  29.257  26.851  1.00  0.00     0.031 C 
ATOM     21  C   UNL A   1      38.101  28.320  30.977  1.00  0.00     0.029 A 
ATOM     22  C   UNL A   1      38.970  29.457  31.228  1.00  0.00     0.049 A 
ATOM     23  H   UNL A   1      40.996  29.588  30.705  1.00  0.00     0.167 HD
ATOM     24  C   UNL A   1      44.797  30.331  28.575  1.00  0.00     0.037 A 
ATOM     25  C   UNL A   1      38.709  30.636  31.860  1.00  0.00     0.037 A 
ATOM     26  C   UNL A   1      45.225  30.044  29.918  1.00  0.00     0.049 A 
ATOM     27  C   UNL A   1      40.020  31.248  32.199  1.00  0.00     0.074 A 
ATOM     28  C   UNL A   1      45.853  28.973  30.524  1.00  0.00     0.029 A 
ATOM     29  N   UNL A   1      44.671  30.775  30.940  1.00  0.00    -0.354 N 
ATOM     30  N   UNL A   1      40.856  30.738  33.061  1.00  0.00    -0.248 NA
ATOM     31  C   UNL A   1      40.600  32.161  31.228  1.00  0.00     0.031 C 
ATOM     32  C   UNL A   1      45.214  28.843  31.791  1.00  0.00     0.029 A 
ATOM     33  C   UNL A   1      44.297  29.886  31.917  1.00  0.00     0.049 A 
ATOM     34  H   UNL A   1      44.562  31.752  30.967  1.00  0.00     0.167 HD
ATOM     35  C   UNL A   1      42.104  30.908  32.481  1.00  0.00     0.074 A 
ATOM     36  C   UNL A   1      41.888  31.846  31.380  1.00  0.00     0.031 C 
ATOM     37  C   UNL A   1      43.140  30.063  32.766  1.00  0.00     0.037 A 
BRANCH  24  38
ATOM     38  C   UNL A   1      45.035  31.666  27.910  1.00  0.00     0.058 A 
ATOM     39  C   UNL A   1      46.286  31.950  27.325  1.00  0.00     0.135 A 
ATOM     40  C   UNL A   1      44.172  32.775  28.061  1.00  0.00     0.135 A 
ATOM     41  F   UNL A   1      47.198  30.979  27.157  1.00  0.00    -0.206 F 
ATOM     42  C   UNL A   1      46.666  33.244  26.959  1.00  0.00     0.059 A 
ATOM     43  C   UNL A   1      44.508  34.062  27.656  1.00  0.00     0.059 A 
ATOM     44  F   UNL A   1      42.997  32.681  28.696  1.00  0.00    -0.206 F 
ATOM     45  C   UNL A   1      45.769  34.295  27.136  1.00  0.00     0.060 A 
BRANCH  45  46
ATOM     46  S   UNL A   1      46.276  35.974  26.724  1.00  0.00     0.124 S 
ATOM     47  O   UNL A   1      44.989  36.655  26.638  1.00  0.00    -0.237 OA
ATOM     48  O   UNL A   1      47.111  36.326  27.868  1.00  0.00    -0.237 OA
ATOM     49  O   UNL A   1      46.992  35.809  25.462  1.00  0.00    -0.744 OA
ENDBRANCH  45  46
ENDBRANCH  24  38
BRANCH  25  50
ATOM     50  C   UNL A   1      37.451  31.441  31.844  1.00  0.00     0.058 A 
ATOM     51  C   UNL A   1      36.749  31.746  33.029  1.00  0.00     0.135 A 
ATOM     52  C   UNL A   1      37.075  32.180  30.705  1.00  0.00     0.135 A 
ATOM     53  F   UNL A   1      37.052  31.113  34.172  1.00  0.00    -0.206 F 
ATOM     54  C   UNL A   1      35.773  32.753  33.088  1.00  0.00     0.059 A 
ATOM     55  C   UNL A   1      36.103  33.182  30.738  1.00  0.00     0.059 A 
ATOM     56  F   UNL A   1      37.714  32.017  29.536  1.00  0.00    -0.206 F 
ATOM     57  C   UNL A   1      35.472  33.481  31.938  1.00  0.00     0.060 A 
BRANCH  57  58
ATOM     58  S   UNL A   1      34.347  34.898  32.040  1.00  0.00     0.124 S 
ATOM     59  O   UNL A   1      33.228  34.343  32.793  1.00  0.00    -0.237 OA
ATOM     60  O   UNL A   1      35.157  35.889  32.739  1.00  0.00    -0.237 OA
ATOM     61  O   UNL A   1      34.063  35.206  30.640  1.00  0.00    -0.744 OA
ENDBRANCH  57  58
ENDBRANCH  25  50
BRANCH  37  62
ATOM     62  C   UNL A   1      42.988  29.104  33.920  1.00  0.00     0.058 A 
ATOM     63  C   UNL A   1      43.168  29.441  35.275  1.00  0.00     0.135 A 
ATOM     64  C   UNL A   1      42.486  27.824  33.645  1.00  0.00     0.135 A 
ATOM     65  F   UNL A   1      43.545  30.676  35.635  1.00  0.00    -0.206 F 
ATOM     66  C   UNL A   1      42.899  28.533  36.303  1.00  0.00     0.059 A 
ATOM     67  C   UNL A   1      42.180  26.914  34.654  1.00  0.00     0.059 A 
ATOM     68  F   UNL A   1      42.234  27.459  32.377  1.00  0.00    -0.206 F 
ATOM     69  C   UNL A   1      42.402  27.270  35.981  1.00  0.00     0.060 A 
BRANCH  69  70
ATOM     70  S   UNL A   1      41.986  26.119  37.309  1.00  0.00     0.124 S 
ATOM     71  O   UNL A   1      43.031  26.390  38.290  1.00  0.00    -0.237 OA
ATOM     72  O   UNL A   1      40.639  26.540  37.684  1.00  0.00    -0.237 OA
ATOM     73  O   UNL A   1      42.062  24.810  36.662  1.00  0.00    -0.744 OA
ENDBRANCH  69  70
ENDBRANCH  37  62
ENDBRANCH  11  12
ENDBRANCH   4   6
ENDBRANCH   1   2
BRANCH   1  74
ATOM     74  C   UNL A   1      36.495  21.929  24.659  1.00  0.00     0.023 C 
BRANCH  74  75
ATOM     75  C   UNL A   1      35.912  23.075  23.825  1.00  0.00     0.023 C 
BRANCH  75  76
ATOM     76  C   UNL A   1      35.515  24.315  24.612  1.00  0.00     0.116 C 
BRANCH  76  77
ATOM     77  N   UNL A   1      34.627  24.018  25.732  1.00  0.00    -0.351 N 
ATOM     78  C   UNL A   1      33.308  24.400  25.885  1.00  0.00     0.273 C 
ATOM     79  H   UNL A   1      35.011  23.482  26.463  1.00  0.00     0.163 HD
ATOM     80  O   UNL A   1      32.667  24.039  26.873  1.00  0.00    -0.267 OA
BRANCH  78  81
ATOM     81  C   UNL A   1      32.686  25.099  24.769  1.00  0.00     0.178 A 
ATOM     82  N   UNL A   1      32.276  24.487  23.632  1.00  0.00    -0.124 NA
ATOM     83  C   UNL A   1      32.348  26.457  24.743  1.00  0.00     0.122 A 
ATOM     84  N   UNL A   1      31.593  25.374  22.933  1.00  0.00    -0.061 NA
ATOM     85  N   UNL A   1      31.590  26.565  23.596  1.00  0.00    -0.213 N 
BRANCH  83  86
ATOM     86  C   UNL A   1      32.681  27.376  25.860  1.00  0.00     0.262 C 
ATOM     87  C   UNL A   1      31.673  27.567  26.973  1.00  0.00     0.281 C 
ATOM     88  O   UNL A   1      34.002  27.318  26.425  1.00  0.00    -0.477 OA
ATOM     89  O   UNL A   1      31.774  28.948  27.388  1.00  0.00    -0.485 OA
ATOM     90  C   UNL A   1      34.183  28.570  27.038  1.00  0.00     0.162 A 
ATOM     91  C   UNL A   1      33.082  29.394  27.377  1.00  0.00     0.161 A 
ATOM     92  C   UNL A   1      35.477  29.070  27.150  1.00  0.00     0.050 A 
ATOM     93  C   UNL A   1      33.270  30.754  27.610  1.00  0.00     0.050 A 
ATOM     94  C   UNL A   1      35.662  30.425  27.461  1.00  0.00     0.004 A 
ATOM     95  C   UNL A   1      34.561  31.273  27.637  1.00  0.00     0.004 A 
ENDBRANCH  83  86
BRANCH  85  96
ATOM     96  C   UNL A   1      30.802  27.613  23.075  1.00  0.00     0.068 A 
ATOM     97  C   UNL A   1      31.361  28.671  22.361  1.00  0.00     0.028 A 
ATOM     98  C   UNL A   1      29.414  27.567  23.306  1.00  0.00     0.044 A 
ATOM     99  C   UNL A   1      30.531  29.699  21.904  1.00  0.00     0.003 A 
ATOM    100  C   UNL A   1      28.610  28.625  22.895  1.00  0.00     0.020 A 
ATOM    101  C   UNL A   1      29.163  29.691  22.193  1.00  0.00     0.016 A 
ATOM    102  Br  UNL A   1      26.772  28.632  23.335  1.00  0.00    -0.051 Br
ENDBRANCH  85  96
ENDBRANCH  78  81
ENDBRANCH  76  77
ENDBRANCH  75  76
ENDBRANCH  74  75
ENDBRANCH   1  74
TORSDOF 16
ENDMDL
MODEL 2
REMARK VINA RESULT:     -13.0      1.756      3.286
REMARK SMILES O=C(NCCCCNC(=O)c1nnn(-c2cccc(Br)c2)c1[C@H]1COc2ccccc2O1)c1ccc(-c2c3nc(c(-c4c(F)cc(S(=O)(=O)[O-])cc4F)c4ccc([nH]4)c(-c4c(F)cc(S(=O)(=O)[O-])cc4F)c4nc(c(-c5c(F)cc(S(=O)(=O)[O-])cc5F)c5ccc2[nH]5)C=C4)C=C3)cc1
REMARK SMILES IDX 4 1 3 2 1 3 2 4 33 6 34 7 98 8 35 9 97 10 36 11 37 12 38 13
REMARK SMILES IDX 91 14 39 15 96 16 90 17 92 18 40 19 95 20 89 21 88 22 41 24
REMARK SMILES IDX 75 25 54 26 74 27 55 28 58 29 73 30 93 31 56 32 57 33 72 35
REMARK SMILES IDX 94 36 59 37 42 38 43 39 52 40 44 41 45 42 51 43 53 44 46 45
REMARK SMILES IDX 47 46 48 47 49 48 50 49 76 50 77 51 86 52 78 53 79 54 85 55
REMARK SMILES IDX 87 56 80 57 81 58 82 59 83 60 84 61 60 62 61 63 70 64 62 65
REMARK SMILES IDX 63 66 69 67 71 68 64 69 65 70 66 71 67 72 68 73 5 74 6 75
REMARK SMILES IDX 7 76 8 77 9 78 10 80 11 81 12 82 22 83 13 84 14 85 23 86
REMARK SMILES IDX 24 87 32 88 25 89 31 90 26 91 30 92 27 93 29 94 28 95 15 96
REMARK SMILES IDX 16 97 21 98 17 99 19 100 18 101 20 102
REMARK H PARENT 3 5 92 23 58 34 8 79
REMARK Flexibility Score: inf
ROOT
ATOM      1  C   UNL A   1      36.836  23.509  25.096  1.00  0.00     0.116 C 
ENDROOT
BRANCH   1   2
ATOM      2  N   UNL A   1      37.887  22.536  25.313  1.00  0.00    -0.352 N 
ATOM      3  O   UNL A   1      39.555  21.385  26.191  1.00  0.00    -0.269 OA
ATOM      4  C   UNL A   1      38.987  22.479  26.127  1.00  0.00     0.251 C 
ATOM      5  H   UNL A   1      37.789  21.736  24.748  1.00  0.00     0.163 HD
BRANCH   4   6
ATOM      6  C   UNL A   1      39.574  23.639  26.852  1.00  0.00     0.039 A 
ATOM      7  C   UNL A   1      40.749  23.623  27.604  1.00  0.00     0.014 A 
ATOM      8  C   UNL A   1      38.846  24.842  26.768  1.00  0.00     0.014 A 
ATOM      9  C   UNL A   1      41.127  24.745  28.340  1.00  0.00     0.010 A 
ATOM     10  C   UNL A   1      39.228  25.969  27.487  1.00  0.00     0.010 A 
ATOM     11  C   UNL A   1      40.349  25.908  28.307  1.00  0.00    -0.014 A 
BRANCH  11  12
ATOM     12  C   UNL A   1      40.855  27.110  28.975  1.00  0.00     0.031 A 
ATOM     13  C   UNL A   1      42.119  27.636  28.369  1.00  0.00     0.074 A 
ATOM     14  C   UNL A   1      40.181  27.787  29.930  1.00  0.00     0.049 A 
ATOM     15  N   UNL A   1      43.281  27.767  28.921  1.00  0.00    -0.248 NA
ATOM     16  C   UNL A   1      42.118  27.916  26.921  1.00  0.00     0.031 C 
ATOM     17  C   UNL A   1      38.819  27.547  30.415  1.00  0.00     0.029 A 
ATOM     18  N   UNL A   1      40.544  28.908  30.619  1.00  0.00    -0.354 N 
ATOM     19  C   UNL A   1      44.100  28.353  27.957  1.00  0.00     0.074 A 
ATOM     20  C   UNL A   1      43.388  28.264  26.710  1.00  0.00     0.031 C 
ATOM     21  C   UNL A   1      38.400  28.615  31.135  1.00  0.00     0.029 A 
ATOM     22  C   UNL A   1      39.499  29.554  31.278  1.00  0.00     0.049 A 
ATOM     23  H   UNL A   1      41.472  29.235  30.648  1.00  0.00     0.167 HD
ATOM     24  C   UNL A   1      45.209  29.069  28.293  1.00  0.00     0.037 A 
ATOM     25  C   UNL A   1      39.526  30.789  31.855  1.00  0.00     0.037 A 
ATOM     26  C   UNL A   1      45.649  28.759  29.627  1.00  0.00     0.049 A 
ATOM     27  C   UNL A   1      40.953  31.128  32.093  1.00  0.00     0.074 A 
ATOM     28  C   UNL A   1      46.078  27.608  30.260  1.00  0.00     0.029 A 
ATOM     29  N   UNL A   1      45.321  29.635  30.632  1.00  0.00    -0.354 N 
ATOM     30  N   UNL A   1      41.716  30.493  32.939  1.00  0.00    -0.248 NA
ATOM     31  C   UNL A   1      41.649  31.855  31.044  1.00  0.00     0.031 C 
ATOM     32  C   UNL A   1      45.503  27.671  31.562  1.00  0.00     0.029 A 
ATOM     33  C   UNL A   1      44.831  28.889  31.675  1.00  0.00     0.049 A 
ATOM     34  H   UNL A   1      45.418  30.613  30.610  1.00  0.00     0.167 HD
ATOM     35  C   UNL A   1      42.935  30.371  32.290  1.00  0.00     0.074 A 
ATOM     36  C   UNL A   1      42.851  31.283  31.150  1.00  0.00     0.031 C 
ATOM     37  C   UNL A   1      43.789  29.342  32.570  1.00  0.00     0.037 A 
BRANCH  24  38
ATOM     38  C   UNL A   1      45.677  30.294  27.542  1.00  0.00     0.058 A 
ATOM     39  C   UNL A   1      47.031  30.418  27.168  1.00  0.00     0.135 A 
ATOM     40  C   UNL A   1      44.903  31.471  27.414  1.00  0.00     0.135 A 
ATOM     41  F   UNL A   1      47.867  29.373  27.275  1.00  0.00    -0.206 F 
ATOM     42  C   UNL A   1      47.582  31.629  26.741  1.00  0.00     0.059 A 
ATOM     43  C   UNL A   1      45.419  32.672  26.941  1.00  0.00     0.059 A 
ATOM     44  F   UNL A   1      43.633  31.535  27.830  1.00  0.00    -0.206 F 
ATOM     45  C   UNL A   1      46.766  32.752  26.638  1.00  0.00     0.060 A 
BRANCH  45  46
ATOM     46  S   UNL A   1      47.485  34.330  26.147  1.00  0.00     0.124 S 
ATOM     47  O   UNL A   1      46.802  34.582  24.883  1.00  0.00    -0.237 OA
ATOM     48  O   UNL A   1      47.107  35.193  27.262  1.00  0.00    -0.237 OA
ATOM     49  O   UNL A   1      48.911  34.034  26.048  1.00  0.00    -0.744 OA
ENDBRANCH  45  46
ENDBRANCH  24  38
BRANCH  25  50
ATOM     50  C   UNL A   1      38.462  31.838  31.857  1.00  0.00     0.058 A 
ATOM     51  C   UNL A   1      37.939  32.368  30.659  1.00  0.00     0.135 A 
ATOM     52  C   UNL A   1      37.725  32.123  33.023  1.00  0.00     0.135 A 
ATOM     53  F   UNL A   1      38.556  32.131  29.492  1.00  0.00    -0.206 F 
ATOM     54  C   UNL A   1      36.737  33.093  30.617  1.00  0.00     0.059 A 
ATOM     55  C   UNL A   1      36.530  32.845  33.007  1.00  0.00     0.059 A 
ATOM     56  F   UNL A   1      38.094  31.621  34.211  1.00  0.00    -0.206 F 
ATOM     57  C   UNL A   1      36.028  33.308  31.798  1.00  0.00     0.060 A 
BRANCH  57  58
ATOM     58  S   UNL A   1      34.392  34.083  31.735  1.00  0.00     0.124 S 
ATOM     59  O   UNL A   1      34.018  33.890  30.338  1.00  0.00    -0.237 OA
ATOM     60  O   UNL A   1      33.640  33.303  32.711  1.00  0.00    -0.237 OA
ATOM     61  O   UNL A   1      34.658  35.467  32.121  1.00  0.00    -0.744 OA
ENDBRANCH  57  58
ENDBRANCH  25  50
BRANCH  37  62
ATOM     62  C   UNL A   1      43.512  28.488  33.782  1.00  0.00     0.058 A 
ATOM     63  C   UNL A   1      43.900  28.809  35.097  1.00  0.00     0.135 A 
ATOM     64  C   UNL A   1      42.680  27.371  33.619  1.00  0.00     0.135 A 
ATOM     65  F   UNL A   1      44.609  29.916  35.357  1.00  0.00    -0.206 F 
ATOM     66  C   UNL A   1      43.511  28.030  36.190  1.00  0.00     0.059 A 
ATOM     67  C   UNL A   1      42.253  26.600  34.697  1.00  0.00     0.059 A 
ATOM     68  F   UNL A   1      42.224  27.045  32.399  1.00  0.00    -0.206 F 
ATOM     69  C   UNL A   1      42.684  26.927  35.980  1.00  0.00     0.060 A 
BRANCH  69  70
ATOM     70  S   UNL A   1      42.121  25.960  37.398  1.00  0.00     0.124 S 
ATOM     71  O   UNL A   1      42.220  24.594  36.897  1.00  0.00    -0.237 OA
ATOM     72  O   UNL A   1      43.081  26.328  38.435  1.00  0.00    -0.237 OA
ATOM     73  O   UNL A   1      40.760  26.445  37.622  1.00  0.00    -0.744 OA
ENDBRANCH  69  70
ENDBRANCH  37  62
ENDBRANCH  11  12
ENDBRANCH   4   6
ENDBRANCH   1   2
BRANCH   1  74
ATOM     74  C   UNL A   1      35.426  22.930  24.961  1.00  0.00     0.023 C 
BRANCH  74  75
ATOM     75  C   UNL A   1      34.853  22.900  23.540  1.00  0.00     0.023 C 
BRANCH  75  76
ATOM     76  C   UNL A   1      34.102  24.153  23.115  1.00  0.00     0.116 C 
BRANCH  76  77
ATOM     77  N   UNL A   1      32.673  23.923  22.927  1.00  0.00    -0.351 N 
ATOM     78  C   UNL A   1      31.635  24.386  23.714  1.00  0.00     0.273 C 
ATOM     79  H   UNL A   1      32.418  23.377  22.149  1.00  0.00     0.163 HD
ATOM     80  O   UNL A   1      30.467  24.143  23.408  1.00  0.00    -0.267 OA
BRANCH  78  81
ATOM     81  C   UNL A   1      31.981  25.287  24.805  1.00  0.00     0.178 A 
ATOM     82  N   UNL A   1      32.679  24.908  25.902  1.00  0.00    -0.124 NA
ATOM     83  C   UNL A   1      31.724  26.663  24.839  1.00  0.00     0.122 A 
ATOM     84  N   UNL A   1      32.974  26.003  26.577  1.00  0.00    -0.061 NA
ATOM     85  N   UNL A   1      32.440  27.084  25.939  1.00  0.00    -0.213 N 
BRANCH  83  86
ATOM     86  C   UNL A   1      30.969  27.354  23.763  1.00  0.00     0.262 C 
ATOM     87  C   UNL A   1      31.586  27.450  22.384  1.00  0.00     0.281 C 
ATOM     88  O   UNL A   1      29.563  27.085  23.633  1.00  0.00    -0.477 OA
ATOM     89  O   UNL A   1      31.188  28.730  21.844  1.00  0.00    -0.485 OA
ATOM     90  C   UNL A   1      29.049  28.199  22.945  1.00  0.00     0.162 A 
ATOM     91  C   UNL A   1      29.889  29.052  22.189  1.00  0.00     0.161 A 
ATOM     92  C   UNL A   1      27.722  28.555  23.162  1.00  0.00     0.050 A 
ATOM     93  C   UNL A   1      29.462  30.334  21.848  1.00  0.00     0.050 A 
ATOM     94  C   UNL A   1      27.277  29.819  22.748  1.00  0.00     0.004 A 
ATOM     95  C   UNL A   1      28.158  30.722  22.142  1.00  0.00     0.004 A 
ENDBRANCH  83  86
BRANCH  85  96
ATOM     96  C   UNL A   1      32.753  28.367  26.433  1.00  0.00     0.068 A 
ATOM     97  C   UNL A   1      31.834  29.414  26.401  1.00  0.00     0.028 A 
ATOM     98  C   UNL A   1      34.042  28.571  26.963  1.00  0.00     0.044 A 
ATOM     99  C   UNL A   1      32.218  30.674  26.870  1.00  0.00     0.003 A 
ATOM    100  C   UNL A   1      34.428  29.842  27.374  1.00  0.00     0.020 A 
ATOM    101  C   UNL A   1      33.519  30.895  27.331  1.00  0.00     0.016 A 
ATOM    102  Br  UNL A   1      36.204  30.145  27.945  1.00  0.00    -0.051 Br
ENDBRANCH  85  96
ENDBRANCH  78  81
ENDBRANCH  76  77
ENDBRANCH  75  76
ENDBRANCH  74  75
ENDBRANCH   1  74
TORSDOF 16
ENDMDL
MODEL 3
REMARK VINA RESULT:     -12.8      3.145      9.540
REMARK SMILES O=C(NCCCCNC(=O)c1nnn(-c2cccc(Br)c2)c1[C@H]1COc2ccccc2O1)c1ccc(-c2c3nc(c(-c4c(F)cc(S(=O)(=O)[O-])cc4F)c4ccc([nH]4)c(-c4c(F)cc(S(=O)(=O)[O-])cc4F)c4nc(c(-c5c(F)cc(S(=O)(=O)[O-])cc5F)c5ccc2[nH]5)C=C4)C=C3)cc1
REMARK SMILES IDX 4 1 3 2 1 3 2 4 33 6 34 7 98 8 35 9 97 10 36 11 37 12 38 13
REMARK SMILES IDX 91 14 39 15 96 16 90 17 92 18 40 19 95 20 89 21 88 22 41 24
REMARK SMILES IDX 75 25 54 26 74 27 55 28 58 29 73 30 93 31 56 32 57 33 72 35
REMARK SMILES IDX 94 36 59 37 42 38 43 39 52 40 44 41 45 42 51 43 53 44 46 45
REMARK SMILES IDX 47 46 48 47 49 48 50 49 76 50 77 51 86 52 78 53 79 54 85 55
REMARK SMILES IDX 87 56 80 57 81 58 82 59 83 60 84 61 60 62 61 63 70 64 62 65
REMARK SMILES IDX 63 66 69 67 71 68 64 69 65 70 66 71 67 72 68 73 5 74 6 75
REMARK SMILES IDX 7 76 8 77 9 78 10 80 11 81 12 82 22 83 13 84 14 85 23 86
REMARK SMILES IDX 24 87 32 88 25 89 31 90 26 91 30 92 27 93 29 94 28 95 15 96
REMARK SMILES IDX 16 97 21 98 17 99 19 100 18 101 20 102
REMARK H PARENT 3 5 92 23 58 34 8 79
REMARK Flexibility Score: inf
ROOT
ATOM      1  C   UNL A   1      33.474  29.666  26.662  1.00  0.00     0.116 C 
ENDROOT
BRANCH   1   2
ATOM      2  N   UNL A   1      33.616  30.779  27.579  1.00  0.00    -0.352 N 
ATOM      3  O   UNL A   1      34.445  32.434  28.783  1.00  0.00    -0.269 OA
ATOM      4  C   UNL A   1      34.674  31.354  28.232  1.00  0.00     0.251 C 
ATOM      5  H   UNL A   1      32.759  31.221  27.777  1.00  0.00     0.163 HD
BRANCH   4   6
ATOM      6  C   UNL A   1      36.020  30.737  28.386  1.00  0.00     0.039 A 
ATOM      7  C   UNL A   1      36.332  29.394  28.176  1.00  0.00     0.014 A 
ATOM      8  C   UNL A   1      37.046  31.608  28.800  1.00  0.00     0.014 A 
ATOM      9  C   UNL A   1      37.606  28.913  28.476  1.00  0.00     0.010 A 
ATOM     10  C   UNL A   1      38.323  31.138  29.085  1.00  0.00     0.010 A 
ATOM     11  C   UNL A   1      38.593  29.779  28.960  1.00  0.00    -0.014 A 
BRANCH  11  12
ATOM     12  C   UNL A   1      39.956  29.268  29.125  1.00  0.00     0.031 A 
ATOM     13  C   UNL A   1      40.378  29.160  30.557  1.00  0.00     0.074 A 
ATOM     14  C   UNL A   1      40.709  28.778  28.116  1.00  0.00     0.049 A 
ATOM     15  N   UNL A   1      41.351  29.767  31.155  1.00  0.00    -0.248 NA
ATOM     16  C   UNL A   1      39.515  28.387  31.469  1.00  0.00     0.031 C 
ATOM     17  C   UNL A   1      40.317  28.563  26.720  1.00  0.00     0.029 A 
ATOM     18  N   UNL A   1      41.978  28.278  28.144  1.00  0.00    -0.354 N 
ATOM     19  C   UNL A   1      41.359  29.282  32.463  1.00  0.00     0.074 A 
ATOM     20  C   UNL A   1      40.118  28.576  32.642  1.00  0.00     0.031 C 
ATOM     21  C   UNL A   1      41.234  27.777  26.108  1.00  0.00     0.029 A 
ATOM     22  C   UNL A   1      42.343  27.542  27.017  1.00  0.00     0.049 A 
ATOM     23  H   UNL A   1      42.590  28.426  28.902  1.00  0.00     0.167 HD
ATOM     24  C   UNL A   1      42.483  29.305  33.232  1.00  0.00     0.037 A 
ATOM     25  C   UNL A   1      43.449  26.760  26.866  1.00  0.00     0.037 A 
ATOM     26  C   UNL A   1      43.443  30.251  32.730  1.00  0.00     0.049 A 
ATOM     27  C   UNL A   1      44.433  27.194  27.890  1.00  0.00     0.074 A 
ATOM     28  C   UNL A   1      43.436  31.617  32.522  1.00  0.00     0.029 A 
ATOM     29  N   UNL A   1      44.495  29.769  31.990  1.00  0.00    -0.354 N 
ATOM     30  N   UNL A   1      45.011  28.364  27.890  1.00  0.00    -0.248 NA
ATOM     31  C   UNL A   1      44.406  26.509  29.172  1.00  0.00     0.031 C 
ATOM     32  C   UNL A   1      44.135  31.804  31.295  1.00  0.00     0.029 A 
ATOM     33  C   UNL A   1      44.597  30.558  30.871  1.00  0.00     0.049 A 
ATOM     34  H   UNL A   1      45.067  29.003  32.218  1.00  0.00     0.167 HD
ATOM     35  C   UNL A   1      45.022  28.750  29.221  1.00  0.00     0.074 A 
ATOM     36  C   UNL A   1      44.691  27.539  29.972  1.00  0.00     0.031 C 
ATOM     37  C   UNL A   1      45.021  30.069  29.578  1.00  0.00     0.037 A 
BRANCH  24  38
ATOM     38  C   UNL A   1      42.843  28.225  34.226  1.00  0.00     0.058 A 
ATOM     39  C   UNL A   1      42.986  28.542  35.592  1.00  0.00     0.135 A 
ATOM     40  C   UNL A   1      43.316  26.947  33.848  1.00  0.00     0.135 A 
ATOM     41  F   UNL A   1      42.598  29.740  36.060  1.00  0.00    -0.206 F 
ATOM     42  C   UNL A   1      43.592  27.673  36.503  1.00  0.00     0.059 A 
ATOM     43  C   UNL A   1      43.874  26.046  34.747  1.00  0.00     0.059 A 
ATOM     44  F   UNL A   1      43.345  26.548  32.571  1.00  0.00    -0.206 F 
ATOM     45  C   UNL A   1      44.039  26.429  36.067  1.00  0.00     0.060 A 
BRANCH  45  46
ATOM     46  S   UNL A   1      44.877  25.330  37.223  1.00  0.00     0.124 S 
ATOM     47  O   UNL A   1      44.499  24.019  36.708  1.00  0.00    -0.237 OA
ATOM     48  O   UNL A   1      46.274  25.711  37.042  1.00  0.00    -0.237 OA
ATOM     49  O   UNL A   1      44.297  25.695  38.513  1.00  0.00    -0.744 OA
ENDBRANCH  45  46
ENDBRANCH  24  38
BRANCH  25  50
ATOM     50  C   UNL A   1      43.567  25.439  26.178  1.00  0.00     0.058 A 
ATOM     51  C   UNL A   1      44.588  25.178  25.241  1.00  0.00     0.135 A 
ATOM     52  C   UNL A   1      42.865  24.310  26.647  1.00  0.00     0.135 A 
ATOM     53  F   UNL A   1      45.329  26.185  24.755  1.00  0.00    -0.206 F 
ATOM     54  C   UNL A   1      44.923  23.876  24.834  1.00  0.00     0.059 A 
ATOM     55  C   UNL A   1      43.176  23.008  26.252  1.00  0.00     0.059 A 
ATOM     56  F   UNL A   1      41.913  24.431  27.584  1.00  0.00    -0.206 F 
ATOM     57  C   UNL A   1      44.222  22.794  25.363  1.00  0.00     0.060 A 
BRANCH  57  58
ATOM     58  S   UNL A   1      44.757  21.105  24.986  1.00  0.00     0.124 S 
ATOM     59  O   UNL A   1      46.123  21.098  25.499  1.00  0.00    -0.237 OA
ATOM     60  O   UNL A   1      43.793  20.299  25.727  1.00  0.00    -0.237 OA
ATOM     61  O   UNL A   1      44.639  21.029  23.531  1.00  0.00    -0.744 OA
ENDBRANCH  57  58
ENDBRANCH  25  50
BRANCH  37  62
ATOM     62  C   UNL A   1      45.277  31.102  28.508  1.00  0.00     0.058 A 
ATOM     63  C   UNL A   1      44.321  31.550  27.578  1.00  0.00     0.135 A 
ATOM     64  C   UNL A   1      46.507  31.777  28.532  1.00  0.00     0.135 A 
ATOM     65  F   UNL A   1      43.085  31.032  27.554  1.00  0.00    -0.206 F 
ATOM     66  C   UNL A   1      44.592  32.592  26.687  1.00  0.00     0.059 A 
ATOM     67  C   UNL A   1      46.786  32.839  27.676  1.00  0.00     0.059 A 
ATOM     68  F   UNL A   1      47.441  31.439  29.435  1.00  0.00    -0.206 F 
ATOM     69  C   UNL A   1      45.829  33.233  26.746  1.00  0.00     0.060 A 
BRANCH  69  70
ATOM     70  S   UNL A   1      46.157  34.627  25.645  1.00  0.00     0.124 S 
ATOM     71  O   UNL A   1      47.578  34.465  25.359  1.00  0.00    -0.237 OA
ATOM     72  O   UNL A   1      45.251  34.371  24.529  1.00  0.00    -0.237 OA
ATOM     73  O   UNL A   1      45.813  35.792  26.459  1.00  0.00    -0.744 OA
ENDBRANCH  69  70
ENDBRANCH  37  62
ENDBRANCH  11  12
ENDBRANCH   4   6
ENDBRANCH   1   2
BRANCH   1  74
ATOM     74  C   UNL A   1      32.223  28.809  26.862  1.00  0.00     0.023 C 
BRANCH  74  75
ATOM     75  C   UNL A   1      32.182  27.499  26.067  1.00  0.00     0.023 C 
BRANCH  75  76
ATOM     76  C   UNL A   1      32.324  26.231  26.895  1.00  0.00     0.116 C 
BRANCH  76  77
ATOM     77  N   UNL A   1      31.140  25.378  26.837  1.00  0.00    -0.351 N 
ATOM     78  C   UNL A   1      31.098  23.997  26.799  1.00  0.00     0.273 C 
ATOM     79  H   UNL A   1      30.271  25.840  26.825  1.00  0.00     0.163 HD
ATOM     80  O   UNL A   1      30.016  23.408  26.792  1.00  0.00    -0.267 OA
BRANCH  78  81
ATOM     81  C   UNL A   1      32.365  23.292  26.928  1.00  0.00     0.178 A 
ATOM     82  N   UNL A   1      32.718  22.570  28.018  1.00  0.00    -0.124 NA
ATOM     83  C   UNL A   1      33.344  23.186  25.933  1.00  0.00     0.122 A 
ATOM     84  N   UNL A   1      33.826  21.919  27.716  1.00  0.00    -0.061 NA
ATOM     85  N   UNL A   1      34.209  22.244  26.449  1.00  0.00    -0.213 N 
BRANCH  83  86
ATOM     86  C   UNL A   1      33.223  23.880  24.626  1.00  0.00     0.262 C 
ATOM     87  C   UNL A   1      34.200  23.535  23.523  1.00  0.00     0.281 C 
ATOM     88  O   UNL A   1      31.912  24.049  24.060  1.00  0.00    -0.477 OA
ATOM     89  O   UNL A   1      34.452  24.761  22.799  1.00  0.00    -0.485 OA
ATOM     90  C   UNL A   1      32.044  25.129  23.170  1.00  0.00     0.162 A 
ATOM     91  C   UNL A   1      33.310  25.530  22.676  1.00  0.00     0.161 A 
ATOM     92  C   UNL A   1      30.925  25.917  22.916  1.00  0.00     0.050 A 
ATOM     93  C   UNL A   1      33.480  26.800  22.131  1.00  0.00     0.050 A 
ATOM     94  C   UNL A   1      31.094  27.163  22.296  1.00  0.00     0.004 A 
ATOM     95  C   UNL A   1      32.371  27.624  21.954  1.00  0.00     0.004 A 
ENDBRANCH  83  86
BRANCH  85  96
ATOM     96  C   UNL A   1      35.305  21.554  25.889  1.00  0.00     0.068 A 
ATOM     97  C   UNL A   1      35.142  20.370  25.173  1.00  0.00     0.028 A 
ATOM     98  C   UNL A   1      36.590  22.096  26.081  1.00  0.00     0.044 A 
ATOM     99  C   UNL A   1      36.271  19.712  24.676  1.00  0.00     0.003 A 
ATOM    100  C   UNL A   1      37.708  21.402  25.631  1.00  0.00     0.020 A 
ATOM    101  C   UNL A   1      37.553  20.212  24.927  1.00  0.00     0.016 A 
ATOM    102  Br  UNL A   1      39.438  22.056  26.019  1.00  0.00    -0.051 Br
ENDBRANCH  85  96
ENDBRANCH  78  81
ENDBRANCH  76  77
ENDBRANCH  75  76
ENDBRANCH  74  75
ENDBRANCH   1  74
TORSDOF 16
ENDMDL
