MODEL 1
REMARK VINA RESULT:     -13.7      0.000      0.000
REMARK SMILES Cc1ccccc1/[NH+]=C1\S[C@@H](CC(=O)Nc2ccc(C(=O)NCCCCNC(=O)c3ccc(-c4c5nc(c(-c6c(F)cc(S(=O)(=O)[O-])cc6F)c6ccc([nH]6)c(-c6c(F)cc(S(=O)(=O)[O-])cc6F)c6nc(c(-c7c(F)cc(S(=O)(=O)[O-])cc7F)c7ccc4[nH]7)C=C6)C=C5)cc3)cc2)C(=O)N1C
REMARK SMILES IDX 24 1 23 2 22 3 20 4 21 5 19 7 16 8 17 9 97 10 18 11 96 12
REMARK SMILES IDX 15 13 13 14 14 15 12 17 11 18 8 19 9 20 10 22 100 23 98 24
REMARK SMILES IDX 101 25 99 26 7 27 1 28 2 29 3 30 4 31 6 32 5 33 25 34 26 35
REMARK SMILES IDX 27 36 28 37 29 39 30 40 31 41 95 42 32 43 94 44 33 45 34 46
REMARK SMILES IDX 35 47 88 48 36 49 93 50 87 51 89 52 37 53 92 54 86 55 85 56
REMARK SMILES IDX 38 58 72 59 51 60 71 61 52 62 55 63 70 64 90 65 53 66 54 67
REMARK SMILES IDX 69 69 91 70 56 71 39 72 40 73 49 74 41 75 42 76 48 77 50 78
REMARK SMILES IDX 43 79 44 80 45 81 46 82 47 83 73 84 74 85 83 86 75 87 76 88
REMARK SMILES IDX 82 89 84 90 77 91 78 92 79 93 80 94 81 95 57 96 58 97 67 98
REMARK SMILES IDX 59 99 60 100 66 101 68 102 61 103 62 104 63 105 64 106
REMARK SMILES IDX 65 107
REMARK H PARENT 22 6 15 16 8 21 27 38 89 57 55 68
REMARK Flexibility Score: inf
ROOT
ATOM      1  C   UNL A   1      34.113  31.211  27.486  1.00  0.00     0.023 C 
ENDROOT
BRANCH   1   2
ATOM      2  C   UNL A   1      33.003  30.284  26.759  1.00  0.00     0.116 C 
BRANCH   2   3
ATOM      3  N   UNL A   1      33.326  29.753  25.418  1.00  0.00    -0.352 N 
ATOM      4  C   UNL A   1      32.720  28.827  24.598  1.00  0.00     0.251 C 
ATOM      5  O   UNL A   1      32.896  28.896  23.380  1.00  0.00    -0.269 OA
ATOM      6  H   UNL A   1      34.142  30.141  25.031  1.00  0.00     0.163 HD
BRANCH   4   7
ATOM      7  C   UNL A   1      31.903  27.700  25.118  1.00  0.00     0.039 A 
ATOM      8  C   UNL A   1      30.398  25.539  26.117  1.00  0.00     0.041 A 
ATOM      9  C   UNL A   1      30.003  26.255  25.002  1.00  0.00     0.027 A 
ATOM     10  C   UNL A   1      31.464  26.018  26.860  1.00  0.00     0.027 A 
ATOM     11  C   UNL A   1      30.746  27.295  24.488  1.00  0.00     0.016 A 
ATOM     12  C   UNL A   1      32.229  27.085  26.346  1.00  0.00     0.016 A 
BRANCH   8  13
ATOM     13  N   UNL A   1      29.683  24.386  26.467  1.00  0.00    -0.326 N 
ATOM     14  C   UNL A   1      30.218  23.120  26.631  1.00  0.00     0.226 C 
ATOM     15  O   UNL A   1      29.494  22.125  26.633  1.00  0.00    -0.275 OA
ATOM     16  H   UNL A   1      28.713  24.485  26.608  1.00  0.00     0.169 HD
BRANCH  14  17
ATOM     17  C   UNL A   1      31.683  23.019  27.035  1.00  0.00     0.128 C 
BRANCH  17  18
ATOM     18  C   UNL A   1      32.646  22.450  26.013  1.00  0.00     0.183 C 
ATOM     19  N   UNL A   1      35.736  22.364  24.088  1.00  0.00    -0.234 N 
ATOM     20  C   UNL A   1      34.709  22.876  24.662  1.00  0.00     0.319 C 
ATOM     21  H   UNL A   1      35.694  22.338  23.105  1.00  0.00     0.313 HD
ATOM     22  S   UNL A   1      34.300  23.159  26.318  1.00  0.00    -0.022 SA
ATOM     23  N   UNL A   1      33.597  23.182  23.940  1.00  0.00    -0.193 N 
ATOM     24  C   UNL A   1      32.435  22.735  24.531  1.00  0.00     0.324 C 
ATOM     25  C   UNL A   1      33.628  23.730  22.602  1.00  0.00     0.301 C 
ATOM     26  O   UNL A   1      31.390  22.517  23.929  1.00  0.00    -0.245 OA
BRANCH  19  27
ATOM     27  C   UNL A   1      36.912  21.830  24.646  1.00  0.00     0.128 A 
ATOM     28  C   UNL A   1      37.850  23.864  25.957  1.00  0.00     0.049 C 
ATOM     29  C   UNL A   1      37.866  22.441  25.487  1.00  0.00    -0.004 A 
ATOM     30  C   UNL A   1      38.956  21.681  25.969  1.00  0.00     0.008 A 
ATOM     31  C   UNL A   1      39.056  20.317  25.731  1.00  0.00     0.001 A 
ATOM     32  C   UNL A   1      37.033  20.440  24.443  1.00  0.00     0.052 A 
ATOM     33  C   UNL A   1      38.081  19.687  24.980  1.00  0.00     0.004 A 
ENDBRANCH  19  27
ENDBRANCH  17  18
ENDBRANCH  14  17
ENDBRANCH   8  13
ENDBRANCH   4   7
ENDBRANCH   2   3
ENDBRANCH   1   2
BRANCH   1  34
ATOM     34  C   UNL A   1      34.084  32.821  28.027  1.00  0.00     0.023 C 
BRANCH  34  35
ATOM     35  C   UNL A   1      35.239  33.483  28.978  1.00  0.00     0.116 C 
BRANCH  35  36
ATOM     36  N   UNL A   1      36.383  32.723  29.907  1.00  0.00    -0.352 N 
ATOM     37  C   UNL A   1      37.417  31.663  30.088  1.00  0.00     0.251 C 
ATOM     38  H   UNL A   1      36.374  33.212  30.761  1.00  0.00     0.163 HD
ATOM     39  O   UNL A   1      38.274  31.996  30.933  1.00  0.00    -0.269 OA
BRANCH  37  40
ATOM     40  C   UNL A   1      37.792  30.242  29.378  1.00  0.00     0.039 A 
ATOM     41  C   UNL A   1      37.881  29.011  30.068  1.00  0.00     0.014 A 
ATOM     42  C   UNL A   1      38.100  30.076  28.036  1.00  0.00     0.014 A 
ATOM     43  C   UNL A   1      38.886  28.049  29.698  1.00  0.00     0.010 A 
ATOM     44  C   UNL A   1      39.146  29.183  27.680  1.00  0.00     0.010 A 
ATOM     45  C   UNL A   1      39.701  28.284  28.589  1.00  0.00    -0.014 A 
BRANCH  45  46
ATOM     46  C   UNL A   1      41.069  27.700  28.351  1.00  0.00     0.031 A 
ATOM     47  C   UNL A   1      41.239  26.261  28.190  1.00  0.00     0.074 A 
ATOM     48  C   UNL A   1      42.234  28.357  28.097  1.00  0.00     0.049 A 
ATOM     49  N   UNL A   1      42.117  25.536  28.798  1.00  0.00    -0.248 NA
ATOM     50  C   UNL A   1      40.463  25.549  27.194  1.00  0.00     0.031 C 
ATOM     51  C   UNL A   1      43.629  27.914  27.887  1.00  0.00     0.029 A 
ATOM     52  N   UNL A   1      42.430  29.713  28.085  1.00  0.00    -0.354 N 
ATOM     53  C   UNL A   1      42.272  24.409  28.018  1.00  0.00     0.074 A 
ATOM     54  C   UNL A   1      41.109  24.386  27.159  1.00  0.00     0.031 C 
ATOM     55  C   UNL A   1      44.474  28.894  28.289  1.00  0.00     0.029 A 
ATOM     56  C   UNL A   1      43.650  29.997  28.712  1.00  0.00     0.049 A 
ATOM     57  H   UNL A   1      41.814  30.377  27.702  1.00  0.00     0.167 HD
ATOM     58  C   UNL A   1      43.468  23.743  27.979  1.00  0.00     0.037 A 
ATOM     59  C   UNL A   1      43.590  30.661  29.904  1.00  0.00     0.037 A 
ATOM     60  C   UNL A   1      44.502  24.462  28.747  1.00  0.00     0.049 A 
ATOM     61  C   UNL A   1      43.953  29.703  31.014  1.00  0.00     0.074 A 
ATOM     62  C   UNL A   1      45.627  25.184  28.369  1.00  0.00     0.029 A 
ATOM     63  N   UNL A   1      44.269  24.809  30.081  1.00  0.00    -0.354 N 
ATOM     64  N   UNL A   1      43.996  28.412  30.812  1.00  0.00    -0.248 NA
ATOM     65  C   UNL A   1      44.419  30.047  32.356  1.00  0.00     0.031 C 
ATOM     66  C   UNL A   1      45.973  26.064  29.432  1.00  0.00     0.029 A 
ATOM     67  C   UNL A   1      45.072  25.871  30.465  1.00  0.00     0.049 A 
ATOM     68  H   UNL A   1      43.620  24.359  30.669  1.00  0.00     0.167 HD
ATOM     69  C   UNL A   1      44.603  27.781  31.854  1.00  0.00     0.074 A 
ATOM     70  C   UNL A   1      44.801  28.841  32.827  1.00  0.00     0.031 C 
ATOM     71  C   UNL A   1      44.960  26.462  31.797  1.00  0.00     0.037 A 
BRANCH  58  72
ATOM     72  C   UNL A   1      43.747  22.642  26.960  1.00  0.00     0.058 A 
ATOM     73  C   UNL A   1      43.104  21.387  27.009  1.00  0.00     0.135 A 
ATOM     74  C   UNL A   1      44.648  22.781  25.879  1.00  0.00     0.135 A 
ATOM     75  F   UNL A   1      42.127  21.132  27.888  1.00  0.00    -0.206 F 
ATOM     76  C   UNL A   1      43.402  20.339  26.130  1.00  0.00     0.059 A 
ATOM     77  C   UNL A   1      45.024  21.728  25.040  1.00  0.00     0.059 A 
ATOM     78  F   UNL A   1      45.139  23.980  25.532  1.00  0.00    -0.206 F 
ATOM     79  C   UNL A   1      44.382  20.509  25.162  1.00  0.00     0.060 A 
BRANCH  79  80
ATOM     80  S   UNL A   1      44.714  19.170  24.002  1.00  0.00     0.124 S 
ATOM     81  O   UNL A   1      43.734  18.163  24.396  1.00  0.00    -0.237 OA
ATOM     82  O   UNL A   1      44.474  19.820  22.718  1.00  0.00    -0.237 OA
ATOM     83  O   UNL A   1      46.107  18.821  24.271  1.00  0.00    -0.744 OA
ENDBRANCH  79  80
ENDBRANCH  58  72
BRANCH  59  84
ATOM     84  C   UNL A   1      42.558  31.776  29.778  1.00  0.00     0.058 A 
ATOM     85  C   UNL A   1      41.546  31.642  30.758  1.00  0.00     0.135 A 
ATOM     86  C   UNL A   1      42.932  33.091  29.582  1.00  0.00     0.135 A 
ATOM     87  F   UNL A   1      40.966  30.451  30.927  1.00  0.00    -0.206 F 
ATOM     88  C   UNL A   1      41.492  32.511  31.858  1.00  0.00     0.059 A 
ATOM     89  C   UNL A   1      42.675  34.043  30.594  1.00  0.00     0.059 A 
ATOM     90  F   UNL A   1      43.614  33.461  28.485  1.00  0.00    -0.206 F 
ATOM     91  C   UNL A   1      42.269  33.654  31.870  1.00  0.00     0.060 A 
BRANCH  91  92
ATOM     92  S   UNL A   1      42.689  34.385  33.621  1.00  0.00     0.124 S 
ATOM     93  O   UNL A   1      42.225  35.736  33.553  1.00  0.00    -0.237 OA
ATOM     94  O   UNL A   1      41.881  33.575  34.526  1.00  0.00    -0.237 OA
ATOM     95  O   UNL A   1      44.105  34.466  33.852  1.00  0.00    -0.744 OA
ENDBRANCH  91  92
ENDBRANCH  59  84
BRANCH  71  96
ATOM     96  C   UNL A   1      45.390  25.638  32.978  1.00  0.00     0.058 A 
ATOM     97  C   UNL A   1      46.723  25.273  33.214  1.00  0.00     0.135 A 
ATOM     98  C   UNL A   1      44.469  25.320  34.007  1.00  0.00     0.135 A 
ATOM     99  F   UNL A   1      47.706  25.630  32.374  1.00  0.00    -0.206 F 
ATOM    100  C   UNL A   1      47.104  24.557  34.346  1.00  0.00     0.059 A 
ATOM    101  C   UNL A   1      44.840  24.664  35.172  1.00  0.00     0.059 A 
ATOM    102  F   UNL A   1      43.171  25.647  33.921  1.00  0.00    -0.206 F 
ATOM    103  C   UNL A   1      46.154  24.251  35.316  1.00  0.00     0.060 A 
BRANCH 103 104
ATOM    104  S   UNL A   1      46.652  23.332  36.779  1.00  0.00     0.124 S 
ATOM    105  O   UNL A   1      45.401  23.297  37.531  1.00  0.00    -0.237 OA
ATOM    106  O   UNL A   1      47.088  22.056  36.220  1.00  0.00    -0.237 OA
ATOM    107  O   UNL A   1      47.712  24.154  37.352  1.00  0.00    -0.744 OA
ENDBRANCH 103 104
ENDBRANCH  71  96
ENDBRANCH  45  46
ENDBRANCH  37  40
ENDBRANCH  35  36
ENDBRANCH  34  35
ENDBRANCH   1  34
TORSDOF 18
ENDMDL
MODEL 2
REMARK VINA RESULT:     -13.6      1.405      2.116
REMARK SMILES Cc1ccccc1/[NH+]=C1\S[C@@H](CC(=O)Nc2ccc(C(=O)NCCCCNC(=O)c3ccc(-c4c5nc(c(-c6c(F)cc(S(=O)(=O)[O-])cc6F)c6ccc([nH]6)c(-c6c(F)cc(S(=O)(=O)[O-])cc6F)c6nc(c(-c7c(F)cc(S(=O)(=O)[O-])cc7F)c7ccc4[nH]7)C=C6)C=C5)cc3)cc2)C(=O)N1C
REMARK SMILES IDX 24 1 23 2 22 3 20 4 21 5 19 7 16 8 17 9 97 10 18 11 96 12
REMARK SMILES IDX 15 13 13 14 14 15 12 17 11 18 8 19 9 20 10 22 100 23 98 24
REMARK SMILES IDX 101 25 99 26 7 27 1 28 2 29 3 30 4 31 6 32 5 33 25 34 26 35
REMARK SMILES IDX 27 36 28 37 29 39 30 40 31 41 95 42 32 43 94 44 33 45 34 46
REMARK SMILES IDX 35 47 88 48 36 49 93 50 87 51 89 52 37 53 92 54 86 55 85 56
REMARK SMILES IDX 38 58 72 59 51 60 71 61 52 62 55 63 70 64 90 65 53 66 54 67
REMARK SMILES IDX 69 69 91 70 56 71 39 72 40 73 49 74 41 75 42 76 48 77 50 78
REMARK SMILES IDX 43 79 44 80 45 81 46 82 47 83 73 84 74 85 83 86 75 87 76 88
REMARK SMILES IDX 82 89 84 90 77 91 78 92 79 93 80 94 81 95 57 96 58 97 67 98
REMARK SMILES IDX 59 99 60 100 66 101 68 102 61 103 62 104 63 105 64 106
REMARK SMILES IDX 65 107
REMARK H PARENT 22 6 15 16 8 21 27 38 89 57 55 68
REMARK Flexibility Score: inf
ROOT
ATOM      1  C   UNL A   1      33.596  31.325  27.358  1.00  0.00     0.023 C 
ENDROOT
BRANCH   1   2
ATOM      2  C   UNL A   1      32.463  30.658  26.414  1.00  0.00     0.116 C 
BRANCH   2   3
ATOM      3  N   UNL A   1      32.896  30.087  25.122  1.00  0.00    -0.352 N 
ATOM      4  C   UNL A   1      32.436  29.045  24.347  1.00  0.00     0.251 C 
ATOM      5  O   UNL A   1      32.648  29.059  23.133  1.00  0.00    -0.269 OA
ATOM      6  H   UNL A   1      33.675  30.546  24.734  1.00  0.00     0.163 HD
BRANCH   4   7
ATOM      7  C   UNL A   1      31.739  27.863  24.915  1.00  0.00     0.039 A 
ATOM      8  C   UNL A   1      30.462  25.606  26.016  1.00  0.00     0.041 A 
ATOM      9  C   UNL A   1      30.117  26.113  24.777  1.00  0.00     0.027 A 
ATOM     10  C   UNL A   1      31.332  26.340  26.806  1.00  0.00     0.027 A 
ATOM     11  C   UNL A   1      30.755  27.198  24.216  1.00  0.00     0.016 A 
ATOM     12  C   UNL A   1      31.986  27.456  26.244  1.00  0.00     0.016 A 
BRANCH   8  13
ATOM     13  N   UNL A   1      29.892  24.395  26.433  1.00  0.00    -0.326 N 
ATOM     14  C   UNL A   1      30.510  23.158  26.405  1.00  0.00     0.226 C 
ATOM     15  O   UNL A   1      29.852  22.122  26.494  1.00  0.00    -0.275 OA
ATOM     16  H   UNL A   1      28.970  24.429  26.776  1.00  0.00     0.169 HD
BRANCH  14  17
ATOM     17  C   UNL A   1      32.031  23.125  26.493  1.00  0.00     0.128 C 
BRANCH  17  18
ATOM     18  C   UNL A   1      32.763  22.228  25.514  1.00  0.00     0.183 C 
ATOM     19  N   UNL A   1      35.019  19.530  24.572  1.00  0.00    -0.234 N 
ATOM     20  C   UNL A   1      34.592  20.545  25.232  1.00  0.00     0.319 C 
ATOM     21  H   UNL A   1      35.769  19.716  23.961  1.00  0.00     0.313 HD
ATOM     22  S   UNL A   1      33.342  20.747  26.408  1.00  0.00    -0.022 SA
ATOM     23  N   UNL A   1      35.049  21.794  24.947  1.00  0.00    -0.193 N 
ATOM     24  C   UNL A   1      34.036  22.722  24.840  1.00  0.00     0.324 C 
ATOM     25  C   UNL A   1      36.418  22.092  24.590  1.00  0.00     0.301 C 
ATOM     26  O   UNL A   1      34.122  23.773  24.214  1.00  0.00    -0.245 OA
BRANCH  19  27
ATOM     27  C   UNL A   1      34.581  18.194  24.582  1.00  0.00     0.128 A 
ATOM     28  C   UNL A   1      32.497  18.306  23.037  1.00  0.00     0.049 C 
ATOM     29  C   UNL A   1      33.489  17.600  23.912  1.00  0.00    -0.004 A 
ATOM     30  C   UNL A   1      33.270  16.209  24.036  1.00  0.00     0.008 A 
ATOM     31  C   UNL A   1      34.165  15.387  24.708  1.00  0.00     0.001 A 
ATOM     32  C   UNL A   1      35.479  17.327  25.236  1.00  0.00     0.052 A 
ATOM     33  C   UNL A   1      35.286  15.944  25.296  1.00  0.00     0.004 A 
ENDBRANCH  19  27
ENDBRANCH  17  18
ENDBRANCH  14  17
ENDBRANCH   8  13
ENDBRANCH   4   7
ENDBRANCH   2   3
ENDBRANCH   1   2
BRANCH   1  34
ATOM     34  C   UNL A   1      33.772  32.884  28.009  1.00  0.00     0.023 C 
BRANCH  34  35
ATOM     35  C   UNL A   1      35.150  33.432  28.699  1.00  0.00     0.116 C 
BRANCH  35  36
ATOM     36  N   UNL A   1      36.190  32.637  29.717  1.00  0.00    -0.352 N 
ATOM     37  C   UNL A   1      37.182  31.554  29.977  1.00  0.00     0.251 C 
ATOM     38  H   UNL A   1      36.114  33.117  30.573  1.00  0.00     0.163 HD
ATOM     39  O   UNL A   1      37.966  31.860  30.900  1.00  0.00    -0.269 OA
BRANCH  37  40
ATOM     40  C   UNL A   1      37.593  30.135  29.285  1.00  0.00     0.039 A 
ATOM     41  C   UNL A   1      37.698  28.912  29.988  1.00  0.00     0.014 A 
ATOM     42  C   UNL A   1      37.917  29.961  27.947  1.00  0.00     0.014 A 
ATOM     43  C   UNL A   1      38.726  27.966  29.637  1.00  0.00     0.010 A 
ATOM     44  C   UNL A   1      38.984  29.086  27.611  1.00  0.00     0.010 A 
ATOM     45  C   UNL A   1      39.547  28.206  28.533  1.00  0.00    -0.014 A 
BRANCH  45  46
ATOM     46  C   UNL A   1      40.928  27.646  28.315  1.00  0.00     0.031 A 
ATOM     47  C   UNL A   1      41.126  26.210  28.160  1.00  0.00     0.074 A 
ATOM     48  C   UNL A   1      42.084  28.325  28.074  1.00  0.00     0.049 A 
ATOM     49  N   UNL A   1      42.010  25.504  28.782  1.00  0.00    -0.248 NA
ATOM     50  C   UNL A   1      40.377  25.482  27.157  1.00  0.00     0.031 C 
ATOM     51  C   UNL A   1      43.490  27.907  27.883  1.00  0.00     0.029 A 
ATOM     52  N   UNL A   1      42.255  29.684  28.061  1.00  0.00    -0.354 N 
ATOM     53  C   UNL A   1      42.196  24.378  28.008  1.00  0.00     0.074 A 
ATOM     54  C   UNL A   1      41.044  24.331  27.134  1.00  0.00     0.031 C 
ATOM     55  C   UNL A   1      44.311  28.903  28.293  1.00  0.00     0.029 A 
ATOM     56  C   UNL A   1      43.462  29.992  28.702  1.00  0.00     0.049 A 
ATOM     57  H   UNL A   1      41.632  30.336  27.667  1.00  0.00     0.167 HD
ATOM     58  C   UNL A   1      43.404  23.733  27.986  1.00  0.00     0.037 A 
ATOM     59  C   UNL A   1      43.375  30.658  29.892  1.00  0.00     0.037 A 
ATOM     60  C   UNL A   1      44.415  24.474  28.765  1.00  0.00     0.049 A 
ATOM     61  C   UNL A   1      43.740  29.710  31.009  1.00  0.00     0.074 A 
ATOM     62  C   UNL A   1      45.530  25.215  28.399  1.00  0.00     0.029 A 
ATOM     63  N   UNL A   1      44.158  24.820  30.095  1.00  0.00    -0.354 N 
ATOM     64  N   UNL A   1      43.810  28.419  30.812  1.00  0.00    -0.248 NA
ATOM     65  C   UNL A   1      44.183  30.067  32.355  1.00  0.00     0.031 C 
ATOM     66  C   UNL A   1      45.847  26.104  29.464  1.00  0.00     0.029 A 
ATOM     67  C   UNL A   1      44.936  25.897  30.486  1.00  0.00     0.049 A 
ATOM     68  H   UNL A   1      43.510  24.360  30.676  1.00  0.00     0.167 HD
ATOM     69  C   UNL A   1      44.415  27.803  31.863  1.00  0.00     0.074 A 
ATOM     70  C   UNL A   1      44.581  28.869  32.836  1.00  0.00     0.031 C 
ATOM     71  C   UNL A   1      44.796  26.490  31.815  1.00  0.00     0.037 A 
BRANCH  58  72
ATOM     72  C   UNL A   1      43.716  22.635  26.974  1.00  0.00     0.058 A 
ATOM     73  C   UNL A   1      43.020  21.407  26.953  1.00  0.00     0.135 A 
ATOM     74  C   UNL A   1      44.703  22.749  25.969  1.00  0.00     0.135 A 
ATOM     75  F   UNL A   1      41.969  21.182  27.750  1.00  0.00    -0.206 F 
ATOM     76  C   UNL A   1      43.343  20.360  26.083  1.00  0.00     0.059 A 
ATOM     77  C   UNL A   1      45.100  21.693  25.144  1.00  0.00     0.059 A 
ATOM     78  F   UNL A   1      45.269  23.931  25.680  1.00  0.00    -0.206 F 
ATOM     79  C   UNL A   1      44.401  20.500  25.196  1.00  0.00     0.060 A 
BRANCH  79  80
ATOM     80  S   UNL A   1      44.768  19.163  24.044  1.00  0.00     0.124 S 
ATOM     81  O   UNL A   1      44.425  19.758  22.756  1.00  0.00    -0.237 OA
ATOM     82  O   UNL A   1      46.190  18.943  24.283  1.00  0.00    -0.237 OA
ATOM     83  O   UNL A   1      43.889  18.082  24.483  1.00  0.00    -0.744 OA
ENDBRANCH  79  80
ENDBRANCH  58  72
BRANCH  59  84
ATOM     84  C   UNL A   1      42.324  31.753  29.749  1.00  0.00     0.058 A 
ATOM     85  C   UNL A   1      41.294  31.595  30.707  1.00  0.00     0.135 A 
ATOM     86  C   UNL A   1      42.676  33.076  29.567  1.00  0.00     0.135 A 
ATOM     87  F   UNL A   1      40.734  30.392  30.858  1.00  0.00    -0.206 F 
ATOM     88  C   UNL A   1      41.200  32.458  31.810  1.00  0.00     0.059 A 
ATOM     89  C   UNL A   1      42.380  34.018  30.577  1.00  0.00     0.059 A 
ATOM     90  F   UNL A   1      43.374  33.465  28.486  1.00  0.00    -0.206 F 
ATOM     91  C   UNL A   1      41.955  33.615  31.843  1.00  0.00     0.060 A 
BRANCH  91  92
ATOM     92  S   UNL A   1      42.323  34.346  33.606  1.00  0.00     0.124 S 
ATOM     93  O   UNL A   1      42.495  33.191  34.431  1.00  0.00    -0.237 OA
ATOM     94  O   UNL A   1      43.574  35.071  33.413  1.00  0.00    -0.237 OA
ATOM     95  O   UNL A   1      41.197  35.055  34.147  1.00  0.00    -0.744 OA
ENDBRANCH  91  92
ENDBRANCH  59  84
BRANCH  71  96
ATOM     96  C   UNL A   1      45.226  25.677  33.004  1.00  0.00     0.058 A 
ATOM     97  C   UNL A   1      44.328  25.191  33.966  1.00  0.00     0.135 A 
ATOM     98  C   UNL A   1      46.564  25.227  33.122  1.00  0.00     0.135 A 
ATOM     99  F   UNL A   1      43.013  25.444  33.887  1.00  0.00    -0.206 F 
ATOM    100  C   UNL A   1      44.744  24.392  35.028  1.00  0.00     0.059 A 
ATOM    101  C   UNL A   1      46.985  24.379  34.135  1.00  0.00     0.059 A 
ATOM    102  F   UNL A   1      47.512  25.589  32.245  1.00  0.00    -0.206 F 
ATOM    103  C   UNL A   1      46.075  23.997  35.108  1.00  0.00     0.060 A 
BRANCH 103 104
ATOM    104  S   UNL A   1      46.606  22.960  36.477  1.00  0.00     0.124 S 
ATOM    105  O   UNL A   1      45.383  22.215  36.761  1.00  0.00    -0.237 OA
ATOM    106  O   UNL A   1      47.694  22.186  35.886  1.00  0.00    -0.237 OA
ATOM    107  O   UNL A   1      47.012  23.922  37.495  1.00  0.00    -0.744 OA
ENDBRANCH 103 104
ENDBRANCH  71  96
ENDBRANCH  45  46
ENDBRANCH  37  40
ENDBRANCH  35  36
ENDBRANCH  34  35
ENDBRANCH   1  34
TORSDOF 18
ENDMDL
MODEL 3
REMARK VINA RESULT:     -13.5      1.590      2.438
REMARK SMILES Cc1ccccc1/[NH+]=C1\S[C@@H](CC(=O)Nc2ccc(C(=O)NCCCCNC(=O)c3ccc(-c4c5nc(c(-c6c(F)cc(S(=O)(=O)[O-])cc6F)c6ccc([nH]6)c(-c6c(F)cc(S(=O)(=O)[O-])cc6F)c6nc(c(-c7c(F)cc(S(=O)(=O)[O-])cc7F)c7ccc4[nH]7)C=C6)C=C5)cc3)cc2)C(=O)N1C
REMARK SMILES IDX 24 1 23 2 22 3 20 4 21 5 19 7 16 8 17 9 97 10 18 11 96 12
REMARK SMILES IDX 15 13 13 14 14 15 12 17 11 18 8 19 9 20 10 22 100 23 98 24
REMARK SMILES IDX 101 25 99 26 7 27 1 28 2 29 3 30 4 31 6 32 5 33 25 34 26 35
REMARK SMILES IDX 27 36 28 37 29 39 30 40 31 41 95 42 32 43 94 44 33 45 34 46
REMARK SMILES IDX 35 47 88 48 36 49 93 50 87 51 89 52 37 53 92 54 86 55 85 56
REMARK SMILES IDX 38 58 72 59 51 60 71 61 52 62 55 63 70 64 90 65 53 66 54 67
REMARK SMILES IDX 69 69 91 70 56 71 39 72 40 73 49 74 41 75 42 76 48 77 50 78
REMARK SMILES IDX 43 79 44 80 45 81 46 82 47 83 73 84 74 85 83 86 75 87 76 88
REMARK SMILES IDX 82 89 84 90 77 91 78 92 79 93 80 94 81 95 57 96 58 97 67 98
REMARK SMILES IDX 59 99 60 100 66 101 68 102 61 103 62 104 63 105 64 106
REMARK SMILES IDX 65 107
REMARK H PARENT 22 6 15 16 8 21 27 38 89 57 55 68
REMARK Flexibility Score: inf
ROOT
ATOM      1  C   UNL A   1      33.790  32.290  28.110  1.00  0.00     0.023 C 
ENDROOT
BRANCH   1   2
ATOM      2  C   UNL A   1      33.736  30.860  27.353  1.00  0.00     0.116 C 
BRANCH   2   3
ATOM      3  N   UNL A   1      32.651  29.928  27.723  1.00  0.00    -0.352 N 
ATOM      4  C   UNL A   1      32.248  28.705  27.236  1.00  0.00     0.251 C 
ATOM      5  O   UNL A   1      31.645  27.929  27.980  1.00  0.00    -0.269 OA
ATOM      6  H   UNL A   1      32.102  30.248  28.474  1.00  0.00     0.163 HD
BRANCH   4   7
ATOM      7  C   UNL A   1      32.455  28.290  25.824  1.00  0.00     0.039 A 
ATOM      8  C   UNL A   1      32.797  27.491  23.144  1.00  0.00     0.041 A 
ATOM      9  C   UNL A   1      33.780  27.303  24.098  1.00  0.00     0.027 A 
ATOM     10  C   UNL A   1      31.693  28.256  23.484  1.00  0.00     0.027 A 
ATOM     11  C   UNL A   1      33.613  27.663  25.417  1.00  0.00     0.016 A 
ATOM     12  C   UNL A   1      31.513  28.634  24.831  1.00  0.00     0.016 A 
BRANCH   8  13
ATOM     13  N   UNL A   1      32.975  26.935  21.871  1.00  0.00    -0.326 N 
ATOM     14  C   UNL A   1      32.843  25.596  21.547  1.00  0.00     0.226 C 
ATOM     15  O   UNL A   1      33.309  25.153  20.498  1.00  0.00    -0.275 OA
ATOM     16  H   UNL A   1      33.215  27.552  21.142  1.00  0.00     0.169 HD
BRANCH  14  17
ATOM     17  C   UNL A   1      31.916  24.748  22.408  1.00  0.00     0.128 C 
BRANCH  17  18
ATOM     18  C   UNL A   1      32.516  24.094  23.636  1.00  0.00     0.183 C 
ATOM     19  N   UNL A   1      34.732  21.805  25.399  1.00  0.00    -0.234 N 
ATOM     20  C   UNL A   1      33.922  22.208  24.488  1.00  0.00     0.319 C 
ATOM     21  H   UNL A   1      34.353  21.157  26.036  1.00  0.00     0.313 HD
ATOM     22  S   UNL A   1      34.089  23.302  23.160  1.00  0.00    -0.022 SA
ATOM     23  N   UNL A   1      32.603  21.880  24.545  1.00  0.00    -0.193 N 
ATOM     24  C   UNL A   1      31.774  22.959  24.329  1.00  0.00     0.324 C 
ATOM     25  C   UNL A   1      32.109  20.594  24.984  1.00  0.00     0.301 C 
ATOM     26  O   UNL A   1      30.612  23.028  24.716  1.00  0.00    -0.245 OA
BRANCH  19  27
ATOM     27  C   UNL A   1      36.077  22.146  25.630  1.00  0.00     0.128 A 
ATOM     28  C   UNL A   1      37.312  20.000  24.849  1.00  0.00     0.049 C 
ATOM     29  C   UNL A   1      37.249  21.397  25.390  1.00  0.00    -0.004 A 
ATOM     30  C   UNL A   1      38.511  21.974  25.659  1.00  0.00     0.008 A 
ATOM     31  C   UNL A   1      38.638  23.302  26.047  1.00  0.00     0.001 A 
ATOM     32  C   UNL A   1      36.244  23.496  26.002  1.00  0.00     0.052 A 
ATOM     33  C   UNL A   1      37.501  24.073  26.201  1.00  0.00     0.004 A 
ENDBRANCH  19  27
ENDBRANCH  17  18
ENDBRANCH  14  17
ENDBRANCH   8  13
ENDBRANCH   4   7
ENDBRANCH   2   3
ENDBRANCH   1   2
BRANCH   1  34
ATOM     34  C   UNL A   1      34.638  32.829  29.480  1.00  0.00     0.023 C 
BRANCH  34  35
ATOM     35  C   UNL A   1      35.124  31.847  30.694  1.00  0.00     0.116 C 
BRANCH  35  36
ATOM     36  N   UNL A   1      35.974  30.426  30.605  1.00  0.00    -0.352 N 
ATOM     37  C   UNL A   1      37.200  29.665  30.227  1.00  0.00     0.251 C 
ATOM     38  H   UNL A   1      35.371  29.751  30.992  1.00  0.00     0.163 HD
ATOM     39  O   UNL A   1      37.340  28.640  30.928  1.00  0.00    -0.269 OA
BRANCH  37  40
ATOM     40  C   UNL A   1      38.472  29.890  29.230  1.00  0.00     0.039 A 
ATOM     41  C   UNL A   1      38.556  29.358  27.922  1.00  0.00     0.014 A 
ATOM     42  C   UNL A   1      39.625  30.592  29.549  1.00  0.00     0.014 A 
ATOM     43  C   UNL A   1      39.821  28.889  27.416  1.00  0.00     0.010 A 
ATOM     44  C   UNL A   1      40.877  30.083  29.114  1.00  0.00     0.010 A 
ATOM     45  C   UNL A   1      40.982  29.061  28.172  1.00  0.00    -0.014 A 
BRANCH  45  46
ATOM     46  C   UNL A   1      42.238  28.236  28.072  1.00  0.00     0.031 A 
ATOM     47  C   UNL A   1      42.160  26.788  27.921  1.00  0.00     0.074 A 
ATOM     48  C   UNL A   1      43.523  28.669  27.941  1.00  0.00     0.049 A 
ATOM     49  N   UNL A   1      42.827  25.925  28.611  1.00  0.00    -0.248 NA
ATOM     50  C   UNL A   1      41.373  26.216  26.847  1.00  0.00     0.031 C 
ATOM     51  C   UNL A   1      44.828  27.979  27.872  1.00  0.00     0.029 A 
ATOM     52  N   UNL A   1      43.961  29.967  27.958  1.00  0.00    -0.354 N 
ATOM     53  C   UNL A   1      42.853  24.779  27.845  1.00  0.00     0.074 A 
ATOM     54  C   UNL A   1      41.797  24.955  26.872  1.00  0.00     0.031 C 
ATOM     55  C   UNL A   1      45.791  28.795  28.364  1.00  0.00     0.029 A 
ATOM     56  C   UNL A   1      45.143  30.034  28.707  1.00  0.00     0.049 A 
ATOM     57  H   UNL A   1      43.517  30.727  27.517  1.00  0.00     0.167 HD
ATOM     58  C   UNL A   1      43.906  23.906  27.925  1.00  0.00     0.037 A 
ATOM     59  C   UNL A   1      45.083  30.713  29.891  1.00  0.00     0.037 A 
ATOM     60  C   UNL A   1      44.970  24.437  28.799  1.00  0.00     0.049 A 
ATOM     61  C   UNL A   1      45.152  29.720  31.027  1.00  0.00     0.074 A 
ATOM     62  C   UNL A   1      46.239  24.939  28.541  1.00  0.00     0.029 A 
ATOM     63  N   UNL A   1      44.670  24.838  30.103  1.00  0.00    -0.354 N 
ATOM     64  N   UNL A   1      44.981  28.440  30.823  1.00  0.00    -0.248 NA
ATOM     65  C   UNL A   1      45.535  29.992  32.410  1.00  0.00     0.031 C 
ATOM     66  C   UNL A   1      46.630  25.755  29.638  1.00  0.00     0.029 A 
ATOM     67  C   UNL A   1      45.608  25.742  30.573  1.00  0.00     0.049 A 
ATOM     68  H   UNL A   1      43.894  24.521  30.620  1.00  0.00     0.167 HD
ATOM     69  C   UNL A   1      45.355  27.724  31.917  1.00  0.00     0.074 A 
ATOM     70  C   UNL A   1      45.642  28.743  32.912  1.00  0.00     0.031 C 
ATOM     71  C   UNL A   1      45.471  26.361  31.890  1.00  0.00     0.037 A 
BRANCH  58  72
ATOM     72  C   UNL A   1      44.083  22.760  26.934  1.00  0.00     0.058 A 
ATOM     73  C   UNL A   1      43.263  21.612  26.953  1.00  0.00     0.135 A 
ATOM     74  C   UNL A   1      45.057  22.750  25.909  1.00  0.00     0.135 A 
ATOM     75  F   UNL A   1      42.209  21.515  27.772  1.00  0.00    -0.206 F 
ATOM     76  C   UNL A   1      43.458  20.518  26.102  1.00  0.00     0.059 A 
ATOM     77  C   UNL A   1      45.326  21.640  25.103  1.00  0.00     0.059 A 
ATOM     78  F   UNL A   1      45.737  23.859  25.583  1.00  0.00    -0.206 F 
ATOM     79  C   UNL A   1      44.508  20.528  25.195  1.00  0.00     0.060 A 
BRANCH  79  80
ATOM     80  S   UNL A   1      44.711  19.136  24.067  1.00  0.00     0.124 S 
ATOM     81  O   UNL A   1      44.431  19.741  22.769  1.00  0.00    -0.237 OA
ATOM     82  O   UNL A   1      46.100  18.758  24.306  1.00  0.00    -0.237 OA
ATOM     83  O   UNL A   1      43.716  18.172  24.532  1.00  0.00    -0.744 OA
ENDBRANCH  79  80
ENDBRANCH  58  72
BRANCH  59  84
ATOM     84  C   UNL A   1      44.288  31.994  29.666  1.00  0.00     0.058 A 
ATOM     85  C   UNL A   1      43.451  32.272  30.773  1.00  0.00     0.135 A 
ATOM     86  C   UNL A   1      44.878  33.133  29.152  1.00  0.00     0.135 A 
ATOM     87  F   UNL A   1      42.682  31.294  31.261  1.00  0.00    -0.206 F 
ATOM     88  C   UNL A   1      43.759  33.311  31.664  1.00  0.00     0.059 A 
ATOM     89  C   UNL A   1      44.992  34.282  29.966  1.00  0.00     0.059 A 
ATOM     90  F   UNL A   1      45.424  33.137  27.925  1.00  0.00    -0.206 F 
ATOM     91  C   UNL A   1      44.740  34.228  31.337  1.00  0.00     0.060 A 
BRANCH  91  92
ATOM     92  S   UNL A   1      45.588  35.143  32.827  1.00  0.00     0.124 S 
ATOM     93  O   UNL A   1      45.209  34.371  33.969  1.00  0.00    -0.237 OA
ATOM     94  O   UNL A   1      47.011  35.018  32.531  1.00  0.00    -0.237 OA
ATOM     95  O   UNL A   1      45.045  36.456  33.041  1.00  0.00    -0.744 OA
ENDBRANCH  91  92
ENDBRANCH  59  84
BRANCH  71  96
ATOM     96  C   UNL A   1      45.622  25.489  33.104  1.00  0.00     0.058 A 
ATOM     97  C   UNL A   1      46.853  24.958  33.519  1.00  0.00     0.135 A 
ATOM     98  C   UNL A   1      44.533  25.289  33.987  1.00  0.00     0.135 A 
ATOM     99  F   UNL A   1      47.982  25.188  32.832  1.00  0.00    -0.206 F 
ATOM    100  C   UNL A   1      46.977  24.198  34.680  1.00  0.00     0.059 A 
ATOM    101  C   UNL A   1      44.649  24.590  35.180  1.00  0.00     0.059 A 
ATOM    102  F   UNL A   1      43.311  25.777  33.726  1.00  0.00    -0.206 F 
ATOM    103  C   UNL A   1      45.868  24.014  35.500  1.00  0.00     0.060 A 
BRANCH 103 104
ATOM    104  S   UNL A   1      46.035  23.039  37.001  1.00  0.00     0.124 S 
ATOM    105  O   UNL A   1      47.472  23.130  37.241  1.00  0.00    -0.237 OA
ATOM    106  O   UNL A   1      45.189  23.762  37.946  1.00  0.00    -0.237 OA
ATOM    107  O   UNL A   1      45.541  21.723  36.608  1.00  0.00    -0.744 OA
ENDBRANCH 103 104
ENDBRANCH  71  96
ENDBRANCH  45  46
ENDBRANCH  37  40
ENDBRANCH  35  36
ENDBRANCH  34  35
ENDBRANCH   1  34
TORSDOF 18
ENDMDL
