MODEL 1
REMARK VINA RESULT:     -12.7      0.000      0.000
REMARK SMILES C[NH+]1CCC2(CC1)OC[C@H](C(=O)NCCCCNC(=O)c1ccc(-c3c4nc(c(-c5c(F)cc(S(=O)(=O)[O-])cc5F)c5ccc([nH]5)c(-c5c(F)cc(S(=O)(=O)[O-])cc5F)c5nc(c(-c6c(F)cc(S(=O)(=O)[O-])cc6F)c6ccc3[nH]6)C=C5)C=C4)cc1)N2C(=O)c1cc(C(F)(F)F)cc(C(F)(F)F)c1
REMARK SMILES IDX 15 1 14 2 13 3 11 4 12 5 10 7 1 8 2 9 3 10 7 11 4 13 6 14
REMARK SMILES IDX 5 15 8 16 87 17 9 18 88 19 89 20 90 21 91 22 103 23 92 24
REMARK SMILES IDX 98 25 97 26 93 27 94 28 95 29 96 30 99 31 100 32 101 33
REMARK SMILES IDX 102 34 16 35 17 36 18 37 19 38 20 40 21 41 22 42 86 43 23 44
REMARK SMILES IDX 85 45 24 46 25 47 26 48 79 49 27 50 84 51 78 52 80 53 28 54
REMARK SMILES IDX 83 55 77 56 76 57 29 59 63 60 42 61 62 62 43 63 46 64 61 65
REMARK SMILES IDX 81 66 44 67 45 68 60 70 82 71 47 72 30 73 31 74 40 75 32 76
REMARK SMILES IDX 33 77 39 78 41 79 34 80 35 81 36 82 37 83 38 84 64 85 65 86
REMARK SMILES IDX 74 87 66 88 67 89 73 90 75 91 68 92 69 93 70 94 71 95 72 96
REMARK SMILES IDX 48 97 49 98 58 99 50 100 51 101 57 102 59 103 52 104 53 105
REMARK SMILES IDX 54 106 55 107 56 108
REMARK H PARENT 13 6 2 12 18 39 80 58 46 69
REMARK Flexibility Score: inf
ROOT
ATOM      1  C   UNL A   1      39.681  21.480  26.071  1.00  0.00     0.023 C 
ENDROOT
BRANCH   1   2
ATOM      2  C   UNL A   1      38.226  21.567  25.615  1.00  0.00     0.116 C 
BRANCH   2   3
ATOM      3  N   UNL A   1      37.561  22.743  26.142  1.00  0.00    -0.354 N 
ATOM      4  C   UNL A   1      36.397  23.346  25.776  1.00  0.00     0.245 C 
ATOM      5  O   UNL A   1      36.100  24.376  26.385  1.00  0.00    -0.273 OA
ATOM      6  H   UNL A   1      38.030  23.179  26.890  1.00  0.00     0.163 HD
BRANCH   4   7
ATOM      7  C   UNL A   1      35.520  22.775  24.641  1.00  0.00     0.203 C 
ATOM      8  C   UNL A   1      29.617  22.771  27.144  1.00  0.00     0.332 C 
ATOM      9  N   UNL A   1      30.604  23.431  26.304  1.00  0.00    -0.337 N 
ATOM     10  C   UNL A   1      31.823  23.812  27.000  1.00  0.00     0.267 C 
ATOM     11  C   UNL A   1      30.742  22.843  24.977  1.00  0.00     0.267 C 
ATOM     12  H   UNL A   1      30.213  24.345  26.080  1.00  0.00     0.347 HD
ATOM     13  C   UNL A   1      32.978  22.858  26.840  1.00  0.00     0.120 C 
ATOM     14  C   UNL A   1      31.968  21.974  24.722  1.00  0.00     0.120 C 
ATOM     15  C   UNL A   1      33.263  22.446  25.391  1.00  0.00     0.155 C 
ATOM     16  O   UNL A   1      34.026  21.202  25.549  1.00  0.00    -0.352 OA
ATOM     17  N   UNL A   1      34.169  23.326  24.606  1.00  0.00    -0.295 N 
ATOM     18  C   UNL A   1      35.281  21.307  24.880  1.00  0.00     0.198 C 
BRANCH  17  19
ATOM     19  C   UNL A   1      34.011  24.449  23.799  1.00  0.00     0.256 C 
ATOM     20  O   UNL A   1      34.404  24.480  22.631  1.00  0.00    -0.269 OA
BRANCH  19  21
ATOM     21  C   UNL A   1      33.277  25.652  24.211  1.00  0.00     0.041 A 
ATOM     22  C   UNL A   1      33.845  26.499  25.174  1.00  0.00     0.027 A 
ATOM     23  C   UNL A   1      31.980  25.887  23.763  1.00  0.00     0.027 A 
ATOM     24  C   UNL A   1      33.167  27.659  25.588  1.00  0.00     0.057 A 
ATOM     25  C   UNL A   1      31.343  27.104  24.056  1.00  0.00     0.057 A 
ATOM     26  C   UNL A   1      31.936  27.973  24.988  1.00  0.00     0.026 A 
BRANCH  24  27
ATOM     27  C   UNL A   1      33.763  28.553  26.652  1.00  0.00     0.416 C 
ATOM     28  F   UNL A   1      33.000  28.601  27.778  1.00  0.00    -0.166 F 
ATOM     29  F   UNL A   1      34.997  28.139  27.049  1.00  0.00    -0.166 F 
ATOM     30  F   UNL A   1      33.917  29.846  26.249  1.00  0.00    -0.166 F 
ENDBRANCH  24  27
BRANCH  25  31
ATOM     31  C   UNL A   1      30.091  27.525  23.320  1.00  0.00     0.416 C 
ATOM     32  F   UNL A   1      29.673  28.771  23.671  1.00  0.00    -0.166 F 
ATOM     33  F   UNL A   1      30.285  27.568  21.971  1.00  0.00    -0.166 F 
ATOM     34  F   UNL A   1      29.031  26.696  23.520  1.00  0.00    -0.166 F 
ENDBRANCH  25  31
ENDBRANCH  19  21
ENDBRANCH  17  19
ENDBRANCH   4   7
ENDBRANCH   2   3
ENDBRANCH   1   2
BRANCH   1  35
ATOM     35  C   UNL A   1      40.039  22.356  27.274  1.00  0.00     0.023 C 
BRANCH  35  36
ATOM     36  C   UNL A   1      41.363  23.103  27.174  1.00  0.00     0.116 C 
BRANCH  36  37
ATOM     37  N   UNL A   1      41.404  24.042  26.065  1.00  0.00    -0.352 N 
ATOM     38  C   UNL A   1      41.271  25.413  26.078  1.00  0.00     0.251 C 
ATOM     39  H   UNL A   1      41.548  23.642  25.177  1.00  0.00     0.163 HD
ATOM     40  O   UNL A   1      41.207  26.033  25.029  1.00  0.00    -0.269 OA
BRANCH  38  41
ATOM     41  C   UNL A   1      41.172  26.122  27.375  1.00  0.00     0.039 A 
ATOM     42  C   UNL A   1      42.232  26.940  27.775  1.00  0.00     0.014 A 
ATOM     43  C   UNL A   1      40.033  26.002  28.175  1.00  0.00     0.014 A 
ATOM     44  C   UNL A   1      42.117  27.693  28.946  1.00  0.00     0.010 A 
ATOM     45  C   UNL A   1      39.891  26.809  29.299  1.00  0.00     0.010 A 
ATOM     46  C   UNL A   1      40.931  27.665  29.696  1.00  0.00    -0.014 A 
BRANCH  46  47
ATOM     47  C   UNL A   1      40.750  28.531  30.891  1.00  0.00     0.031 A 
ATOM     48  C   UNL A   1      39.701  29.610  30.890  1.00  0.00     0.074 A 
ATOM     49  C   UNL A   1      41.583  28.398  31.943  1.00  0.00     0.049 A 
ATOM     50  N   UNL A   1      39.452  30.519  31.798  1.00  0.00    -0.248 NA
ATOM     51  C   UNL A   1      38.841  29.697  29.700  1.00  0.00     0.031 C 
ATOM     52  C   UNL A   1      42.674  27.427  32.040  1.00  0.00     0.029 A 
ATOM     53  N   UNL A   1      41.654  29.095  33.124  1.00  0.00    -0.354 N 
ATOM     54  C   UNL A   1      38.422  31.298  31.281  1.00  0.00     0.074 A 
ATOM     55  C   UNL A   1      38.129  30.784  29.961  1.00  0.00     0.031 C 
ATOM     56  C   UNL A   1      43.295  27.579  33.222  1.00  0.00     0.029 A 
ATOM     57  C   UNL A   1      42.675  28.683  33.948  1.00  0.00     0.049 A 
ATOM     58  H   UNL A   1      41.032  29.821  33.360  1.00  0.00     0.167 HD
ATOM     59  C   UNL A   1      37.769  32.333  31.861  1.00  0.00     0.037 A 
ATOM     60  C   UNL A   1      43.077  29.149  35.147  1.00  0.00     0.037 A 
ATOM     61  C   UNL A   1      38.051  32.820  33.186  1.00  0.00     0.049 A 
ATOM     62  C   UNL A   1      42.329  30.291  35.779  1.00  0.00     0.074 A 
ATOM     63  C   UNL A   1      37.398  33.815  33.893  1.00  0.00     0.029 A 
ATOM     64  N   UNL A   1      39.070  32.354  34.005  1.00  0.00    -0.354 N 
ATOM     65  N   UNL A   1      41.310  30.968  35.307  1.00  0.00    -0.248 NA
ATOM     66  C   UNL A   1      42.778  30.727  37.108  1.00  0.00     0.031 C 
ATOM     67  C   UNL A   1      38.053  33.984  35.118  1.00  0.00     0.029 A 
ATOM     68  C   UNL A   1      39.079  33.056  35.198  1.00  0.00     0.049 A 
ATOM     69  H   UNL A   1      39.694  31.629  33.771  1.00  0.00     0.167 HD
ATOM     70  C   UNL A   1      40.979  31.894  36.291  1.00  0.00     0.074 A 
ATOM     71  C   UNL A   1      41.900  31.680  37.389  1.00  0.00     0.031 C 
ATOM     72  C   UNL A   1      39.998  32.830  36.287  1.00  0.00     0.037 A 
BRANCH  59  73
ATOM     73  C   UNL A   1      36.689  33.011  31.063  1.00  0.00     0.058 A 
ATOM     74  C   UNL A   1      36.986  33.846  29.974  1.00  0.00     0.135 A 
ATOM     75  C   UNL A   1      35.335  32.801  31.375  1.00  0.00     0.135 A 
ATOM     76  F   UNL A   1      38.261  34.093  29.640  1.00  0.00    -0.206 F 
ATOM     77  C   UNL A   1      35.983  34.478  29.247  1.00  0.00     0.059 A 
ATOM     78  C   UNL A   1      34.314  33.399  30.641  1.00  0.00     0.059 A 
ATOM     79  F   UNL A   1      34.992  32.011  32.404  1.00  0.00    -0.206 F 
ATOM     80  C   UNL A   1      34.649  34.250  29.589  1.00  0.00     0.060 A 
BRANCH  80  81
ATOM     81  S   UNL A   1      33.360  35.082  28.639  1.00  0.00     0.124 S 
ATOM     82  O   UNL A   1      32.869  33.993  27.800  1.00  0.00    -0.237 OA
ATOM     83  O   UNL A   1      32.447  35.539  29.683  1.00  0.00    -0.237 OA
ATOM     84  O   UNL A   1      34.082  36.138  27.936  1.00  0.00    -0.744 OA
ENDBRANCH  80  81
ENDBRANCH  59  73
BRANCH  60  85
ATOM     85  C   UNL A   1      44.235  28.517  35.833  1.00  0.00     0.058 A 
ATOM     86  C   UNL A   1      44.058  27.420  36.688  1.00  0.00     0.135 A 
ATOM     87  C   UNL A   1      45.546  28.977  35.624  1.00  0.00     0.135 A 
ATOM     88  F   UNL A   1      42.825  26.948  36.926  1.00  0.00    -0.206 F 
ATOM     89  C   UNL A   1      45.135  26.805  37.319  1.00  0.00     0.059 A 
ATOM     90  C   UNL A   1      46.641  28.364  36.224  1.00  0.00     0.059 A 
ATOM     91  F   UNL A   1      45.771  30.014  34.802  1.00  0.00    -0.206 F 
ATOM     92  C   UNL A   1      46.424  27.283  37.076  1.00  0.00     0.060 A 
BRANCH  92  93
ATOM     93  S   UNL A   1      47.821  26.436  37.850  1.00  0.00     0.124 S 
ATOM     94  O   UNL A   1      48.801  26.440  36.770  1.00  0.00    -0.237 OA
ATOM     95  O   UNL A   1      48.115  27.306  38.984  1.00  0.00    -0.237 OA
ATOM     96  O   UNL A   1      47.269  25.130  38.199  1.00  0.00    -0.744 OA
ENDBRANCH  92  93
ENDBRANCH  60  85
BRANCH  72  97
ATOM     97  C   UNL A   1      39.841  33.678  37.520  1.00  0.00     0.058 A 
ATOM     98  C   UNL A   1      40.496  34.911  37.658  1.00  0.00     0.135 A 
ATOM     99  C   UNL A   1      38.975  33.276  38.550  1.00  0.00     0.135 A 
ATOM    100  F   UNL A   1      41.340  35.340  36.707  1.00  0.00    -0.206 F 
ATOM    101  C   UNL A   1      40.314  35.707  38.785  1.00  0.00     0.059 A 
ATOM    102  C   UNL A   1      38.756  34.069  39.672  1.00  0.00     0.059 A 
ATOM    103  F   UNL A   1      38.315  32.110  38.462  1.00  0.00    -0.206 F 
ATOM    104  C   UNL A   1      39.438  35.279  39.786  1.00  0.00     0.060 A 
BRANCH 104 105
ATOM    105  S   UNL A   1      39.181  36.339  41.224  1.00  0.00     0.124 S 
ATOM    106  O   UNL A   1      40.476  36.251  41.890  1.00  0.00    -0.237 OA
ATOM    107  O   UNL A   1      38.869  37.627  40.611  1.00  0.00    -0.237 OA
ATOM    108  O   UNL A   1      38.070  35.700  41.922  1.00  0.00    -0.744 OA
ENDBRANCH 104 105
ENDBRANCH  72  97
ENDBRANCH  46  47
ENDBRANCH  38  41
ENDBRANCH  36  37
ENDBRANCH  35  36
ENDBRANCH   1  35
TORSDOF 18
ENDMDL
MODEL 2
REMARK VINA RESULT:     -12.6      0.664      7.775
REMARK SMILES C[NH+]1CCC2(CC1)OC[C@H](C(=O)NCCCCNC(=O)c1ccc(-c3c4nc(c(-c5c(F)cc(S(=O)(=O)[O-])cc5F)c5ccc([nH]5)c(-c5c(F)cc(S(=O)(=O)[O-])cc5F)c5nc(c(-c6c(F)cc(S(=O)(=O)[O-])cc6F)c6ccc3[nH]6)C=C5)C=C4)cc1)N2C(=O)c1cc(C(F)(F)F)cc(C(F)(F)F)c1
REMARK SMILES IDX 15 1 14 2 13 3 11 4 12 5 10 7 1 8 2 9 3 10 7 11 4 13 6 14
REMARK SMILES IDX 5 15 8 16 87 17 9 18 88 19 89 20 90 21 91 22 103 23 92 24
REMARK SMILES IDX 98 25 97 26 93 27 94 28 95 29 96 30 99 31 100 32 101 33
REMARK SMILES IDX 102 34 16 35 17 36 18 37 19 38 20 40 21 41 22 42 86 43 23 44
REMARK SMILES IDX 85 45 24 46 25 47 26 48 79 49 27 50 84 51 78 52 80 53 28 54
REMARK SMILES IDX 83 55 77 56 76 57 29 59 63 60 42 61 62 62 43 63 46 64 61 65
REMARK SMILES IDX 81 66 44 67 45 68 60 70 82 71 47 72 30 73 31 74 40 75 32 76
REMARK SMILES IDX 33 77 39 78 41 79 34 80 35 81 36 82 37 83 38 84 64 85 65 86
REMARK SMILES IDX 74 87 66 88 67 89 73 90 75 91 68 92 69 93 70 94 71 95 72 96
REMARK SMILES IDX 48 97 49 98 58 99 50 100 51 101 57 102 59 103 52 104 53 105
REMARK SMILES IDX 54 106 55 107 56 108
REMARK H PARENT 13 6 2 12 18 39 80 58 46 69
REMARK Flexibility Score: inf
ROOT
ATOM      1  C   UNL A   1      40.110  21.420  26.489  1.00  0.00     0.023 C 
ENDROOT
BRANCH   1   2
ATOM      2  C   UNL A   1      38.908  21.812  25.633  1.00  0.00     0.116 C 
BRANCH   2   3
ATOM      3  N   UNL A   1      38.049  22.765  26.307  1.00  0.00    -0.354 N 
ATOM      4  C   UNL A   1      36.753  23.113  26.076  1.00  0.00     0.245 C 
ATOM      5  O   UNL A   1      36.290  24.002  26.795  1.00  0.00    -0.273 OA
ATOM      6  H   UNL A   1      38.473  23.240  27.058  1.00  0.00     0.163 HD
BRANCH   4   7
ATOM      7  C   UNL A   1      35.929  22.442  24.957  1.00  0.00     0.203 C 
ATOM      8  C   UNL A   1      29.883  22.897  27.044  1.00  0.00     0.332 C 
ATOM      9  N   UNL A   1      30.945  23.427  26.203  1.00  0.00    -0.337 N 
ATOM     10  C   UNL A   1      32.131  23.850  26.932  1.00  0.00     0.267 C 
ATOM     11  C   UNL A   1      31.144  22.687  24.963  1.00  0.00     0.267 C 
ATOM     12  H   UNL A   1      30.603  24.321  25.853  1.00  0.00     0.347 HD
ATOM     13  C   UNL A   1      33.258  22.850  26.957  1.00  0.00     0.120 C 
ATOM     14  C   UNL A   1      32.351  21.760  24.890  1.00  0.00     0.120 C 
ATOM     15  C   UNL A   1      33.618  22.267  25.586  1.00  0.00     0.155 C 
ATOM     16  O   UNL A   1      34.324  21.027  25.934  1.00  0.00    -0.352 OA
ATOM     17  N   UNL A   1      34.603  23.025  24.770  1.00  0.00    -0.295 N 
ATOM     18  C   UNL A   1      35.621  21.019  25.342  1.00  0.00     0.198 C 
BRANCH  17  19
ATOM     19  C   UNL A   1      34.538  24.052  23.833  1.00  0.00     0.256 C 
ATOM     20  O   UNL A   1      35.049  23.955  22.715  1.00  0.00    -0.269 OA
BRANCH  19  21
ATOM     21  C   UNL A   1      33.776  25.291  24.034  1.00  0.00     0.041 A 
ATOM     22  C   UNL A   1      34.137  26.149  25.082  1.00  0.00     0.027 A 
ATOM     23  C   UNL A   1      32.628  25.553  23.291  1.00  0.00     0.027 A 
ATOM     24  C   UNL A   1      33.428  27.344  25.299  1.00  0.00     0.057 A 
ATOM     25  C   UNL A   1      31.988  26.798  23.398  1.00  0.00     0.057 A 
ATOM     26  C   UNL A   1      32.382  27.677  24.421  1.00  0.00     0.026 A 
BRANCH  24  27
ATOM     27  C   UNL A   1      33.794  28.252  26.450  1.00  0.00     0.416 C 
ATOM     28  F   UNL A   1      33.446  29.548  26.222  1.00  0.00    -0.166 F 
ATOM     29  F   UNL A   1      33.181  27.895  27.611  1.00  0.00    -0.166 F 
ATOM     30  F   UNL A   1      35.129  28.266  26.724  1.00  0.00    -0.166 F 
ENDBRANCH  24  27
BRANCH  25  31
ATOM     31  C   UNL A   1      30.958  27.235  22.380  1.00  0.00     0.416 C 
ATOM     32  F   UNL A   1      29.683  27.068  22.823  1.00  0.00    -0.166 F 
ATOM     33  F   UNL A   1      31.074  28.559  22.076  1.00  0.00    -0.166 F 
ATOM     34  F   UNL A   1      31.042  26.570  21.196  1.00  0.00    -0.166 F 
ENDBRANCH  25  31
ENDBRANCH  19  21
ENDBRANCH  17  19
ENDBRANCH   4   7
ENDBRANCH   2   3
ENDBRANCH   1   2
BRANCH   1  35
ATOM     35  C   UNL A   1      40.393  22.344  27.676  1.00  0.00     0.023 C 
BRANCH  35  36
ATOM     36  C   UNL A   1      41.755  23.027  27.669  1.00  0.00     0.116 C 
BRANCH  36  37
ATOM     37  N   UNL A   1      42.076  23.642  26.391  1.00  0.00    -0.352 N 
ATOM     38  C   UNL A   1      42.037  24.970  26.029  1.00  0.00     0.251 C 
ATOM     39  H   UNL A   1      42.363  23.021  25.683  1.00  0.00     0.163 HD
ATOM     40  O   UNL A   1      42.223  25.295  24.867  1.00  0.00    -0.269 OA
BRANCH  38  41
ATOM     41  C   UNL A   1      41.735  25.996  27.054  1.00  0.00     0.039 A 
ATOM     42  C   UNL A   1      40.619  25.817  27.875  1.00  0.00     0.014 A 
ATOM     43  C   UNL A   1      42.562  27.109  27.222  1.00  0.00     0.014 A 
ATOM     44  C   UNL A   1      40.373  26.720  28.912  1.00  0.00     0.010 A 
ATOM     45  C   UNL A   1      42.357  27.965  28.301  1.00  0.00     0.010 A 
ATOM     46  C   UNL A   1      41.262  27.778  29.158  1.00  0.00    -0.014 A 
BRANCH  46  47
ATOM     47  C   UNL A   1      41.074  28.694  30.314  1.00  0.00     0.031 A 
ATOM     48  C   UNL A   1      41.913  28.532  31.551  1.00  0.00     0.074 A 
ATOM     49  C   UNL A   1      40.092  29.619  30.279  1.00  0.00     0.049 A 
ATOM     50  N   UNL A   1      41.838  29.172  32.690  1.00  0.00    -0.248 NA
ATOM     51  C   UNL A   1      42.954  27.493  31.514  1.00  0.00     0.031 C 
ATOM     52  C   UNL A   1      39.175  29.836  29.158  1.00  0.00     0.029 A 
ATOM     53  N   UNL A   1      39.690  30.535  31.219  1.00  0.00    -0.354 N 
ATOM     54  C   UNL A   1      42.804  28.601  33.510  1.00  0.00     0.074 A 
ATOM     55  C   UNL A   1      43.419  27.531  32.755  1.00  0.00     0.031 C 
ATOM     56  C   UNL A   1      38.328  30.832  29.469  1.00  0.00     0.029 A 
ATOM     57  C   UNL A   1      38.614  31.295  30.823  1.00  0.00     0.049 A 
ATOM     58  H   UNL A   1      40.130  30.639  32.094  1.00  0.00     0.167 HD
ATOM     59  C   UNL A   1      43.160  28.950  34.770  1.00  0.00     0.037 A 
ATOM     60  C   UNL A   1      37.925  32.249  31.481  1.00  0.00     0.037 A 
ATOM     61  C   UNL A   1      42.561  30.034  35.504  1.00  0.00     0.049 A 
ATOM     62  C   UNL A   1      38.346  32.630  32.875  1.00  0.00     0.074 A 
ATOM     63  C   UNL A   1      42.900  30.513  36.758  1.00  0.00     0.029 A 
ATOM     64  N   UNL A   1      41.497  30.805  35.057  1.00  0.00    -0.354 N 
ATOM     65  N   UNL A   1      39.310  32.128  33.608  1.00  0.00    -0.248 NA
ATOM     66  C   UNL A   1      37.592  33.709  33.527  1.00  0.00     0.031 C 
ATOM     67  C   UNL A   1      42.009  31.541  37.089  1.00  0.00     0.029 A 
ATOM     68  C   UNL A   1      41.151  31.740  36.018  1.00  0.00     0.049 A 
ATOM     69  H   UNL A   1      41.054  30.702  34.183  1.00  0.00     0.167 HD
ATOM     70  C   UNL A   1      39.297  32.848  34.799  1.00  0.00     0.074 A 
ATOM     71  C   UNL A   1      38.235  33.827  34.681  1.00  0.00     0.031 C 
ATOM     72  C   UNL A   1      40.095  32.714  35.887  1.00  0.00     0.037 A 
BRANCH  59  73
ATOM     73  C   UNL A   1      44.245  28.147  35.435  1.00  0.00     0.058 A 
ATOM     74  C   UNL A   1      45.601  28.491  35.312  1.00  0.00     0.135 A 
ATOM     75  C   UNL A   1      43.923  27.034  36.229  1.00  0.00     0.135 A 
ATOM     76  F   UNL A   1      45.968  29.536  34.555  1.00  0.00    -0.206 F 
ATOM     77  C   UNL A   1      46.601  27.739  35.921  1.00  0.00     0.059 A 
ATOM     78  C   UNL A   1      44.905  26.286  36.873  1.00  0.00     0.059 A 
ATOM     79  F   UNL A   1      42.643  26.661  36.384  1.00  0.00    -0.206 F 
ATOM     80  C   UNL A   1      46.243  26.636  36.698  1.00  0.00     0.060 A 
BRANCH  80  81
ATOM     81  S   UNL A   1      47.552  25.668  37.476  1.00  0.00     0.124 S 
ATOM     82  O   UNL A   1      47.286  25.905  38.892  1.00  0.00    -0.237 OA
ATOM     83  O   UNL A   1      47.270  24.318  36.997  1.00  0.00    -0.237 OA
ATOM     84  O   UNL A   1      48.776  26.271  36.959  1.00  0.00    -0.744 OA
ENDBRANCH  80  81
ENDBRANCH  59  73
BRANCH  60  85
ATOM     85  C   UNL A   1      36.778  32.922  30.815  1.00  0.00     0.058 A 
ATOM     86  C   UNL A   1      35.459  32.508  31.055  1.00  0.00     0.135 A 
ATOM     87  C   UNL A   1      36.974  34.012  29.952  1.00  0.00     0.135 A 
ATOM     88  F   UNL A   1      35.221  31.466  31.866  1.00  0.00    -0.206 F 
ATOM     89  C   UNL A   1      34.375  33.143  30.456  1.00  0.00     0.059 A 
ATOM     90  C   UNL A   1      35.905  34.679  29.362  1.00  0.00     0.059 A 
ATOM     91  F   UNL A   1      38.215  34.458  29.703  1.00  0.00    -0.206 F 
ATOM     92  C   UNL A   1      34.610  34.232  29.615  1.00  0.00     0.060 A 
BRANCH  92  93
ATOM     93  S   UNL A   1      33.192  35.089  28.894  1.00  0.00     0.124 S 
ATOM     94  O   UNL A   1      33.832  36.238  28.264  1.00  0.00    -0.237 OA
ATOM     95  O   UNL A   1      32.652  34.080  27.988  1.00  0.00    -0.237 OA
ATOM     96  O   UNL A   1      32.356  35.389  30.054  1.00  0.00    -0.744 OA
ENDBRANCH  92  93
ENDBRANCH  60  85
BRANCH  72  97
ATOM     97  C   UNL A   1      39.879  33.667  37.030  1.00  0.00     0.058 A 
ATOM     98  C   UNL A   1      40.460  34.944  37.049  1.00  0.00     0.135 A 
ATOM     99  C   UNL A   1      39.029  33.317  38.092  1.00  0.00     0.135 A 
ATOM    100  F   UNL A   1      41.286  35.326  36.062  1.00  0.00    -0.206 F 
ATOM    101  C   UNL A   1      40.222  35.834  38.092  1.00  0.00     0.059 A 
ATOM    102  C   UNL A   1      38.755  34.202  39.131  1.00  0.00     0.059 A 
ATOM    103  F   UNL A   1      38.439  32.112  38.117  1.00  0.00    -0.206 F 
ATOM    104  C   UNL A   1      39.365  35.455  39.127  1.00  0.00     0.060 A 
BRANCH 104 105
ATOM    105  S   UNL A   1      39.034  36.634  40.454  1.00  0.00     0.124 S 
ATOM    106  O   UNL A   1      37.998  35.941  41.211  1.00  0.00    -0.237 OA
ATOM    107  O   UNL A   1      40.335  36.740  41.109  1.00  0.00    -0.237 OA
ATOM    108  O   UNL A   1      38.600  37.832  39.742  1.00  0.00    -0.744 OA
ENDBRANCH 104 105
ENDBRANCH  72  97
ENDBRANCH  46  47
ENDBRANCH  38  41
ENDBRANCH  36  37
ENDBRANCH  35  36
ENDBRANCH   1  35
TORSDOF 18
ENDMDL
MODEL 3
REMARK VINA RESULT:     -12.6      0.681      7.940
REMARK SMILES C[NH+]1CCC2(CC1)OC[C@H](C(=O)NCCCCNC(=O)c1ccc(-c3c4nc(c(-c5c(F)cc(S(=O)(=O)[O-])cc5F)c5ccc([nH]5)c(-c5c(F)cc(S(=O)(=O)[O-])cc5F)c5nc(c(-c6c(F)cc(S(=O)(=O)[O-])cc6F)c6ccc3[nH]6)C=C5)C=C4)cc1)N2C(=O)c1cc(C(F)(F)F)cc(C(F)(F)F)c1
REMARK SMILES IDX 15 1 14 2 13 3 11 4 12 5 10 7 1 8 2 9 3 10 7 11 4 13 6 14
REMARK SMILES IDX 5 15 8 16 87 17 9 18 88 19 89 20 90 21 91 22 103 23 92 24
REMARK SMILES IDX 98 25 97 26 93 27 94 28 95 29 96 30 99 31 100 32 101 33
REMARK SMILES IDX 102 34 16 35 17 36 18 37 19 38 20 40 21 41 22 42 86 43 23 44
REMARK SMILES IDX 85 45 24 46 25 47 26 48 79 49 27 50 84 51 78 52 80 53 28 54
REMARK SMILES IDX 83 55 77 56 76 57 29 59 63 60 42 61 62 62 43 63 46 64 61 65
REMARK SMILES IDX 81 66 44 67 45 68 60 70 82 71 47 72 30 73 31 74 40 75 32 76
REMARK SMILES IDX 33 77 39 78 41 79 34 80 35 81 36 82 37 83 38 84 64 85 65 86
REMARK SMILES IDX 74 87 66 88 67 89 73 90 75 91 68 92 69 93 70 94 71 95 72 96
REMARK SMILES IDX 48 97 49 98 58 99 50 100 51 101 57 102 59 103 52 104 53 105
REMARK SMILES IDX 54 106 55 107 56 108
REMARK H PARENT 13 6 2 12 18 39 80 58 46 69
REMARK Flexibility Score: inf
ROOT
ATOM      1  C   UNL A   1      40.006  21.260  26.728  1.00  0.00     0.023 C 
ENDROOT
BRANCH   1   2
ATOM      2  C   UNL A   1      38.950  21.772  25.751  1.00  0.00     0.116 C 
BRANCH   2   3
ATOM      3  N   UNL A   1      38.110  22.793  26.346  1.00  0.00    -0.354 N 
ATOM      4  C   UNL A   1      36.836  23.176  26.056  1.00  0.00     0.245 C 
ATOM      5  O   UNL A   1      36.388  24.120  26.711  1.00  0.00    -0.273 OA
ATOM      6  H   UNL A   1      38.530  23.292  27.082  1.00  0.00     0.163 HD
BRANCH   4   7
ATOM      7  C   UNL A   1      36.019  22.476  24.950  1.00  0.00     0.203 C 
ATOM      8  C   UNL A   1      29.975  22.859  27.055  1.00  0.00     0.332 C 
ATOM      9  N   UNL A   1      31.024  23.395  26.203  1.00  0.00    -0.337 N 
ATOM     10  C   UNL A   1      32.206  23.848  26.920  1.00  0.00     0.267 C 
ATOM     11  C   UNL A   1      31.231  22.642  24.971  1.00  0.00     0.267 C 
ATOM     12  H   UNL A   1      30.666  24.279  25.841  1.00  0.00     0.347 HD
ATOM     13  C   UNL A   1      33.350  22.868  26.955  1.00  0.00     0.120 C 
ATOM     14  C   UNL A   1      32.453  21.734  24.907  1.00  0.00     0.120 C 
ATOM     15  C   UNL A   1      33.714  22.272  25.590  1.00  0.00     0.155 C 
ATOM     16  O   UNL A   1      34.442  21.049  25.953  1.00  0.00    -0.352 OA
ATOM     17  N   UNL A   1      34.684  23.034  24.760  1.00  0.00    -0.295 N 
ATOM     18  C   UNL A   1      35.737  21.054  25.355  1.00  0.00     0.198 C 
BRANCH  17  19
ATOM     19  C   UNL A   1      34.597  24.047  23.809  1.00  0.00     0.256 C 
ATOM     20  O   UNL A   1      35.069  23.927  22.676  1.00  0.00    -0.269 OA
BRANCH  19  21
ATOM     21  C   UNL A   1      33.856  25.298  24.016  1.00  0.00     0.041 A 
ATOM     22  C   UNL A   1      32.792  25.608  23.156  1.00  0.00     0.027 A 
ATOM     23  C   UNL A   1      34.279  26.232  24.957  1.00  0.00     0.027 A 
ATOM     24  C   UNL A   1      32.063  26.798  23.330  1.00  0.00     0.057 A 
ATOM     25  C   UNL A   1      33.487  27.357  25.238  1.00  0.00     0.057 A 
ATOM     26  C   UNL A   1      32.393  27.642  24.403  1.00  0.00     0.026 A 
BRANCH  24  27
ATOM     27  C   UNL A   1      30.939  27.150  22.382  1.00  0.00     0.416 C 
ATOM     28  F   UNL A   1      31.023  26.477  21.202  1.00  0.00    -0.166 F 
ATOM     29  F   UNL A   1      29.713  26.858  22.896  1.00  0.00    -0.166 F 
ATOM     30  F   UNL A   1      30.900  28.473  22.057  1.00  0.00    -0.166 F 
ENDBRANCH  24  27
BRANCH  25  31
ATOM     31  C   UNL A   1      33.740  28.200  26.468  1.00  0.00     0.416 C 
ATOM     32  F   UNL A   1      34.990  28.023  26.974  1.00  0.00    -0.166 F 
ATOM     33  F   UNL A   1      33.635  29.533  26.201  1.00  0.00    -0.166 F 
ATOM     34  F   UNL A   1      32.875  27.953  27.489  1.00  0.00    -0.166 F 
ENDBRANCH  25  31
ENDBRANCH  19  21
ENDBRANCH  17  19
ENDBRANCH   4   7
ENDBRANCH   2   3
ENDBRANCH   1   2
BRANCH   1  35
ATOM     35  C   UNL A   1      41.434  21.736  26.451  1.00  0.00     0.023 C 
BRANCH  35  36
ATOM     36  C   UNL A   1      41.749  23.162  26.885  1.00  0.00     0.116 C 
BRANCH  36  37
ATOM     37  N   UNL A   1      42.033  24.047  25.768  1.00  0.00    -0.352 N 
ATOM     38  C   UNL A   1      42.089  25.423  25.738  1.00  0.00     0.251 C 
ATOM     39  H   UNL A   1      42.210  23.600  24.908  1.00  0.00     0.163 HD
ATOM     40  O   UNL A   1      42.221  26.009  24.675  1.00  0.00    -0.269 OA
BRANCH  38  41
ATOM     41  C   UNL A   1      41.957  26.184  27.002  1.00  0.00     0.039 A 
ATOM     42  C   UNL A   1      42.930  27.135  27.318  1.00  0.00     0.014 A 
ATOM     43  C   UNL A   1      40.868  25.979  27.853  1.00  0.00     0.014 A 
ATOM     44  C   UNL A   1      42.772  27.932  28.454  1.00  0.00     0.010 A 
ATOM     45  C   UNL A   1      40.676  26.824  28.942  1.00  0.00     0.010 A 
ATOM     46  C   UNL A   1      41.624  27.810  29.254  1.00  0.00    -0.014 A 
BRANCH  46  47
ATOM     47  C   UNL A   1      41.388  28.712  30.412  1.00  0.00     0.031 A 
ATOM     48  C   UNL A   1      42.211  28.567  31.663  1.00  0.00     0.074 A 
ATOM     49  C   UNL A   1      40.379  29.606  30.366  1.00  0.00     0.049 A 
ATOM     50  N   UNL A   1      42.097  29.197  32.804  1.00  0.00    -0.248 NA
ATOM     51  C   UNL A   1      43.284  27.562  31.637  1.00  0.00     0.031 C 
ATOM     52  C   UNL A   1      39.475  29.803  29.231  1.00  0.00     0.029 A 
ATOM     53  N   UNL A   1      39.932  30.503  31.305  1.00  0.00    -0.354 N 
ATOM     54  C   UNL A   1      43.066  28.651  33.637  1.00  0.00     0.074 A 
ATOM     55  C   UNL A   1      43.726  27.606  32.886  1.00  0.00     0.031 C 
ATOM     56  C   UNL A   1      38.592  30.769  29.533  1.00  0.00     0.029 A 
ATOM     57  C   UNL A   1      38.840  31.232  30.895  1.00  0.00     0.049 A 
ATOM     58  H   UNL A   1      40.354  30.614  32.188  1.00  0.00     0.167 HD
ATOM     59  C   UNL A   1      43.389  29.002  34.905  1.00  0.00     0.037 A 
ATOM     60  C   UNL A   1      38.111  32.159  31.547  1.00  0.00     0.037 A 
ATOM     61  C   UNL A   1      42.745  30.061  35.635  1.00  0.00     0.049 A 
ATOM     62  C   UNL A   1      38.496  32.543  32.950  1.00  0.00     0.074 A 
ATOM     63  C   UNL A   1      43.046  30.543  36.898  1.00  0.00     0.029 A 
ATOM     64  N   UNL A   1      41.665  30.802  35.175  1.00  0.00    -0.354 N 
ATOM     65  N   UNL A   1      39.463  32.067  33.697  1.00  0.00    -0.248 NA
ATOM     66  C   UNL A   1      37.698  33.594  33.596  1.00  0.00     0.031 C 
ATOM     67  C   UNL A   1      42.119  31.540  37.220  1.00  0.00     0.029 A 
ATOM     68  C   UNL A   1      41.274  31.719  36.136  1.00  0.00     0.049 A 
ATOM     69  H   UNL A   1      41.240  30.691  34.293  1.00  0.00     0.167 HD
ATOM     70  C   UNL A   1      39.407  32.778  34.892  1.00  0.00     0.074 A 
ATOM     71  C   UNL A   1      38.317  33.724  34.762  1.00  0.00     0.031 C 
ATOM     72  C   UNL A   1      40.190  32.661  35.993  1.00  0.00     0.037 A 
BRANCH  59  73
ATOM     73  C   UNL A   1      44.487  28.229  35.584  1.00  0.00     0.058 A 
ATOM     74  C   UNL A   1      45.834  28.615  35.487  1.00  0.00     0.135 A 
ATOM     75  C   UNL A   1      44.187  27.100  36.364  1.00  0.00     0.135 A 
ATOM     76  F   UNL A   1      46.181  29.677  34.744  1.00  0.00    -0.206 F 
ATOM     77  C   UNL A   1      46.846  27.890  36.108  1.00  0.00     0.059 A 
ATOM     78  C   UNL A   1      45.180  26.378  37.020  1.00  0.00     0.059 A 
ATOM     79  F   UNL A   1      42.917  26.686  36.494  1.00  0.00    -0.206 F 
ATOM     80  C   UNL A   1      46.509  26.771  36.871  1.00  0.00     0.060 A 
BRANCH  80  81
ATOM     81  S   UNL A   1      47.834  25.839  37.666  1.00  0.00     0.124 S 
ATOM     82  O   UNL A   1      47.089  25.054  38.646  1.00  0.00    -0.237 OA
ATOM     83  O   UNL A   1      48.400  25.086  36.550  1.00  0.00    -0.237 OA
ATOM     84  O   UNL A   1      48.698  26.877  38.219  1.00  0.00    -0.744 OA
ENDBRANCH  80  81
ENDBRANCH  59  73
BRANCH  60  85
ATOM     85  C   UNL A   1      36.955  32.801  30.866  1.00  0.00     0.058 A 
ATOM     86  C   UNL A   1      35.646  32.348  31.083  1.00  0.00     0.135 A 
ATOM     87  C   UNL A   1      37.133  33.900  30.010  1.00  0.00     0.135 A 
ATOM     88  F   UNL A   1      35.425  31.296  31.887  1.00  0.00    -0.206 F 
ATOM     89  C   UNL A   1      34.553  32.953  30.470  1.00  0.00     0.059 A 
ATOM     90  C   UNL A   1      36.054  34.537  29.405  1.00  0.00     0.059 A 
ATOM     91  F   UNL A   1      38.364  34.382  29.782  1.00  0.00    -0.206 F 
ATOM     92  C   UNL A   1      34.768  34.052  29.636  1.00  0.00     0.060 A 
BRANCH  92  93
ATOM     93  S   UNL A   1      33.337  34.870  28.897  1.00  0.00     0.124 S 
ATOM     94  O   UNL A   1      32.837  33.834  28.001  1.00  0.00    -0.237 OA
ATOM     95  O   UNL A   1      32.511  35.157  30.066  1.00  0.00    -0.237 OA
ATOM     96  O   UNL A   1      33.918  36.041  28.248  1.00  0.00    -0.744 OA
ENDBRANCH  92  93
ENDBRANCH  60  85
BRANCH  72  97
ATOM     97  C   UNL A   1      39.925  33.599  37.137  1.00  0.00     0.058 A 
ATOM     98  C   UNL A   1      40.558  34.848  37.233  1.00  0.00     0.135 A 
ATOM     99  C   UNL A   1      38.979  33.266  38.121  1.00  0.00     0.135 A 
ATOM    100  F   UNL A   1      41.475  35.213  36.324  1.00  0.00    -0.206 F 
ATOM    101  C   UNL A   1      40.276  35.726  38.275  1.00  0.00     0.059 A 
ATOM    102  C   UNL A   1      38.661  34.141  39.156  1.00  0.00     0.059 A 
ATOM    103  F   UNL A   1      38.337  32.088  38.070  1.00  0.00    -0.206 F 
ATOM    104  C   UNL A   1      39.323  35.365  39.230  1.00  0.00     0.060 A 
BRANCH 104 105
ATOM    105  S   UNL A   1      38.939  36.529  40.555  1.00  0.00     0.124 S 
ATOM    106  O   UNL A   1      38.474  37.689  39.802  1.00  0.00    -0.237 OA
ATOM    107  O   UNL A   1      37.916  35.814  41.313  1.00  0.00    -0.237 OA
ATOM    108  O   UNL A   1      40.216  36.696  41.241  1.00  0.00    -0.744 OA
ENDBRANCH 104 105
ENDBRANCH  72  97
ENDBRANCH  46  47
ENDBRANCH  38  41
ENDBRANCH  36  37
ENDBRANCH  35  36
ENDBRANCH   1  35
TORSDOF 18
ENDMDL
