MODEL 1
REMARK VINA RESULT:     -11.0      0.000      0.000
REMARK SMILES CC(C)[C@H](NC(=O)OCc1ccccc1)C(=O)NCC(=O)NCCCCNC(=O)c1ccc(-c2c3nc(c(-c4c(F)cc(S(=O)(=O)[O-])cc4F)c4ccc([nH]4)c(-c4c(F)cc(S(=O)(=O)[O-])cc4F)c4nc(c(-c5c(F)cc(S(=O)(=O)[O-])cc5F)c5ccc2[nH]5)C=C4)C=C3)cc1
REMARK SMILES IDX 23 1 22 2 20 3 21 4 19 6 18 7 16 8 17 9 4 11 2 12 1 13 3 14
REMARK SMILES IDX 5 15 6 16 7 18 8 19 9 20 10 21 11 22 15 23 12 24 14 25 13 26
REMARK SMILES IDX 24 27 25 28 26 29 27 30 28 31 29 33 30 34 31 35 95 36 32 37
REMARK SMILES IDX 94 38 33 39 34 40 35 41 88 42 36 43 93 44 87 45 89 46 37 47
REMARK SMILES IDX 92 48 86 49 85 50 38 52 72 53 51 54 71 55 52 56 55 57 70 58
REMARK SMILES IDX 90 59 53 60 54 61 69 63 91 64 56 65 39 66 40 67 49 68 41 69
REMARK SMILES IDX 42 70 48 71 50 72 43 73 44 74 45 75 46 76 47 77 73 78 74 79
REMARK SMILES IDX 83 80 75 81 76 82 82 83 84 84 77 85 78 86 79 87 80 88 81 89
REMARK SMILES IDX 57 90 58 91 67 92 59 93 60 94 66 95 68 96 61 97 62 98 63 99
REMARK SMILES IDX 64 100 65 101
REMARK H PARENT 22 5 18 10 5 17 27 32 89 51 55 62
REMARK Flexibility Score: inf
ROOT
ATOM      1  C   UNL A   1      38.063  21.971  25.607  1.00  0.00     0.116 C 
ENDROOT
BRANCH   1   2
ATOM      2  N   UNL A   1      37.665  22.617  24.382  1.00  0.00    -0.355 N 
ATOM      3  C   UNL A   1      36.387  22.760  23.917  1.00  0.00     0.239 C 
ATOM      4  O   UNL A   1      36.196  23.260  22.809  1.00  0.00    -0.273 OA
ATOM      5  H   UNL A   1      38.384  22.993  23.825  1.00  0.00     0.163 HD
BRANCH   3   6
ATOM      6  C   UNL A   1      35.224  22.415  24.857  1.00  0.00     0.216 C 
BRANCH   6   7
ATOM      7  N   UNL A   1      34.164  21.593  24.302  1.00  0.00    -0.345 N 
ATOM      8  C   UNL A   1      32.984  21.917  23.711  1.00  0.00     0.243 C 
ATOM      9  O   UNL A   1      32.332  20.968  23.253  1.00  0.00    -0.273 OA
ATOM     10  H   UNL A   1      34.331  20.624  24.368  1.00  0.00     0.164 HD
BRANCH   8  11
ATOM     11  C   UNL A   1      32.400  23.361  23.618  1.00  0.00     0.177 C 
BRANCH  11  12
ATOM     12  C   UNL A   1      31.033  23.658  24.300  1.00  0.00     0.015 C 
ATOM     13  C   UNL A   1      31.017  24.098  25.769  1.00  0.00     0.010 C 
ATOM     14  C   UNL A   1      30.196  24.642  23.478  1.00  0.00     0.010 C 
ENDBRANCH  11  12
BRANCH  11  15
ATOM     15  N   UNL A   1      32.499  23.899  22.262  1.00  0.00    -0.309 N 
ATOM     16  C   UNL A   1      33.092  25.070  21.871  1.00  0.00     0.408 C 
ATOM     17  H   UNL A   1      32.093  23.357  21.548  1.00  0.00     0.167 HD
ATOM     18  O   UNL A   1      33.202  25.316  20.673  1.00  0.00    -0.225 OA
BRANCH  16  19
ATOM     19  O   UNL A   1      33.536  25.853  22.879  1.00  0.00    -0.445 OA
BRANCH  19  20
ATOM     20  C   UNL A   1      32.855  27.119  23.054  1.00  0.00     0.270 C 
BRANCH  20  21
ATOM     21  C   UNL A   1      32.750  27.579  24.493  1.00  0.00    -0.011 A 
ATOM     22  C   UNL A   1      31.524  27.718  25.149  1.00  0.00     0.007 A 
ATOM     23  C   UNL A   1      33.920  27.860  25.217  1.00  0.00     0.007 A 
ATOM     24  C   UNL A   1      31.474  27.980  26.522  1.00  0.00     0.000 A 
ATOM     25  C   UNL A   1      33.870  28.156  26.583  1.00  0.00     0.000 A 
ATOM     26  C   UNL A   1      32.648  28.176  27.245  1.00  0.00     0.000 A 
ENDBRANCH  20  21
ENDBRANCH  19  20
ENDBRANCH  16  19
ENDBRANCH  11  15
ENDBRANCH   8  11
ENDBRANCH   6   7
ENDBRANCH   3   6
ENDBRANCH   1   2
BRANCH   1  27
ATOM     27  C   UNL A   1      38.829  22.918  26.510  1.00  0.00     0.023 C 
BRANCH  27  28
ATOM     28  C   UNL A   1      40.054  22.312  27.170  1.00  0.00     0.023 C 
BRANCH  28  29
ATOM     29  C   UNL A   1      41.268  23.224  27.301  1.00  0.00     0.116 C 
BRANCH  29  30
ATOM     30  N   UNL A   1      41.757  23.847  26.077  1.00  0.00    -0.352 N 
ATOM     31  C   UNL A   1      42.021  25.183  25.841  1.00  0.00     0.251 C 
ATOM     32  H   UNL A   1      41.919  23.238  25.321  1.00  0.00     0.163 HD
ATOM     33  O   UNL A   1      42.526  25.572  24.793  1.00  0.00    -0.269 OA
BRANCH  31  34
ATOM     34  C   UNL A   1      41.672  26.171  26.881  1.00  0.00     0.039 A 
ATOM     35  C   UNL A   1      40.679  25.876  27.819  1.00  0.00     0.014 A 
ATOM     36  C   UNL A   1      42.385  27.366  26.957  1.00  0.00     0.014 A 
ATOM     37  C   UNL A   1      40.468  26.745  28.892  1.00  0.00     0.010 A 
ATOM     38  C   UNL A   1      42.259  28.163  28.083  1.00  0.00     0.010 A 
ATOM     39  C   UNL A   1      41.287  27.872  29.053  1.00  0.00    -0.014 A 
BRANCH  39  40
ATOM     40  C   UNL A   1      41.128  28.819  30.183  1.00  0.00     0.031 A 
ATOM     41  C   UNL A   1      41.982  28.626  31.408  1.00  0.00     0.074 A 
ATOM     42  C   UNL A   1      40.162  29.759  30.157  1.00  0.00     0.049 A 
ATOM     43  N   UNL A   1      41.893  29.198  32.579  1.00  0.00    -0.248 NA
ATOM     44  C   UNL A   1      43.051  27.613  31.318  1.00  0.00     0.031 C 
ATOM     45  C   UNL A   1      39.246  30.006  29.041  1.00  0.00     0.029 A 
ATOM     46  N   UNL A   1      39.768  30.662  31.113  1.00  0.00    -0.354 N 
ATOM     47  C   UNL A   1      42.863  28.592  33.368  1.00  0.00     0.074 A 
ATOM     48  C   UNL A   1      43.495  27.572  32.564  1.00  0.00     0.031 C 
ATOM     49  C   UNL A   1      38.400  30.996  29.376  1.00  0.00     0.029 A 
ATOM     50  C   UNL A   1      38.681  31.421  30.743  1.00  0.00     0.049 A 
ATOM     51  H   UNL A   1      40.222  30.758  31.981  1.00  0.00     0.167 HD
ATOM     52  C   UNL A   1      43.209  28.877  34.645  1.00  0.00     0.037 A 
ATOM     53  C   UNL A   1      37.978  32.335  31.442  1.00  0.00     0.037 A 
ATOM     54  C   UNL A   1      42.604  29.929  35.415  1.00  0.00     0.049 A 
ATOM     55  C   UNL A   1      38.399  32.648  32.855  1.00  0.00     0.074 A 
ATOM     56  C   UNL A   1      42.934  30.360  36.687  1.00  0.00     0.029 A 
ATOM     57  N   UNL A   1      41.545  30.716  34.986  1.00  0.00    -0.354 N 
ATOM     58  N   UNL A   1      39.367  32.116  33.564  1.00  0.00    -0.248 NA
ATOM     59  C   UNL A   1      37.640  33.688  33.562  1.00  0.00     0.031 C 
ATOM     60  C   UNL A   1      42.040  31.370  37.049  1.00  0.00     0.029 A 
ATOM     61  C   UNL A   1      41.193  31.613  35.979  1.00  0.00     0.049 A 
ATOM     62  H   UNL A   1      41.110  30.646  34.106  1.00  0.00     0.167 HD
ATOM     63  C   UNL A   1      39.351  32.778  34.788  1.00  0.00     0.074 A 
ATOM     64  C   UNL A   1      38.290  33.760  34.715  1.00  0.00     0.031 C 
ATOM     65  C   UNL A   1      40.139  32.592  35.876  1.00  0.00     0.037 A 
BRANCH  52  66
ATOM     66  C   UNL A   1      44.289  28.052  35.288  1.00  0.00     0.058 A 
ATOM     67  C   UNL A   1      44.003  26.870  35.991  1.00  0.00     0.135 A 
ATOM     68  C   UNL A   1      45.638  28.415  35.142  1.00  0.00     0.135 A 
ATOM     69  F   UNL A   1      42.730  26.487  36.182  1.00  0.00    -0.206 F 
ATOM     70  C   UNL A   1      45.014  26.083  36.532  1.00  0.00     0.059 A 
ATOM     71  C   UNL A   1      46.666  27.627  35.648  1.00  0.00     0.059 A 
ATOM     72  F   UNL A   1      45.968  29.541  34.490  1.00  0.00    -0.206 F 
ATOM     73  C   UNL A   1      46.343  26.465  36.346  1.00  0.00     0.060 A 
BRANCH  73  74
ATOM     74  S   UNL A   1      47.643  25.401  37.007  1.00  0.00     0.124 S 
ATOM     75  O   UNL A   1      47.692  25.831  38.402  1.00  0.00    -0.237 OA
ATOM     76  O   UNL A   1      47.100  24.066  36.774  1.00  0.00    -0.237 OA
ATOM     77  O   UNL A   1      48.811  25.749  36.204  1.00  0.00    -0.744 OA
ENDBRANCH  73  74
ENDBRANCH  52  66
BRANCH  53  78
ATOM     78  C   UNL A   1      36.805  33.019  30.826  1.00  0.00     0.058 A 
ATOM     79  C   UNL A   1      35.493  32.681  31.189  1.00  0.00     0.135 A 
ATOM     80  C   UNL A   1      36.972  34.011  29.845  1.00  0.00     0.135 A 
ATOM     81  F   UNL A   1      35.277  31.735  32.117  1.00  0.00    -0.206 F 
ATOM     82  C   UNL A   1      34.390  33.272  30.582  1.00  0.00     0.059 A 
ATOM     83  C   UNL A   1      35.884  34.641  29.247  1.00  0.00     0.059 A 
ATOM     84  F   UNL A   1      38.205  34.388  29.472  1.00  0.00    -0.206 F 
ATOM     85  C   UNL A   1      34.596  34.252  29.610  1.00  0.00     0.060 A 
BRANCH  85  86
ATOM     86  S   UNL A   1      33.157  35.028  28.842  1.00  0.00     0.124 S 
ATOM     87  O   UNL A   1      32.721  33.988  27.918  1.00  0.00    -0.237 OA
ATOM     88  O   UNL A   1      32.289  35.267  29.990  1.00  0.00    -0.237 OA
ATOM     89  O   UNL A   1      33.713  36.228  28.224  1.00  0.00    -0.744 OA
ENDBRANCH  85  86
ENDBRANCH  53  78
BRANCH  65  90
ATOM     90  C   UNL A   1      39.916  33.496  37.058  1.00  0.00     0.058 A 
ATOM     91  C   UNL A   1      40.609  34.706  37.205  1.00  0.00     0.135 A 
ATOM     92  C   UNL A   1      38.953  33.167  38.025  1.00  0.00     0.135 A 
ATOM     93  F   UNL A   1      41.542  35.065  36.308  1.00  0.00    -0.206 F 
ATOM     94  C   UNL A   1      40.379  35.545  38.289  1.00  0.00     0.059 A 
ATOM     95  C   UNL A   1      38.681  34.008  39.099  1.00  0.00     0.059 A 
ATOM     96  F   UNL A   1      38.250  32.027  37.923  1.00  0.00    -0.206 F 
ATOM     97  C   UNL A   1      39.411  35.189  39.230  1.00  0.00     0.060 A 
BRANCH  97  98
ATOM     98  S   UNL A   1      39.105  36.300  40.618  1.00  0.00     0.124 S 
ATOM     99  O   UNL A   1      40.421  36.355  41.246  1.00  0.00    -0.237 OA
ATOM    100  O   UNL A   1      38.669  37.522  39.950  1.00  0.00    -0.237 OA
ATOM    101  O   UNL A   1      38.072  35.610  41.386  1.00  0.00    -0.744 OA
ENDBRANCH  97  98
ENDBRANCH  65  90
ENDBRANCH  39  40
ENDBRANCH  31  34
ENDBRANCH  29  30
ENDBRANCH  28  29
ENDBRANCH  27  28
ENDBRANCH   1  27
TORSDOF 21
ENDMDL
MODEL 2
REMARK VINA RESULT:     -10.9      5.885      8.113
REMARK SMILES CC(C)[C@H](NC(=O)OCc1ccccc1)C(=O)NCC(=O)NCCCCNC(=O)c1ccc(-c2c3nc(c(-c4c(F)cc(S(=O)(=O)[O-])cc4F)c4ccc([nH]4)c(-c4c(F)cc(S(=O)(=O)[O-])cc4F)c4nc(c(-c5c(F)cc(S(=O)(=O)[O-])cc5F)c5ccc2[nH]5)C=C4)C=C3)cc1
REMARK SMILES IDX 23 1 22 2 20 3 21 4 19 6 18 7 16 8 17 9 4 11 2 12 1 13 3 14
REMARK SMILES IDX 5 15 6 16 7 18 8 19 9 20 10 21 11 22 15 23 12 24 14 25 13 26
REMARK SMILES IDX 24 27 25 28 26 29 27 30 28 31 29 33 30 34 31 35 95 36 32 37
REMARK SMILES IDX 94 38 33 39 34 40 35 41 88 42 36 43 93 44 87 45 89 46 37 47
REMARK SMILES IDX 92 48 86 49 85 50 38 52 72 53 51 54 71 55 52 56 55 57 70 58
REMARK SMILES IDX 90 59 53 60 54 61 69 63 91 64 56 65 39 66 40 67 49 68 41 69
REMARK SMILES IDX 42 70 48 71 50 72 43 73 44 74 45 75 46 76 47 77 73 78 74 79
REMARK SMILES IDX 83 80 75 81 76 82 82 83 84 84 77 85 78 86 79 87 80 88 81 89
REMARK SMILES IDX 57 90 58 91 67 92 59 93 60 94 66 95 68 96 61 97 62 98 63 99
REMARK SMILES IDX 64 100 65 101
REMARK H PARENT 22 5 18 10 5 17 27 32 89 51 55 62
REMARK Flexibility Score: inf
ROOT
ATOM      1  C   UNL A   1      37.804  23.662  26.069  1.00  0.00     0.116 C 
ENDROOT
BRANCH   1   2
ATOM      2  N   UNL A   1      37.546  23.703  24.652  1.00  0.00    -0.355 N 
ATOM      3  C   UNL A   1      36.711  22.874  23.955  1.00  0.00     0.239 C 
ATOM      4  O   UNL A   1      36.650  22.965  22.729  1.00  0.00    -0.273 OA
ATOM      5  H   UNL A   1      38.017  24.394  24.134  1.00  0.00     0.163 HD
BRANCH   3   6
ATOM      6  C   UNL A   1      35.773  21.949  24.742  1.00  0.00     0.216 C 
BRANCH   6   7
ATOM      7  N   UNL A   1      34.563  21.522  24.063  1.00  0.00    -0.345 N 
ATOM      8  C   UNL A   1      33.392  22.166  23.812  1.00  0.00     0.243 C 
ATOM      9  O   UNL A   1      32.575  21.547  23.117  1.00  0.00    -0.273 OA
ATOM     10  H   UNL A   1      34.597  20.599  23.722  1.00  0.00     0.164 HD
BRANCH   8  11
ATOM     11  C   UNL A   1      33.011  23.572  24.371  1.00  0.00     0.177 C 
BRANCH  11  12
ATOM     12  C   UNL A   1      33.926  24.784  24.029  1.00  0.00     0.015 C 
ATOM     13  C   UNL A   1      33.512  25.727  22.892  1.00  0.00     0.010 C 
ATOM     14  C   UNL A   1      34.247  25.617  25.272  1.00  0.00     0.010 C 
ENDBRANCH  11  12
BRANCH  11  15
ATOM     15  N   UNL A   1      32.639  23.511  25.784  1.00  0.00    -0.309 N 
ATOM     16  C   UNL A   1      31.473  23.943  26.358  1.00  0.00     0.408 C 
ATOM     17  H   UNL A   1      33.302  23.113  26.392  1.00  0.00     0.167 HD
ATOM     18  O   UNL A   1      31.262  23.700  27.544  1.00  0.00    -0.225 OA
BRANCH  16  19
ATOM     19  O   UNL A   1      30.629  24.591  25.525  1.00  0.00    -0.445 OA
BRANCH  19  20
ATOM     20  C   UNL A   1      30.263  25.940  25.908  1.00  0.00     0.270 C 
BRANCH  20  21
ATOM     21  C   UNL A   1      30.558  26.989  24.856  1.00  0.00    -0.011 A 
ATOM     22  C   UNL A   1      31.416  28.066  25.090  1.00  0.00     0.007 A 
ATOM     23  C   UNL A   1      29.969  26.879  23.585  1.00  0.00     0.007 A 
ATOM     24  C   UNL A   1      31.795  28.918  24.046  1.00  0.00     0.000 A 
ATOM     25  C   UNL A   1      30.321  27.750  22.549  1.00  0.00     0.000 A 
ATOM     26  C   UNL A   1      31.265  28.746  22.770  1.00  0.00     0.000 A 
ENDBRANCH  20  21
ENDBRANCH  19  20
ENDBRANCH  16  19
ENDBRANCH  11  15
ENDBRANCH   8  11
ENDBRANCH   6   7
ENDBRANCH   3   6
ENDBRANCH   1   2
BRANCH   1  27
ATOM     27  C   UNL A   1      39.198  23.144  26.364  1.00  0.00     0.023 C 
BRANCH  27  28
ATOM     28  C   UNL A   1      39.252  21.699  26.824  1.00  0.00     0.023 C 
BRANCH  28  29
ATOM     29  C   UNL A   1      39.565  20.663  25.751  1.00  0.00     0.116 C 
BRANCH  29  30
ATOM     30  N   UNL A   1      40.473  19.585  26.123  1.00  0.00    -0.352 N 
ATOM     31  C   UNL A   1      41.761  19.680  26.613  1.00  0.00     0.251 C 
ATOM     32  H   UNL A   1      40.123  18.671  26.009  1.00  0.00     0.163 HD
ATOM     33  O   UNL A   1      42.392  18.694  26.984  1.00  0.00    -0.269 OA
BRANCH  31  34
ATOM     34  C   UNL A   1      42.400  21.008  26.680  1.00  0.00     0.039 A 
ATOM     35  C   UNL A   1      42.675  21.710  25.504  1.00  0.00     0.014 A 
ATOM     36  C   UNL A   1      42.664  21.580  27.924  1.00  0.00     0.014 A 
ATOM     37  C   UNL A   1      43.129  23.030  25.582  1.00  0.00     0.010 A 
ATOM     38  C   UNL A   1      42.996  22.922  27.999  1.00  0.00     0.010 A 
ATOM     39  C   UNL A   1      43.251  23.657  26.831  1.00  0.00    -0.014 A 
BRANCH  39  40
ATOM     40  C   UNL A   1      43.706  25.061  26.978  1.00  0.00     0.031 A 
ATOM     41  C   UNL A   1      45.156  25.376  26.725  1.00  0.00     0.074 A 
ATOM     42  C   UNL A   1      42.864  26.007  27.439  1.00  0.00     0.049 A 
ATOM     43  N   UNL A   1      45.820  26.474  26.970  1.00  0.00    -0.248 NA
ATOM     44  C   UNL A   1      45.982  24.290  26.164  1.00  0.00     0.031 C 
ATOM     45  C   UNL A   1      41.449  25.804  27.762  1.00  0.00     0.029 A 
ATOM     46  N   UNL A   1      43.086  27.326  27.748  1.00  0.00    -0.354 N 
ATOM     47  C   UNL A   1      47.140  26.199  26.630  1.00  0.00     0.074 A 
ATOM     48  C   UNL A   1      47.196  24.817  26.212  1.00  0.00     0.031 C 
ATOM     49  C   UNL A   1      40.932  26.957  28.221  1.00  0.00     0.029 A 
ATOM     50  C   UNL A   1      41.985  27.966  28.270  1.00  0.00     0.049 A 
ATOM     51  H   UNL A   1      43.952  27.773  27.610  1.00  0.00     0.167 HD
ATOM     52  C   UNL A   1      48.205  27.032  26.648  1.00  0.00     0.037 A 
ATOM     53  C   UNL A   1      41.851  29.217  28.756  1.00  0.00     0.037 A 
ATOM     54  C   UNL A   1      48.123  28.418  27.020  1.00  0.00     0.049 A 
ATOM     55  C   UNL A   1      43.050  30.131  28.742  1.00  0.00     0.074 A 
ATOM     56  C   UNL A   1      49.121  29.374  26.992  1.00  0.00     0.029 A 
ATOM     57  N   UNL A   1      46.977  29.046  27.486  1.00  0.00    -0.354 N 
ATOM     58  N   UNL A   1      44.277  29.877  28.349  1.00  0.00    -0.248 NA
ATOM     59  C   UNL A   1      42.849  31.502  29.230  1.00  0.00     0.031 C 
ATOM     60  C   UNL A   1      48.594  30.567  27.494  1.00  0.00     0.029 A 
ATOM     61  C   UNL A   1      47.250  30.371  27.774  1.00  0.00     0.049 A 
ATOM     62  H   UNL A   1      46.100  28.612  27.594  1.00  0.00     0.167 HD
ATOM     63  C   UNL A   1      44.984  31.064  28.515  1.00  0.00     0.074 A 
ATOM     64  C   UNL A   1      44.043  32.039  29.026  1.00  0.00     0.031 C 
ATOM     65  C   UNL A   1      46.291  31.327  28.269  1.00  0.00     0.037 A 
BRANCH  52  66
ATOM     66  C   UNL A   1      49.545  26.479  26.249  1.00  0.00     0.058 A 
ATOM     67  C   UNL A   1      50.080  26.678  24.967  1.00  0.00     0.135 A 
ATOM     68  C   UNL A   1      50.335  25.793  27.187  1.00  0.00     0.135 A 
ATOM     69  F   UNL A   1      49.360  27.305  24.022  1.00  0.00    -0.206 F 
ATOM     70  C   UNL A   1      51.345  26.212  24.626  1.00  0.00     0.059 A 
ATOM     71  C   UNL A   1      51.615  25.346  26.878  1.00  0.00     0.059 A 
ATOM     72  F   UNL A   1      49.868  25.564  28.425  1.00  0.00    -0.206 F 
ATOM     73  C   UNL A   1      52.109  25.556  25.592  1.00  0.00     0.060 A 
BRANCH  73  74
ATOM     74  S   UNL A   1      53.771  25.009  25.147  1.00  0.00     0.124 S 
ATOM     75  O   UNL A   1      54.557  25.521  26.267  1.00  0.00    -0.237 OA
ATOM     76  O   UNL A   1      53.616  23.559  25.092  1.00  0.00    -0.237 OA
ATOM     77  O   UNL A   1      54.013  25.660  23.864  1.00  0.00    -0.744 OA
ENDBRANCH  73  74
ENDBRANCH  52  66
BRANCH  53  78
ATOM     78  C   UNL A   1      40.543  29.682  29.297  1.00  0.00     0.058 A 
ATOM     79  C   UNL A   1      40.366  29.916  30.669  1.00  0.00     0.135 A 
ATOM     80  C   UNL A   1      39.436  29.883  28.456  1.00  0.00     0.135 A 
ATOM     81  F   UNL A   1      41.390  29.734  31.517  1.00  0.00    -0.206 F 
ATOM     82  C   UNL A   1      39.135  30.298  31.194  1.00  0.00     0.059 A 
ATOM     83  C   UNL A   1      38.203  30.296  28.953  1.00  0.00     0.059 A 
ATOM     84  F   UNL A   1      39.553  29.692  27.133  1.00  0.00    -0.206 F 
ATOM     85  C   UNL A   1      38.058  30.484  30.326  1.00  0.00     0.060 A 
BRANCH  85  86
ATOM     86  S   UNL A   1      36.469  30.998  31.015  1.00  0.00     0.124 S 
ATOM     87  O   UNL A   1      35.797  31.531  29.837  1.00  0.00    -0.237 OA
ATOM     88  O   UNL A   1      35.941  29.742  31.539  1.00  0.00    -0.237 OA
ATOM     89  O   UNL A   1      36.845  31.982  32.027  1.00  0.00    -0.744 OA
ENDBRANCH  85  86
ENDBRANCH  53  78
BRANCH  65  90
ATOM     90  C   UNL A   1      46.773  32.732  28.506  1.00  0.00     0.058 A 
ATOM     91  C   UNL A   1      46.725  33.710  27.502  1.00  0.00     0.135 A 
ATOM     92  C   UNL A   1      47.237  33.115  29.775  1.00  0.00     0.135 A 
ATOM     93  F   UNL A   1      46.292  33.395  26.271  1.00  0.00    -0.206 F 
ATOM     94  C   UNL A   1      47.151  35.012  27.738  1.00  0.00     0.059 A 
ATOM     95  C   UNL A   1      47.636  34.419  30.044  1.00  0.00     0.059 A 
ATOM     96  F   UNL A   1      47.289  32.220  30.776  1.00  0.00    -0.206 F 
ATOM     97  C   UNL A   1      47.603  35.358  29.013  1.00  0.00     0.060 A 
BRANCH  97  98
ATOM     98  S   UNL A   1      48.130  37.058  29.312  1.00  0.00     0.124 S 
ATOM     99  O   UNL A   1      49.529  37.007  28.905  1.00  0.00    -0.237 OA
ATOM    100  O   UNL A   1      47.242  37.818  28.438  1.00  0.00    -0.237 OA
ATOM    101  O   UNL A   1      47.899  37.240  30.742  1.00  0.00    -0.744 OA
ENDBRANCH  97  98
ENDBRANCH  65  90
ENDBRANCH  39  40
ENDBRANCH  31  34
ENDBRANCH  29  30
ENDBRANCH  28  29
ENDBRANCH  27  28
ENDBRANCH   1  27
TORSDOF 21
ENDMDL
MODEL 3
REMARK VINA RESULT:     -10.6      1.350      8.255
REMARK SMILES CC(C)[C@H](NC(=O)OCc1ccccc1)C(=O)NCC(=O)NCCCCNC(=O)c1ccc(-c2c3nc(c(-c4c(F)cc(S(=O)(=O)[O-])cc4F)c4ccc([nH]4)c(-c4c(F)cc(S(=O)(=O)[O-])cc4F)c4nc(c(-c5c(F)cc(S(=O)(=O)[O-])cc5F)c5ccc2[nH]5)C=C4)C=C3)cc1
REMARK SMILES IDX 23 1 22 2 20 3 21 4 19 6 18 7 16 8 17 9 4 11 2 12 1 13 3 14
REMARK SMILES IDX 5 15 6 16 7 18 8 19 9 20 10 21 11 22 15 23 12 24 14 25 13 26
REMARK SMILES IDX 24 27 25 28 26 29 27 30 28 31 29 33 30 34 31 35 95 36 32 37
REMARK SMILES IDX 94 38 33 39 34 40 35 41 88 42 36 43 93 44 87 45 89 46 37 47
REMARK SMILES IDX 92 48 86 49 85 50 38 52 72 53 51 54 71 55 52 56 55 57 70 58
REMARK SMILES IDX 90 59 53 60 54 61 69 63 91 64 56 65 39 66 40 67 49 68 41 69
REMARK SMILES IDX 42 70 48 71 50 72 43 73 44 74 45 75 46 76 47 77 73 78 74 79
REMARK SMILES IDX 83 80 75 81 76 82 82 83 84 84 77 85 78 86 79 87 80 88 81 89
REMARK SMILES IDX 57 90 58 91 67 92 59 93 60 94 66 95 68 96 61 97 62 98 63 99
REMARK SMILES IDX 64 100 65 101
REMARK H PARENT 22 5 18 10 5 17 27 32 89 51 55 62
REMARK Flexibility Score: inf
ROOT
ATOM      1  C   UNL A   1      38.664  22.603  26.323  1.00  0.00     0.116 C 
ENDROOT
BRANCH   1   2
ATOM      2  N   UNL A   1      37.655  21.611  26.049  1.00  0.00    -0.355 N 
ATOM      3  C   UNL A   1      36.543  21.776  25.271  1.00  0.00     0.239 C 
ATOM      4  O   UNL A   1      35.717  20.868  25.192  1.00  0.00    -0.273 OA
ATOM      5  H   UNL A   1      37.779  20.727  26.464  1.00  0.00     0.163 HD
BRANCH   3   6
ATOM      6  C   UNL A   1      36.433  23.042  24.411  1.00  0.00     0.216 C 
BRANCH   6   7
ATOM      7  N   UNL A   1      35.731  24.168  25.001  1.00  0.00    -0.345 N 
ATOM      8  C   UNL A   1      34.424  24.345  25.332  1.00  0.00     0.243 C 
ATOM      9  O   UNL A   1      34.155  25.405  25.914  1.00  0.00    -0.273 OA
ATOM     10  H   UNL A   1      36.306  24.943  25.195  1.00  0.00     0.164 HD
BRANCH   8  11
ATOM     11  C   UNL A   1      33.275  23.345  24.993  1.00  0.00     0.177 C 
BRANCH  11  12
ATOM     12  C   UNL A   1      32.526  23.502  23.638  1.00  0.00     0.015 C 
ATOM     13  C   UNL A   1      32.961  24.614  22.675  1.00  0.00     0.010 C 
ATOM     14  C   UNL A   1      32.463  22.178  22.872  1.00  0.00     0.010 C 
ENDBRANCH  11  12
BRANCH  11  15
ATOM     15  N   UNL A   1      32.377  23.146  26.130  1.00  0.00    -0.309 N 
ATOM     16  C   UNL A   1      31.227  23.833  26.414  1.00  0.00     0.408 C 
ATOM     17  H   UNL A   1      32.628  22.436  26.763  1.00  0.00     0.167 HD
ATOM     18  O   UNL A   1      30.516  23.455  27.341  1.00  0.00    -0.225 OA
BRANCH  16  19
ATOM     19  O   UNL A   1      30.967  24.878  25.597  1.00  0.00    -0.445 OA
BRANCH  19  20
ATOM     20  C   UNL A   1      30.356  26.037  26.216  1.00  0.00     0.270 C 
BRANCH  20  21
ATOM     21  C   UNL A   1      31.147  27.319  26.061  1.00  0.00    -0.011 A 
ATOM     22  C   UNL A   1      31.422  27.884  24.814  1.00  0.00     0.007 A 
ATOM     23  C   UNL A   1      31.611  27.988  27.206  1.00  0.00     0.007 A 
ATOM     24  C   UNL A   1      32.006  29.152  24.717  1.00  0.00     0.000 A 
ATOM     25  C   UNL A   1      32.226  29.240  27.109  1.00  0.00     0.000 A 
ATOM     26  C   UNL A   1      32.388  29.840  25.866  1.00  0.00     0.000 A 
ENDBRANCH  20  21
ENDBRANCH  19  20
ENDBRANCH  16  19
ENDBRANCH  11  15
ENDBRANCH   8  11
ENDBRANCH   6   7
ENDBRANCH   3   6
ENDBRANCH   1   2
BRANCH   1  27
ATOM     27  C   UNL A   1      40.058  22.015  26.237  1.00  0.00     0.023 C 
BRANCH  27  28
ATOM     28  C   UNL A   1      40.970  22.373  27.396  1.00  0.00     0.023 C 
BRANCH  28  29
ATOM     29  C   UNL A   1      42.096  23.352  27.089  1.00  0.00     0.116 C 
BRANCH  29  30
ATOM     30  N   UNL A   1      41.880  24.277  25.983  1.00  0.00    -0.352 N 
ATOM     31  C   UNL A   1      41.717  25.649  26.032  1.00  0.00     0.251 C 
ATOM     32  H   UNL A   1      41.844  23.872  25.086  1.00  0.00     0.163 HD
ATOM     33  O   UNL A   1      41.640  26.332  25.015  1.00  0.00    -0.269 OA
BRANCH  31  34
ATOM     34  C   UNL A   1      41.622  26.307  27.349  1.00  0.00     0.039 A 
ATOM     35  C   UNL A   1      42.614  27.202  27.756  1.00  0.00     0.014 A 
ATOM     36  C   UNL A   1      40.504  26.076  28.150  1.00  0.00     0.014 A 
ATOM     37  C   UNL A   1      42.435  27.940  28.929  1.00  0.00     0.010 A 
ATOM     38  C   UNL A   1      40.272  26.893  29.244  1.00  0.00     0.010 A 
ATOM     39  C   UNL A   1      41.242  27.821  29.657  1.00  0.00    -0.014 A 
BRANCH  39  40
ATOM     40  C   UNL A   1      40.982  28.592  30.896  1.00  0.00     0.031 A 
ATOM     41  C   UNL A   1      39.876  29.614  30.888  1.00  0.00     0.074 A 
ATOM     42  C   UNL A   1      41.794  28.463  31.965  1.00  0.00     0.049 A 
ATOM     43  N   UNL A   1      39.587  30.530  31.773  1.00  0.00    -0.248 NA
ATOM     44  C   UNL A   1      39.006  29.638  29.697  1.00  0.00     0.031 C 
ATOM     45  C   UNL A   1      42.925  27.538  32.067  1.00  0.00     0.029 A 
ATOM     46  N   UNL A   1      41.809  29.136  33.162  1.00  0.00    -0.354 N 
ATOM     47  C   UNL A   1      38.533  31.257  31.232  1.00  0.00     0.074 A 
ATOM     48  C   UNL A   1      38.266  30.713  29.921  1.00  0.00     0.031 C 
ATOM     49  C   UNL A   1      43.522  27.702  33.261  1.00  0.00     0.029 A 
ATOM     50  C   UNL A   1      42.848  28.772  33.988  1.00  0.00     0.049 A 
ATOM     51  H   UNL A   1      41.140  29.816  33.405  1.00  0.00     0.167 HD
ATOM     52  C   UNL A   1      37.839  32.275  31.789  1.00  0.00     0.037 A 
ATOM     53  C   UNL A   1      43.225  29.267  35.184  1.00  0.00     0.037 A 
ATOM     54  C   UNL A   1      38.085  32.772  33.115  1.00  0.00     0.049 A 
ATOM     55  C   UNL A   1      42.419  30.387  35.792  1.00  0.00     0.074 A 
ATOM     56  C   UNL A   1      37.387  33.741  33.811  1.00  0.00     0.029 A 
ATOM     57  N   UNL A   1      39.108  32.338  33.946  1.00  0.00    -0.354 N 
ATOM     58  N   UNL A   1      41.378  31.016  35.297  1.00  0.00    -0.248 NA
ATOM     59  C   UNL A   1      42.830  30.861  37.120  1.00  0.00     0.031 C 
ATOM     60  C   UNL A   1      38.021  33.934  35.042  1.00  0.00     0.029 A 
ATOM     61  C   UNL A   1      39.075  33.039  35.138  1.00  0.00     0.049 A 
ATOM     62  H   UNL A   1      39.759  31.635  33.720  1.00  0.00     0.167 HD
ATOM     63  C   UNL A   1      40.994  31.938  36.267  1.00  0.00     0.074 A 
ATOM     64  C   UNL A   1      41.903  31.770  37.382  1.00  0.00     0.031 C 
ATOM     65  C   UNL A   1      39.984  32.843  36.240  1.00  0.00     0.037 A 
BRANCH  52  66
ATOM     66  C   UNL A   1      36.746  32.915  30.979  1.00  0.00     0.058 A 
ATOM     67  C   UNL A   1      35.389  32.647  31.219  1.00  0.00     0.135 A 
ATOM     68  C   UNL A   1      37.060  33.861  29.989  1.00  0.00     0.135 A 
ATOM     69  F   UNL A   1      35.030  31.734  32.136  1.00  0.00    -0.206 F 
ATOM     70  C   UNL A   1      34.383  33.288  30.503  1.00  0.00     0.059 A 
ATOM     71  C   UNL A   1      36.070  34.537  29.283  1.00  0.00     0.059 A 
ATOM     72  F   UNL A   1      38.342  34.147  29.710  1.00  0.00    -0.206 F 
ATOM     73  C   UNL A   1      34.735  34.239  29.544  1.00  0.00     0.060 A 
BRANCH  73  74
ATOM     74  S   UNL A   1      33.414  35.102  28.666  1.00  0.00     0.124 S 
ATOM     75  O   UNL A   1      34.154  36.176  28.008  1.00  0.00    -0.237 OA
ATOM     76  O   UNL A   1      32.895  34.060  27.786  1.00  0.00    -0.237 OA
ATOM     77  O   UNL A   1      32.513  35.524  29.733  1.00  0.00    -0.744 OA
ENDBRANCH  73  74
ENDBRANCH  52  66
BRANCH  53  78
ATOM     78  C   UNL A   1      44.417  28.716  35.889  1.00  0.00     0.058 A 
ATOM     79  C   UNL A   1      44.295  27.670  36.815  1.00  0.00     0.135 A 
ATOM     80  C   UNL A   1      45.701  29.239  35.667  1.00  0.00     0.135 A 
ATOM     81  F   UNL A   1      43.089  27.137  37.069  1.00  0.00    -0.206 F 
ATOM     82  C   UNL A   1      45.391  27.184  37.521  1.00  0.00     0.059 A 
ATOM     83  C   UNL A   1      46.819  28.748  36.337  1.00  0.00     0.059 A 
ATOM     84  F   UNL A   1      45.880  30.229  34.778  1.00  0.00    -0.206 F 
ATOM     85  C   UNL A   1      46.651  27.732  37.274  1.00  0.00     0.060 A 
BRANCH  85  86
ATOM     86  S   UNL A   1      48.071  27.081  38.181  1.00  0.00     0.124 S 
ATOM     87  O   UNL A   1      48.372  28.184  39.087  1.00  0.00    -0.237 OA
ATOM     88  O   UNL A   1      47.517  25.880  38.799  1.00  0.00    -0.237 OA
ATOM     89  O   UNL A   1      49.057  26.840  37.132  1.00  0.00    -0.744 OA
ENDBRANCH  85  86
ENDBRANCH  53  78
BRANCH  65  90
ATOM     90  C   UNL A   1      39.779  33.690  37.466  1.00  0.00     0.058 A 
ATOM     91  C   UNL A   1      40.461  34.901  37.652  1.00  0.00     0.135 A 
ATOM     92  C   UNL A   1      38.844  33.305  38.441  1.00  0.00     0.135 A 
ATOM     93  F   UNL A   1      41.367  35.313  36.750  1.00  0.00    -0.206 F 
ATOM     94  C   UNL A   1      40.247  35.688  38.778  1.00  0.00     0.059 A 
ATOM     95  C   UNL A   1      38.589  34.093  39.558  1.00  0.00     0.059 A 
ATOM     96  F   UNL A   1      38.154  32.162  38.304  1.00  0.00    -0.206 F 
ATOM     97  C   UNL A   1      39.307  35.277  39.725  1.00  0.00     0.060 A 
BRANCH  97  98
ATOM     98  S   UNL A   1      39.021  36.320  41.169  1.00  0.00     0.124 S 
ATOM     99  O   UNL A   1      37.889  35.648  41.797  1.00  0.00    -0.237 OA
ATOM    100  O   UNL A   1      40.292  36.223  41.880  1.00  0.00    -0.237 OA
ATOM    101  O   UNL A   1      38.731  37.629  40.591  1.00  0.00    -0.744 OA
ENDBRANCH  97  98
ENDBRANCH  65  90
ENDBRANCH  39  40
ENDBRANCH  31  34
ENDBRANCH  29  30
ENDBRANCH  28  29
ENDBRANCH  27  28
ENDBRANCH   1  27
TORSDOF 21
ENDMDL
