MODEL 1
REMARK VINA RESULT:     -13.5      0.000      0.000
REMARK SMILES Cc1ccc(S(=O)(=O)/C=C/C(=O)NCCCCNC(=O)c2ccc(-c3c4nc(c(-c5c(F)cc(S(=O)(=O)[O-])cc5F)c5ccc([nH]5)c(-c5c(F)cc(S(=O)(=O)[O-])cc5F)c5nc(c(-c6c(F)cc(S(=O)(=O)[O-])cc6F)c6ccc3[nH]6)C=C5)C=C4)cc2)cc1
REMARK SMILES IDX 16 1 15 2 14 3 13 4 11 5 12 6 10 8 9 9 6 10 7 11 8 12 5 13
REMARK SMILES IDX 1 14 2 15 3 16 88 17 4 18 87 19 17 20 18 21 19 22 20 24
REMARK SMILES IDX 21 25 22 26 86 27 23 28 85 29 24 30 25 31 26 32 79 33 27 34
REMARK SMILES IDX 84 35 78 36 80 37 28 38 83 39 77 40 76 41 29 43 63 44 42 45
REMARK SMILES IDX 62 46 43 47 46 48 61 49 81 50 44 51 45 52 60 54 82 55 47 56
REMARK SMILES IDX 30 57 31 58 40 59 32 60 33 61 39 62 41 63 34 64 35 65 36 66
REMARK SMILES IDX 37 67 38 68 64 69 65 70 74 71 66 72 67 73 73 74 75 75 68 76
REMARK SMILES IDX 69 77 70 78 71 79 72 80 48 81 49 82 58 83 50 84 51 85 57 86
REMARK SMILES IDX 59 87 52 88 53 89 54 90 55 91 56 92
REMARK H PARENT 13 7 18 23 80 42 46 53
REMARK Flexibility Score: inf
ROOT
ATOM      1  C   UNL A   1      32.735  30.382  26.875  1.00  0.00     0.023 C 
ENDROOT
BRANCH   1   2
ATOM      2  C   UNL A   1      31.872  29.194  26.434  1.00  0.00     0.023 C 
BRANCH   2   3
ATOM      3  C   UNL A   1      31.490  29.169  24.948  1.00  0.00     0.116 C 
BRANCH   3   4
ATOM      4  N   UNL A   1      32.629  29.426  24.072  1.00  0.00    -0.353 N 
ATOM      5  C   UNL A   1      33.461  28.546  23.455  1.00  0.00     0.244 C 
ATOM      6  O   UNL A   1      34.346  28.917  22.693  1.00  0.00    -0.270 OA
ATOM      7  H   UNL A   1      32.823  30.376  23.904  1.00  0.00     0.163 HD
BRANCH   5   8
ATOM      8  C   UNL A   1      33.285  27.113  23.715  1.00  0.00     0.083 C 
ATOM      9  C   UNL A   1      33.643  26.248  22.757  1.00  0.00     0.117 C 
BRANCH   9  10
ATOM     10  S   UNL A   1      33.374  24.562  22.994  1.00  0.00     0.200 S 
ATOM     11  O   UNL A   1      33.283  23.899  21.707  1.00  0.00    -0.219 OA
ATOM     12  O   UNL A   1      32.321  24.414  23.982  1.00  0.00    -0.219 OA
BRANCH  10  13
ATOM     13  C   UNL A   1      34.842  23.910  23.769  1.00  0.00     0.071 A 
ATOM     14  C   UNL A   1      38.277  22.412  25.880  1.00  0.00     0.044 C 
ATOM     15  C   UNL A   1      37.079  22.930  25.138  1.00  0.00    -0.051 A 
ATOM     16  C   UNL A   1      36.198  23.816  25.770  1.00  0.00     0.005 A 
ATOM     17  C   UNL A   1      36.840  22.558  23.808  1.00  0.00     0.005 A 
ATOM     18  C   UNL A   1      35.081  24.301  25.092  1.00  0.00     0.021 A 
ATOM     19  C   UNL A   1      35.725  23.044  23.120  1.00  0.00     0.021 A 
ENDBRANCH  10  13
ENDBRANCH   9  10
ENDBRANCH   5   8
ENDBRANCH   3   4
ENDBRANCH   2   3
ENDBRANCH   1   2
BRANCH   1  20
ATOM     20  C   UNL A   1      34.201  30.043  27.104  1.00  0.00     0.116 C 
BRANCH  20  21
ATOM     21  N   UNL A   1      35.058  31.171  27.424  1.00  0.00    -0.352 N 
ATOM     22  C   UNL A   1      35.919  31.121  28.520  1.00  0.00     0.251 C 
ATOM     23  H   UNL A   1      35.031  31.978  26.862  1.00  0.00     0.163 HD
ATOM     24  O   UNL A   1      35.920  31.915  29.437  1.00  0.00    -0.269 OA
BRANCH  22  25
ATOM     25  C   UNL A   1      36.875  29.988  28.483  1.00  0.00     0.039 A 
ATOM     26  C   UNL A   1      37.040  29.194  29.621  1.00  0.00     0.014 A 
ATOM     27  C   UNL A   1      37.765  29.905  27.414  1.00  0.00     0.014 A 
ATOM     28  C   UNL A   1      38.192  28.415  29.748  1.00  0.00     0.010 A 
ATOM     29  C   UNL A   1      38.941  29.197  27.579  1.00  0.00     0.010 A 
ATOM     30  C   UNL A   1      39.178  28.479  28.760  1.00  0.00    -0.014 A 
BRANCH  30  31
ATOM     31  C   UNL A   1      40.523  27.919  28.912  1.00  0.00     0.031 A 
ATOM     32  C   UNL A   1      40.817  26.517  28.515  1.00  0.00     0.074 A 
ATOM     33  C   UNL A   1      41.539  28.707  29.327  1.00  0.00     0.049 A 
ATOM     34  N   UNL A   1      41.869  25.859  28.881  1.00  0.00    -0.248 NA
ATOM     35  C   UNL A   1      39.913  25.729  27.684  1.00  0.00     0.031 C 
ATOM     36  C   UNL A   1      42.970  28.434  29.212  1.00  0.00     0.029 A 
ATOM     37  N   UNL A   1      41.469  29.837  30.144  1.00  0.00    -0.354 N 
ATOM     38  C   UNL A   1      41.904  24.680  28.172  1.00  0.00     0.074 A 
ATOM     39  C   UNL A   1      40.650  24.638  27.455  1.00  0.00     0.031 C 
ATOM     40  C   UNL A   1      43.628  29.174  30.115  1.00  0.00     0.029 A 
ATOM     41  C   UNL A   1      42.637  29.842  30.937  1.00  0.00     0.049 A 
ATOM     42  H   UNL A   1      40.744  30.503  30.164  1.00  0.00     0.167 HD
ATOM     43  C   UNL A   1      43.027  23.904  28.184  1.00  0.00     0.037 A 
ATOM     44  C   UNL A   1      42.557  29.751  32.298  1.00  0.00     0.037 A 
ATOM     45  C   UNL A   1      44.048  24.428  29.084  1.00  0.00     0.049 A 
ATOM     46  C   UNL A   1      43.171  28.499  32.887  1.00  0.00     0.074 A 
ATOM     47  C   UNL A   1      45.171  25.220  28.918  1.00  0.00     0.029 A 
ATOM     48  N   UNL A   1      43.825  24.362  30.447  1.00  0.00    -0.354 N 
ATOM     49  N   UNL A   1      43.748  27.559  32.190  1.00  0.00    -0.248 NA
ATOM     50  C   UNL A   1      43.112  28.172  34.316  1.00  0.00     0.031 C 
ATOM     51  C   UNL A   1      45.586  25.679  30.199  1.00  0.00     0.029 A 
ATOM     52  C   UNL A   1      44.716  25.161  31.140  1.00  0.00     0.049 A 
ATOM     53  H   UNL A   1      43.120  23.819  30.870  1.00  0.00     0.167 HD
ATOM     54  C   UNL A   1      44.051  26.510  33.016  1.00  0.00     0.074 A 
ATOM     55  C   UNL A   1      43.666  26.949  34.342  1.00  0.00     0.031 C 
ATOM     56  C   UNL A   1      44.546  25.324  32.568  1.00  0.00     0.037 A 
BRANCH  43  57
ATOM     57  C   UNL A   1      43.265  22.785  27.199  1.00  0.00     0.058 A 
ATOM     58  C   UNL A   1      42.489  21.607  27.244  1.00  0.00     0.135 A 
ATOM     59  C   UNL A   1      44.278  22.795  26.222  1.00  0.00     0.135 A 
ATOM     60  F   UNL A   1      41.440  21.491  28.069  1.00  0.00    -0.206 F 
ATOM     61  C   UNL A   1      42.772  20.486  26.465  1.00  0.00     0.059 A 
ATOM     62  C   UNL A   1      44.621  21.664  25.472  1.00  0.00     0.059 A 
ATOM     63  F   UNL A   1      44.959  23.917  25.944  1.00  0.00    -0.206 F 
ATOM     64  C   UNL A   1      43.866  20.506  25.611  1.00  0.00     0.060 A 
BRANCH  64  65
ATOM     65  S   UNL A   1      44.302  18.999  24.723  1.00  0.00     0.124 S 
ATOM     66  O   UNL A   1      43.200  18.105  25.068  1.00  0.00    -0.237 OA
ATOM     67  O   UNL A   1      44.334  19.462  23.339  1.00  0.00    -0.237 OA
ATOM     68  O   UNL A   1      45.595  18.631  25.294  1.00  0.00    -0.744 OA
ENDBRANCH  64  65
ENDBRANCH  43  57
BRANCH  44  69
ATOM     69  C   UNL A   1      41.381  30.482  32.846  1.00  0.00     0.058 A 
ATOM     70  C   UNL A   1      40.212  29.737  33.090  1.00  0.00     0.135 A 
ATOM     71  C   UNL A   1      41.529  31.700  33.521  1.00  0.00     0.135 A 
ATOM     72  F   UNL A   1      40.010  28.574  32.447  1.00  0.00    -0.206 F 
ATOM     73  C   UNL A   1      39.327  30.080  34.105  1.00  0.00     0.059 A 
ATOM     74  C   UNL A   1      40.644  32.074  34.531  1.00  0.00     0.059 A 
ATOM     75  F   UNL A   1      42.615  32.460  33.317  1.00  0.00    -0.206 F 
ATOM     76  C   UNL A   1      39.602  31.208  34.874  1.00  0.00     0.060 A 
BRANCH  76  77
ATOM     77  S   UNL A   1      38.690  31.422  36.422  1.00  0.00     0.124 S 
ATOM     78  O   UNL A   1      37.592  32.290  36.012  1.00  0.00    -0.237 OA
ATOM     79  O   UNL A   1      38.321  30.043  36.753  1.00  0.00    -0.237 OA
ATOM     80  O   UNL A   1      39.678  32.029  37.306  1.00  0.00    -0.744 OA
ENDBRANCH  76  77
ENDBRANCH  44  69
BRANCH  56  81
ATOM     81  C   UNL A   1      44.908  24.216  33.499  1.00  0.00     0.058 A 
ATOM     82  C   UNL A   1      46.167  24.174  34.118  1.00  0.00     0.135 A 
ATOM     83  C   UNL A   1      44.058  23.112  33.692  1.00  0.00     0.135 A 
ATOM     84  F   UNL A   1      47.037  25.185  33.959  1.00  0.00    -0.206 F 
ATOM     85  C   UNL A   1      46.563  23.094  34.902  1.00  0.00     0.059 A 
ATOM     86  C   UNL A   1      44.444  22.009  34.446  1.00  0.00     0.059 A 
ATOM     87  F   UNL A   1      42.827  23.093  33.158  1.00  0.00    -0.206 F 
ATOM     88  C   UNL A   1      45.693  22.013  35.058  1.00  0.00     0.060 A 
BRANCH  88  89
ATOM     89  S   UNL A   1      46.214  20.588  36.034  1.00  0.00     0.124 S 
ATOM     90  O   UNL A   1      47.614  20.421  35.649  1.00  0.00    -0.237 OA
ATOM     91  O   UNL A   1      45.989  21.068  37.393  1.00  0.00    -0.237 OA
ATOM     92  O   UNL A   1      45.318  19.530  35.579  1.00  0.00    -0.744 OA
ENDBRANCH  88  89
ENDBRANCH  56  81
ENDBRANCH  30  31
ENDBRANCH  22  25
ENDBRANCH  20  21
ENDBRANCH   1  20
TORSDOF 16
ENDMDL
MODEL 2
REMARK VINA RESULT:     -13.4      0.974      1.725
REMARK SMILES Cc1ccc(S(=O)(=O)/C=C/C(=O)NCCCCNC(=O)c2ccc(-c3c4nc(c(-c5c(F)cc(S(=O)(=O)[O-])cc5F)c5ccc([nH]5)c(-c5c(F)cc(S(=O)(=O)[O-])cc5F)c5nc(c(-c6c(F)cc(S(=O)(=O)[O-])cc6F)c6ccc3[nH]6)C=C5)C=C4)cc2)cc1
REMARK SMILES IDX 16 1 15 2 14 3 13 4 11 5 12 6 10 8 9 9 6 10 7 11 8 12 5 13
REMARK SMILES IDX 1 14 2 15 3 16 88 17 4 18 87 19 17 20 18 21 19 22 20 24
REMARK SMILES IDX 21 25 22 26 86 27 23 28 85 29 24 30 25 31 26 32 79 33 27 34
REMARK SMILES IDX 84 35 78 36 80 37 28 38 83 39 77 40 76 41 29 43 63 44 42 45
REMARK SMILES IDX 62 46 43 47 46 48 61 49 81 50 44 51 45 52 60 54 82 55 47 56
REMARK SMILES IDX 30 57 31 58 40 59 32 60 33 61 39 62 41 63 34 64 35 65 36 66
REMARK SMILES IDX 37 67 38 68 64 69 65 70 74 71 66 72 67 73 73 74 75 75 68 76
REMARK SMILES IDX 69 77 70 78 71 79 72 80 48 81 49 82 58 83 50 84 51 85 57 86
REMARK SMILES IDX 59 87 52 88 53 89 54 90 55 91 56 92
REMARK H PARENT 13 7 18 23 80 42 46 53
REMARK Flexibility Score: inf
ROOT
ATOM      1  C   UNL A   1      32.941  30.121  27.044  1.00  0.00     0.023 C 
ENDROOT
BRANCH   1   2
ATOM      2  C   UNL A   1      32.114  28.924  26.560  1.00  0.00     0.023 C 
BRANCH   2   3
ATOM      3  C   UNL A   1      31.626  29.001  25.107  1.00  0.00     0.116 C 
BRANCH   3   4
ATOM      4  N   UNL A   1      32.702  29.303  24.170  1.00  0.00    -0.353 N 
ATOM      5  C   UNL A   1      33.517  28.457  23.487  1.00  0.00     0.244 C 
ATOM      6  O   UNL A   1      34.345  28.864  22.680  1.00  0.00    -0.270 OA
ATOM      7  H   UNL A   1      32.862  30.261  24.008  1.00  0.00     0.163 HD
BRANCH   5   8
ATOM      8  C   UNL A   1      33.393  27.015  23.729  1.00  0.00     0.083 C 
ATOM      9  C   UNL A   1      33.627  26.180  22.709  1.00  0.00     0.117 C 
BRANCH   9  10
ATOM     10  S   UNL A   1      33.411  24.485  22.935  1.00  0.00     0.200 S 
ATOM     11  O   UNL A   1      33.367  23.824  21.643  1.00  0.00    -0.219 OA
ATOM     12  O   UNL A   1      32.344  24.297  23.901  1.00  0.00    -0.219 OA
BRANCH  10  13
ATOM     13  C   UNL A   1      34.884  23.879  23.736  1.00  0.00     0.071 A 
ATOM     14  C   UNL A   1      38.325  22.487  25.908  1.00  0.00     0.044 C 
ATOM     15  C   UNL A   1      37.126  22.968  25.145  1.00  0.00    -0.051 A 
ATOM     16  C   UNL A   1      36.197  23.812  25.767  1.00  0.00     0.005 A 
ATOM     17  C   UNL A   1      36.931  22.604  23.806  1.00  0.00     0.005 A 
ATOM     18  C   UNL A   1      35.078  24.263  25.069  1.00  0.00     0.021 A 
ATOM     19  C   UNL A   1      35.815  23.056  23.098  1.00  0.00     0.021 A 
ENDBRANCH  10  13
ENDBRANCH   9  10
ENDBRANCH   5   8
ENDBRANCH   3   4
ENDBRANCH   2   3
ENDBRANCH   1   2
BRANCH   1  20
ATOM     20  C   UNL A   1      34.398  29.796  27.344  1.00  0.00     0.116 C 
BRANCH  20  21
ATOM     21  N   UNL A   1      35.222  30.929  27.729  1.00  0.00    -0.352 N 
ATOM     22  C   UNL A   1      36.040  30.863  28.856  1.00  0.00     0.251 C 
ATOM     23  H   UNL A   1      35.201  31.752  27.189  1.00  0.00     0.163 HD
ATOM     24  O   UNL A   1      35.992  31.631  29.794  1.00  0.00    -0.269 OA
BRANCH  22  25
ATOM     25  C   UNL A   1      37.018  29.748  28.824  1.00  0.00     0.039 A 
ATOM     26  C   UNL A   1      37.241  29.001  29.983  1.00  0.00     0.014 A 
ATOM     27  C   UNL A   1      37.870  29.644  27.726  1.00  0.00     0.014 A 
ATOM     28  C   UNL A   1      38.413  28.250  30.095  1.00  0.00     0.010 A 
ATOM     29  C   UNL A   1      39.066  28.965  27.872  1.00  0.00     0.010 A 
ATOM     30  C   UNL A   1      39.361  28.296  29.069  1.00  0.00    -0.014 A 
BRANCH  30  31
ATOM     31  C   UNL A   1      40.722  27.768  29.190  1.00  0.00     0.031 A 
ATOM     32  C   UNL A   1      41.068  26.418  28.675  1.00  0.00     0.074 A 
ATOM     33  C   UNL A   1      41.707  28.549  29.689  1.00  0.00     0.049 A 
ATOM     34  N   UNL A   1      42.137  25.764  28.998  1.00  0.00    -0.248 NA
ATOM     35  C   UNL A   1      40.200  25.679  27.765  1.00  0.00     0.031 C 
ATOM     36  C   UNL A   1      43.147  28.333  29.571  1.00  0.00     0.029 A 
ATOM     37  N   UNL A   1      41.589  29.599  30.602  1.00  0.00    -0.354 N 
ATOM     38  C   UNL A   1      42.220  24.655  28.187  1.00  0.00     0.074 A 
ATOM     39  C   UNL A   1      40.976  24.637  27.450  1.00  0.00     0.031 C 
ATOM     40  C   UNL A   1      43.769  29.011  30.546  1.00  0.00     0.029 A 
ATOM     41  C   UNL A   1      42.746  29.570  31.410  1.00  0.00     0.049 A 
ATOM     42  H   UNL A   1      40.842  30.237  30.670  1.00  0.00     0.167 HD
ATOM     43  C   UNL A   1      43.367  23.918  28.146  1.00  0.00     0.037 A 
ATOM     44  C   UNL A   1      42.652  29.356  32.756  1.00  0.00     0.037 A 
ATOM     45  C   UNL A   1      44.360  24.392  29.105  1.00  0.00     0.049 A 
ATOM     46  C   UNL A   1      43.302  28.077  33.241  1.00  0.00     0.074 A 
ATOM     47  C   UNL A   1      45.457  25.232  29.026  1.00  0.00     0.029 A 
ATOM     48  N   UNL A   1      44.122  24.198  30.453  1.00  0.00    -0.354 N 
ATOM     49  N   UNL A   1      43.918  27.222  32.472  1.00  0.00    -0.248 NA
ATOM     50  C   UNL A   1      43.236  27.623  34.634  1.00  0.00     0.031 C 
ATOM     51  C   UNL A   1      45.841  25.587  30.350  1.00  0.00     0.029 A 
ATOM     52  C   UNL A   1      44.978  24.959  31.227  1.00  0.00     0.049 A 
ATOM     53  H   UNL A   1      43.432  23.596  30.816  1.00  0.00     0.167 HD
ATOM     54  C   UNL A   1      44.246  26.114  33.205  1.00  0.00     0.074 A 
ATOM     55  C   UNL A   1      43.831  26.420  34.559  1.00  0.00     0.031 C 
ATOM     56  C   UNL A   1      44.785  24.990  32.662  1.00  0.00     0.037 A 
BRANCH  43  57
ATOM     57  C   UNL A   1      43.654  22.900  27.070  1.00  0.00     0.058 A 
ATOM     58  C   UNL A   1      42.937  21.686  27.015  1.00  0.00     0.135 A 
ATOM     59  C   UNL A   1      44.661  23.041  26.096  1.00  0.00     0.135 A 
ATOM     60  F   UNL A   1      41.899  21.449  27.828  1.00  0.00    -0.206 F 
ATOM     61  C   UNL A   1      43.270  20.650  26.143  1.00  0.00     0.059 A 
ATOM     62  C   UNL A   1      45.055  21.996  25.253  1.00  0.00     0.059 A 
ATOM     63  F   UNL A   1      45.286  24.214  25.914  1.00  0.00    -0.206 F 
ATOM     64  C   UNL A   1      44.357  20.795  25.293  1.00  0.00     0.060 A 
BRANCH  64  65
ATOM     65  S   UNL A   1      44.862  19.392  24.280  1.00  0.00     0.124 S 
ATOM     66  O   UNL A   1      44.419  19.795  22.948  1.00  0.00    -0.237 OA
ATOM     67  O   UNL A   1      46.305  19.371  24.489  1.00  0.00    -0.237 OA
ATOM     68  O   UNL A   1      44.125  18.272  24.861  1.00  0.00    -0.744 OA
ENDBRANCH  64  65
ENDBRANCH  43  57
BRANCH  44  69
ATOM     69  C   UNL A   1      41.447  29.997  33.349  1.00  0.00     0.058 A 
ATOM     70  C   UNL A   1      41.513  31.380  33.613  1.00  0.00     0.135 A 
ATOM     71  C   UNL A   1      40.178  29.418  33.228  1.00  0.00     0.135 A 
ATOM     72  F   UNL A   1      42.706  31.978  33.764  1.00  0.00    -0.206 F 
ATOM     73  C   UNL A   1      40.384  32.187  33.557  1.00  0.00     0.059 A 
ATOM     74  C   UNL A   1      39.029  30.207  33.187  1.00  0.00     0.059 A 
ATOM     75  F   UNL A   1      40.053  28.104  32.992  1.00  0.00    -0.206 F 
ATOM     76  C   UNL A   1      39.158  31.596  33.260  1.00  0.00     0.060 A 
BRANCH  76  77
ATOM     77  S   UNL A   1      37.784  32.680  32.798  1.00  0.00     0.124 S 
ATOM     78  O   UNL A   1      37.830  33.695  33.843  1.00  0.00    -0.237 OA
ATOM     79  O   UNL A   1      38.184  33.126  31.460  1.00  0.00    -0.237 OA
ATOM     80  O   UNL A   1      36.632  31.787  32.835  1.00  0.00    -0.744 OA
ENDBRANCH  76  77
ENDBRANCH  44  69
BRANCH  56  81
ATOM     81  C   UNL A   1      45.173  23.815  33.495  1.00  0.00     0.058 A 
ATOM     82  C   UNL A   1      44.263  22.777  33.751  1.00  0.00     0.135 A 
ATOM     83  C   UNL A   1      46.412  23.761  34.158  1.00  0.00     0.135 A 
ATOM     84  F   UNL A   1      43.053  22.776  33.169  1.00  0.00    -0.206 F 
ATOM     85  C   UNL A   1      44.569  21.728  34.614  1.00  0.00     0.059 A 
ATOM     86  C   UNL A   1      46.729  22.739  35.046  1.00  0.00     0.059 A 
ATOM     87  F   UNL A   1      47.347  24.699  33.941  1.00  0.00    -0.206 F 
ATOM     88  C   UNL A   1      45.806  21.719  35.259  1.00  0.00     0.060 A 
BRANCH  88  89
ATOM     89  S   UNL A   1      46.196  20.390  36.415  1.00  0.00     0.124 S 
ATOM     90  O   UNL A   1      47.625  20.177  36.199  1.00  0.00    -0.237 OA
ATOM     91  O   UNL A   1      45.837  21.000  37.690  1.00  0.00    -0.237 OA
ATOM     92  O   UNL A   1      45.334  19.300  35.969  1.00  0.00    -0.744 OA
ENDBRANCH  88  89
ENDBRANCH  56  81
ENDBRANCH  30  31
ENDBRANCH  22  25
ENDBRANCH  20  21
ENDBRANCH   1  20
TORSDOF 16
ENDMDL
MODEL 3
REMARK VINA RESULT:     -13.0      5.082     11.452
REMARK SMILES Cc1ccc(S(=O)(=O)/C=C/C(=O)NCCCCNC(=O)c2ccc(-c3c4nc(c(-c5c(F)cc(S(=O)(=O)[O-])cc5F)c5ccc([nH]5)c(-c5c(F)cc(S(=O)(=O)[O-])cc5F)c5nc(c(-c6c(F)cc(S(=O)(=O)[O-])cc6F)c6ccc3[nH]6)C=C5)C=C4)cc2)cc1
REMARK SMILES IDX 16 1 15 2 14 3 13 4 11 5 12 6 10 8 9 9 6 10 7 11 8 12 5 13
REMARK SMILES IDX 1 14 2 15 3 16 88 17 4 18 87 19 17 20 18 21 19 22 20 24
REMARK SMILES IDX 21 25 22 26 86 27 23 28 85 29 24 30 25 31 26 32 79 33 27 34
REMARK SMILES IDX 84 35 78 36 80 37 28 38 83 39 77 40 76 41 29 43 63 44 42 45
REMARK SMILES IDX 62 46 43 47 46 48 61 49 81 50 44 51 45 52 60 54 82 55 47 56
REMARK SMILES IDX 30 57 31 58 40 59 32 60 33 61 39 62 41 63 34 64 35 65 36 66
REMARK SMILES IDX 37 67 38 68 64 69 65 70 74 71 66 72 67 73 73 74 75 75 68 76
REMARK SMILES IDX 69 77 70 78 71 79 72 80 48 81 49 82 58 83 50 84 51 85 57 86
REMARK SMILES IDX 59 87 52 88 53 89 54 90 55 91 56 92
REMARK H PARENT 13 7 18 23 80 42 46 53
REMARK Flexibility Score: inf
ROOT
ATOM      1  C   UNL A   1      37.277  21.772  25.546  1.00  0.00     0.023 C 
ENDROOT
BRANCH   1   2
ATOM      2  C   UNL A   1      36.461  21.936  24.258  1.00  0.00     0.023 C 
BRANCH   2   3
ATOM      3  C   UNL A   1      34.986  22.315  24.452  1.00  0.00     0.116 C 
BRANCH   3   4
ATOM      4  N   UNL A   1      34.151  21.166  24.783  1.00  0.00    -0.353 N 
ATOM      5  C   UNL A   1      32.802  21.087  24.919  1.00  0.00     0.244 C 
ATOM      6  O   UNL A   1      32.233  20.024  25.144  1.00  0.00    -0.270 OA
ATOM      7  H   UNL A   1      34.637  20.322  24.930  1.00  0.00     0.163 HD
BRANCH   5   8
ATOM      8  C   UNL A   1      32.010  22.316  24.789  1.00  0.00     0.083 C 
ATOM      9  C   UNL A   1      31.737  23.013  25.900  1.00  0.00     0.117 C 
BRANCH   9  10
ATOM     10  S   UNL A   1      30.741  24.416  25.796  1.00  0.00     0.200 S 
ATOM     11  O   UNL A   1      29.762  24.396  26.867  1.00  0.00    -0.219 OA
ATOM     12  O   UNL A   1      30.327  24.566  24.414  1.00  0.00    -0.219 OA
BRANCH  10  13
ATOM     13  C   UNL A   1      31.791  25.818  26.129  1.00  0.00     0.071 A 
ATOM     14  C   UNL A   1      34.497  29.103  26.745  1.00  0.00     0.044 C 
ATOM     15  C   UNL A   1      33.548  27.960  26.533  1.00  0.00    -0.051 A 
ATOM     16  C   UNL A   1      33.989  26.799  25.887  1.00  0.00     0.005 A 
ATOM     17  C   UNL A   1      32.226  28.029  26.992  1.00  0.00     0.005 A 
ATOM     18  C   UNL A   1      33.115  25.733  25.681  1.00  0.00     0.021 A 
ATOM     19  C   UNL A   1      31.345  26.962  26.794  1.00  0.00     0.021 A 
ENDBRANCH  10  13
ENDBRANCH   9  10
ENDBRANCH   5   8
ENDBRANCH   3   4
ENDBRANCH   2   3
ENDBRANCH   1   2
BRANCH   1  20
ATOM     20  C   UNL A   1      38.083  23.002  25.939  1.00  0.00     0.116 C 
BRANCH  20  21
ATOM     21  N   UNL A   1      39.204  22.752  26.828  1.00  0.00    -0.352 N 
ATOM     22  C   UNL A   1      40.262  23.657  26.911  1.00  0.00     0.251 C 
ATOM     23  H   UNL A   1      39.217  21.936  27.378  1.00  0.00     0.163 HD
ATOM     24  O   UNL A   1      41.426  23.384  26.705  1.00  0.00    -0.269 OA
BRANCH  22  25
ATOM     25  C   UNL A   1      39.850  25.032  27.287  1.00  0.00     0.039 A 
ATOM     26  C   UNL A   1      40.316  26.115  26.538  1.00  0.00     0.014 A 
ATOM     27  C   UNL A   1      39.229  25.224  28.520  1.00  0.00     0.014 A 
ATOM     28  C   UNL A   1      40.287  27.394  27.098  1.00  0.00     0.010 A 
ATOM     29  C   UNL A   1      39.277  26.477  29.102  1.00  0.00     0.010 A 
ATOM     30  C   UNL A   1      39.840  27.560  28.411  1.00  0.00    -0.014 A 
BRANCH  30  31
ATOM     31  C   UNL A   1      40.010  28.794  29.182  1.00  0.00     0.031 A 
ATOM     32  C   UNL A   1      38.971  29.856  29.166  1.00  0.00     0.074 A 
ATOM     33  C   UNL A   1      41.078  28.938  29.998  1.00  0.00     0.049 A 
ATOM     34  N   UNL A   1      39.163  31.073  29.562  1.00  0.00    -0.248 NA
ATOM     35  C   UNL A   1      37.620  29.626  28.664  1.00  0.00     0.031 C 
ATOM     36  C   UNL A   1      41.240  29.912  31.074  1.00  0.00     0.029 A 
ATOM     37  N   UNL A   1      42.341  28.355  29.868  1.00  0.00    -0.354 N 
ATOM     38  C   UNL A   1      37.944  31.710  29.590  1.00  0.00     0.074 A 
ATOM     39  C   UNL A   1      37.017  30.770  29.000  1.00  0.00     0.031 C 
ATOM     40  C   UNL A   1      42.547  30.063  31.331  1.00  0.00     0.029 A 
ATOM     41  C   UNL A   1      43.279  29.301  30.336  1.00  0.00     0.049 A 
ATOM     42  H   UNL A   1      42.540  27.457  29.516  1.00  0.00     0.167 HD
ATOM     43  C   UNL A   1      37.818  32.927  30.195  1.00  0.00     0.037 A 
ATOM     44  C   UNL A   1      44.232  29.811  29.502  1.00  0.00     0.037 A 
ATOM     45  C   UNL A   1      39.099  33.444  30.662  1.00  0.00     0.049 A 
ATOM     46  C   UNL A   1      44.119  31.299  29.244  1.00  0.00     0.074 A 
ATOM     47  C   UNL A   1      39.760  33.436  31.879  1.00  0.00     0.029 A 
ATOM     48  N   UNL A   1      40.029  33.855  29.724  1.00  0.00    -0.354 N 
ATOM     49  N   UNL A   1      43.203  32.072  29.761  1.00  0.00    -0.248 NA
ATOM     50  C   UNL A   1      44.991  32.020  28.311  1.00  0.00     0.031 C 
ATOM     51  C   UNL A   1      41.118  33.793  31.649  1.00  0.00     0.029 A 
ATOM     52  C   UNL A   1      41.277  34.020  30.295  1.00  0.00     0.049 A 
ATOM     53  H   UNL A   1      39.828  34.008  28.772  1.00  0.00     0.167 HD
ATOM     54  C   UNL A   1      43.299  33.317  29.200  1.00  0.00     0.074 A 
ATOM     55  C   UNL A   1      44.450  33.250  28.324  1.00  0.00     0.031 C 
ATOM     56  C   UNL A   1      42.406  34.315  29.437  1.00  0.00     0.037 A 
BRANCH  43  57
ATOM     57  C   UNL A   1      36.483  33.536  30.549  1.00  0.00     0.058 A 
ATOM     58  C   UNL A   1      35.614  34.007  29.542  1.00  0.00     0.135 A 
ATOM     59  C   UNL A   1      36.028  33.731  31.867  1.00  0.00     0.135 A 
ATOM     60  F   UNL A   1      35.881  33.817  28.243  1.00  0.00    -0.206 F 
ATOM     61  C   UNL A   1      34.448  34.718  29.821  1.00  0.00     0.059 A 
ATOM     62  C   UNL A   1      34.896  34.494  32.175  1.00  0.00     0.059 A 
ATOM     63  F   UNL A   1      36.660  33.165  32.906  1.00  0.00    -0.206 F 
ATOM     64  C   UNL A   1      34.116  34.995  31.140  1.00  0.00     0.060 A 
BRANCH  64  65
ATOM     65  S   UNL A   1      32.686  36.040  31.475  1.00  0.00     0.124 S 
ATOM     66  O   UNL A   1      33.297  37.218  32.085  1.00  0.00    -0.237 OA
ATOM     67  O   UNL A   1      32.133  36.232  30.139  1.00  0.00    -0.237 OA
ATOM     68  O   UNL A   1      31.877  35.228  32.381  1.00  0.00    -0.744 OA
ENDBRANCH  64  65
ENDBRANCH  43  57
BRANCH  44  69
ATOM     69  C   UNL A   1      44.740  28.798  28.536  1.00  0.00     0.058 A 
ATOM     70  C   UNL A   1      44.123  28.744  27.271  1.00  0.00     0.135 A 
ATOM     71  C   UNL A   1      46.024  28.254  28.657  1.00  0.00     0.135 A 
ATOM     72  F   UNL A   1      42.880  29.229  27.109  1.00  0.00    -0.206 F 
ATOM     73  C   UNL A   1      44.822  28.354  26.135  1.00  0.00     0.059 A 
ATOM     74  C   UNL A   1      46.739  27.840  27.533  1.00  0.00     0.059 A 
ATOM     75  F   UNL A   1      46.656  28.264  29.841  1.00  0.00    -0.206 F 
ATOM     76  C   UNL A   1      46.157  27.983  26.271  1.00  0.00     0.060 A 
BRANCH  76  77
ATOM     77  S   UNL A   1      47.161  27.867  24.770  1.00  0.00     0.124 S 
ATOM     78  O   UNL A   1      48.517  27.939  25.303  1.00  0.00    -0.237 OA
ATOM     79  O   UNL A   1      46.758  26.565  24.232  1.00  0.00    -0.237 OA
ATOM     80  O   UNL A   1      46.727  29.021  23.991  1.00  0.00    -0.744 OA
ENDBRANCH  76  77
ENDBRANCH  44  69
BRANCH  56  81
ATOM     81  C   UNL A   1      42.562  35.675  28.846  1.00  0.00     0.058 A 
ATOM     82  C   UNL A   1      43.320  36.663  29.494  1.00  0.00     0.135 A 
ATOM     83  C   UNL A   1      41.860  36.058  27.690  1.00  0.00     0.135 A 
ATOM     84  F   UNL A   1      43.999  36.372  30.616  1.00  0.00    -0.206 F 
ATOM     85  C   UNL A   1      43.388  37.968  29.014  1.00  0.00     0.059 A 
ATOM     86  C   UNL A   1      41.889  37.363  27.208  1.00  0.00     0.059 A 
ATOM     87  F   UNL A   1      41.140  35.163  26.997  1.00  0.00    -0.206 F 
ATOM     88  C   UNL A   1      42.666  38.309  27.870  1.00  0.00     0.060 A 
BRANCH  88  89
ATOM     89  S   UNL A   1      42.710  40.008  27.265  1.00  0.00     0.124 S 
ATOM     90  O   UNL A   1      41.376  40.187  26.695  1.00  0.00    -0.237 OA
ATOM     91  O   UNL A   1      42.972  40.747  28.496  1.00  0.00    -0.237 OA
ATOM     92  O   UNL A   1      43.799  39.987  26.295  1.00  0.00    -0.744 OA
ENDBRANCH  88  89
ENDBRANCH  56  81
ENDBRANCH  30  31
ENDBRANCH  22  25
ENDBRANCH  20  21
ENDBRANCH   1  20
TORSDOF 16
ENDMDL
