MODEL 1
REMARK VINA RESULT:      -9.0      0.000      0.000
REMARK SMILES C[C@@H](C(=O)NCCCCNC(=O)c1ccc(-c2c3nc(c(-c4c(F)cc(S(=O)(=O)[O-])cc4F)c4ccc([nH]4)c(-c4c(F)cc(S(=O)(=O)[O-])cc4F)c4nc(c(-c5c(F)cc(S(=O)(=O)[O-])cc5F)c5ccc2[nH]5)C=C4)C=C3)cc1)c1ccc(C[C@H]2CCC[C@H]2O)cc1
REMARK SMILES IDX 7 1 6 2 5 3 3 4 4 5 2 7 1 8 79 9 80 10 91 11 81 12 90 13
REMARK SMILES IDX 82 14 83 15 84 16 85 17 88 18 86 19 87 20 89 21 8 23 9 24
REMARK SMILES IDX 10 25 11 26 12 28 13 29 14 30 78 31 15 32 77 33 16 34 17 35
REMARK SMILES IDX 18 36 71 37 19 38 76 39 70 40 72 41 20 42 75 43 69 44 68 45
REMARK SMILES IDX 21 47 55 48 34 49 54 50 35 51 38 52 53 53 73 54 36 55 37 56
REMARK SMILES IDX 52 58 74 59 39 60 22 61 23 62 32 63 24 64 25 65 31 66 33 67
REMARK SMILES IDX 26 68 27 69 28 70 29 71 30 72 56 73 57 74 66 75 58 76 59 77
REMARK SMILES IDX 65 78 67 79 60 80 61 81 62 82 63 83 64 84 40 85 41 86 50 87
REMARK SMILES IDX 42 88 43 89 49 90 51 91 44 92 45 93 46 94 47 95 48 96
REMARK H PARENT 5 6 89 22 10 27 72 46 38 57
REMARK Flexibility Score: inf
ROOT
ATOM      1  C   UNL A   1      43.086  21.315  25.979  1.00  0.00     0.023 C 
ENDROOT
BRANCH   1   2
ATOM      2  C   UNL A   1      44.378  22.122  26.149  1.00  0.00     0.116 C 
BRANCH   2   3
ATOM      3  N   UNL A   1      44.408  22.773  27.443  1.00  0.00    -0.356 N 
ATOM      4  C   UNL A   1      45.213  23.789  27.875  1.00  0.00     0.227 C 
ATOM      5  O   UNL A   1      45.412  23.846  29.090  1.00  0.00    -0.274 OA
ATOM      6  H   UNL A   1      43.757  22.437  28.102  1.00  0.00     0.163 HD
BRANCH   4   7
ATOM      7  C   UNL A   1      45.826  24.763  26.854  1.00  0.00     0.105 C 
ATOM      8  C   UNL A   1      47.348  24.765  27.040  1.00  0.00     0.023 C 
BRANCH   7   9
ATOM      9  C   UNL A   1      45.271  26.195  26.860  1.00  0.00    -0.036 A 
ATOM     10  C   UNL A   1      45.823  27.231  27.622  1.00  0.00     0.005 A 
ATOM     11  C   UNL A   1      44.123  26.497  26.104  1.00  0.00     0.005 A 
ATOM     12  C   UNL A   1      45.287  28.521  27.595  1.00  0.00     0.004 A 
ATOM     13  C   UNL A   1      43.574  27.783  26.090  1.00  0.00     0.004 A 
ATOM     14  C   UNL A   1      44.139  28.805  26.856  1.00  0.00    -0.048 A 
BRANCH  14  15
ATOM     15  C   UNL A   1      43.510  30.173  26.914  1.00  0.00     0.041 C 
BRANCH  15  16
ATOM     16  C   UNL A   1      44.208  31.230  27.787  1.00  0.00     0.022 C 
ATOM     17  C   UNL A   1      44.152  32.680  27.276  1.00  0.00     0.007 C 
ATOM     18  C   UNL A   1      43.805  31.325  29.267  1.00  0.00     0.117 C 
ATOM     19  C   UNL A   1      44.213  33.572  28.519  1.00  0.00     0.003 C 
ATOM     20  C   UNL A   1      44.452  32.636  29.700  1.00  0.00     0.032 C 
BRANCH  18  21
ATOM     21  O   UNL A   1      42.412  31.410  29.504  1.00  0.00    -0.393 OA
ATOM     22  H   UNL A   1      42.143  30.702  30.111  1.00  0.00     0.210 HD
ENDBRANCH  18  21
ENDBRANCH  15  16
ENDBRANCH  14  15
ENDBRANCH   7   9
ENDBRANCH   4   7
ENDBRANCH   2   3
ENDBRANCH   1   2
BRANCH   1  23
ATOM     23  C   UNL A   1      41.827  22.156  25.751  1.00  0.00     0.023 C 
BRANCH  23  24
ATOM     24  C   UNL A   1      40.595  21.674  26.501  1.00  0.00     0.116 C 
BRANCH  24  25
ATOM     25  N   UNL A   1      39.356  22.048  25.833  1.00  0.00    -0.352 N 
ATOM     26  C   UNL A   1      38.642  23.217  25.955  1.00  0.00     0.251 C 
ATOM     27  H   UNL A   1      38.984  21.379  25.215  1.00  0.00     0.163 HD
ATOM     28  O   UNL A   1      37.540  23.328  25.435  1.00  0.00    -0.269 OA
BRANCH  26  29
ATOM     29  C   UNL A   1      39.215  24.320  26.754  1.00  0.00     0.039 A 
ATOM     30  C   UNL A   1      40.029  25.264  26.125  1.00  0.00     0.014 A 
ATOM     31  C   UNL A   1      38.902  24.440  28.111  1.00  0.00     0.014 A 
ATOM     32  C   UNL A   1      40.480  26.372  26.844  1.00  0.00     0.010 A 
ATOM     33  C   UNL A   1      39.296  25.576  28.806  1.00  0.00     0.010 A 
ATOM     34  C   UNL A   1      40.088  26.553  28.180  1.00  0.00    -0.014 A 
BRANCH  34  35
ATOM     35  C   UNL A   1      40.495  27.743  28.967  1.00  0.00     0.031 A 
ATOM     36  C   UNL A   1      41.784  27.709  29.738  1.00  0.00     0.074 A 
ATOM     37  C   UNL A   1      39.662  28.794  29.080  1.00  0.00     0.049 A 
ATOM     38  N   UNL A   1      42.238  28.549  30.630  1.00  0.00    -0.248 NA
ATOM     39  C   UNL A   1      42.659  26.549  29.500  1.00  0.00     0.031 C 
ATOM     40  C   UNL A   1      38.366  28.924  28.411  1.00  0.00     0.029 A 
ATOM     41  N   UNL A   1      39.768  29.940  29.826  1.00  0.00    -0.354 N 
ATOM     42  C   UNL A   1      43.429  28.003  31.089  1.00  0.00     0.074 A 
ATOM     43  C   UNL A   1      43.611  26.743  30.402  1.00  0.00     0.031 C 
ATOM     44  C   UNL A   1      37.799  30.085  28.776  1.00  0.00     0.029 A 
ATOM     45  C   UNL A   1      38.669  30.761  29.734  1.00  0.00     0.049 A 
ATOM     46  H   UNL A   1      40.557  30.155  30.375  1.00  0.00     0.167 HD
ATOM     47  C   UNL A   1      44.299  28.511  31.995  1.00  0.00     0.037 A 
ATOM     48  C   UNL A   1      38.385  31.915  30.367  1.00  0.00     0.037 A 
ATOM     49  C   UNL A   1      44.129  29.784  32.643  1.00  0.00     0.049 A 
ATOM     50  C   UNL A   1      39.381  32.484  31.340  1.00  0.00     0.074 A 
ATOM     51  C   UNL A   1      44.980  30.420  33.529  1.00  0.00     0.029 A 
ATOM     52  N   UNL A   1      43.033  30.619  32.472  1.00  0.00    -0.354 N 
ATOM     53  N   UNL A   1      40.525  31.978  31.734  1.00  0.00    -0.248 NA
ATOM     54  C   UNL A   1      39.053  33.779  31.951  1.00  0.00     0.031 C 
ATOM     55  C   UNL A   1      44.386  31.628  33.913  1.00  0.00     0.029 A 
ATOM     56  C   UNL A   1      43.183  31.761  33.238  1.00  0.00     0.049 A 
ATOM     57  H   UNL A   1      42.262  30.425  31.890  1.00  0.00     0.167 HD
ATOM     58  C   UNL A   1      41.067  32.904  32.617  1.00  0.00     0.074 A 
ATOM     59  C   UNL A   1      40.125  34.003  32.699  1.00  0.00     0.031 C 
ATOM     60  C   UNL A   1      42.241  32.852  33.293  1.00  0.00     0.037 A 
BRANCH  47  61
ATOM     61  C   UNL A   1      45.501  27.677  32.335  1.00  0.00     0.058 A 
ATOM     62  C   UNL A   1      45.491  26.773  33.410  1.00  0.00     0.135 A 
ATOM     63  C   UNL A   1      46.684  27.796  31.589  1.00  0.00     0.135 A 
ATOM     64  F   UNL A   1      44.390  26.633  34.166  1.00  0.00    -0.206 F 
ATOM     65  C   UNL A   1      46.627  26.053  33.765  1.00  0.00     0.059 A 
ATOM     66  C   UNL A   1      47.825  27.065  31.909  1.00  0.00     0.059 A 
ATOM     67  F   UNL A   1      46.748  28.643  30.551  1.00  0.00    -0.206 F 
ATOM     68  C   UNL A   1      47.793  26.214  33.014  1.00  0.00     0.060 A 
BRANCH  68  69
ATOM     69  S   UNL A   1      49.273  25.306  33.506  1.00  0.00     0.124 S 
ATOM     70  O   UNL A   1      48.743  23.956  33.666  1.00  0.00    -0.237 OA
ATOM     71  O   UNL A   1      50.161  25.506  32.364  1.00  0.00    -0.237 OA
ATOM     72  O   UNL A   1      49.685  25.972  34.738  1.00  0.00    -0.744 OA
ENDBRANCH  68  69
ENDBRANCH  47  61
BRANCH  48  73
ATOM     73  C   UNL A   1      37.110  32.617  30.069  1.00  0.00     0.058 A 
ATOM     74  C   UNL A   1      35.964  32.379  30.840  1.00  0.00     0.135 A 
ATOM     75  C   UNL A   1      37.027  33.579  29.050  1.00  0.00     0.135 A 
ATOM     76  F   UNL A   1      35.994  31.464  31.821  1.00  0.00    -0.206 F 
ATOM     77  C   UNL A   1      34.780  33.072  30.617  1.00  0.00     0.059 A 
ATOM     78  C   UNL A   1      35.858  34.300  28.820  1.00  0.00     0.059 A 
ATOM     79  F   UNL A   1      38.102  33.854  28.295  1.00  0.00    -0.206 F 
ATOM     80  C   UNL A   1      34.739  34.037  29.609  1.00  0.00     0.060 A 
BRANCH  80  81
ATOM     81  S   UNL A   1      33.222  34.993  29.386  1.00  0.00     0.124 S 
ATOM     82  O   UNL A   1      32.529  34.213  28.368  1.00  0.00    -0.237 OA
ATOM     83  O   UNL A   1      32.638  34.958  30.724  1.00  0.00    -0.237 OA
ATOM     84  O   UNL A   1      33.711  36.301  28.960  1.00  0.00    -0.744 OA
ENDBRANCH  80  81
ENDBRANCH  48  73
BRANCH  60  85
ATOM     85  C   UNL A   1      42.605  34.030  34.150  1.00  0.00     0.058 A 
ATOM     86  C   UNL A   1      42.293  34.072  35.516  1.00  0.00     0.135 A 
ATOM     87  C   UNL A   1      43.353  35.090  33.611  1.00  0.00     0.135 A 
ATOM     88  F   UNL A   1      41.573  33.087  36.075  1.00  0.00    -0.206 F 
ATOM     89  C   UNL A   1      42.708  35.128  36.321  1.00  0.00     0.059 A 
ATOM     90  C   UNL A   1      43.795  36.145  34.401  1.00  0.00     0.059 A 
ATOM     91  F   UNL A   1      43.682  35.091  32.309  1.00  0.00    -0.206 F 
ATOM     92  C   UNL A   1      43.464  36.158  35.755  1.00  0.00     0.060 A 
BRANCH  92  93
ATOM     93  S   UNL A   1      44.055  37.489  36.823  1.00  0.00     0.124 S 
ATOM     94  O   UNL A   1      45.396  37.022  37.160  1.00  0.00    -0.237 OA
ATOM     95  O   UNL A   1      43.991  38.651  35.942  1.00  0.00    -0.237 OA
ATOM     96  O   UNL A   1      43.095  37.492  37.922  1.00  0.00    -0.744 OA
ENDBRANCH  92  93
ENDBRANCH  60  85
ENDBRANCH  34  35
ENDBRANCH  26  29
ENDBRANCH  24  25
ENDBRANCH  23  24
ENDBRANCH   1  23
TORSDOF 18
ENDMDL
MODEL 2
REMARK VINA RESULT:      -8.8      4.677      7.639
REMARK SMILES C[C@@H](C(=O)NCCCCNC(=O)c1ccc(-c2c3nc(c(-c4c(F)cc(S(=O)(=O)[O-])cc4F)c4ccc([nH]4)c(-c4c(F)cc(S(=O)(=O)[O-])cc4F)c4nc(c(-c5c(F)cc(S(=O)(=O)[O-])cc5F)c5ccc2[nH]5)C=C4)C=C3)cc1)c1ccc(C[C@H]2CCC[C@H]2O)cc1
REMARK SMILES IDX 7 1 6 2 5 3 3 4 4 5 2 7 1 8 79 9 80 10 91 11 81 12 90 13
REMARK SMILES IDX 82 14 83 15 84 16 85 17 88 18 86 19 87 20 89 21 8 23 9 24
REMARK SMILES IDX 10 25 11 26 12 28 13 29 14 30 78 31 15 32 77 33 16 34 17 35
REMARK SMILES IDX 18 36 71 37 19 38 76 39 70 40 72 41 20 42 75 43 69 44 68 45
REMARK SMILES IDX 21 47 55 48 34 49 54 50 35 51 38 52 53 53 73 54 36 55 37 56
REMARK SMILES IDX 52 58 74 59 39 60 22 61 23 62 32 63 24 64 25 65 31 66 33 67
REMARK SMILES IDX 26 68 27 69 28 70 29 71 30 72 56 73 57 74 66 75 58 76 59 77
REMARK SMILES IDX 65 78 67 79 60 80 61 81 62 82 63 83 64 84 40 85 41 86 50 87
REMARK SMILES IDX 42 88 43 89 49 90 51 91 44 92 45 93 46 94 47 95 48 96
REMARK H PARENT 5 6 89 22 10 27 72 46 38 57
REMARK Flexibility Score: inf
ROOT
ATOM      1  C   UNL A   1      35.862  24.131  25.378  1.00  0.00     0.023 C 
ENDROOT
BRANCH   1   2
ATOM      2  C   UNL A   1      34.918  23.455  24.378  1.00  0.00     0.116 C 
BRANCH   2   3
ATOM      3  N   UNL A   1      34.603  24.352  23.286  1.00  0.00    -0.356 N 
ATOM      4  C   UNL A   1      33.383  24.662  22.752  1.00  0.00     0.227 C 
ATOM      5  O   UNL A   1      33.380  25.027  21.576  1.00  0.00    -0.274 OA
ATOM      6  H   UNL A   1      35.374  24.802  22.870  1.00  0.00     0.163 HD
BRANCH   4   7
ATOM      7  C   UNL A   1      32.116  24.521  23.615  1.00  0.00     0.105 C 
ATOM      8  C   UNL A   1      31.474  23.162  23.313  1.00  0.00     0.023 C 
BRANCH   7   9
ATOM      9  C   UNL A   1      31.085  25.653  23.500  1.00  0.00    -0.036 A 
ATOM     10  C   UNL A   1      29.881  25.672  24.213  1.00  0.00     0.005 A 
ATOM     11  C   UNL A   1      31.319  26.716  22.607  1.00  0.00     0.005 A 
ATOM     12  C   UNL A   1      28.972  26.725  24.080  1.00  0.00     0.004 A 
ATOM     13  C   UNL A   1      30.401  27.761  22.459  1.00  0.00     0.004 A 
ATOM     14  C   UNL A   1      29.205  27.764  23.179  1.00  0.00    -0.048 A 
BRANCH  14  15
ATOM     15  C   UNL A   1      28.173  28.841  22.970  1.00  0.00     0.041 C 
BRANCH  15  16
ATOM     16  C   UNL A   1      28.685  30.241  22.587  1.00  0.00     0.022 C 
ATOM     17  C   UNL A   1      28.333  30.731  21.173  1.00  0.00     0.007 C 
ATOM     18  C   UNL A   1      28.325  31.418  23.506  1.00  0.00     0.117 C 
ATOM     19  C   UNL A   1      28.266  32.259  21.257  1.00  0.00     0.003 C 
ATOM     20  C   UNL A   1      28.723  32.626  22.665  1.00  0.00     0.032 C 
BRANCH  18  21
ATOM     21  O   UNL A   1      26.952  31.527  23.830  1.00  0.00    -0.393 OA
ATOM     22  H   UNL A   1      26.810  32.314  24.380  1.00  0.00     0.210 HD
ENDBRANCH  18  21
ENDBRANCH  15  16
ENDBRANCH  14  15
ENDBRANCH   7   9
ENDBRANCH   4   7
ENDBRANCH   2   3
ENDBRANCH   1   2
BRANCH   1  23
ATOM     23  C   UNL A   1      37.213  23.433  25.560  1.00  0.00     0.023 C 
BRANCH  23  24
ATOM     24  C   UNL A   1      38.176  24.143  26.499  1.00  0.00     0.116 C 
BRANCH  24  25
ATOM     25  N   UNL A   1      39.569  23.883  26.168  1.00  0.00    -0.352 N 
ATOM     26  C   UNL A   1      40.681  24.605  26.532  1.00  0.00     0.251 C 
ATOM     27  H   UNL A   1      39.737  23.087  25.613  1.00  0.00     0.163 HD
ATOM     28  O   UNL A   1      41.777  24.341  26.057  1.00  0.00    -0.269 OA
BRANCH  26  29
ATOM     29  C   UNL A   1      40.520  25.727  27.481  1.00  0.00     0.039 A 
ATOM     30  C   UNL A   1      39.567  25.629  28.496  1.00  0.00     0.014 A 
ATOM     31  C   UNL A   1      41.350  26.848  27.388  1.00  0.00     0.014 A 
ATOM     32  C   UNL A   1      39.488  26.630  29.465  1.00  0.00     0.010 A 
ATOM     33  C   UNL A   1      41.315  27.810  28.389  1.00  0.00     0.010 A 
ATOM     34  C   UNL A   1      40.384  27.710  29.436  1.00  0.00    -0.014 A 
BRANCH  34  35
ATOM     35  C   UNL A   1      40.374  28.769  30.476  1.00  0.00     0.031 A 
ATOM     36  C   UNL A   1      41.283  28.641  31.666  1.00  0.00     0.074 A 
ATOM     37  C   UNL A   1      39.477  29.771  30.410  1.00  0.00     0.049 A 
ATOM     38  N   UNL A   1      41.305  29.339  32.770  1.00  0.00    -0.248 NA
ATOM     39  C   UNL A   1      42.274  27.553  31.618  1.00  0.00     0.031 C 
ATOM     40  C   UNL A   1      38.516  29.977  29.325  1.00  0.00     0.029 A 
ATOM     41  N   UNL A   1      39.206  30.786  31.292  1.00  0.00    -0.354 N 
ATOM     42  C   UNL A   1      42.280  28.752  33.566  1.00  0.00     0.074 A 
ATOM     43  C   UNL A   1      42.804  27.622  32.831  1.00  0.00     0.031 C 
ATOM     44  C   UNL A   1      37.762  31.053  29.606  1.00  0.00     0.029 A 
ATOM     45  C   UNL A   1      38.158  31.587  30.906  1.00  0.00     0.049 A 
ATOM     46  H   UNL A   1      39.715  30.927  32.123  1.00  0.00     0.167 HD
ATOM     47  C   UNL A   1      42.708  29.129  34.795  1.00  0.00     0.037 A 
ATOM     48  C   UNL A   1      37.568  32.619  31.538  1.00  0.00     0.037 A 
ATOM     49  C   UNL A   1      42.208  30.279  35.501  1.00  0.00     0.049 A 
ATOM     50  C   UNL A   1      38.083  33.048  32.884  1.00  0.00     0.074 A 
ATOM     51  C   UNL A   1      42.617  30.784  36.722  1.00  0.00     0.029 A 
ATOM     52  N   UNL A   1      41.191  31.106  35.044  1.00  0.00    -0.354 N 
ATOM     53  N   UNL A   1      39.036  32.510  33.608  1.00  0.00    -0.248 NA
ATOM     54  C   UNL A   1      37.449  34.222  33.499  1.00  0.00     0.031 C 
ATOM     55  C   UNL A   1      41.828  31.903  37.016  1.00  0.00     0.029 A 
ATOM     56  C   UNL A   1      40.955  32.114  35.961  1.00  0.00     0.049 A 
ATOM     57  H   UNL A   1      40.710  30.991  34.193  1.00  0.00     0.167 HD
ATOM     58  C   UNL A   1      39.136  33.296  34.750  1.00  0.00     0.074 A 
ATOM     59  C   UNL A   1      38.146  34.347  34.621  1.00  0.00     0.031 C 
ATOM     60  C   UNL A   1      39.975  33.163  35.806  1.00  0.00     0.037 A 
BRANCH  47  61
ATOM     61  C   UNL A   1      43.761  28.278  35.446  1.00  0.00     0.058 A 
ATOM     62  C   UNL A   1      43.426  27.221  36.308  1.00  0.00     0.135 A 
ATOM     63  C   UNL A   1      45.123  28.533  35.220  1.00  0.00     0.135 A 
ATOM     64  F   UNL A   1      42.138  26.945  36.571  1.00  0.00    -0.206 F 
ATOM     65  C   UNL A   1      44.403  26.479  36.963  1.00  0.00     0.059 A 
ATOM     66  C   UNL A   1      46.118  27.785  35.843  1.00  0.00     0.059 A 
ATOM     67  F   UNL A   1      45.499  29.529  34.403  1.00  0.00    -0.206 F 
ATOM     68  C   UNL A   1      45.748  26.776  36.732  1.00  0.00     0.060 A 
BRANCH  68  69
ATOM     69  S   UNL A   1      47.008  25.835  37.616  1.00  0.00     0.124 S 
ATOM     70  O   UNL A   1      47.246  26.690  38.775  1.00  0.00    -0.237 OA
ATOM     71  O   UNL A   1      46.327  24.573  37.890  1.00  0.00    -0.237 OA
ATOM     72  O   UNL A   1      48.105  25.755  36.657  1.00  0.00    -0.744 OA
ENDBRANCH  68  69
ENDBRANCH  47  61
BRANCH  48  73
ATOM     73  C   UNL A   1      36.443  33.332  30.880  1.00  0.00     0.058 A 
ATOM     74  C   UNL A   1      35.144  33.253  31.399  1.00  0.00     0.135 A 
ATOM     75  C   UNL A   1      36.652  34.149  29.758  1.00  0.00     0.135 A 
ATOM     76  F   UNL A   1      34.894  32.479  32.466  1.00  0.00    -0.206 F 
ATOM     77  C   UNL A   1      34.090  33.963  30.834  1.00  0.00     0.059 A 
ATOM     78  C   UNL A   1      35.617  34.884  29.187  1.00  0.00     0.059 A 
ATOM     79  F   UNL A   1      37.882  34.269  29.234  1.00  0.00    -0.206 F 
ATOM     80  C   UNL A   1      34.338  34.782  29.732  1.00  0.00     0.060 A 
BRANCH  80  81
ATOM     81  S   UNL A   1      32.980  35.768  29.062  1.00  0.00     0.124 S 
ATOM     82  O   UNL A   1      32.356  34.823  28.144  1.00  0.00    -0.237 OA
ATOM     83  O   UNL A   1      32.214  36.092  30.262  1.00  0.00    -0.237 OA
ATOM     84  O   UNL A   1      33.662  36.899  28.442  1.00  0.00    -0.744 OA
ENDBRANCH  80  81
ENDBRANCH  48  73
BRANCH  60  85
ATOM     85  C   UNL A   1      39.900  34.197  36.892  1.00  0.00     0.058 A 
ATOM     86  C   UNL A   1      40.586  35.416  36.798  1.00  0.00     0.135 A 
ATOM     87  C   UNL A   1      39.057  33.997  37.998  1.00  0.00     0.135 A 
ATOM     88  F   UNL A   1      41.409  35.650  35.763  1.00  0.00    -0.206 F 
ATOM     89  C   UNL A   1      40.444  36.403  37.767  1.00  0.00     0.059 A 
ATOM     90  C   UNL A   1      38.884  34.979  38.968  1.00  0.00     0.059 A 
ATOM     91  F   UNL A   1      38.373  32.850  38.128  1.00  0.00    -0.206 F 
ATOM     92  C   UNL A   1      39.585  36.178  38.846  1.00  0.00     0.060 A 
BRANCH  92  93
ATOM     93  S   UNL A   1      39.355  37.492  40.063  1.00  0.00     0.124 S 
ATOM     94  O   UNL A   1      40.698  38.057  40.143  1.00  0.00    -0.237 OA
ATOM     95  O   UNL A   1      38.349  38.337  39.427  1.00  0.00    -0.237 OA
ATOM     96  O   UNL A   1      38.903  36.777  41.252  1.00  0.00    -0.744 OA
ENDBRANCH  92  93
ENDBRANCH  60  85
ENDBRANCH  34  35
ENDBRANCH  26  29
ENDBRANCH  24  25
ENDBRANCH  23  24
ENDBRANCH   1  23
TORSDOF 18
ENDMDL
MODEL 3
REMARK VINA RESULT:      -8.7      5.002     12.237
REMARK SMILES C[C@@H](C(=O)NCCCCNC(=O)c1ccc(-c2c3nc(c(-c4c(F)cc(S(=O)(=O)[O-])cc4F)c4ccc([nH]4)c(-c4c(F)cc(S(=O)(=O)[O-])cc4F)c4nc(c(-c5c(F)cc(S(=O)(=O)[O-])cc5F)c5ccc2[nH]5)C=C4)C=C3)cc1)c1ccc(C[C@H]2CCC[C@H]2O)cc1
REMARK SMILES IDX 7 1 6 2 5 3 3 4 4 5 2 7 1 8 79 9 80 10 91 11 81 12 90 13
REMARK SMILES IDX 82 14 83 15 84 16 85 17 88 18 86 19 87 20 89 21 8 23 9 24
REMARK SMILES IDX 10 25 11 26 12 28 13 29 14 30 78 31 15 32 77 33 16 34 17 35
REMARK SMILES IDX 18 36 71 37 19 38 76 39 70 40 72 41 20 42 75 43 69 44 68 45
REMARK SMILES IDX 21 47 55 48 34 49 54 50 35 51 38 52 53 53 73 54 36 55 37 56
REMARK SMILES IDX 52 58 74 59 39 60 22 61 23 62 32 63 24 64 25 65 31 66 33 67
REMARK SMILES IDX 26 68 27 69 28 70 29 71 30 72 56 73 57 74 66 75 58 76 59 77
REMARK SMILES IDX 65 78 67 79 60 80 61 81 62 82 63 83 64 84 40 85 41 86 50 87
REMARK SMILES IDX 42 88 43 89 49 90 51 91 44 92 45 93 46 94 47 95 48 96
REMARK H PARENT 5 6 89 22 10 27 72 46 38 57
REMARK Flexibility Score: inf
ROOT
ATOM      1  C   UNL A   1      32.488  29.522  27.188  1.00  0.00     0.023 C 
ENDROOT
BRANCH   1   2
ATOM      2  C   UNL A   1      32.541  30.392  25.928  1.00  0.00     0.116 C 
BRANCH   2   3
ATOM      3  N   UNL A   1      31.639  29.882  24.916  1.00  0.00    -0.356 N 
ATOM      4  C   UNL A   1      31.916  29.083  23.842  1.00  0.00     0.227 C 
ATOM      5  O   UNL A   1      31.150  29.178  22.882  1.00  0.00    -0.274 OA
ATOM      6  H   UNL A   1      30.696  30.145  25.016  1.00  0.00     0.163 HD
BRANCH   4   7
ATOM      7  C   UNL A   1      33.143  28.155  23.878  1.00  0.00     0.105 C 
ATOM      8  C   UNL A   1      34.118  28.597  22.781  1.00  0.00     0.023 C 
BRANCH   7   9
ATOM      9  C   UNL A   1      32.860  26.649  23.786  1.00  0.00    -0.036 A 
ATOM     10  C   UNL A   1      33.235  25.860  22.692  1.00  0.00     0.005 A 
ATOM     11  C   UNL A   1      32.150  26.012  24.822  1.00  0.00     0.005 A 
ATOM     12  C   UNL A   1      32.959  24.491  22.652  1.00  0.00     0.004 A 
ATOM     13  C   UNL A   1      31.857  24.645  24.775  1.00  0.00     0.004 A 
ATOM     14  C   UNL A   1      32.240  23.874  23.676  1.00  0.00    -0.048 A 
BRANCH  14  15
ATOM     15  C   UNL A   1      31.861  22.420  23.575  1.00  0.00     0.041 C 
BRANCH  15  16
ATOM     16  C   UNL A   1      32.992  21.387  23.719  1.00  0.00     0.022 C 
ATOM     17  C   UNL A   1      34.237  21.845  24.497  1.00  0.00     0.007 C 
ATOM     18  C   UNL A   1      32.645  20.014  24.316  1.00  0.00     0.117 C 
ATOM     19  C   UNL A   1      34.836  20.582  25.123  1.00  0.00     0.003 C 
ATOM     20  C   UNL A   1      34.022  19.413  24.578  1.00  0.00     0.032 C 
BRANCH  18  21
ATOM     21  O   UNL A   1      31.932  20.055  25.537  1.00  0.00    -0.393 OA
ATOM     22  H   UNL A   1      32.106  19.245  26.042  1.00  0.00     0.210 HD
ENDBRANCH  18  21
ENDBRANCH  15  16
ENDBRANCH  14  15
ENDBRANCH   7   9
ENDBRANCH   4   7
ENDBRANCH   2   3
ENDBRANCH   1   2
BRANCH   1  23
ATOM     23  C   UNL A   1      33.678  28.574  27.365  1.00  0.00     0.023 C 
BRANCH  23  24
ATOM     24  C   UNL A   1      35.018  29.264  27.567  1.00  0.00     0.116 C 
BRANCH  24  25
ATOM     25  N   UNL A   1      35.012  30.167  28.708  1.00  0.00    -0.352 N 
ATOM     26  C   UNL A   1      36.037  30.439  29.584  1.00  0.00     0.251 C 
ATOM     27  H   UNL A   1      34.168  30.646  28.872  1.00  0.00     0.163 HD
ATOM     28  O   UNL A   1      35.836  31.117  30.583  1.00  0.00    -0.269 OA
BRANCH  26  29
ATOM     29  C   UNL A   1      37.373  29.868  29.315  1.00  0.00     0.039 A 
ATOM     30  C   UNL A   1      37.875  29.895  28.013  1.00  0.00     0.014 A 
ATOM     31  C   UNL A   1      38.141  29.356  30.364  1.00  0.00     0.014 A 
ATOM     32  C   UNL A   1      39.180  29.465  27.769  1.00  0.00     0.010 A 
ATOM     33  C   UNL A   1      39.461  28.991  30.131  1.00  0.00     0.010 A 
ATOM     34  C   UNL A   1      39.993  29.042  28.833  1.00  0.00    -0.014 A 
BRANCH  34  35
ATOM     35  C   UNL A   1      41.404  28.630  28.630  1.00  0.00     0.031 A 
ATOM     36  C   UNL A   1      42.485  29.672  28.650  1.00  0.00     0.074 A 
ATOM     37  C   UNL A   1      41.694  27.353  28.316  1.00  0.00     0.049 A 
ATOM     38  N   UNL A   1      43.743  29.566  28.313  1.00  0.00    -0.248 NA
ATOM     39  C   UNL A   1      42.083  31.025  29.068  1.00  0.00     0.031 C 
ATOM     40  C   UNL A   1      40.724  26.261  28.226  1.00  0.00     0.029 A 
ATOM     41  N   UNL A   1      42.888  26.766  27.981  1.00  0.00    -0.354 N 
ATOM     42  C   UNL A   1      44.274  30.844  28.439  1.00  0.00     0.074 A 
ATOM     43  C   UNL A   1      43.194  31.713  28.850  1.00  0.00     0.031 C 
ATOM     44  C   UNL A   1      41.362  25.136  27.862  1.00  0.00     0.029 A 
ATOM     45  C   UNL A   1      42.776  25.436  27.653  1.00  0.00     0.049 A 
ATOM     46  H   UNL A   1      43.745  27.252  27.977  1.00  0.00     0.167 HD
ATOM     47  C   UNL A   1      45.550  31.252  28.240  1.00  0.00     0.037 A 
ATOM     48  C   UNL A   1      43.702  24.564  27.213  1.00  0.00     0.037 A 
ATOM     49  C   UNL A   1      46.626  30.372  27.869  1.00  0.00     0.049 A 
ATOM     50  C   UNL A   1      45.121  25.026  27.035  1.00  0.00     0.074 A 
ATOM     51  C   UNL A   1      47.966  30.672  27.702  1.00  0.00     0.029 A 
ATOM     52  N   UNL A   1      46.484  29.015  27.611  1.00  0.00    -0.354 N 
ATOM     53  N   UNL A   1      45.620  26.228  27.199  1.00  0.00    -0.248 NA
ATOM     54  C   UNL A   1      46.105  24.018  26.618  1.00  0.00     0.031 C 
ATOM     55  C   UNL A   1      48.630  29.500  27.319  1.00  0.00     0.029 A 
ATOM     56  C   UNL A   1      47.710  28.465  27.282  1.00  0.00     0.049 A 
ATOM     57  H   UNL A   1      45.635  28.518  27.657  1.00  0.00     0.167 HD
ATOM     58  C   UNL A   1      46.980  26.116  26.933  1.00  0.00     0.074 A 
ATOM     59  C   UNL A   1      47.226  24.728  26.597  1.00  0.00     0.031 C 
ATOM     60  C   UNL A   1      47.938  27.075  26.969  1.00  0.00     0.037 A 
BRANCH  47  61
ATOM     61  C   UNL A   1      45.837  32.717  28.411  1.00  0.00     0.058 A 
ATOM     62  C   UNL A   1      46.117  33.271  29.671  1.00  0.00     0.135 A 
ATOM     63  C   UNL A   1      45.813  33.581  27.306  1.00  0.00     0.135 A 
ATOM     64  F   UNL A   1      46.136  32.491  30.764  1.00  0.00    -0.206 F 
ATOM     65  C   UNL A   1      46.313  34.638  29.837  1.00  0.00     0.059 A 
ATOM     66  C   UNL A   1      46.035  34.949  27.443  1.00  0.00     0.059 A 
ATOM     67  F   UNL A   1      45.553  33.105  26.078  1.00  0.00    -0.206 F 
ATOM     68  C   UNL A   1      46.260  35.471  28.718  1.00  0.00     0.060 A 
BRANCH  68  69
ATOM     69  S   UNL A   1      46.476  37.247  28.947  1.00  0.00     0.124 S 
ATOM     70  O   UNL A   1      45.452  37.536  29.947  1.00  0.00    -0.237 OA
ATOM     71  O   UNL A   1      47.857  37.341  29.412  1.00  0.00    -0.237 OA
ATOM     72  O   UNL A   1      46.229  37.793  27.617  1.00  0.00    -0.744 OA
ENDBRANCH  68  69
ENDBRANCH  47  61
BRANCH  48  73
ATOM     73  C   UNL A   1      43.310  23.157  26.941  1.00  0.00     0.058 A 
ATOM     74  C   UNL A   1      43.257  22.669  25.628  1.00  0.00     0.135 A 
ATOM     75  C   UNL A   1      43.037  22.260  27.986  1.00  0.00     0.135 A 
ATOM     76  F   UNL A   1      43.504  23.491  24.597  1.00  0.00    -0.206 F 
ATOM     77  C   UNL A   1      42.953  21.339  25.358  1.00  0.00     0.059 A 
ATOM     78  C   UNL A   1      42.749  20.920  27.741  1.00  0.00     0.059 A 
ATOM     79  F   UNL A   1      43.090  22.676  29.261  1.00  0.00    -0.206 F 
ATOM     80  C   UNL A   1      42.708  20.470  26.422  1.00  0.00     0.060 A 
BRANCH  80  81
ATOM     81  S   UNL A   1      42.401  18.726  26.063  1.00  0.00     0.124 S 
ATOM     82  O   UNL A   1      40.990  18.744  25.699  1.00  0.00    -0.237 OA
ATOM     83  O   UNL A   1      43.338  18.468  24.973  1.00  0.00    -0.237 OA
ATOM     84  O   UNL A   1      42.723  18.063  27.323  1.00  0.00    -0.744 OA
ENDBRANCH  80  81
ENDBRANCH  48  73
BRANCH  60  85
ATOM     85  C   UNL A   1      49.352  26.659  26.682  1.00  0.00     0.058 A 
ATOM     86  C   UNL A   1      50.174  26.108  27.676  1.00  0.00     0.135 A 
ATOM     87  C   UNL A   1      49.857  26.734  25.374  1.00  0.00     0.135 A 
ATOM     88  F   UNL A   1      49.738  26.023  28.942  1.00  0.00    -0.206 F 
ATOM     89  C   UNL A   1      51.453  25.647  27.383  1.00  0.00     0.059 A 
ATOM     90  C   UNL A   1      51.125  26.260  25.054  1.00  0.00     0.059 A 
ATOM     91  F   UNL A   1      49.105  27.247  24.387  1.00  0.00    -0.206 F 
ATOM     92  C   UNL A   1      51.918  25.722  26.067  1.00  0.00     0.060 A 
BRANCH  92  93
ATOM     93  S   UNL A   1      53.554  25.059  25.685  1.00  0.00     0.124 S 
ATOM     94  O   UNL A   1      54.243  25.223  26.960  1.00  0.00    -0.237 OA
ATOM     95  O   UNL A   1      53.253  23.683  25.299  1.00  0.00    -0.237 OA
ATOM     96  O   UNL A   1      54.022  25.918  24.602  1.00  0.00    -0.744 OA
ENDBRANCH  92  93
ENDBRANCH  60  85
ENDBRANCH  34  35
ENDBRANCH  26  29
ENDBRANCH  24  25
ENDBRANCH  23  24
ENDBRANCH   1  23
TORSDOF 18
ENDMDL
