MODEL 1
REMARK VINA RESULT:     -11.7      0.000      0.000
REMARK SMILES Cc1nc2nc(CNC(=O)OC(C)(C)C)nn2c(C)c1CCC(=O)NCCCCNC(=O)c1ccc(-c2c3nc(c(-c4c(F)cc(S(=O)(=O)[O-])cc4F)c4ccc([nH]4)c(-c4c(F)cc(S(=O)(=O)[O-])cc4F)c4nc(c(-c5c(F)cc(S(=O)(=O)[O-])cc5F)c5ccc2[nH]5)C=C4)C=C3)cc1
REMARK SMILES IDX 26 1 25 2 23 3 24 4 22 6 21 7 20 8 1 9 2 10 3 11 4 12 18 13
REMARK SMILES IDX 5 14 17 15 19 16 6 17 16 18 7 19 8 20 9 21 10 23 11 24 12 25
REMARK SMILES IDX 13 26 14 27 15 28 27 29 28 30 29 31 30 32 31 33 32 35 33 36
REMARK SMILES IDX 34 37 98 38 35 39 97 40 36 41 37 42 38 43 91 44 39 45 96 46
REMARK SMILES IDX 90 47 92 48 40 49 95 50 89 51 88 52 41 54 75 55 54 56 74 57
REMARK SMILES IDX 55 58 58 59 73 60 93 61 56 62 57 63 72 65 94 66 59 67 42 68
REMARK SMILES IDX 43 69 52 70 44 71 45 72 51 73 53 74 46 75 47 76 48 77 49 78
REMARK SMILES IDX 50 79 76 80 77 81 86 82 78 83 79 84 85 85 87 86 80 87 81 88
REMARK SMILES IDX 82 89 83 90 84 91 60 92 61 93 70 94 62 95 63 96 69 97 71 98
REMARK SMILES IDX 64 99 65 100 66 101 67 102 68 103
REMARK H PARENT 25 5 8 22 30 34 92 53 58 64
REMARK Flexibility Score: inf
ROOT
ATOM      1  C   UNL A   1      36.484  23.580  26.133  1.00  0.00     0.116 C 
ENDROOT
BRANCH   1   2
ATOM      2  N   UNL A   1      35.804  23.783  24.864  1.00  0.00    -0.356 N 
ATOM      3  C   UNL A   1      35.400  22.827  23.968  1.00  0.00     0.220 C 
ATOM      4  O   UNL A   1      35.170  23.157  22.805  1.00  0.00    -0.275 OA
ATOM      5  H   UNL A   1      35.612  24.717  24.618  1.00  0.00     0.163 HD
BRANCH   3   6
ATOM      6  C   UNL A   1      35.217  21.381  24.418  1.00  0.00     0.105 C 
BRANCH   6   7
ATOM      7  C   UNL A   1      33.907  21.110  25.193  1.00  0.00     0.049 C 
BRANCH   7   8
ATOM      8  C   UNL A   1      32.747  22.033  24.843  1.00  0.00    -0.005 A 
ATOM      9  C   UNL A   1      32.214  20.551  22.761  1.00  0.00     0.067 C 
ATOM     10  C   UNL A   1      32.047  21.862  23.503  1.00  0.00     0.046 A 
ATOM     11  N   UNL A   1      31.274  22.746  22.945  1.00  0.00    -0.216 NA
ATOM     12  C   UNL A   1      31.062  23.902  23.629  1.00  0.00     0.252 A 
ATOM     13  C   UNL A   1      32.305  23.089  25.578  1.00  0.00     0.048 A 
ATOM     14  N   UNL A   1      30.593  25.048  23.186  1.00  0.00    -0.192 NA
ATOM     15  N   UNL A   1      31.465  24.052  24.959  1.00  0.00    -0.201 N 
ATOM     16  C   UNL A   1      32.842  23.439  26.939  1.00  0.00     0.067 C 
ATOM     17  C   UNL A   1      30.628  25.882  24.275  1.00  0.00     0.172 A 
ATOM     18  N   UNL A   1      31.094  25.299  25.393  1.00  0.00    -0.148 NA
BRANCH  17  19
ATOM     19  C   UNL A   1      30.304  27.364  24.155  1.00  0.00     0.199 C 
BRANCH  19  20
ATOM     20  N   UNL A   1      31.455  28.080  23.641  1.00  0.00    -0.314 N 
ATOM     21  C   UNL A   1      32.332  28.941  24.202  1.00  0.00     0.408 C 
ATOM     22  H   UNL A   1      31.635  27.902  22.689  1.00  0.00     0.167 HD
ATOM     23  O   UNL A   1      33.327  29.294  23.583  1.00  0.00    -0.225 OA
BRANCH  21  24
ATOM     24  O   UNL A   1      32.013  29.383  25.436  1.00  0.00    -0.444 OA
BRANCH  24  25
ATOM     25  C   UNL A   1      32.688  28.733  26.556  1.00  0.00     0.106 C 
ATOM     26  C   UNL A   1      31.690  28.185  27.589  1.00  0.00     0.056 C 
ATOM     27  C   UNL A   1      33.663  27.628  26.097  1.00  0.00     0.056 C 
ATOM     28  C   UNL A   1      33.510  29.851  27.208  1.00  0.00     0.056 C 
ENDBRANCH  24  25
ENDBRANCH  21  24
ENDBRANCH  19  20
ENDBRANCH  17  19
ENDBRANCH   7   8
ENDBRANCH   6   7
ENDBRANCH   3   6
ENDBRANCH   1   2
BRANCH   1  29
ATOM     29  C   UNL A   1      37.974  23.447  25.869  1.00  0.00     0.023 C 
BRANCH  29  30
ATOM     30  C   UNL A   1      38.589  22.053  25.849  1.00  0.00     0.023 C 
BRANCH  30  31
ATOM     31  C   UNL A   1      39.852  21.955  26.673  1.00  0.00     0.116 C 
BRANCH  31  32
ATOM     32  N   UNL A   1      41.098  22.097  25.899  1.00  0.00    -0.352 N 
ATOM     33  C   UNL A   1      41.920  23.218  25.844  1.00  0.00     0.251 C 
ATOM     34  H   UNL A   1      41.377  21.317  25.366  1.00  0.00     0.163 HD
ATOM     35  O   UNL A   1      42.903  23.274  25.123  1.00  0.00    -0.269 OA
BRANCH  33  36
ATOM     36  C   UNL A   1      41.609  24.252  26.827  1.00  0.00     0.039 A 
ATOM     37  C   UNL A   1      42.212  24.323  28.089  1.00  0.00     0.014 A 
ATOM     38  C   UNL A   1      41.029  25.349  26.211  1.00  0.00     0.014 A 
ATOM     39  C   UNL A   1      42.262  25.556  28.728  1.00  0.00     0.010 A 
ATOM     40  C   UNL A   1      41.342  26.572  26.724  1.00  0.00     0.010 A 
ATOM     41  C   UNL A   1      41.827  26.683  28.026  1.00  0.00    -0.014 A 
BRANCH  41  42
ATOM     42  C   UNL A   1      41.799  28.013  28.614  1.00  0.00     0.031 A 
ATOM     43  C   UNL A   1      42.926  28.938  28.319  1.00  0.00     0.074 A 
ATOM     44  C   UNL A   1      40.685  28.411  29.270  1.00  0.00     0.049 A 
ATOM     45  N   UNL A   1      43.807  29.383  29.156  1.00  0.00    -0.248 NA
ATOM     46  C   UNL A   1      43.171  29.361  26.931  1.00  0.00     0.031 C 
ATOM     47  C   UNL A   1      39.410  27.687  29.453  1.00  0.00     0.029 A 
ATOM     48  N   UNL A   1      40.408  29.616  29.818  1.00  0.00    -0.354 N 
ATOM     49  C   UNL A   1      44.567  30.321  28.463  1.00  0.00     0.074 A 
ATOM     50  C   UNL A   1      44.251  30.135  27.071  1.00  0.00     0.031 C 
ATOM     51  C   UNL A   1      38.435  28.549  29.790  1.00  0.00     0.029 A 
ATOM     52  C   UNL A   1      39.064  29.812  30.100  1.00  0.00     0.049 A 
ATOM     53  H   UNL A   1      41.098  30.293  30.002  1.00  0.00     0.167 HD
ATOM     54  C   UNL A   1      45.214  31.329  29.118  1.00  0.00     0.037 A 
ATOM     55  C   UNL A   1      38.486  30.920  30.607  1.00  0.00     0.037 A 
ATOM     56  C   UNL A   1      45.296  31.060  30.533  1.00  0.00     0.049 A 
ATOM     57  C   UNL A   1      39.562  31.651  31.319  1.00  0.00     0.074 A 
ATOM     58  C   UNL A   1      45.851  30.051  31.296  1.00  0.00     0.029 A 
ATOM     59  N   UNL A   1      44.402  31.701  31.360  1.00  0.00    -0.354 N 
ATOM     60  N   UNL A   1      40.179  31.176  32.371  1.00  0.00    -0.248 NA
ATOM     61  C   UNL A   1      40.285  32.682  30.593  1.00  0.00     0.031 C 
ATOM     62  C   UNL A   1      44.919  29.832  32.353  1.00  0.00     0.029 A 
ATOM     63  C   UNL A   1      43.887  30.764  32.222  1.00  0.00     0.049 A 
ATOM     64  H   UNL A   1      44.173  32.658  31.337  1.00  0.00     0.167 HD
ATOM     65  C   UNL A   1      41.510  31.530  32.201  1.00  0.00     0.074 A 
ATOM     66  C   UNL A   1      41.493  32.546  31.149  1.00  0.00     0.031 C 
ATOM     67  C   UNL A   1      42.524  30.772  32.721  1.00  0.00     0.037 A 
BRANCH  54  68
ATOM     68  C   UNL A   1      45.458  32.711  28.551  1.00  0.00     0.058 A 
ATOM     69  C   UNL A   1      46.771  33.228  28.506  1.00  0.00     0.135 A 
ATOM     70  C   UNL A   1      44.430  33.649  28.308  1.00  0.00     0.135 A 
ATOM     71  F   UNL A   1      47.828  32.430  28.732  1.00  0.00    -0.206 F 
ATOM     72  C   UNL A   1      47.037  34.585  28.307  1.00  0.00     0.059 A 
ATOM     73  C   UNL A   1      44.675  34.993  28.053  1.00  0.00     0.059 A 
ATOM     74  F   UNL A   1      43.135  33.327  28.408  1.00  0.00    -0.206 F 
ATOM     75  C   UNL A   1      45.977  35.463  28.099  1.00  0.00     0.060 A 
BRANCH  75  76
ATOM     76  S   UNL A   1      46.300  37.231  27.968  1.00  0.00     0.124 S 
ATOM     77  O   UNL A   1      44.956  37.756  27.758  1.00  0.00    -0.237 OA
ATOM     78  O   UNL A   1      46.908  37.526  29.261  1.00  0.00    -0.237 OA
ATOM     79  O   UNL A   1      47.200  37.323  26.822  1.00  0.00    -0.744 OA
ENDBRANCH  75  76
ENDBRANCH  54  68
BRANCH  55  80
ATOM     80  C   UNL A   1      37.182  31.487  30.195  1.00  0.00     0.058 A 
ATOM     81  C   UNL A   1      36.325  32.068  31.139  1.00  0.00     0.135 A 
ATOM     82  C   UNL A   1      36.859  31.704  28.836  1.00  0.00     0.135 A 
ATOM     83  F   UNL A   1      36.563  31.910  32.449  1.00  0.00    -0.206 F 
ATOM     84  C   UNL A   1      35.250  32.878  30.762  1.00  0.00     0.059 A 
ATOM     85  C   UNL A   1      35.786  32.496  28.437  1.00  0.00     0.059 A 
ATOM     86  F   UNL A   1      37.633  31.222  27.849  1.00  0.00    -0.206 F 
ATOM     87  C   UNL A   1      35.006  33.109  29.408  1.00  0.00     0.060 A 
BRANCH  87  88
ATOM     88  S   UNL A   1      33.752  34.319  28.933  1.00  0.00     0.124 S 
ATOM     89  O   UNL A   1      34.563  35.381  28.347  1.00  0.00    -0.237 OA
ATOM     90  O   UNL A   1      32.930  33.554  28.002  1.00  0.00    -0.237 OA
ATOM     91  O   UNL A   1      33.106  34.654  30.200  1.00  0.00    -0.744 OA
ENDBRANCH  87  88
ENDBRANCH  55  80
BRANCH  67  92
ATOM     92  C   UNL A   1      42.177  29.698  33.729  1.00  0.00     0.058 A 
ATOM     93  C   UNL A   1      41.879  28.364  33.397  1.00  0.00     0.135 A 
ATOM     94  C   UNL A   1      42.332  29.987  35.092  1.00  0.00     0.135 A 
ATOM     95  F   UNL A   1      41.810  27.970  32.121  1.00  0.00    -0.206 F 
ATOM     96  C   UNL A   1      41.712  27.374  34.370  1.00  0.00     0.059 A 
ATOM     97  C   UNL A   1      42.198  29.012  36.080  1.00  0.00     0.059 A 
ATOM     98  F   UNL A   1      42.681  31.226  35.479  1.00  0.00    -0.206 F 
ATOM     99  C   UNL A   1      41.879  27.707  35.712  1.00  0.00     0.060 A 
BRANCH  99 100
ATOM    100  S   UNL A   1      41.742  26.411  36.963  1.00  0.00     0.124 S 
ATOM    101  O   UNL A   1      40.444  26.697  37.564  1.00  0.00    -0.237 OA
ATOM    102  O   UNL A   1      41.815  25.189  36.165  1.00  0.00    -0.237 OA
ATOM    103  O   UNL A   1      42.895  26.648  37.829  1.00  0.00    -0.744 OA
ENDBRANCH  99 100
ENDBRANCH  67  92
ENDBRANCH  41  42
ENDBRANCH  33  36
ENDBRANCH  31  32
ENDBRANCH  30  31
ENDBRANCH  29  30
ENDBRANCH   1  29
TORSDOF 20
ENDMDL
MODEL 2
REMARK VINA RESULT:     -11.4      3.464      8.112
REMARK SMILES Cc1nc2nc(CNC(=O)OC(C)(C)C)nn2c(C)c1CCC(=O)NCCCCNC(=O)c1ccc(-c2c3nc(c(-c4c(F)cc(S(=O)(=O)[O-])cc4F)c4ccc([nH]4)c(-c4c(F)cc(S(=O)(=O)[O-])cc4F)c4nc(c(-c5c(F)cc(S(=O)(=O)[O-])cc5F)c5ccc2[nH]5)C=C4)C=C3)cc1
REMARK SMILES IDX 26 1 25 2 23 3 24 4 22 6 21 7 20 8 1 9 2 10 3 11 4 12 18 13
REMARK SMILES IDX 5 14 17 15 19 16 6 17 16 18 7 19 8 20 9 21 10 23 11 24 12 25
REMARK SMILES IDX 13 26 14 27 15 28 27 29 28 30 29 31 30 32 31 33 32 35 33 36
REMARK SMILES IDX 34 37 98 38 35 39 97 40 36 41 37 42 38 43 91 44 39 45 96 46
REMARK SMILES IDX 90 47 92 48 40 49 95 50 89 51 88 52 41 54 75 55 54 56 74 57
REMARK SMILES IDX 55 58 58 59 73 60 93 61 56 62 57 63 72 65 94 66 59 67 42 68
REMARK SMILES IDX 43 69 52 70 44 71 45 72 51 73 53 74 46 75 47 76 48 77 49 78
REMARK SMILES IDX 50 79 76 80 77 81 86 82 78 83 79 84 85 85 87 86 80 87 81 88
REMARK SMILES IDX 82 89 83 90 84 91 60 92 61 93 70 94 62 95 63 96 69 97 71 98
REMARK SMILES IDX 64 99 65 100 66 101 67 102 68 103
REMARK H PARENT 25 5 8 22 30 34 92 53 58 64
REMARK Flexibility Score: inf
ROOT
ATOM      1  C   UNL A   1      36.126  22.694  25.599  1.00  0.00     0.116 C 
ENDROOT
BRANCH   1   2
ATOM      2  N   UNL A   1      35.337  21.607  26.157  1.00  0.00    -0.356 N 
ATOM      3  C   UNL A   1      34.179  21.071  25.658  1.00  0.00     0.220 C 
ATOM      4  O   UNL A   1      33.450  20.420  26.406  1.00  0.00    -0.275 OA
ATOM      5  H   UNL A   1      35.674  21.209  26.992  1.00  0.00     0.163 HD
BRANCH   3   6
ATOM      6  C   UNL A   1      33.815  21.263  24.188  1.00  0.00     0.105 C 
BRANCH   6   7
ATOM      7  C   UNL A   1      32.379  21.781  23.945  1.00  0.00     0.049 C 
BRANCH   7   8
ATOM      8  C   UNL A   1      32.132  23.222  24.372  1.00  0.00    -0.005 A 
ATOM      9  C   UNL A   1      30.539  22.378  26.260  1.00  0.00     0.067 C 
ATOM     10  C   UNL A   1      31.040  23.514  25.391  1.00  0.00     0.046 A 
ATOM     11  N   UNL A   1      30.515  24.683  25.611  1.00  0.00    -0.216 NA
ATOM     12  C   UNL A   1      31.000  25.726  24.885  1.00  0.00     0.252 A 
ATOM     13  C   UNL A   1      32.737  24.330  23.863  1.00  0.00     0.048 A 
ATOM     14  N   UNL A   1      30.468  26.912  24.687  1.00  0.00    -0.192 NA
ATOM     15  N   UNL A   1      32.154  25.601  24.104  1.00  0.00    -0.201 N 
ATOM     16  C   UNL A   1      33.851  24.280  22.854  1.00  0.00     0.067 C 
ATOM     17  C   UNL A   1      31.346  27.551  23.848  1.00  0.00     0.172 A 
ATOM     18  N   UNL A   1      32.419  26.813  23.517  1.00  0.00    -0.148 NA
BRANCH  17  19
ATOM     19  C   UNL A   1      31.026  28.912  23.248  1.00  0.00     0.199 C 
BRANCH  19  20
ATOM     20  N   UNL A   1      30.754  29.866  24.307  1.00  0.00    -0.314 N 
ATOM     21  C   UNL A   1      31.531  30.449  25.246  1.00  0.00     0.408 C 
ATOM     22  H   UNL A   1      29.812  30.147  24.349  1.00  0.00     0.167 HD
ATOM     23  O   UNL A   1      31.084  31.354  25.937  1.00  0.00    -0.225 OA
BRANCH  21  24
ATOM     24  O   UNL A   1      32.777  29.947  25.371  1.00  0.00    -0.444 OA
BRANCH  24  25
ATOM     25  C   UNL A   1      33.134  29.407  26.679  1.00  0.00     0.106 C 
ATOM     26  C   UNL A   1      33.807  30.462  27.573  1.00  0.00     0.056 C 
ATOM     27  C   UNL A   1      31.931  28.765  27.402  1.00  0.00     0.056 C 
ATOM     28  C   UNL A   1      34.149  28.300  26.373  1.00  0.00     0.056 C 
ENDBRANCH  24  25
ENDBRANCH  21  24
ENDBRANCH  19  20
ENDBRANCH  17  19
ENDBRANCH   7   8
ENDBRANCH   6   7
ENDBRANCH   3   6
ENDBRANCH   1   2
BRANCH   1  29
ATOM     29  C   UNL A   1      37.219  22.101  24.727  1.00  0.00     0.023 C 
BRANCH  29  30
ATOM     30  C   UNL A   1      37.765  20.724  25.079  1.00  0.00     0.023 C 
BRANCH  30  31
ATOM     31  C   UNL A   1      39.105  20.782  25.776  1.00  0.00     0.116 C 
BRANCH  31  32
ATOM     32  N   UNL A   1      39.877  19.528  25.719  1.00  0.00    -0.352 N 
ATOM     33  C   UNL A   1      41.245  19.384  25.927  1.00  0.00     0.251 C 
ATOM     34  H   UNL A   1      39.373  18.708  25.513  1.00  0.00     0.163 HD
ATOM     35  O   UNL A   1      41.818  18.314  25.795  1.00  0.00    -0.269 OA
BRANCH  33  36
ATOM     36  C   UNL A   1      41.909  20.568  26.466  1.00  0.00     0.039 A 
ATOM     37  C   UNL A   1      42.412  21.601  25.666  1.00  0.00     0.014 A 
ATOM     38  C   UNL A   1      41.576  20.747  27.799  1.00  0.00     0.014 A 
ATOM     39  C   UNL A   1      42.545  22.865  26.228  1.00  0.00     0.010 A 
ATOM     40  C   UNL A   1      41.450  22.033  28.229  1.00  0.00     0.010 A 
ATOM     41  C   UNL A   1      42.050  23.072  27.518  1.00  0.00    -0.014 A 
BRANCH  41  42
ATOM     42  C   UNL A   1      42.173  24.343  28.214  1.00  0.00     0.031 A 
ATOM     43  C   UNL A   1      41.048  25.311  28.118  1.00  0.00     0.074 A 
ATOM     44  C   UNL A   1      43.226  24.531  29.042  1.00  0.00     0.049 A 
ATOM     45  N   UNL A   1      41.061  26.464  27.531  1.00  0.00    -0.248 NA
ATOM     46  C   UNL A   1      39.728  24.942  28.654  1.00  0.00     0.031 C 
ATOM     47  C   UNL A   1      44.299  23.583  29.405  1.00  0.00     0.029 A 
ATOM     48  N   UNL A   1      43.497  25.587  29.844  1.00  0.00    -0.354 N 
ATOM     49  C   UNL A   1      39.841  27.067  27.824  1.00  0.00     0.074 A 
ATOM     50  C   UNL A   1      39.003  26.025  28.358  1.00  0.00     0.031 C 
ATOM     51  C   UNL A   1      44.905  23.985  30.537  1.00  0.00     0.029 A 
ATOM     52  C   UNL A   1      44.448  25.326  30.818  1.00  0.00     0.049 A 
ATOM     53  H   UNL A   1      43.059  26.462  29.742  1.00  0.00     0.167 HD
ATOM     54  C   UNL A   1      39.706  28.425  27.821  1.00  0.00     0.037 A 
ATOM     55  C   UNL A   1      44.889  26.163  31.778  1.00  0.00     0.037 A 
ATOM     56  C   UNL A   1      40.815  29.056  27.149  1.00  0.00     0.049 A 
ATOM     57  C   UNL A   1      44.617  27.534  31.279  1.00  0.00     0.074 A 
ATOM     58  C   UNL A   1      41.339  28.989  25.872  1.00  0.00     0.029 A 
ATOM     59  N   UNL A   1      41.807  29.606  27.927  1.00  0.00    -0.354 N 
ATOM     60  N   UNL A   1      45.190  28.036  30.215  1.00  0.00    -0.248 NA
ATOM     61  C   UNL A   1      43.370  28.169  31.668  1.00  0.00     0.031 C 
ATOM     62  C   UNL A   1      42.754  29.034  26.050  1.00  0.00     0.029 A 
ATOM     63  C   UNL A   1      43.014  29.200  27.412  1.00  0.00     0.049 A 
ATOM     64  H   UNL A   1      41.675  30.185  28.713  1.00  0.00     0.167 HD
ATOM     65  C   UNL A   1      44.188  28.749  29.569  1.00  0.00     0.074 A 
ATOM     66  C   UNL A   1      43.127  28.884  30.566  1.00  0.00     0.031 C 
ATOM     67  C   UNL A   1      44.192  28.917  28.211  1.00  0.00     0.037 A 
BRANCH  54  68
ATOM     68  C   UNL A   1      38.769  29.202  28.720  1.00  0.00     0.058 A 
ATOM     69  C   UNL A   1      37.825  30.086  28.153  1.00  0.00     0.135 A 
ATOM     70  C   UNL A   1      38.945  29.321  30.116  1.00  0.00     0.135 A 
ATOM     71  F   UNL A   1      37.581  30.070  26.832  1.00  0.00    -0.206 F 
ATOM     72  C   UNL A   1      37.163  31.060  28.904  1.00  0.00     0.059 A 
ATOM     73  C   UNL A   1      38.257  30.247  30.892  1.00  0.00     0.059 A 
ATOM     74  F   UNL A   1      39.870  28.616  30.780  1.00  0.00    -0.206 F 
ATOM     75  C   UNL A   1      37.401  31.143  30.274  1.00  0.00     0.060 A 
BRANCH  75  76
ATOM     76  S   UNL A   1      36.651  32.474  31.228  1.00  0.00     0.124 S 
ATOM     77  O   UNL A   1      37.802  32.993  31.957  1.00  0.00    -0.237 OA
ATOM     78  O   UNL A   1      36.115  33.336  30.180  1.00  0.00    -0.237 OA
ATOM     79  O   UNL A   1      35.650  31.784  32.037  1.00  0.00    -0.744 OA
ENDBRANCH  75  76
ENDBRANCH  54  68
BRANCH  55  80
ATOM     80  C   UNL A   1      45.187  25.798  33.182  1.00  0.00     0.058 A 
ATOM     81  C   UNL A   1      44.150  25.572  34.097  1.00  0.00     0.135 A 
ATOM     82  C   UNL A   1      46.482  25.410  33.593  1.00  0.00     0.135 A 
ATOM     83  F   UNL A   1      42.891  25.910  33.784  1.00  0.00    -0.206 F 
ATOM     84  C   UNL A   1      44.370  24.935  35.321  1.00  0.00     0.059 A 
ATOM     85  C   UNL A   1      46.728  24.785  34.812  1.00  0.00     0.059 A 
ATOM     86  F   UNL A   1      47.542  25.548  32.779  1.00  0.00    -0.206 F 
ATOM     87  C   UNL A   1      45.659  24.519  35.657  1.00  0.00     0.060 A 
BRANCH  87  88
ATOM     88  S   UNL A   1      45.902  23.513  37.137  1.00  0.00     0.124 S 
ATOM     89  O   UNL A   1      47.335  23.660  37.370  1.00  0.00    -0.237 OA
ATOM     90  O   UNL A   1      45.028  24.173  38.100  1.00  0.00    -0.237 OA
ATOM     91  O   UNL A   1      45.472  22.181  36.719  1.00  0.00    -0.744 OA
ENDBRANCH  87  88
ENDBRANCH  55  80
BRANCH  67  92
ATOM     92  C   UNL A   1      45.448  28.564  27.444  1.00  0.00     0.058 A 
ATOM     93  C   UNL A   1      46.585  29.388  27.358  1.00  0.00     0.135 A 
ATOM     94  C   UNL A   1      45.573  27.265  26.931  1.00  0.00     0.135 A 
ATOM     95  F   UNL A   1      46.594  30.607  27.908  1.00  0.00    -0.206 F 
ATOM     96  C   UNL A   1      47.775  28.957  26.765  1.00  0.00     0.059 A 
ATOM     97  C   UNL A   1      46.757  26.802  26.358  1.00  0.00     0.059 A 
ATOM     98  F   UNL A   1      44.548  26.402  27.037  1.00  0.00    -0.206 F 
ATOM     99  C   UNL A   1      47.854  27.657  26.271  1.00  0.00     0.060 A 
BRANCH  99 100
ATOM    100  S   UNL A   1      49.416  27.073  25.577  1.00  0.00     0.124 S 
ATOM    101  O   UNL A   1      50.222  26.854  26.772  1.00  0.00    -0.237 OA
ATOM    102  O   UNL A   1      49.013  25.869  24.855  1.00  0.00    -0.237 OA
ATOM    103  O   UNL A   1      49.849  28.182  24.728  1.00  0.00    -0.744 OA
ENDBRANCH  99 100
ENDBRANCH  67  92
ENDBRANCH  41  42
ENDBRANCH  33  36
ENDBRANCH  31  32
ENDBRANCH  30  31
ENDBRANCH  29  30
ENDBRANCH   1  29
TORSDOF 20
ENDMDL
MODEL 3
REMARK VINA RESULT:     -11.4      3.448      8.066
REMARK SMILES Cc1nc2nc(CNC(=O)OC(C)(C)C)nn2c(C)c1CCC(=O)NCCCCNC(=O)c1ccc(-c2c3nc(c(-c4c(F)cc(S(=O)(=O)[O-])cc4F)c4ccc([nH]4)c(-c4c(F)cc(S(=O)(=O)[O-])cc4F)c4nc(c(-c5c(F)cc(S(=O)(=O)[O-])cc5F)c5ccc2[nH]5)C=C4)C=C3)cc1
REMARK SMILES IDX 26 1 25 2 23 3 24 4 22 6 21 7 20 8 1 9 2 10 3 11 4 12 18 13
REMARK SMILES IDX 5 14 17 15 19 16 6 17 16 18 7 19 8 20 9 21 10 23 11 24 12 25
REMARK SMILES IDX 13 26 14 27 15 28 27 29 28 30 29 31 30 32 31 33 32 35 33 36
REMARK SMILES IDX 34 37 98 38 35 39 97 40 36 41 37 42 38 43 91 44 39 45 96 46
REMARK SMILES IDX 90 47 92 48 40 49 95 50 89 51 88 52 41 54 75 55 54 56 74 57
REMARK SMILES IDX 55 58 58 59 73 60 93 61 56 62 57 63 72 65 94 66 59 67 42 68
REMARK SMILES IDX 43 69 52 70 44 71 45 72 51 73 53 74 46 75 47 76 48 77 49 78
REMARK SMILES IDX 50 79 76 80 77 81 86 82 78 83 79 84 85 85 87 86 80 87 81 88
REMARK SMILES IDX 82 89 83 90 84 91 60 92 61 93 70 94 62 95 63 96 69 97 71 98
REMARK SMILES IDX 64 99 65 100 66 101 67 102 68 103
REMARK H PARENT 25 5 8 22 30 34 92 53 58 64
REMARK Flexibility Score: inf
ROOT
ATOM      1  C   UNL A   1      35.729  22.366  25.908  1.00  0.00     0.116 C 
ENDROOT
BRANCH   1   2
ATOM      2  N   UNL A   1      35.134  21.041  25.973  1.00  0.00    -0.356 N 
ATOM      3  C   UNL A   1      34.001  20.601  25.338  1.00  0.00     0.220 C 
ATOM      4  O   UNL A   1      33.433  19.593  25.760  1.00  0.00    -0.275 OA
ATOM      5  H   UNL A   1      35.598  20.383  26.539  1.00  0.00     0.163 HD
BRANCH   3   6
ATOM      6  C   UNL A   1      33.470  21.339  24.113  1.00  0.00     0.105 C 
BRANCH   6   7
ATOM      7  C   UNL A   1      32.117  22.055  24.331  1.00  0.00     0.049 C 
BRANCH   7   8
ATOM      8  C   UNL A   1      32.220  23.521  24.730  1.00  0.00    -0.005 A 
ATOM      9  C   UNL A   1      31.978  22.843  27.240  1.00  0.00     0.067 C 
ATOM     10  C   UNL A   1      31.930  23.917  26.171  1.00  0.00     0.046 A 
ATOM     11  N   UNL A   1      31.676  25.124  26.578  1.00  0.00    -0.216 NA
ATOM     12  C   UNL A   1      31.693  26.110  25.641  1.00  0.00     0.252 A 
ATOM     13  C   UNL A   1      32.462  24.569  23.897  1.00  0.00     0.048 A 
ATOM     14  N   UNL A   1      31.192  27.324  25.711  1.00  0.00    -0.192 NA
ATOM     15  N   UNL A   1      32.177  25.884  24.349  1.00  0.00    -0.201 N 
ATOM     16  C   UNL A   1      32.786  24.414  22.436  1.00  0.00     0.067 C 
ATOM     17  C   UNL A   1      31.448  27.876  24.482  1.00  0.00     0.172 A 
ATOM     18  N   UNL A   1      32.102  27.057  23.641  1.00  0.00    -0.148 NA
BRANCH  17  19
ATOM     19  C   UNL A   1      30.895  29.239  24.090  1.00  0.00     0.199 C 
BRANCH  19  20
ATOM     20  N   UNL A   1      29.875  29.083  23.070  1.00  0.00    -0.314 N 
ATOM     21  C   UNL A   1      29.340  29.929  22.164  1.00  0.00     0.408 C 
ATOM     22  H   UNL A   1      29.496  28.175  23.030  1.00  0.00     0.167 HD
ATOM     23  O   UNL A   1      28.590  29.505  21.296  1.00  0.00    -0.225 OA
BRANCH  21  24
ATOM     24  O   UNL A   1      29.665  31.231  22.312  1.00  0.00    -0.444 OA
BRANCH  24  25
ATOM     25  C   UNL A   1      28.562  32.155  22.554  1.00  0.00     0.106 C 
ATOM     26  C   UNL A   1      27.874  32.585  21.248  1.00  0.00     0.056 C 
ATOM     27  C   UNL A   1      27.531  31.594  23.556  1.00  0.00     0.056 C 
ATOM     28  C   UNL A   1      29.224  33.382  23.191  1.00  0.00     0.056 C 
ENDBRANCH  24  25
ENDBRANCH  21  24
ENDBRANCH  19  20
ENDBRANCH  17  19
ENDBRANCH   7   8
ENDBRANCH   6   7
ENDBRANCH   3   6
ENDBRANCH   1   2
BRANCH   1  29
ATOM     29  C   UNL A   1      37.005  22.285  25.087  1.00  0.00     0.023 C 
BRANCH  29  30
ATOM     30  C   UNL A   1      37.736  20.951  25.009  1.00  0.00     0.023 C 
BRANCH  30  31
ATOM     31  C   UNL A   1      39.038  20.947  25.775  1.00  0.00     0.116 C 
BRANCH  31  32
ATOM     32  N   UNL A   1      39.773  19.671  25.723  1.00  0.00    -0.352 N 
ATOM     33  C   UNL A   1      41.129  19.482  25.968  1.00  0.00     0.251 C 
ATOM     34  H   UNL A   1      39.250  18.869  25.492  1.00  0.00     0.163 HD
ATOM     35  O   UNL A   1      41.673  18.396  25.839  1.00  0.00    -0.269 OA
BRANCH  33  36
ATOM     36  C   UNL A   1      41.813  20.638  26.542  1.00  0.00     0.039 A 
ATOM     37  C   UNL A   1      42.391  21.652  25.769  1.00  0.00     0.014 A 
ATOM     38  C   UNL A   1      41.428  20.827  27.859  1.00  0.00     0.014 A 
ATOM     39  C   UNL A   1      42.548  22.909  26.342  1.00  0.00     0.010 A 
ATOM     40  C   UNL A   1      41.332  22.116  28.287  1.00  0.00     0.010 A 
ATOM     41  C   UNL A   1      42.003  23.132  27.608  1.00  0.00    -0.014 A 
BRANCH  41  42
ATOM     42  C   UNL A   1      42.144  24.396  28.314  1.00  0.00     0.031 A 
ATOM     43  C   UNL A   1      41.065  25.409  28.168  1.00  0.00     0.074 A 
ATOM     44  C   UNL A   1      43.162  24.540  29.193  1.00  0.00     0.049 A 
ATOM     45  N   UNL A   1      41.153  26.561  27.586  1.00  0.00    -0.248 NA
ATOM     46  C   UNL A   1      39.707  25.093  28.638  1.00  0.00     0.031 C 
ATOM     47  C   UNL A   1      44.177  23.549  29.604  1.00  0.00     0.029 A 
ATOM     48  N   UNL A   1      43.437  25.583  30.010  1.00  0.00    -0.354 N 
ATOM     49  C   UNL A   1      39.946  27.213  27.822  1.00  0.00     0.074 A 
ATOM     50  C   UNL A   1      39.041  26.205  28.312  1.00  0.00     0.031 C 
ATOM     51  C   UNL A   1      44.744  23.924  30.764  1.00  0.00     0.029 A 
ATOM     52  C   UNL A   1      44.328  25.282  31.028  1.00  0.00     0.049 A 
ATOM     53  H   UNL A   1      43.040  26.475  29.891  1.00  0.00     0.167 HD
ATOM     54  C   UNL A   1      39.865  28.576  27.817  1.00  0.00     0.037 A 
ATOM     55  C   UNL A   1      44.755  26.099  32.012  1.00  0.00     0.037 A 
ATOM     56  C   UNL A   1      41.031  29.163  27.202  1.00  0.00     0.049 A 
ATOM     57  C   UNL A   1      44.564  27.480  31.505  1.00  0.00     0.074 A 
ATOM     58  C   UNL A   1      41.612  29.076  25.952  1.00  0.00     0.029 A 
ATOM     59  N   UNL A   1      42.005  29.670  28.030  1.00  0.00    -0.354 N 
ATOM     60  N   UNL A   1      45.207  27.961  30.472  1.00  0.00    -0.248 NA
ATOM     61  C   UNL A   1      43.326  28.164  31.836  1.00  0.00     0.031 C 
ATOM     62  C   UNL A   1      43.017  29.064  26.198  1.00  0.00     0.029 A 
ATOM     63  C   UNL A   1      43.218  29.217  27.572  1.00  0.00     0.049 A 
ATOM     64  H   UNL A   1      41.859  30.252  28.810  1.00  0.00     0.167 HD
ATOM     65  C   UNL A   1      44.268  28.715  29.781  1.00  0.00     0.074 A 
ATOM     66  C   UNL A   1      43.166  28.891  30.726  1.00  0.00     0.031 C 
ATOM     67  C   UNL A   1      44.344  28.885  28.425  1.00  0.00     0.037 A 
BRANCH  54  68
ATOM     68  C   UNL A   1      38.918  29.388  28.674  1.00  0.00     0.058 A 
ATOM     69  C   UNL A   1      37.900  30.152  28.062  1.00  0.00     0.135 A 
ATOM     70  C   UNL A   1      39.142  29.664  30.041  1.00  0.00     0.135 A 
ATOM     71  F   UNL A   1      37.606  29.983  26.762  1.00  0.00    -0.206 F 
ATOM     72  C   UNL A   1      37.210  31.160  28.738  1.00  0.00     0.059 A 
ATOM     73  C   UNL A   1      38.428  30.626  30.747  1.00  0.00     0.059 A 
ATOM     74  F   UNL A   1      40.133  29.087  30.731  1.00  0.00    -0.206 F 
ATOM     75  C   UNL A   1      37.495  31.401  30.079  1.00  0.00     0.060 A 
BRANCH  75  76
ATOM     76  S   UNL A   1      36.702  32.781  30.924  1.00  0.00     0.124 S 
ATOM     77  O   UNL A   1      35.366  32.246  31.161  1.00  0.00    -0.237 OA
ATOM     78  O   UNL A   1      37.546  32.942  32.103  1.00  0.00    -0.237 OA
ATOM     79  O   UNL A   1      36.784  33.863  29.948  1.00  0.00    -0.744 OA
ENDBRANCH  75  76
ENDBRANCH  54  68
BRANCH  55  80
ATOM     80  C   UNL A   1      44.971  25.719  33.427  1.00  0.00     0.058 A 
ATOM     81  C   UNL A   1      45.934  26.377  34.204  1.00  0.00     0.135 A 
ATOM     82  C   UNL A   1      44.066  24.885  34.121  1.00  0.00     0.135 A 
ATOM     83  F   UNL A   1      46.829  27.187  33.622  1.00  0.00    -0.206 F 
ATOM     84  C   UNL A   1      45.957  26.270  35.598  1.00  0.00     0.059 A 
ATOM     85  C   UNL A   1      44.078  24.754  35.508  1.00  0.00     0.059 A 
ATOM     86  F   UNL A   1      43.081  24.237  33.478  1.00  0.00    -0.206 F 
ATOM     87  C   UNL A   1      45.006  25.479  36.242  1.00  0.00     0.060 A 
BRANCH  87  88
ATOM     88  S   UNL A   1      44.908  25.512  38.045  1.00  0.00     0.124 S 
ATOM     89  O   UNL A   1      43.599  26.118  38.266  1.00  0.00    -0.237 OA
ATOM     90  O   UNL A   1      45.022  24.097  38.381  1.00  0.00    -0.237 OA
ATOM     91  O   UNL A   1      46.050  26.336  38.433  1.00  0.00    -0.744 OA
ENDBRANCH  87  88
ENDBRANCH  55  80
BRANCH  67  92
ATOM     92  C   UNL A   1      45.620  28.483  27.719  1.00  0.00     0.058 A 
ATOM     93  C   UNL A   1      45.858  27.210  27.171  1.00  0.00     0.135 A 
ATOM     94  C   UNL A   1      46.562  29.480  27.425  1.00  0.00     0.135 A 
ATOM     95  F   UNL A   1      44.967  26.222  27.313  1.00  0.00    -0.206 F 
ATOM     96  C   UNL A   1      46.989  26.930  26.398  1.00  0.00     0.059 A 
ATOM     97  C   UNL A   1      47.684  29.233  26.634  1.00  0.00     0.059 A 
ATOM     98  F   UNL A   1      46.367  30.736  27.861  1.00  0.00    -0.206 F 
ATOM     99  C   UNL A   1      47.896  27.952  26.129  1.00  0.00     0.060 A 
BRANCH  99 100
ATOM    100  S   UNL A   1      49.315  27.611  25.064  1.00  0.00     0.124 S 
ATOM    101  O   UNL A   1      49.586  26.207  25.352  1.00  0.00    -0.237 OA
ATOM    102  O   UNL A   1      48.787  27.895  23.732  1.00  0.00    -0.237 OA
ATOM    103  O   UNL A   1      50.330  28.550  25.535  1.00  0.00    -0.744 OA
ENDBRANCH  99 100
ENDBRANCH  67  92
ENDBRANCH  41  42
ENDBRANCH  33  36
ENDBRANCH  31  32
ENDBRANCH  30  31
ENDBRANCH  29  30
ENDBRANCH   1  29
TORSDOF 20
ENDMDL
