MODEL 1
REMARK VINA RESULT:     -13.3      0.000      0.000
REMARK SMILES COc1cccc(-c2c(C(=O)NCCCCNC(=O)c3ccc(-c4c5nc(c(-c6c(F)cc(S(=O)(=O)[O-])cc6F)c6ccc([nH]6)c(-c6c(F)cc(S(=O)(=O)[O-])cc6F)c6nc(c(-c7c(F)cc(S(=O)(=O)[O-])cc7F)c7ccc4[nH]7)C=C6)C=C5)cc3)nnn2-c2ccc(OC(F)(F)F)cc2)c1
REMARK SMILES IDX 14 1 13 2 12 3 10 4 11 5 9 7 8 8 88 9 86 10 87 11 7 12 3 13
REMARK SMILES IDX 4 14 100 15 5 16 6 17 2 18 1 19 89 20 90 21 99 22 91 23
REMARK SMILES IDX 98 24 92 25 93 26 94 27 95 28 96 29 97 30 15 31 16 32 17 33
REMARK SMILES IDX 18 34 19 36 20 37 21 38 85 39 22 40 84 41 23 42 24 43 25 44
REMARK SMILES IDX 78 45 26 46 83 47 77 48 79 49 27 50 82 51 76 52 75 53 28 55
REMARK SMILES IDX 62 56 41 57 61 58 42 59 45 60 60 61 80 62 43 63 44 64 59 66
REMARK SMILES IDX 81 67 46 68 29 69 30 70 39 71 31 72 32 73 38 74 40 75 33 76
REMARK SMILES IDX 34 77 35 78 36 79 37 80 63 81 64 82 73 83 65 84 66 85 72 86
REMARK SMILES IDX 74 87 67 88 68 89 69 90 70 91 71 92 47 93 48 94 57 95 49 96
REMARK SMILES IDX 50 97 56 98 58 99 51 100 52 101 53 102 54 103 55 104
REMARK H PARENT 12 6 17 35 79 54 45 65
REMARK Flexibility Score: inf
ROOT
ATOM      1  C   UNL A   1      32.060  27.903  26.660  1.00  0.00     0.023 C 
ENDROOT
BRANCH   1   2
ATOM      2  C   UNL A   1      31.445  27.853  25.267  1.00  0.00     0.116 C 
BRANCH   2   3
ATOM      3  N   UNL A   1      32.341  27.812  24.145  1.00  0.00    -0.351 N 
ATOM      4  C   UNL A   1      32.759  26.768  23.339  1.00  0.00     0.274 C 
ATOM      5  O   UNL A   1      33.527  27.107  22.433  1.00  0.00    -0.267 OA
ATOM      6  H   UNL A   1      32.729  28.685  23.905  1.00  0.00     0.163 HD
BRANCH   4   7
ATOM      7  C   UNL A   1      32.416  25.340  23.511  1.00  0.00     0.178 A 
ATOM      8  C   UNL A   1      33.092  24.165  23.861  1.00  0.00     0.108 A 
ATOM      9  N   UNL A   1      32.097  23.185  23.833  1.00  0.00    -0.212 N 
ATOM     10  N   UNL A   1      31.099  24.988  23.234  1.00  0.00    -0.124 NA
ATOM     11  N   UNL A   1      30.962  23.677  23.316  1.00  0.00    -0.061 NA
BRANCH   8  12
ATOM     12  C   UNL A   1      34.503  23.791  23.989  1.00  0.00     0.006 A 
ATOM     13  C   UNL A   1      36.443  23.604  25.457  1.00  0.00     0.119 A 
ATOM     14  C   UNL A   1      37.121  22.934  24.440  1.00  0.00     0.046 A 
ATOM     15  C   UNL A   1      35.145  24.048  25.224  1.00  0.00     0.056 A 
ATOM     16  C   UNL A   1      36.504  22.696  23.206  1.00  0.00     0.005 A 
ATOM     17  C   UNL A   1      35.194  23.125  22.974  1.00  0.00     0.011 A 
BRANCH  13  18
ATOM     18  O   UNL A   1      37.142  23.793  26.617  1.00  0.00    -0.497 OA
ATOM     19  C   UNL A   1      38.468  24.294  26.481  1.00  0.00     0.278 C 
ENDBRANCH  13  18
ENDBRANCH   8  12
BRANCH   9  20
ATOM     20  C   UNL A   1      32.249  21.804  24.114  1.00  0.00     0.067 A 
ATOM     21  C   UNL A   1      32.144  20.869  23.082  1.00  0.00     0.032 A 
ATOM     22  C   UNL A   1      32.618  21.392  25.399  1.00  0.00     0.032 A 
ATOM     23  C   UNL A   1      32.511  19.543  23.328  1.00  0.00     0.049 A 
ATOM     24  C   UNL A   1      32.958  20.061  25.640  1.00  0.00     0.049 A 
ATOM     25  C   UNL A   1      32.937  19.135  24.600  1.00  0.00     0.129 A 
BRANCH  25  26
ATOM     26  O   UNL A   1      33.307  17.823  24.688  1.00  0.00    -0.406 OA
BRANCH  26  27
ATOM     27  C   UNL A   1      34.630  17.492  24.294  1.00  0.00     0.573 C 
ATOM     28  F   UNL A   1      35.449  18.563  24.369  1.00  0.00    -0.132 F 
ATOM     29  F   UNL A   1      35.124  16.487  25.047  1.00  0.00    -0.132 F 
ATOM     30  F   UNL A   1      34.605  17.075  23.008  1.00  0.00    -0.132 F 
ENDBRANCH  26  27
ENDBRANCH  25  26
ENDBRANCH   9  20
ENDBRANCH   4   7
ENDBRANCH   2   3
ENDBRANCH   1   2
BRANCH   1  31
ATOM     31  C   UNL A   1      32.442  29.273  27.214  1.00  0.00     0.023 C 
BRANCH  31  32
ATOM     32  C   UNL A   1      33.917  29.637  27.103  1.00  0.00     0.116 C 
BRANCH  32  33
ATOM     33  N   UNL A   1      34.198  31.077  27.068  1.00  0.00    -0.352 N 
ATOM     34  C   UNL A   1      35.191  31.758  27.771  1.00  0.00     0.251 C 
ATOM     35  H   UNL A   1      33.622  31.622  26.485  1.00  0.00     0.163 HD
ATOM     36  O   UNL A   1      35.124  32.955  27.972  1.00  0.00    -0.269 OA
BRANCH  34  37
ATOM     37  C   UNL A   1      36.348  30.972  28.244  1.00  0.00     0.039 A 
ATOM     38  C   UNL A   1      36.531  29.619  27.944  1.00  0.00     0.014 A 
ATOM     39  C   UNL A   1      37.314  31.684  28.941  1.00  0.00     0.014 A 
ATOM     40  C   UNL A   1      37.748  29.021  28.278  1.00  0.00     0.010 A 
ATOM     41  C   UNL A   1      38.571  31.165  29.052  1.00  0.00     0.010 A 
ATOM     42  C   UNL A   1      38.775  29.811  28.816  1.00  0.00    -0.014 A 
BRANCH  42  43
ATOM     43  C   UNL A   1      40.110  29.289  29.088  1.00  0.00     0.031 A 
ATOM     44  C   UNL A   1      40.441  29.109  30.529  1.00  0.00     0.074 A 
ATOM     45  C   UNL A   1      40.870  28.746  28.108  1.00  0.00     0.049 A 
ATOM     46  N   UNL A   1      41.321  29.743  31.231  1.00  0.00    -0.248 NA
ATOM     47  C   UNL A   1      39.592  28.206  31.326  1.00  0.00     0.031 C 
ATOM     48  C   UNL A   1      40.527  28.538  26.691  1.00  0.00     0.029 A 
ATOM     49  N   UNL A   1      42.083  28.142  28.199  1.00  0.00    -0.354 N 
ATOM     50  C   UNL A   1      41.306  29.149  32.493  1.00  0.00     0.074 A 
ATOM     51  C   UNL A   1      40.093  28.379  32.550  1.00  0.00     0.031 C 
ATOM     52  C   UNL A   1      41.378  27.647  26.140  1.00  0.00     0.029 A 
ATOM     53  C   UNL A   1      42.436  27.379  27.092  1.00  0.00     0.049 A 
ATOM     54  H   UNL A   1      42.664  28.237  28.988  1.00  0.00     0.167 HD
ATOM     55  C   UNL A   1      42.417  29.134  33.284  1.00  0.00     0.037 A 
ATOM     56  C   UNL A   1      43.516  26.568  26.974  1.00  0.00     0.037 A 
ATOM     57  C   UNL A   1      43.397  30.083  32.812  1.00  0.00     0.049 A 
ATOM     58  C   UNL A   1      44.488  27.003  28.011  1.00  0.00     0.074 A 
ATOM     59  C   UNL A   1      43.401  31.448  32.595  1.00  0.00     0.029 A 
ATOM     60  N   UNL A   1      44.471  29.595  32.105  1.00  0.00    -0.354 N 
ATOM     61  N   UNL A   1      45.070  28.173  28.014  1.00  0.00    -0.248 NA
ATOM     62  C   UNL A   1      44.444  26.326  29.298  1.00  0.00     0.031 C 
ATOM     63  C   UNL A   1      44.143  31.627  31.390  1.00  0.00     0.029 A 
ATOM     64  C   UNL A   1      44.616  30.376  30.987  1.00  0.00     0.049 A 
ATOM     65  H   UNL A   1      45.032  28.826  32.356  1.00  0.00     0.167 HD
ATOM     66  C   UNL A   1      45.085  28.562  29.347  1.00  0.00     0.074 A 
ATOM     67  C   UNL A   1      44.765  27.348  30.097  1.00  0.00     0.031 C 
ATOM     68  C   UNL A   1      45.072  29.881  29.704  1.00  0.00     0.037 A 
BRANCH  55  69
ATOM     69  C   UNL A   1      42.782  28.021  34.247  1.00  0.00     0.058 A 
ATOM     70  C   UNL A   1      42.898  28.313  35.624  1.00  0.00     0.135 A 
ATOM     71  C   UNL A   1      43.294  26.763  33.855  1.00  0.00     0.135 A 
ATOM     72  F   UNL A   1      42.440  29.475  36.118  1.00  0.00    -0.206 F 
ATOM     73  C   UNL A   1      43.555  27.467  36.519  1.00  0.00     0.059 A 
ATOM     74  C   UNL A   1      43.903  25.880  34.742  1.00  0.00     0.059 A 
ATOM     75  F   UNL A   1      43.324  26.362  32.580  1.00  0.00    -0.206 F 
ATOM     76  C   UNL A   1      44.072  26.261  36.061  1.00  0.00     0.060 A 
BRANCH  76  77
ATOM     77  S   UNL A   1      45.032  25.225  37.178  1.00  0.00     0.124 S 
ATOM     78  O   UNL A   1      44.363  25.475  38.449  1.00  0.00    -0.237 OA
ATOM     79  O   UNL A   1      44.839  23.898  36.601  1.00  0.00    -0.237 OA
ATOM     80  O   UNL A   1      46.383  25.764  37.058  1.00  0.00    -0.744 OA
ENDBRANCH  76  77
ENDBRANCH  55  69
BRANCH  56  81
ATOM     81  C   UNL A   1      43.605  25.258  26.274  1.00  0.00     0.058 A 
ATOM     82  C   UNL A   1      44.572  25.025  25.282  1.00  0.00     0.135 A 
ATOM     83  C   UNL A   1      42.929  24.118  26.761  1.00  0.00     0.135 A 
ATOM     84  F   UNL A   1      45.274  26.050  24.773  1.00  0.00    -0.206 F 
ATOM     85  C   UNL A   1      44.889  23.737  24.835  1.00  0.00     0.059 A 
ATOM     86  C   UNL A   1      43.222  22.827  26.326  1.00  0.00     0.059 A 
ATOM     87  F   UNL A   1      42.023  24.221  27.745  1.00  0.00    -0.206 F 
ATOM     88  C   UNL A   1      44.223  22.640  25.380  1.00  0.00     0.060 A 
BRANCH  88  89
ATOM     89  S   UNL A   1      44.755  20.967  24.939  1.00  0.00     0.124 S 
ATOM     90  O   UNL A   1      46.108  20.929  25.483  1.00  0.00    -0.237 OA
ATOM     91  O   UNL A   1      43.768  20.139  25.624  1.00  0.00    -0.237 OA
ATOM     92  O   UNL A   1      44.668  20.957  23.481  1.00  0.00    -0.744 OA
ENDBRANCH  88  89
ENDBRANCH  56  81
BRANCH  68  93
ATOM     93  C   UNL A   1      45.326  30.919  28.636  1.00  0.00     0.058 A 
ATOM     94  C   UNL A   1      44.328  31.512  27.842  1.00  0.00     0.135 A 
ATOM     95  C   UNL A   1      46.617  31.459  28.539  1.00  0.00     0.135 A 
ATOM     96  F   UNL A   1      43.049  31.129  27.941  1.00  0.00    -0.206 F 
ATOM     97  C   UNL A   1      44.606  32.569  26.972  1.00  0.00     0.059 A 
ATOM     98  C   UNL A   1      46.912  32.532  27.701  1.00  0.00     0.059 A 
ATOM     99  F   UNL A   1      47.605  30.981  29.314  1.00  0.00    -0.206 F 
ATOM    100  C   UNL A   1      45.902  33.077  26.912  1.00  0.00     0.060 A 
BRANCH 100 101
ATOM    101  S   UNL A   1      46.243  34.501  25.854  1.00  0.00     0.124 S 
ATOM    102  O   UNL A   1      45.278  34.319  24.773  1.00  0.00    -0.237 OA
ATOM    103  O   UNL A   1      45.988  35.629  26.747  1.00  0.00    -0.237 OA
ATOM    104  O   UNL A   1      47.642  34.320  25.479  1.00  0.00    -0.744 OA
ENDBRANCH 100 101
ENDBRANCH  68  93
ENDBRANCH  42  43
ENDBRANCH  34  37
ENDBRANCH  32  33
ENDBRANCH  31  32
ENDBRANCH   1  31
TORSDOF 19
ENDMDL
MODEL 2
REMARK VINA RESULT:     -12.7      3.676      9.756
REMARK SMILES COc1cccc(-c2c(C(=O)NCCCCNC(=O)c3ccc(-c4c5nc(c(-c6c(F)cc(S(=O)(=O)[O-])cc6F)c6ccc([nH]6)c(-c6c(F)cc(S(=O)(=O)[O-])cc6F)c6nc(c(-c7c(F)cc(S(=O)(=O)[O-])cc7F)c7ccc4[nH]7)C=C6)C=C5)cc3)nnn2-c2ccc(OC(F)(F)F)cc2)c1
REMARK SMILES IDX 14 1 13 2 12 3 10 4 11 5 9 7 8 8 88 9 86 10 87 11 7 12 3 13
REMARK SMILES IDX 4 14 100 15 5 16 6 17 2 18 1 19 89 20 90 21 99 22 91 23
REMARK SMILES IDX 98 24 92 25 93 26 94 27 95 28 96 29 97 30 15 31 16 32 17 33
REMARK SMILES IDX 18 34 19 36 20 37 21 38 85 39 22 40 84 41 23 42 24 43 25 44
REMARK SMILES IDX 78 45 26 46 83 47 77 48 79 49 27 50 82 51 76 52 75 53 28 55
REMARK SMILES IDX 62 56 41 57 61 58 42 59 45 60 60 61 80 62 43 63 44 64 59 66
REMARK SMILES IDX 81 67 46 68 29 69 30 70 39 71 31 72 32 73 38 74 40 75 33 76
REMARK SMILES IDX 34 77 35 78 36 79 37 80 63 81 64 82 73 83 65 84 66 85 72 86
REMARK SMILES IDX 74 87 67 88 68 89 69 90 70 91 71 92 47 93 48 94 57 95 49 96
REMARK SMILES IDX 50 97 56 98 58 99 51 100 52 101 53 102 54 103 55 104
REMARK H PARENT 12 6 17 35 79 54 45 65
REMARK Flexibility Score: inf
ROOT
ATOM      1  C   UNL A   1      35.123  21.924  25.231  1.00  0.00     0.023 C 
ENDROOT
BRANCH   1   2
ATOM      2  C   UNL A   1      34.050  21.569  24.208  1.00  0.00     0.116 C 
BRANCH   2   3
ATOM      3  N   UNL A   1      32.734  21.270  24.701  1.00  0.00    -0.351 N 
ATOM      4  C   UNL A   1      31.822  22.030  25.410  1.00  0.00     0.274 C 
ATOM      5  O   UNL A   1      30.757  21.450  25.646  1.00  0.00    -0.267 OA
ATOM      6  H   UNL A   1      32.424  20.358  24.495  1.00  0.00     0.163 HD
BRANCH   4   7
ATOM      7  C   UNL A   1      32.041  23.397  25.932  1.00  0.00     0.178 A 
ATOM      8  C   UNL A   1      32.160  24.684  25.396  1.00  0.00     0.108 A 
ATOM      9  N   UNL A   1      32.339  25.499  26.516  1.00  0.00    -0.212 N 
ATOM     10  N   UNL A   1      32.218  23.507  27.307  1.00  0.00    -0.124 NA
ATOM     11  N   UNL A   1      32.515  24.755  27.619  1.00  0.00    -0.061 NA
BRANCH   8  12
ATOM     12  C   UNL A   1      32.354  25.221  24.046  1.00  0.00     0.006 A 
ATOM     13  C   UNL A   1      31.516  26.699  22.294  1.00  0.00     0.119 A 
ATOM     14  C   UNL A   1      32.693  26.482  21.579  1.00  0.00     0.046 A 
ATOM     15  C   UNL A   1      31.340  26.054  23.515  1.00  0.00     0.056 A 
ATOM     16  C   UNL A   1      33.692  25.642  22.084  1.00  0.00     0.005 A 
ATOM     17  C   UNL A   1      33.526  25.006  23.317  1.00  0.00     0.011 A 
BRANCH  13  18
ATOM     18  O   UNL A   1      30.603  27.529  21.705  1.00  0.00    -0.497 OA
ATOM     19  C   UNL A   1      29.993  28.499  22.551  1.00  0.00     0.278 C 
ENDBRANCH  13  18
ENDBRANCH   8  12
BRANCH   9  20
ATOM     20  C   UNL A   1      32.511  26.906  26.532  1.00  0.00     0.067 A 
ATOM     21  C   UNL A   1      31.552  27.716  27.144  1.00  0.00     0.032 A 
ATOM     22  C   UNL A   1      33.694  27.467  26.039  1.00  0.00     0.032 A 
ATOM     23  C   UNL A   1      31.837  29.069  27.346  1.00  0.00     0.049 A 
ATOM     24  C   UNL A   1      33.957  28.824  26.223  1.00  0.00     0.049 A 
ATOM     25  C   UNL A   1      33.045  29.627  26.906  1.00  0.00     0.129 A 
BRANCH  25  26
ATOM     26  O   UNL A   1      33.212  30.949  27.208  1.00  0.00    -0.406 OA
BRANCH  26  27
ATOM     27  C   UNL A   1      34.321  31.295  28.022  1.00  0.00     0.573 C 
ATOM     28  F   UNL A   1      35.319  31.838  27.291  1.00  0.00    -0.132 F 
ATOM     29  F   UNL A   1      33.957  32.151  29.001  1.00  0.00    -0.132 F 
ATOM     30  F   UNL A   1      34.795  30.172  28.605  1.00  0.00    -0.132 F 
ENDBRANCH  26  27
ENDBRANCH  25  26
ENDBRANCH   9  20
ENDBRANCH   4   7
ENDBRANCH   2   3
ENDBRANCH   1   2
BRANCH   1  31
ATOM     31  C   UNL A   1      36.464  22.422  24.700  1.00  0.00     0.023 C 
BRANCH  31  32
ATOM     32  C   UNL A   1      37.389  23.046  25.738  1.00  0.00     0.116 C 
BRANCH  32  33
ATOM     33  N   UNL A   1      38.370  22.126  26.325  1.00  0.00    -0.352 N 
ATOM     34  C   UNL A   1      39.640  22.443  26.804  1.00  0.00     0.251 C 
ATOM     35  H   UNL A   1      38.101  21.181  26.388  1.00  0.00     0.163 HD
ATOM     36  O   UNL A   1      40.506  21.599  26.926  1.00  0.00    -0.269 OA
BRANCH  34  37
ATOM     37  C   UNL A   1      39.891  23.848  27.184  1.00  0.00     0.039 A 
ATOM     38  C   UNL A   1      38.911  24.844  27.132  1.00  0.00     0.014 A 
ATOM     39  C   UNL A   1      41.153  24.117  27.694  1.00  0.00     0.014 A 
ATOM     40  C   UNL A   1      39.197  26.091  27.691  1.00  0.00     0.010 A 
ATOM     41  C   UNL A   1      41.342  25.245  28.439  1.00  0.00     0.010 A 
ATOM     42  C   UNL A   1      40.414  26.276  28.364  1.00  0.00    -0.014 A 
BRANCH  42  43
ATOM     43  C   UNL A   1      40.743  27.511  29.070  1.00  0.00     0.031 A 
ATOM     44  C   UNL A   1      41.838  28.318  28.463  1.00  0.00     0.074 A 
ATOM     45  C   UNL A   1      39.930  28.016  30.027  1.00  0.00     0.049 A 
ATOM     46  N   UNL A   1      43.009  28.567  28.948  1.00  0.00    -0.248 NA
ATOM     47  C   UNL A   1      41.659  28.796  27.081  1.00  0.00     0.031 C 
ATOM     48  C   UNL A   1      38.628  27.503  30.488  1.00  0.00     0.029 A 
ATOM     49  N   UNL A   1      40.036  29.182  30.714  1.00  0.00    -0.354 N 
ATOM     50  C   UNL A   1      43.622  29.435  28.044  1.00  0.00     0.074 A 
ATOM     51  C   UNL A   1      42.843  29.359  26.837  1.00  0.00     0.031 C 
ATOM     52  C   UNL A   1      37.970  28.467  31.165  1.00  0.00     0.029 A 
ATOM     53  C   UNL A   1      38.872  29.584  31.361  1.00  0.00     0.049 A 
ATOM     54  H   UNL A   1      40.871  29.702  30.751  1.00  0.00     0.167 HD
ATOM     55  C   UNL A   1      44.564  30.334  28.450  1.00  0.00     0.037 A 
ATOM     56  C   UNL A   1      38.660  30.762  31.997  1.00  0.00     0.037 A 
ATOM     57  C   UNL A   1      45.056  30.004  29.766  1.00  0.00     0.049 A 
ATOM     58  C   UNL A   1      40.001  31.325  32.302  1.00  0.00     0.074 A 
ATOM     59  C   UNL A   1      45.671  28.900  30.324  1.00  0.00     0.029 A 
ATOM     60  N   UNL A   1      44.579  30.736  30.829  1.00  0.00    -0.354 N 
ATOM     61  N   UNL A   1      40.855  30.767  33.118  1.00  0.00    -0.248 NA
ATOM     62  C   UNL A   1      40.577  32.248  31.336  1.00  0.00     0.031 C 
ATOM     63  C   UNL A   1      45.094  28.772  31.622  1.00  0.00     0.029 A 
ATOM     64  C   UNL A   1      44.223  29.848  31.812  1.00  0.00     0.049 A 
ATOM     65  H   UNL A   1      44.507  31.717  30.875  1.00  0.00     0.167 HD
ATOM     66  C   UNL A   1      42.092  30.930  32.510  1.00  0.00     0.074 A 
ATOM     67  C   UNL A   1      41.867  31.924  31.460  1.00  0.00     0.031 C 
ATOM     68  C   UNL A   1      43.111  30.044  32.720  1.00  0.00     0.037 A 
BRANCH  55  69
ATOM     69  C   UNL A   1      44.773  31.706  27.839  1.00  0.00     0.058 A 
ATOM     70  C   UNL A   1      45.996  31.992  27.192  1.00  0.00     0.135 A 
ATOM     71  C   UNL A   1      43.957  32.830  28.102  1.00  0.00     0.135 A 
ATOM     72  F   UNL A   1      46.852  31.004  26.882  1.00  0.00    -0.206 F 
ATOM     73  C   UNL A   1      46.414  33.295  26.917  1.00  0.00     0.059 A 
ATOM     74  C   UNL A   1      44.330  34.132  27.785  1.00  0.00     0.059 A 
ATOM     75  F   UNL A   1      42.800  32.742  28.768  1.00  0.00    -0.206 F 
ATOM     76  C   UNL A   1      45.581  34.359  27.238  1.00  0.00     0.060 A 
BRANCH  76  77
ATOM     77  S   UNL A   1      46.166  36.046  27.006  1.00  0.00     0.124 S 
ATOM     78  O   UNL A   1      46.666  35.992  25.637  1.00  0.00    -0.237 OA
ATOM     79  O   UNL A   1      44.946  36.821  27.213  1.00  0.00    -0.237 OA
ATOM     80  O   UNL A   1      47.180  36.195  28.045  1.00  0.00    -0.744 OA
ENDBRANCH  76  77
ENDBRANCH  55  69
BRANCH  56  81
ATOM     81  C   UNL A   1      37.410  31.566  32.039  1.00  0.00     0.058 A 
ATOM     82  C   UNL A   1      36.843  31.971  33.260  1.00  0.00     0.135 A 
ATOM     83  C   UNL A   1      36.901  32.194  30.882  1.00  0.00     0.135 A 
ATOM     84  F   UNL A   1      37.278  31.438  34.413  1.00  0.00    -0.206 F 
ATOM     85  C   UNL A   1      35.870  32.973  33.337  1.00  0.00     0.059 A 
ATOM     86  C   UNL A   1      35.926  33.190  30.932  1.00  0.00     0.059 A 
ATOM     87  F   UNL A   1      37.406  31.920  29.669  1.00  0.00    -0.206 F 
ATOM     88  C   UNL A   1      35.433  33.594  32.167  1.00  0.00     0.060 A 
BRANCH  88  89
ATOM     89  S   UNL A   1      34.312  35.011  32.277  1.00  0.00     0.124 S 
ATOM     90  O   UNL A   1      33.135  34.416  32.899  1.00  0.00    -0.237 OA
ATOM     91  O   UNL A   1      35.071  35.941  33.107  1.00  0.00    -0.237 OA
ATOM     92  O   UNL A   1      34.144  35.419  30.884  1.00  0.00    -0.744 OA
ENDBRANCH  88  89
ENDBRANCH  56  81
BRANCH  68  93
ATOM     93  C   UNL A   1      42.974  29.040  33.840  1.00  0.00     0.058 A 
ATOM     94  C   UNL A   1      43.195  29.324  35.200  1.00  0.00     0.135 A 
ATOM     95  C   UNL A   1      42.426  27.786  33.536  1.00  0.00     0.135 A 
ATOM     96  F   UNL A   1      43.622  30.530  35.593  1.00  0.00    -0.206 F 
ATOM     97  C   UNL A   1      42.913  28.395  36.205  1.00  0.00     0.059 A 
ATOM     98  C   UNL A   1      42.109  26.855  34.521  1.00  0.00     0.059 A 
ATOM     99  F   UNL A   1      42.132  27.472  32.262  1.00  0.00    -0.206 F 
ATOM    100  C   UNL A   1      42.364  27.162  35.856  1.00  0.00     0.060 A 
BRANCH 100 101
ATOM    101  S   UNL A   1      41.918  25.996  37.160  1.00  0.00     0.124 S 
ATOM    102  O   UNL A   1      42.090  24.708  36.494  1.00  0.00    -0.237 OA
ATOM    103  O   UNL A   1      42.890  26.302  38.207  1.00  0.00    -0.237 OA
ATOM    104  O   UNL A   1      40.539  26.353  37.481  1.00  0.00    -0.744 OA
ENDBRANCH 100 101
ENDBRANCH  68  93
ENDBRANCH  42  43
ENDBRANCH  34  37
ENDBRANCH  32  33
ENDBRANCH  31  32
ENDBRANCH   1  31
TORSDOF 19
ENDMDL
MODEL 3
REMARK VINA RESULT:     -12.6      3.778      9.667
REMARK SMILES COc1cccc(-c2c(C(=O)NCCCCNC(=O)c3ccc(-c4c5nc(c(-c6c(F)cc(S(=O)(=O)[O-])cc6F)c6ccc([nH]6)c(-c6c(F)cc(S(=O)(=O)[O-])cc6F)c6nc(c(-c7c(F)cc(S(=O)(=O)[O-])cc7F)c7ccc4[nH]7)C=C6)C=C5)cc3)nnn2-c2ccc(OC(F)(F)F)cc2)c1
REMARK SMILES IDX 14 1 13 2 12 3 10 4 11 5 9 7 8 8 88 9 86 10 87 11 7 12 3 13
REMARK SMILES IDX 4 14 100 15 5 16 6 17 2 18 1 19 89 20 90 21 99 22 91 23
REMARK SMILES IDX 98 24 92 25 93 26 94 27 95 28 96 29 97 30 15 31 16 32 17 33
REMARK SMILES IDX 18 34 19 36 20 37 21 38 85 39 22 40 84 41 23 42 24 43 25 44
REMARK SMILES IDX 78 45 26 46 83 47 77 48 79 49 27 50 82 51 76 52 75 53 28 55
REMARK SMILES IDX 62 56 41 57 61 58 42 59 45 60 60 61 80 62 43 63 44 64 59 66
REMARK SMILES IDX 81 67 46 68 29 69 30 70 39 71 31 72 32 73 38 74 40 75 33 76
REMARK SMILES IDX 34 77 35 78 36 79 37 80 63 81 64 82 73 83 65 84 66 85 72 86
REMARK SMILES IDX 74 87 67 88 68 89 69 90 70 91 71 92 47 93 48 94 57 95 49 96
REMARK SMILES IDX 50 97 56 98 58 99 51 100 52 101 53 102 54 103 55 104
REMARK H PARENT 12 6 17 35 79 54 45 65
REMARK Flexibility Score: inf
ROOT
ATOM      1  C   UNL A   1      35.522  23.060  23.538  1.00  0.00     0.023 C 
ENDROOT
BRANCH   1   2
ATOM      2  C   UNL A   1      34.047  22.893  23.195  1.00  0.00     0.116 C 
BRANCH   2   3
ATOM      3  N   UNL A   1      33.587  23.445  21.951  1.00  0.00    -0.351 N 
ATOM      4  C   UNL A   1      33.322  24.746  21.564  1.00  0.00     0.274 C 
ATOM      5  O   UNL A   1      32.961  24.858  20.388  1.00  0.00    -0.267 OA
ATOM      6  H   UNL A   1      33.431  22.775  21.246  1.00  0.00     0.163 HD
BRANCH   4   7
ATOM      7  C   UNL A   1      33.380  25.945  22.428  1.00  0.00     0.178 A 
ATOM      8  C   UNL A   1      32.887  26.320  23.683  1.00  0.00     0.108 A 
ATOM      9  N   UNL A   1      33.368  27.619  23.857  1.00  0.00    -0.212 N 
ATOM     10  N   UNL A   1      34.057  27.042  21.908  1.00  0.00    -0.124 NA
ATOM     11  N   UNL A   1      33.934  28.070  22.728  1.00  0.00    -0.061 NA
BRANCH   8  12
ATOM     12  C   UNL A   1      31.890  25.765  24.603  1.00  0.00     0.006 A 
ATOM     13  C   UNL A   1      31.473  24.441  26.610  1.00  0.00     0.119 A 
ATOM     14  C   UNL A   1      30.131  24.813  26.550  1.00  0.00     0.046 A 
ATOM     15  C   UNL A   1      32.345  24.901  25.626  1.00  0.00     0.056 A 
ATOM     16  C   UNL A   1      29.665  25.649  25.528  1.00  0.00     0.005 A 
ATOM     17  C   UNL A   1      30.541  26.126  24.549  1.00  0.00     0.011 A 
BRANCH  13  18
ATOM     18  O   UNL A   1      31.819  23.613  27.642  1.00  0.00    -0.497 OA
ATOM     19  C   UNL A   1      32.738  22.570  27.334  1.00  0.00     0.278 C 
ENDBRANCH  13  18
ENDBRANCH   8  12
BRANCH   9  20
ATOM     20  C   UNL A   1      33.157  28.467  24.974  1.00  0.00     0.067 A 
ATOM     21  C   UNL A   1      33.963  28.336  26.107  1.00  0.00     0.032 A 
ATOM     22  C   UNL A   1      32.222  29.504  24.893  1.00  0.00     0.032 A 
ATOM     23  C   UNL A   1      33.893  29.313  27.105  1.00  0.00     0.049 A 
ATOM     24  C   UNL A   1      32.142  30.458  25.906  1.00  0.00     0.049 A 
ATOM     25  C   UNL A   1      32.998  30.387  27.003  1.00  0.00     0.129 A 
BRANCH  25  26
ATOM     26  O   UNL A   1      33.066  31.290  28.026  1.00  0.00    -0.406 OA
BRANCH  26  27
ATOM     27  C   UNL A   1      34.305  31.951  28.230  1.00  0.00     0.573 C 
ATOM     28  F   UNL A   1      35.175  31.686  27.232  1.00  0.00    -0.132 F 
ATOM     29  F   UNL A   1      34.132  33.285  28.340  1.00  0.00    -0.132 F 
ATOM     30  F   UNL A   1      34.847  31.504  29.385  1.00  0.00    -0.132 F 
ENDBRANCH  26  27
ENDBRANCH  25  26
ENDBRANCH   9  20
ENDBRANCH   4   7
ENDBRANCH   2   3
ENDBRANCH   1   2
BRANCH   1  31
ATOM     31  C   UNL A   1      35.865  23.625  24.914  1.00  0.00     0.023 C 
BRANCH  31  32
ATOM     32  C   UNL A   1      37.353  23.742  25.222  1.00  0.00     0.116 C 
BRANCH  32  33
ATOM     33  N   UNL A   1      38.030  22.469  25.498  1.00  0.00    -0.352 N 
ATOM     34  C   UNL A   1      39.237  22.286  26.171  1.00  0.00     0.251 C 
ATOM     35  H   UNL A   1      37.582  21.655  25.172  1.00  0.00     0.163 HD
ATOM     36  O   UNL A   1      39.895  21.273  26.037  1.00  0.00    -0.269 OA
BRANCH  34  37
ATOM     37  C   UNL A   1      39.678  23.364  27.079  1.00  0.00     0.039 A 
ATOM     38  C   UNL A   1      40.920  23.366  27.721  1.00  0.00     0.014 A 
ATOM     39  C   UNL A   1      38.815  24.444  27.194  1.00  0.00     0.014 A 
ATOM     40  C   UNL A   1      41.316  24.519  28.404  1.00  0.00     0.010 A 
ATOM     41  C   UNL A   1      39.298  25.634  27.656  1.00  0.00     0.010 A 
ATOM     42  C   UNL A   1      40.502  25.661  28.348  1.00  0.00    -0.014 A 
BRANCH  42  43
ATOM     43  C   UNL A   1      40.894  26.936  28.939  1.00  0.00     0.031 A 
ATOM     44  C   UNL A   1      42.037  27.620  28.273  1.00  0.00     0.074 A 
ATOM     45  C   UNL A   1      40.103  27.573  29.833  1.00  0.00     0.049 A 
ATOM     46  N   UNL A   1      43.216  27.849  28.748  1.00  0.00    -0.248 NA
ATOM     47  C   UNL A   1      41.896  27.975  26.850  1.00  0.00     0.031 C 
ATOM     48  C   UNL A   1      38.771  27.179  30.323  1.00  0.00     0.029 A 
ATOM     49  N   UNL A   1      40.269  28.792  30.409  1.00  0.00    -0.354 N 
ATOM     50  C   UNL A   1      43.885  28.592  27.775  1.00  0.00     0.074 A 
ATOM     51  C   UNL A   1      43.113  28.445  26.570  1.00  0.00     0.031 C 
ATOM     52  C   UNL A   1      38.163  28.238  30.898  1.00  0.00     0.029 A 
ATOM     53  C   UNL A   1      39.125  29.317  31.000  1.00  0.00     0.049 A 
ATOM     54  H   UNL A   1      41.132  29.266  30.408  1.00  0.00     0.167 HD
ATOM     55  C   UNL A   1      44.872  29.472  28.106  1.00  0.00     0.037 A 
ATOM     56  C   UNL A   1      38.974  30.560  31.520  1.00  0.00     0.037 A 
ATOM     57  C   UNL A   1      45.334  29.242  29.455  1.00  0.00     0.049 A 
ATOM     58  C   UNL A   1      40.342  31.075  31.788  1.00  0.00     0.074 A 
ATOM     59  C   UNL A   1      45.883  28.162  30.121  1.00  0.00     0.029 A 
ATOM     60  N   UNL A   1      44.892  30.096  30.437  1.00  0.00    -0.354 N 
ATOM     61  N   UNL A   1      41.157  30.549  32.664  1.00  0.00    -0.248 NA
ATOM     62  C   UNL A   1      40.977  31.869  30.747  1.00  0.00     0.031 C 
ATOM     63  C   UNL A   1      45.288  28.191  31.418  1.00  0.00     0.029 A 
ATOM     64  C   UNL A   1      44.478  29.326  31.494  1.00  0.00     0.049 A 
ATOM     65  H   UNL A   1      44.875  31.079  30.390  1.00  0.00     0.167 HD
ATOM     66  C   UNL A   1      42.406  30.586  32.060  1.00  0.00     0.074 A 
ATOM     67  C   UNL A   1      42.245  31.486  30.918  1.00  0.00     0.031 C 
ATOM     68  C   UNL A   1      43.372  29.668  32.365  1.00  0.00     0.037 A 
BRANCH  55  69
ATOM     69  C   UNL A   1      45.163  30.766  27.372  1.00  0.00     0.058 A 
ATOM     70  C   UNL A   1      46.483  31.032  26.944  1.00  0.00     0.135 A 
ATOM     71  C   UNL A   1      44.282  31.870  27.320  1.00  0.00     0.135 A 
ATOM     72  F   UNL A   1      47.410  30.060  26.940  1.00  0.00    -0.206 F 
ATOM     73  C   UNL A   1      46.913  32.311  26.586  1.00  0.00     0.059 A 
ATOM     74  C   UNL A   1      44.677  33.141  26.913  1.00  0.00     0.059 A 
ATOM     75  F   UNL A   1      43.019  31.806  27.754  1.00  0.00    -0.206 F 
ATOM     76  C   UNL A   1      46.005  33.363  26.595  1.00  0.00     0.060 A 
BRANCH  76  77
ATOM     77  S   UNL A   1      46.580  35.036  26.260  1.00  0.00     0.124 S 
ATOM     78  O   UNL A   1      45.411  35.823  26.635  1.00  0.00    -0.237 OA
ATOM     79  O   UNL A   1      47.736  35.142  27.145  1.00  0.00    -0.237 OA
ATOM     80  O   UNL A   1      46.891  35.004  24.834  1.00  0.00    -0.744 OA
ENDBRANCH  76  77
ENDBRANCH  55  69
BRANCH  56  81
ATOM     81  C   UNL A   1      37.771  31.433  31.470  1.00  0.00     0.058 A 
ATOM     82  C   UNL A   1      36.771  31.354  32.453  1.00  0.00     0.135 A 
ATOM     83  C   UNL A   1      37.714  32.556  30.616  1.00  0.00     0.135 A 
ATOM     84  F   UNL A   1      36.758  30.328  33.319  1.00  0.00    -0.206 F 
ATOM     85  C   UNL A   1      35.803  32.351  32.617  1.00  0.00     0.059 A 
ATOM     86  C   UNL A   1      36.755  33.558  30.754  1.00  0.00     0.059 A 
ATOM     87  F   UNL A   1      38.649  32.756  29.675  1.00  0.00    -0.206 F 
ATOM     88  C   UNL A   1      35.817  33.463  31.776  1.00  0.00     0.060 A 
BRANCH  88  89
ATOM     89  S   UNL A   1      34.685  34.838  32.099  1.00  0.00     0.124 S 
ATOM     90  O   UNL A   1      34.433  35.343  30.754  1.00  0.00    -0.237 OA
ATOM     91  O   UNL A   1      33.563  34.167  32.748  1.00  0.00    -0.237 OA
ATOM     92  O   UNL A   1      35.463  35.722  32.963  1.00  0.00    -0.744 OA
ENDBRANCH  88  89
ENDBRANCH  56  81
BRANCH  68  93
ATOM     93  C   UNL A   1      43.170  28.784  33.573  1.00  0.00     0.058 A 
ATOM     94  C   UNL A   1      43.439  29.168  34.899  1.00  0.00     0.135 A 
ATOM     95  C   UNL A   1      42.510  27.560  33.389  1.00  0.00     0.135 A 
ATOM     96  F   UNL A   1      43.976  30.362  35.177  1.00  0.00    -0.206 F 
ATOM     97  C   UNL A   1      43.097  28.360  35.987  1.00  0.00     0.059 A 
ATOM     98  C   UNL A   1      42.132  26.752  34.458  1.00  0.00     0.059 A 
ATOM     99  F   UNL A   1      42.167  27.162  32.152  1.00  0.00    -0.206 F 
ATOM    100  C   UNL A   1      42.438  27.154  35.757  1.00  0.00     0.060 A 
BRANCH 100 101
ATOM    101  S   UNL A   1      41.917  26.151  37.166  1.00  0.00     0.124 S 
ATOM    102  O   UNL A   1      41.834  24.817  36.580  1.00  0.00    -0.237 OA
ATOM    103  O   UNL A   1      43.002  26.358  38.122  1.00  0.00    -0.237 OA
ATOM    104  O   UNL A   1      40.639  26.744  37.553  1.00  0.00    -0.744 OA
ENDBRANCH 100 101
ENDBRANCH  68  93
ENDBRANCH  42  43
ENDBRANCH  34  37
ENDBRANCH  32  33
ENDBRANCH  31  32
ENDBRANCH   1  31
TORSDOF 19
ENDMDL
