MODEL 1
REMARK VINA RESULT:     -13.3      0.000      0.000
REMARK SMILES Cc1ccc(Nc2c(Cl)cccc2Cl)c(CC(=O)NCCCCNC(=O)c2ccc(-c3c4nc(c(-c5c(F)cc(S(=O)(=O)[O-])cc5F)c5ccc([nH]5)c(-c5c(F)cc(S(=O)(=O)[O-])cc5F)c5nc(c(-c6c(F)cc(S(=O)(=O)[O-])cc6F)c6ccc3[nH]6)C=C5)C=C4)cc2)c1
REMARK SMILES IDX 21 1 20 2 19 3 17 4 18 5 16 7 15 8 1 9 2 10 3 11 93 12 4 13
REMARK SMILES IDX 5 14 6 15 7 17 8 18 13 19 9 20 10 21 12 22 14 23 11 24 22 25
REMARK SMILES IDX 23 26 24 27 25 28 26 30 27 31 28 32 92 33 29 34 91 35 30 36
REMARK SMILES IDX 31 37 32 38 85 39 33 40 90 41 84 42 86 43 34 44 89 45 83 46
REMARK SMILES IDX 82 47 35 49 69 50 48 51 68 52 49 53 52 54 67 55 87 56 50 57
REMARK SMILES IDX 51 58 66 60 88 61 53 62 36 63 37 64 46 65 38 66 39 67 45 68
REMARK SMILES IDX 47 69 40 70 41 71 42 72 43 73 44 74 70 75 71 76 80 77 72 78
REMARK SMILES IDX 73 79 79 80 81 81 74 82 75 83 76 84 77 85 78 86 54 87 55 88
REMARK SMILES IDX 64 89 56 90 57 91 63 92 65 93 58 94 59 95 60 96 61 97 62 98
REMARK H PARENT 19 6 6 16 24 29 86 48 52 59
REMARK Flexibility Score: inf
ROOT
ATOM      1  C   UNL A   1      32.006  29.076  26.434  1.00  0.00     0.023 C 
ENDROOT
BRANCH   1   2
ATOM      2  C   UNL A   1      32.071  27.997  27.526  1.00  0.00     0.116 C 
BRANCH   2   3
ATOM      3  N   UNL A   1      31.361  26.776  27.176  1.00  0.00    -0.356 N 
ATOM      4  C   UNL A   1      31.785  25.692  26.467  1.00  0.00     0.224 C 
ATOM      5  O   UNL A   1      30.971  24.805  26.194  1.00  0.00    -0.275 OA
ATOM      6  H   UNL A   1      30.434  26.724  27.503  1.00  0.00     0.163 HD
BRANCH   4   7
ATOM      7  C   UNL A   1      33.219  25.581  25.981  1.00  0.00     0.137 C 
BRANCH   7   8
ATOM      8  C   UNL A   1      33.331  25.055  24.569  1.00  0.00    -0.015 A 
ATOM      9  C   UNL A   1      32.007  26.191  21.167  1.00  0.00     0.044 C 
ATOM     10  C   UNL A   1      32.701  25.388  22.227  1.00  0.00    -0.051 A 
ATOM     11  C   UNL A   1      33.217  24.128  21.930  1.00  0.00     0.005 A 
ATOM     12  C   UNL A   1      32.789  25.855  23.538  1.00  0.00     0.009 A 
ATOM     13  C   UNL A   1      33.808  23.352  22.931  1.00  0.00     0.026 A 
ATOM     14  C   UNL A   1      33.874  23.787  24.265  1.00  0.00     0.042 A 
BRANCH  14  15
ATOM     15  N   UNL A   1      34.495  22.997  25.262  1.00  0.00    -0.353 N 
ATOM     16  H   UNL A   1      34.188  23.159  26.183  1.00  0.00     0.167 HD
BRANCH  15  17
ATOM     17  C   UNL A   1      35.497  22.003  25.120  1.00  0.00     0.076 A 
ATOM     18  C   UNL A   1      35.205  20.643  24.890  1.00  0.00     0.066 A 
ATOM     19  C   UNL A   1      36.853  22.352  25.299  1.00  0.00     0.066 A 
ATOM     20  Cl  UNL A   1      33.601  20.090  24.538  1.00  0.00    -0.082 Cl
ATOM     21  C   UNL A   1      36.222  19.678  24.871  1.00  0.00     0.023 A 
ATOM     22  C   UNL A   1      37.867  21.387  25.272  1.00  0.00     0.023 A 
ATOM     23  Cl  UNL A   1      37.324  23.993  25.588  1.00  0.00    -0.082 Cl
ATOM     24  C   UNL A   1      37.549  20.048  25.070  1.00  0.00     0.003 A 
ENDBRANCH  15  17
ENDBRANCH  14  15
ENDBRANCH   7   8
ENDBRANCH   4   7
ENDBRANCH   2   3
ENDBRANCH   1   2
BRANCH   1  25
ATOM     25  C   UNL A   1      33.353  29.635  25.973  1.00  0.00     0.023 C 
BRANCH  25  26
ATOM     26  C   UNL A   1      34.451  29.495  27.018  1.00  0.00     0.116 C 
BRANCH  26  27
ATOM     27  N   UNL A   1      35.128  30.740  27.340  1.00  0.00    -0.352 N 
ATOM     28  C   UNL A   1      36.355  30.898  27.977  1.00  0.00     0.251 C 
ATOM     29  H   UNL A   1      34.664  31.568  27.077  1.00  0.00     0.163 HD
ATOM     30  O   UNL A   1      36.742  31.964  28.384  1.00  0.00    -0.269 OA
BRANCH  28  31
ATOM     31  C   UNL A   1      37.226  29.699  28.026  1.00  0.00     0.039 A 
ATOM     32  C   UNL A   1      37.301  29.022  29.249  1.00  0.00     0.014 A 
ATOM     33  C   UNL A   1      38.138  29.445  27.005  1.00  0.00     0.014 A 
ATOM     34  C   UNL A   1      38.414  28.231  29.524  1.00  0.00     0.010 A 
ATOM     35  C   UNL A   1      39.277  28.721  27.307  1.00  0.00     0.010 A 
ATOM     36  C   UNL A   1      39.441  28.166  28.586  1.00  0.00    -0.014 A 
BRANCH  36  37
ATOM     37  C   UNL A   1      40.770  27.635  28.879  1.00  0.00     0.031 A 
ATOM     38  C   UNL A   1      41.079  26.213  28.613  1.00  0.00     0.074 A 
ATOM     39  C   UNL A   1      41.757  28.474  29.269  1.00  0.00     0.049 A 
ATOM     40  N   UNL A   1      42.192  25.645  28.935  1.00  0.00    -0.248 NA
ATOM     41  C   UNL A   1      40.114  25.285  28.021  1.00  0.00     0.031 C 
ATOM     42  C   UNL A   1      43.198  28.236  29.213  1.00  0.00     0.029 A 
ATOM     43  N   UNL A   1      41.627  29.631  30.045  1.00  0.00    -0.354 N 
ATOM     44  C   UNL A   1      42.215  24.414  28.332  1.00  0.00     0.074 A 
ATOM     45  C   UNL A   1      40.861  24.182  27.898  1.00  0.00     0.031 C 
ATOM     46  C   UNL A   1      43.804  29.026  30.112  1.00  0.00     0.029 A 
ATOM     47  C   UNL A   1      42.763  29.675  30.886  1.00  0.00     0.049 A 
ATOM     48  H   UNL A   1      40.891  30.283  30.011  1.00  0.00     0.167 HD
ATOM     49  C   UNL A   1      43.414  23.795  28.152  1.00  0.00     0.037 A 
ATOM     50  C   UNL A   1      42.621  29.562  32.241  1.00  0.00     0.037 A 
ATOM     51  C   UNL A   1      44.430  24.344  29.051  1.00  0.00     0.049 A 
ATOM     52  C   UNL A   1      43.236  28.315  32.848  1.00  0.00     0.074 A 
ATOM     53  C   UNL A   1      45.571  25.115  28.924  1.00  0.00     0.029 A 
ATOM     54  N   UNL A   1      44.175  24.273  30.412  1.00  0.00    -0.354 N 
ATOM     55  N   UNL A   1      43.916  27.420  32.183  1.00  0.00    -0.248 NA
ATOM     56  C   UNL A   1      43.066  27.946  34.255  1.00  0.00     0.031 C 
ATOM     57  C   UNL A   1      45.928  25.590  30.229  1.00  0.00     0.029 A 
ATOM     58  C   UNL A   1      45.029  25.071  31.144  1.00  0.00     0.049 A 
ATOM     59  H   UNL A   1      43.466  23.718  30.810  1.00  0.00     0.167 HD
ATOM     60  C   UNL A   1      44.193  26.357  33.003  1.00  0.00     0.074 A 
ATOM     61  C   UNL A   1      43.668  26.745  34.299  1.00  0.00     0.031 C 
ATOM     62  C   UNL A   1      44.782  25.204  32.572  1.00  0.00     0.037 A 
BRANCH  49  63
ATOM     63  C   UNL A   1      43.678  22.763  27.079  1.00  0.00     0.058 A 
ATOM     64  C   UNL A   1      43.105  21.476  27.160  1.00  0.00     0.135 A 
ATOM     65  C   UNL A   1      44.602  22.930  26.020  1.00  0.00     0.135 A 
ATOM     66  F   UNL A   1      42.242  21.167  28.139  1.00  0.00    -0.206 F 
ATOM     67  C   UNL A   1      43.423  20.446  26.265  1.00  0.00     0.059 A 
ATOM     68  C   UNL A   1      44.890  21.938  25.084  1.00  0.00     0.059 A 
ATOM     69  F   UNL A   1      45.338  24.040  25.880  1.00  0.00    -0.206 F 
ATOM     70  C   UNL A   1      44.319  20.686  25.229  1.00  0.00     0.060 A 
BRANCH  70  71
ATOM     71  S   UNL A   1      44.775  19.357  24.100  1.00  0.00     0.124 S 
ATOM     72  O   UNL A   1      44.520  19.972  22.801  1.00  0.00    -0.237 OA
ATOM     73  O   UNL A   1      46.176  19.125  24.432  1.00  0.00    -0.237 OA
ATOM     74  O   UNL A   1      43.864  18.276  24.467  1.00  0.00    -0.744 OA
ENDBRANCH  70  71
ENDBRANCH  49  63
BRANCH  50  75
ATOM     75  C   UNL A   1      41.413  30.279  32.738  1.00  0.00     0.058 A 
ATOM     76  C   UNL A   1      40.293  29.493  33.078  1.00  0.00     0.135 A 
ATOM     77  C   UNL A   1      41.501  31.561  33.294  1.00  0.00     0.135 A 
ATOM     78  F   UNL A   1      40.152  28.262  32.557  1.00  0.00    -0.206 F 
ATOM     79  C   UNL A   1      39.405  29.882  34.072  1.00  0.00     0.059 A 
ATOM     80  C   UNL A   1      40.608  31.980  34.283  1.00  0.00     0.059 A 
ATOM     81  F   UNL A   1      42.540  32.356  33.002  1.00  0.00    -0.206 F 
ATOM     82  C   UNL A   1      39.618  31.097  34.717  1.00  0.00     0.060 A 
BRANCH  82  83
ATOM     83  S   UNL A   1      38.720  31.394  36.258  1.00  0.00     0.124 S 
ATOM     84  O   UNL A   1      37.582  32.185  35.799  1.00  0.00    -0.237 OA
ATOM     85  O   UNL A   1      38.412  30.029  36.681  1.00  0.00    -0.237 OA
ATOM     86  O   UNL A   1      39.693  32.105  37.079  1.00  0.00    -0.744 OA
ENDBRANCH  82  83
ENDBRANCH  50  75
BRANCH  62  87
ATOM     87  C   UNL A   1      45.119  24.080  33.510  1.00  0.00     0.058 A 
ATOM     88  C   UNL A   1      46.430  23.873  33.971  1.00  0.00     0.135 A 
ATOM     89  C   UNL A   1      44.164  23.113  33.885  1.00  0.00     0.135 A 
ATOM     90  F   UNL A   1      47.413  24.724  33.635  1.00  0.00    -0.206 F 
ATOM     91  C   UNL A   1      46.771  22.790  34.781  1.00  0.00     0.059 A 
ATOM     92  C   UNL A   1      44.490  22.000  34.657  1.00  0.00     0.059 A 
ATOM     93  F   UNL A   1      42.875  23.239  33.537  1.00  0.00    -0.206 F 
ATOM     94  C   UNL A   1      45.793  21.856  35.117  1.00  0.00     0.060 A 
BRANCH  94  95
ATOM     95  S   UNL A   1      46.232  20.433  36.135  1.00  0.00     0.124 S 
ATOM     96  O   UNL A   1      47.691  20.422  36.064  1.00  0.00    -0.237 OA
ATOM     97  O   UNL A   1      45.668  20.814  37.425  1.00  0.00    -0.237 OA
ATOM     98  O   UNL A   1      45.572  19.322  35.460  1.00  0.00    -0.744 OA
ENDBRANCH  94  95
ENDBRANCH  62  87
ENDBRANCH  36  37
ENDBRANCH  28  31
ENDBRANCH  26  27
ENDBRANCH  25  26
ENDBRANCH   1  25
TORSDOF 17
ENDMDL
MODEL 2
REMARK VINA RESULT:     -13.0      1.680      2.522
REMARK SMILES Cc1ccc(Nc2c(Cl)cccc2Cl)c(CC(=O)NCCCCNC(=O)c2ccc(-c3c4nc(c(-c5c(F)cc(S(=O)(=O)[O-])cc5F)c5ccc([nH]5)c(-c5c(F)cc(S(=O)(=O)[O-])cc5F)c5nc(c(-c6c(F)cc(S(=O)(=O)[O-])cc6F)c6ccc3[nH]6)C=C5)C=C4)cc2)c1
REMARK SMILES IDX 21 1 20 2 19 3 17 4 18 5 16 7 15 8 1 9 2 10 3 11 93 12 4 13
REMARK SMILES IDX 5 14 6 15 7 17 8 18 13 19 9 20 10 21 12 22 14 23 11 24 22 25
REMARK SMILES IDX 23 26 24 27 25 28 26 30 27 31 28 32 92 33 29 34 91 35 30 36
REMARK SMILES IDX 31 37 32 38 85 39 33 40 90 41 84 42 86 43 34 44 89 45 83 46
REMARK SMILES IDX 82 47 35 49 69 50 48 51 68 52 49 53 52 54 67 55 87 56 50 57
REMARK SMILES IDX 51 58 66 60 88 61 53 62 36 63 37 64 46 65 38 66 39 67 45 68
REMARK SMILES IDX 47 69 40 70 41 71 42 72 43 73 44 74 70 75 71 76 80 77 72 78
REMARK SMILES IDX 73 79 79 80 81 81 74 82 75 83 76 84 77 85 78 86 54 87 55 88
REMARK SMILES IDX 64 89 56 90 57 91 63 92 65 93 58 94 59 95 60 96 61 97 62 98
REMARK H PARENT 19 6 6 16 24 29 86 48 52 59
REMARK Flexibility Score: inf
ROOT
ATOM      1  C   UNL A   1      32.538  28.681  25.811  1.00  0.00     0.023 C 
ENDROOT
BRANCH   1   2
ATOM      2  C   UNL A   1      33.548  27.701  25.194  1.00  0.00     0.116 C 
BRANCH   2   3
ATOM      3  N   UNL A   1      33.898  28.023  23.818  1.00  0.00    -0.356 N 
ATOM      4  C   UNL A   1      33.516  27.421  22.656  1.00  0.00     0.224 C 
ATOM      5  O   UNL A   1      34.025  27.796  21.596  1.00  0.00    -0.275 OA
ATOM      6  H   UNL A   1      34.502  28.792  23.710  1.00  0.00     0.163 HD
BRANCH   4   7
ATOM      7  C   UNL A   1      32.511  26.283  22.653  1.00  0.00     0.137 C 
BRANCH   7   8
ATOM      8  C   UNL A   1      31.085  26.746  22.853  1.00  0.00    -0.015 A 
ATOM      9  C   UNL A   1      29.271  30.090  22.476  1.00  0.00     0.044 C 
ATOM     10  C   UNL A   1      29.540  28.643  22.765  1.00  0.00    -0.051 A 
ATOM     11  C   UNL A   1      28.572  27.857  23.386  1.00  0.00     0.005 A 
ATOM     12  C   UNL A   1      30.780  28.073  22.475  1.00  0.00     0.009 A 
ATOM     13  C   UNL A   1      28.844  26.525  23.713  1.00  0.00     0.026 A 
ATOM     14  C   UNL A   1      30.098  25.942  23.464  1.00  0.00     0.042 A 
BRANCH  14  15
ATOM     15  N   UNL A   1      30.350  24.586  23.782  1.00  0.00    -0.353 N 
ATOM     16  H   UNL A   1      29.813  23.928  23.285  1.00  0.00     0.167 HD
BRANCH  15  17
ATOM     17  C   UNL A   1      31.268  24.042  24.716  1.00  0.00     0.076 A 
ATOM     18  C   UNL A   1      31.501  24.609  25.986  1.00  0.00     0.066 A 
ATOM     19  C   UNL A   1      32.060  22.934  24.348  1.00  0.00     0.066 A 
ATOM     20  Cl  UNL A   1      30.526  25.896  26.615  1.00  0.00    -0.082 Cl
ATOM     21  C   UNL A   1      32.500  24.106  26.830  1.00  0.00     0.023 A 
ATOM     22  C   UNL A   1      33.053  22.429  25.196  1.00  0.00     0.023 A 
ATOM     23  Cl  UNL A   1      31.859  22.160  22.812  1.00  0.00    -0.082 Cl
ATOM     24  C   UNL A   1      33.280  23.023  26.433  1.00  0.00     0.003 A 
ENDBRANCH  15  17
ENDBRANCH  14  15
ENDBRANCH   7   8
ENDBRANCH   4   7
ENDBRANCH   2   3
ENDBRANCH   1   2
BRANCH   1  25
ATOM     25  C   UNL A   1      33.121  29.715  26.775  1.00  0.00     0.023 C 
BRANCH  25  26
ATOM     26  C   UNL A   1      34.631  29.603  26.935  1.00  0.00     0.116 C 
BRANCH  26  27
ATOM     27  N   UNL A   1      35.276  30.829  27.375  1.00  0.00    -0.352 N 
ATOM     28  C   UNL A   1      36.473  30.955  28.071  1.00  0.00     0.251 C 
ATOM     29  H   UNL A   1      34.810  31.668  27.153  1.00  0.00     0.163 HD
ATOM     30  O   UNL A   1      36.827  31.993  28.570  1.00  0.00    -0.269 OA
BRANCH  28  31
ATOM     31  C   UNL A   1      37.360  29.766  28.068  1.00  0.00     0.039 A 
ATOM     32  C   UNL A   1      37.389  28.997  29.238  1.00  0.00     0.014 A 
ATOM     33  C   UNL A   1      38.323  29.604  27.075  1.00  0.00     0.014 A 
ATOM     34  C   UNL A   1      38.500  28.200  29.503  1.00  0.00     0.010 A 
ATOM     35  C   UNL A   1      39.457  28.872  27.374  1.00  0.00     0.010 A 
ATOM     36  C   UNL A   1      39.571  28.220  28.613  1.00  0.00    -0.014 A 
BRANCH  36  37
ATOM     37  C   UNL A   1      40.892  27.685  28.926  1.00  0.00     0.031 A 
ATOM     38  C   UNL A   1      41.204  26.265  28.652  1.00  0.00     0.074 A 
ATOM     39  C   UNL A   1      41.872  28.518  29.345  1.00  0.00     0.049 A 
ATOM     40  N   UNL A   1      42.310  25.692  28.989  1.00  0.00    -0.248 NA
ATOM     41  C   UNL A   1      40.250  25.345  28.030  1.00  0.00     0.031 C 
ATOM     42  C   UNL A   1      43.314  28.279  29.315  1.00  0.00     0.029 A 
ATOM     43  N   UNL A   1      41.729  29.666  30.130  1.00  0.00    -0.354 N 
ATOM     44  C   UNL A   1      42.343  24.468  28.374  1.00  0.00     0.074 A 
ATOM     45  C   UNL A   1      40.998  24.242  27.910  1.00  0.00     0.031 C 
ATOM     46  C   UNL A   1      43.903  29.057  30.235  1.00  0.00     0.029 A 
ATOM     47  C   UNL A   1      42.847  29.700  30.994  1.00  0.00     0.049 A 
ATOM     48  H   UNL A   1      40.995  30.320  30.089  1.00  0.00     0.167 HD
ATOM     49  C   UNL A   1      43.545  23.848  28.212  1.00  0.00     0.037 A 
ATOM     50  C   UNL A   1      42.678  29.573  32.345  1.00  0.00     0.037 A 
ATOM     51  C   UNL A   1      44.544  24.386  29.136  1.00  0.00     0.049 A 
ATOM     52  C   UNL A   1      43.280  28.318  32.951  1.00  0.00     0.074 A 
ATOM     53  C   UNL A   1      45.689  25.156  29.041  1.00  0.00     0.029 A 
ATOM     54  N   UNL A   1      44.261  24.301  30.491  1.00  0.00    -0.354 N 
ATOM     55  N   UNL A   1      43.972  27.429  32.290  1.00  0.00    -0.248 NA
ATOM     56  C   UNL A   1      43.081  27.935  34.350  1.00  0.00     0.031 C 
ATOM     57  C   UNL A   1      46.020  25.617  30.357  1.00  0.00     0.029 A 
ATOM     58  C   UNL A   1      45.102  25.090  31.249  1.00  0.00     0.049 A 
ATOM     59  H   UNL A   1      43.544  23.743  30.869  1.00  0.00     0.167 HD
ATOM     60  C   UNL A   1      44.231  26.357  33.104  1.00  0.00     0.074 A 
ATOM     61  C   UNL A   1      43.680  26.733  34.393  1.00  0.00     0.031 C 
ATOM     62  C   UNL A   1      44.826  25.209  32.673  1.00  0.00     0.037 A 
BRANCH  49  63
ATOM     63  C   UNL A   1      43.830  22.828  27.133  1.00  0.00     0.058 A 
ATOM     64  C   UNL A   1      43.164  21.583  27.125  1.00  0.00     0.135 A 
ATOM     65  C   UNL A   1      44.851  22.954  26.162  1.00  0.00     0.135 A 
ATOM     66  F   UNL A   1      42.199  21.312  28.017  1.00  0.00    -0.206 F 
ATOM     67  C   UNL A   1      43.486  20.556  26.228  1.00  0.00     0.059 A 
ATOM     68  C   UNL A   1      45.149  21.968  25.223  1.00  0.00     0.059 A 
ATOM     69  F   UNL A   1      45.671  24.012  26.119  1.00  0.00    -0.206 F 
ATOM     70  C   UNL A   1      44.483  20.757  25.281  1.00  0.00     0.060 A 
BRANCH  70  71
ATOM     71  S   UNL A   1      44.942  19.428  24.153  1.00  0.00     0.124 S 
ATOM     72  O   UNL A   1      46.393  19.395  24.309  1.00  0.00    -0.237 OA
ATOM     73  O   UNL A   1      44.216  18.286  24.697  1.00  0.00    -0.237 OA
ATOM     74  O   UNL A   1      44.465  19.904  22.857  1.00  0.00    -0.744 OA
ENDBRANCH  70  71
ENDBRANCH  49  63
BRANCH  50  75
ATOM     75  C   UNL A   1      41.461  30.286  32.825  1.00  0.00     0.058 A 
ATOM     76  C   UNL A   1      40.323  29.502  33.101  1.00  0.00     0.135 A 
ATOM     77  C   UNL A   1      41.544  31.548  33.427  1.00  0.00     0.135 A 
ATOM     78  F   UNL A   1      40.187  28.292  32.534  1.00  0.00    -0.206 F 
ATOM     79  C   UNL A   1      39.406  29.868  34.077  1.00  0.00     0.059 A 
ATOM     80  C   UNL A   1      40.623  31.944  34.400  1.00  0.00     0.059 A 
ATOM     81  F   UNL A   1      42.601  32.341  33.197  1.00  0.00    -0.206 F 
ATOM     82  C   UNL A   1      39.609  31.058  34.770  1.00  0.00     0.060 A 
BRANCH  82  83
ATOM     83  S   UNL A   1      38.663  31.314  36.290  1.00  0.00     0.124 S 
ATOM     84  O   UNL A   1      38.281  29.950  36.642  1.00  0.00    -0.237 OA
ATOM     85  O   UNL A   1      39.665  31.933  37.153  1.00  0.00    -0.237 OA
ATOM     86  O   UNL A   1      37.573  32.183  35.861  1.00  0.00    -0.744 OA
ENDBRANCH  82  83
ENDBRANCH  50  75
BRANCH  62  87
ATOM     87  C   UNL A   1      45.143  24.074  33.605  1.00  0.00     0.058 A 
ATOM     88  C   UNL A   1      46.461  23.797  34.007  1.00  0.00     0.135 A 
ATOM     89  C   UNL A   1      44.154  23.165  34.033  1.00  0.00     0.135 A 
ATOM     90  F   UNL A   1      47.473  24.588  33.618  1.00  0.00    -0.206 F 
ATOM     91  C   UNL A   1      46.777  22.702  34.811  1.00  0.00     0.059 A 
ATOM     92  C   UNL A   1      44.452  22.041  34.800  1.00  0.00     0.059 A 
ATOM     93  F   UNL A   1      42.859  23.361  33.744  1.00  0.00    -0.206 F 
ATOM     94  C   UNL A   1      45.765  21.827  35.202  1.00  0.00     0.060 A 
BRANCH  94  95
ATOM     95  S   UNL A   1      46.171  20.389  36.213  1.00  0.00     0.124 S 
ATOM     96  O   UNL A   1      45.411  19.318  35.572  1.00  0.00    -0.237 OA
ATOM     97  O   UNL A   1      47.618  20.318  36.048  1.00  0.00    -0.237 OA
ATOM     98  O   UNL A   1      45.703  20.771  37.540  1.00  0.00    -0.744 OA
ENDBRANCH  94  95
ENDBRANCH  62  87
ENDBRANCH  36  37
ENDBRANCH  28  31
ENDBRANCH  26  27
ENDBRANCH  25  26
ENDBRANCH   1  25
TORSDOF 17
ENDMDL
MODEL 3
REMARK VINA RESULT:     -13.0      5.086     11.588
REMARK SMILES Cc1ccc(Nc2c(Cl)cccc2Cl)c(CC(=O)NCCCCNC(=O)c2ccc(-c3c4nc(c(-c5c(F)cc(S(=O)(=O)[O-])cc5F)c5ccc([nH]5)c(-c5c(F)cc(S(=O)(=O)[O-])cc5F)c5nc(c(-c6c(F)cc(S(=O)(=O)[O-])cc6F)c6ccc3[nH]6)C=C5)C=C4)cc2)c1
REMARK SMILES IDX 21 1 20 2 19 3 17 4 18 5 16 7 15 8 1 9 2 10 3 11 93 12 4 13
REMARK SMILES IDX 5 14 6 15 7 17 8 18 13 19 9 20 10 21 12 22 14 23 11 24 22 25
REMARK SMILES IDX 23 26 24 27 25 28 26 30 27 31 28 32 92 33 29 34 91 35 30 36
REMARK SMILES IDX 31 37 32 38 85 39 33 40 90 41 84 42 86 43 34 44 89 45 83 46
REMARK SMILES IDX 82 47 35 49 69 50 48 51 68 52 49 53 52 54 67 55 87 56 50 57
REMARK SMILES IDX 51 58 66 60 88 61 53 62 36 63 37 64 46 65 38 66 39 67 45 68
REMARK SMILES IDX 47 69 40 70 41 71 42 72 43 73 44 74 70 75 71 76 80 77 72 78
REMARK SMILES IDX 73 79 79 80 81 81 74 82 75 83 76 84 77 85 78 86 54 87 55 88
REMARK SMILES IDX 64 89 56 90 57 91 63 92 65 93 58 94 59 95 60 96 61 97 62 98
REMARK H PARENT 19 6 6 16 24 29 86 48 52 59
REMARK Flexibility Score: inf
ROOT
ATOM      1  C   UNL A   1      35.708  22.528  25.767  1.00  0.00     0.023 C 
ENDROOT
BRANCH   1   2
ATOM      2  C   UNL A   1      34.792  22.261  24.563  1.00  0.00     0.116 C 
BRANCH   2   3
ATOM      3  N   UNL A   1      34.665  23.402  23.668  1.00  0.00    -0.356 N 
ATOM      4  C   UNL A   1      34.315  24.691  23.941  1.00  0.00     0.224 C 
ATOM      5  O   UNL A   1      34.164  25.478  23.001  1.00  0.00    -0.275 OA
ATOM      6  H   UNL A   1      34.863  23.215  22.723  1.00  0.00     0.163 HD
BRANCH   4   7
ATOM      7  C   UNL A   1      34.075  25.156  25.365  1.00  0.00     0.137 C 
BRANCH   7   8
ATOM      8  C   UNL A   1      32.609  25.254  25.722  1.00  0.00    -0.015 A 
ATOM      9  C   UNL A   1      29.965  22.763  26.913  1.00  0.00     0.044 C 
ATOM     10  C   UNL A   1      30.621  24.036  26.468  1.00  0.00    -0.051 A 
ATOM     11  C   UNL A   1      29.852  25.167  26.199  1.00  0.00     0.005 A 
ATOM     12  C   UNL A   1      31.998  24.098  26.257  1.00  0.00     0.009 A 
ATOM     13  C   UNL A   1      30.455  26.336  25.724  1.00  0.00     0.026 A 
ATOM     14  C   UNL A   1      31.835  26.408  25.469  1.00  0.00     0.042 A 
BRANCH  14  15
ATOM     15  N   UNL A   1      32.432  27.605  25.008  1.00  0.00    -0.353 N 
ATOM     16  H   UNL A   1      33.038  27.508  24.240  1.00  0.00     0.167 HD
BRANCH  15  17
ATOM     17  C   UNL A   1      32.278  28.928  25.499  1.00  0.00     0.076 A 
ATOM     18  C   UNL A   1      33.043  29.447  26.564  1.00  0.00     0.066 A 
ATOM     19  C   UNL A   1      31.262  29.752  24.970  1.00  0.00     0.066 A 
ATOM     20  Cl  UNL A   1      34.396  28.594  27.231  1.00  0.00    -0.082 Cl
ATOM     21  C   UNL A   1      32.777  30.718  27.091  1.00  0.00     0.023 A 
ATOM     22  C   UNL A   1      31.005  31.025  25.494  1.00  0.00     0.023 A 
ATOM     23  Cl  UNL A   1      30.264  29.214  23.661  1.00  0.00    -0.082 Cl
ATOM     24  C   UNL A   1      31.755  31.503  26.563  1.00  0.00     0.003 A 
ENDBRANCH  15  17
ENDBRANCH  14  15
ENDBRANCH   7   8
ENDBRANCH   4   7
ENDBRANCH   2   3
ENDBRANCH   1   2
BRANCH   1  25
ATOM     25  C   UNL A   1      37.210  22.501  25.476  1.00  0.00     0.023 C 
BRANCH  25  26
ATOM     26  C   UNL A   1      37.969  23.647  26.128  1.00  0.00     0.116 C 
BRANCH  26  27
ATOM     27  N   UNL A   1      39.116  23.229  26.917  1.00  0.00    -0.352 N 
ATOM     28  C   UNL A   1      40.001  24.038  27.623  1.00  0.00     0.251 C 
ATOM     29  H   UNL A   1      39.287  22.260  26.956  1.00  0.00     0.163 HD
ATOM     30  O   UNL A   1      41.037  23.625  28.077  1.00  0.00    -0.269 OA
BRANCH  28  31
ATOM     31  C   UNL A   1      39.547  25.424  27.893  1.00  0.00     0.039 A 
ATOM     32  C   UNL A   1      39.973  26.414  27.000  1.00  0.00     0.014 A 
ATOM     33  C   UNL A   1      38.983  25.757  29.123  1.00  0.00     0.014 A 
ATOM     34  C   UNL A   1      40.018  27.741  27.423  1.00  0.00     0.010 A 
ATOM     35  C   UNL A   1      39.099  27.061  29.566  1.00  0.00     0.010 A 
ATOM     36  C   UNL A   1      39.672  28.040  28.739  1.00  0.00    -0.014 A 
BRANCH  36  37
ATOM     37  C   UNL A   1      39.969  29.317  29.382  1.00  0.00     0.031 A 
ATOM     38  C   UNL A   1      39.021  30.446  29.269  1.00  0.00     0.074 A 
ATOM     39  C   UNL A   1      41.049  29.425  30.190  1.00  0.00     0.049 A 
ATOM     40  N   UNL A   1      39.254  31.631  29.723  1.00  0.00    -0.248 NA
ATOM     41  C   UNL A   1      37.743  30.346  28.561  1.00  0.00     0.031 C 
ATOM     42  C   UNL A   1      41.290  30.437  31.217  1.00  0.00     0.029 A 
ATOM     43  N   UNL A   1      42.277  28.770  30.056  1.00  0.00    -0.354 N 
ATOM     44  C   UNL A   1      38.081  32.337  29.653  1.00  0.00     0.074 A 
ATOM     45  C   UNL A   1      37.219  31.552  28.806  1.00  0.00     0.031 C 
ATOM     46  C   UNL A   1      42.610  30.528  31.435  1.00  0.00     0.029 A 
ATOM     47  C   UNL A   1      43.269  29.698  30.445  1.00  0.00     0.049 A 
ATOM     48  H   UNL A   1      42.420  27.845  29.751  1.00  0.00     0.167 HD
ATOM     49  C   UNL A   1      37.933  33.440  30.436  1.00  0.00     0.037 A 
ATOM     50  C   UNL A   1      44.178  30.156  29.532  1.00  0.00     0.037 A 
ATOM     51  C   UNL A   1      39.231  33.951  30.878  1.00  0.00     0.049 A 
ATOM     52  C   UNL A   1      44.079  31.637  29.216  1.00  0.00     0.074 A 
ATOM     53  C   UNL A   1      39.927  34.026  32.071  1.00  0.00     0.029 A 
ATOM     54  N   UNL A   1      40.137  34.312  29.893  1.00  0.00    -0.354 N 
ATOM     55  N   UNL A   1      43.250  32.468  29.789  1.00  0.00    -0.248 NA
ATOM     56  C   UNL A   1      44.867  32.282  28.164  1.00  0.00     0.031 C 
ATOM     57  C   UNL A   1      41.293  34.335  31.764  1.00  0.00     0.029 A 
ATOM     58  C   UNL A   1      41.410  34.489  30.394  1.00  0.00     0.049 A 
ATOM     59  H   UNL A   1      39.899  34.430  28.945  1.00  0.00     0.167 HD
ATOM     60  C   UNL A   1      43.320  33.685  29.163  1.00  0.00     0.074 A 
ATOM     61  C   UNL A   1      44.368  33.530  28.171  1.00  0.00     0.031 C 
ATOM     62  C   UNL A   1      42.488  34.729  29.447  1.00  0.00     0.037 A 
BRANCH  49  63
ATOM     63  C   UNL A   1      36.595  33.984  30.884  1.00  0.00     0.058 A 
ATOM     64  C   UNL A   1      35.629  34.388  29.937  1.00  0.00     0.135 A 
ATOM     65  C   UNL A   1      36.256  34.270  32.228  1.00  0.00     0.135 A 
ATOM     66  F   UNL A   1      35.837  34.214  28.623  1.00  0.00    -0.206 F 
ATOM     67  C   UNL A   1      34.431  35.019  30.297  1.00  0.00     0.059 A 
ATOM     68  C   UNL A   1      35.046  34.844  32.613  1.00  0.00     0.059 A 
ATOM     69  F   UNL A   1      37.115  34.080  33.238  1.00  0.00    -0.206 F 
ATOM     70  C   UNL A   1      34.149  35.245  31.640  1.00  0.00     0.060 A 
BRANCH  70  71
ATOM     71  S   UNL A   1      32.634  36.099  32.115  1.00  0.00     0.124 S 
ATOM     72  O   UNL A   1      31.775  34.985  32.502  1.00  0.00    -0.237 OA
ATOM     73  O   UNL A   1      33.084  36.964  33.199  1.00  0.00    -0.237 OA
ATOM     74  O   UNL A   1      32.240  36.794  30.892  1.00  0.00    -0.744 OA
ENDBRANCH  70  71
ENDBRANCH  49  63
BRANCH  50  75
ATOM     75  C   UNL A   1      44.620  29.084  28.596  1.00  0.00     0.058 A 
ATOM     76  C   UNL A   1      44.014  29.052  27.324  1.00  0.00     0.135 A 
ATOM     77  C   UNL A   1      45.861  28.451  28.743  1.00  0.00     0.135 A 
ATOM     78  F   UNL A   1      42.815  29.628  27.135  1.00  0.00    -0.206 F 
ATOM     79  C   UNL A   1      44.693  28.585  26.206  1.00  0.00     0.059 A 
ATOM     80  C   UNL A   1      46.553  27.960  27.634  1.00  0.00     0.059 A 
ATOM     81  F   UNL A   1      46.481  28.445  29.931  1.00  0.00    -0.206 F 
ATOM     82  C   UNL A   1      45.991  28.109  26.366  1.00  0.00     0.060 A 
BRANCH  82  83
ATOM     83  S   UNL A   1      46.993  27.897  24.875  1.00  0.00     0.124 S 
ATOM     84  O   UNL A   1      46.680  29.108  24.124  1.00  0.00    -0.237 OA
ATOM     85  O   UNL A   1      48.340  27.833  25.440  1.00  0.00    -0.237 OA
ATOM     86  O   UNL A   1      46.487  26.652  24.308  1.00  0.00    -0.744 OA
ENDBRANCH  82  83
ENDBRANCH  50  75
BRANCH  62  87
ATOM     87  C   UNL A   1      42.628  36.067  28.778  1.00  0.00     0.058 A 
ATOM     88  C   UNL A   1      43.322  37.126  29.387  1.00  0.00     0.135 A 
ATOM     89  C   UNL A   1      41.978  36.362  27.562  1.00  0.00     0.135 A 
ATOM     90  F   UNL A   1      43.943  36.947  30.564  1.00  0.00    -0.206 F 
ATOM     91  C   UNL A   1      43.395  38.394  28.811  1.00  0.00     0.059 A 
ATOM     92  C   UNL A   1      42.000  37.632  26.991  1.00  0.00     0.059 A 
ATOM     93  F   UNL A   1      41.325  35.411  26.876  1.00  0.00    -0.206 F 
ATOM     94  C   UNL A   1      42.728  38.638  27.612  1.00  0.00     0.060 A 
BRANCH  94  95
ATOM     95  S   UNL A   1      42.788  40.286  26.878  1.00  0.00     0.124 S 
ATOM     96  O   UNL A   1      41.456  40.429  26.296  1.00  0.00    -0.237 OA
ATOM     97  O   UNL A   1      43.054  41.115  28.049  1.00  0.00    -0.237 OA
ATOM     98  O   UNL A   1      43.877  40.184  25.914  1.00  0.00    -0.744 OA
ENDBRANCH  94  95
ENDBRANCH  62  87
ENDBRANCH  36  37
ENDBRANCH  28  31
ENDBRANCH  26  27
ENDBRANCH  25  26
ENDBRANCH   1  25
TORSDOF 17
ENDMDL
