MODEL 1
REMARK VINA RESULT:     -12.7      0.000      0.000
REMARK SMILES O=C(NCCCCNC(=O)[C@@]1([C@@H]2CCO[C@@]3(CCOC3)C2)CCOC1)c1ccc(-c2c3nc(c(-c4c(F)cc(S(=O)(=O)[O-])cc4F)c4ccc([nH]4)c(-c4c(F)cc(S(=O)(=O)[O-])cc4F)c4nc(c(-c5c(F)cc(S(=O)(=O)[O-])cc5F)c5ccc2[nH]5)C=C4)C=C3)cc1
REMARK SMILES IDX 4 1 3 2 1 3 2 4 26 6 27 7 91 8 28 9 90 10 29 11 30 12 31 13
REMARK SMILES IDX 84 14 32 15 89 16 83 17 85 18 33 19 88 20 82 21 81 22 34 24
REMARK SMILES IDX 68 25 47 26 67 27 48 28 51 29 66 30 86 31 49 32 50 33 65 35
REMARK SMILES IDX 87 36 52 37 35 38 36 39 45 40 37 41 38 42 44 43 46 44 39 45
REMARK SMILES IDX 40 46 41 47 42 48 43 49 69 50 70 51 79 52 71 53 72 54 78 55
REMARK SMILES IDX 80 56 73 57 74 58 75 59 76 60 77 61 53 62 54 63 63 64 55 65
REMARK SMILES IDX 56 66 62 67 64 68 57 69 58 70 59 71 60 72 61 73 5 74 6 75
REMARK SMILES IDX 7 76 8 77 9 78 10 80 11 81 22 82 25 83 23 84 24 85 12 86
REMARK SMILES IDX 13 87 21 88 14 89 16 90 15 91 17 92 20 93 18 94 19 95
REMARK H PARENT 3 5 85 23 51 34 8 79
REMARK Flexibility Score: inf
ROOT
ATOM      1  C   UNL A   1      38.206  24.181  26.484  1.00  0.00     0.116 C 
ENDROOT
BRANCH   1   2
ATOM      2  N   UNL A   1      39.613  24.132  26.086  1.00  0.00    -0.352 N 
ATOM      3  O   UNL A   1      41.789  24.761  26.072  1.00  0.00    -0.269 OA
ATOM      4  C   UNL A   1      40.662  24.899  26.538  1.00  0.00     0.251 C 
ATOM      5  H   UNL A   1      39.840  23.460  25.404  1.00  0.00     0.163 HD
BRANCH   4   6
ATOM      6  C   UNL A   1      40.392  25.920  27.564  1.00  0.00     0.039 A 
ATOM      7  C   UNL A   1      41.129  27.103  27.561  1.00  0.00     0.014 A 
ATOM      8  C   UNL A   1      39.489  25.643  28.591  1.00  0.00     0.014 A 
ATOM      9  C   UNL A   1      41.129  27.900  28.691  1.00  0.00     0.010 A 
ATOM     10  C   UNL A   1      39.386  26.526  29.667  1.00  0.00     0.010 A 
ATOM     11  C   UNL A   1      40.237  27.638  29.744  1.00  0.00    -0.014 A 
BRANCH  11  12
ATOM     12  C   UNL A   1      40.181  28.600  30.871  1.00  0.00     0.031 A 
ATOM     13  C   UNL A   1      41.140  28.517  32.024  1.00  0.00     0.074 A 
ATOM     14  C   UNL A   1      39.276  29.596  30.795  1.00  0.00     0.049 A 
ATOM     15  N   UNL A   1      41.221  29.289  33.077  1.00  0.00    -0.248 NA
ATOM     16  C   UNL A   1      42.131  27.429  32.005  1.00  0.00     0.031 C 
ATOM     17  C   UNL A   1      38.296  29.761  29.713  1.00  0.00     0.029 A 
ATOM     18  N   UNL A   1      39.050  30.672  31.609  1.00  0.00    -0.354 N 
ATOM     19  C   UNL A   1      42.248  28.772  33.856  1.00  0.00     0.074 A 
ATOM     20  C   UNL A   1      42.752  27.605  33.164  1.00  0.00     0.031 C 
ATOM     21  C   UNL A   1      37.627  30.905  29.893  1.00  0.00     0.029 A 
ATOM     22  C   UNL A   1      38.060  31.507  31.147  1.00  0.00     0.049 A 
ATOM     23  H   UNL A   1      39.546  30.833  32.443  1.00  0.00     0.167 HD
ATOM     24  C   UNL A   1      42.725  29.235  35.037  1.00  0.00     0.037 A 
ATOM     25  C   UNL A   1      37.532  32.619  31.686  1.00  0.00     0.037 A 
ATOM     26  C   UNL A   1      42.216  30.409  35.702  1.00  0.00     0.049 A 
ATOM     27  C   UNL A   1      38.067  33.096  33.001  1.00  0.00     0.074 A 
ATOM     28  C   UNL A   1      42.625  30.967  36.900  1.00  0.00     0.029 A 
ATOM     29  N   UNL A   1      41.189  31.210  35.221  1.00  0.00    -0.354 N 
ATOM     30  N   UNL A   1      39.031  32.585  33.729  1.00  0.00    -0.248 NA
ATOM     31  C   UNL A   1      37.438  34.290  33.576  1.00  0.00     0.031 C 
ATOM     32  C   UNL A   1      41.823  32.085  37.161  1.00  0.00     0.029 A 
ATOM     33  C   UNL A   1      40.944  32.251  36.103  1.00  0.00     0.049 A 
ATOM     34  H   UNL A   1      40.706  31.061  34.376  1.00  0.00     0.167 HD
ATOM     35  C   UNL A   1      39.131  33.399  34.848  1.00  0.00     0.074 A 
ATOM     36  C   UNL A   1      38.145  34.451  34.686  1.00  0.00     0.031 C 
ATOM     37  C   UNL A   1      39.955  33.283  35.917  1.00  0.00     0.037 A 
BRANCH  24  38
ATOM     38  C   UNL A   1      43.838  28.467  35.698  1.00  0.00     0.058 A 
ATOM     39  C   UNL A   1      43.583  27.423  36.599  1.00  0.00     0.135 A 
ATOM     40  C   UNL A   1      45.181  28.748  35.388  1.00  0.00     0.135 A 
ATOM     41  F   UNL A   1      42.320  27.121  36.943  1.00  0.00    -0.206 F 
ATOM     42  C   UNL A   1      44.616  26.696  37.186  1.00  0.00     0.059 A 
ATOM     43  C   UNL A   1      46.228  28.019  35.944  1.00  0.00     0.059 A 
ATOM     44  F   UNL A   1      45.483  29.736  34.532  1.00  0.00    -0.206 F 
ATOM     45  C   UNL A   1      45.936  27.003  36.852  1.00  0.00     0.060 A 
BRANCH  45  46
ATOM     46  S   UNL A   1      47.266  26.048  37.617  1.00  0.00     0.124 S 
ATOM     47  O   UNL A   1      46.513  25.135  38.472  1.00  0.00    -0.237 OA
ATOM     48  O   UNL A   1      47.916  25.438  36.460  1.00  0.00    -0.237 OA
ATOM     49  O   UNL A   1      48.053  27.058  38.315  1.00  0.00    -0.744 OA
ENDBRANCH  45  46
ENDBRANCH  24  38
BRANCH  25  50
ATOM     50  C   UNL A   1      36.424  33.321  30.991  1.00  0.00     0.058 A 
ATOM     51  C   UNL A   1      35.120  33.307  31.503  1.00  0.00     0.135 A 
ATOM     52  C   UNL A   1      36.660  34.055  29.816  1.00  0.00     0.135 A 
ATOM     53  F   UNL A   1      34.847  32.623  32.624  1.00  0.00    -0.206 F 
ATOM     54  C   UNL A   1      34.082  33.981  30.867  1.00  0.00     0.059 A 
ATOM     55  C   UNL A   1      35.647  34.761  29.180  1.00  0.00     0.059 A 
ATOM     56  F   UNL A   1      37.897  34.121  29.301  1.00  0.00    -0.206 F 
ATOM     57  C   UNL A   1      34.357  34.706  29.706  1.00  0.00     0.060 A 
BRANCH  57  58
ATOM     58  S   UNL A   1      33.016  35.613  28.908  1.00  0.00     0.124 S 
ATOM     59  O   UNL A   1      33.748  36.669  28.220  1.00  0.00    -0.237 OA
ATOM     60  O   UNL A   1      32.415  34.591  28.056  1.00  0.00    -0.237 OA
ATOM     61  O   UNL A   1      32.189  36.044  30.033  1.00  0.00    -0.744 OA
ENDBRANCH  57  58
ENDBRANCH  25  50
BRANCH  37  62
ATOM     62  C   UNL A   1      39.834  34.340  36.977  1.00  0.00     0.058 A 
ATOM     63  C   UNL A   1      39.027  34.154  38.110  1.00  0.00     0.135 A 
ATOM     64  C   UNL A   1      40.547  35.544  36.864  1.00  0.00     0.135 A 
ATOM     65  F   UNL A   1      38.317  33.024  38.256  1.00  0.00    -0.206 F 
ATOM     66  C   UNL A   1      38.907  35.140  39.082  1.00  0.00     0.059 A 
ATOM     67  C   UNL A   1      40.463  36.532  37.838  1.00  0.00     0.059 A 
ATOM     68  F   UNL A   1      41.337  35.765  35.802  1.00  0.00    -0.206 F 
ATOM     69  C   UNL A   1      39.627  36.327  38.936  1.00  0.00     0.060 A 
BRANCH  69  70
ATOM     70  S   UNL A   1      39.480  37.593  40.213  1.00  0.00     0.124 S 
ATOM     71  O   UNL A   1      38.937  36.823  41.328  1.00  0.00    -0.237 OA
ATOM     72  O   UNL A   1      40.859  38.045  40.368  1.00  0.00    -0.237 OA
ATOM     73  O   UNL A   1      38.570  38.569  39.621  1.00  0.00    -0.744 OA
ENDBRANCH  69  70
ENDBRANCH  37  62
ENDBRANCH  11  12
ENDBRANCH   4   6
ENDBRANCH   1   2
BRANCH   1  74
ATOM     74  C   UNL A   1      37.269  23.411  25.574  1.00  0.00     0.023 C 
BRANCH  74  75
ATOM     75  C   UNL A   1      37.670  21.965  25.378  1.00  0.00     0.023 C 
BRANCH  75  76
ATOM     76  C   UNL A   1      36.569  20.997  24.927  1.00  0.00     0.116 C 
BRANCH  76  77
ATOM     77  N   UNL A   1      35.604  20.863  26.001  1.00  0.00    -0.356 N 
ATOM     78  C   UNL A   1      34.304  21.261  26.069  1.00  0.00     0.228 C 
ATOM     79  H   UNL A   1      35.943  20.411  26.809  1.00  0.00     0.163 HD
ATOM     80  O   UNL A   1      33.938  21.659  27.181  1.00  0.00    -0.274 OA
BRANCH  78  81
ATOM     81  C   UNL A   1      33.304  21.190  24.882  1.00  0.00     0.078 C 
ATOM     82  C   UNL A   1      31.939  21.791  25.214  1.00  0.00     0.048 C 
ATOM     83  C   UNL A   1      33.832  22.277  23.906  1.00  0.00     0.177 C 
ATOM     84  C   UNL A   1      31.575  22.694  24.042  1.00  0.00     0.161 C 
ATOM     85  O   UNL A   1      32.709  22.785  23.183  1.00  0.00    -0.380 OA
BRANCH  81  86
ATOM     86  C   UNL A   1      33.288  19.819  24.105  1.00  0.00     0.012 C 
ATOM     87  C   UNL A   1      32.201  19.668  23.014  1.00  0.00     0.033 C 
ATOM     88  C   UNL A   1      33.146  18.533  24.916  1.00  0.00     0.043 C 
ATOM     89  C   UNL A   1      32.164  18.255  22.410  1.00  0.00     0.161 C 
ATOM     90  C   UNL A   1      33.599  17.315  24.074  1.00  0.00     0.094 C 
ATOM     91  O   UNL A   1      33.358  17.529  22.680  1.00  0.00    -0.372 OA
ATOM     92  C   UNL A   1      35.093  17.037  24.273  1.00  0.00     0.066 C 
ATOM     93  C   UNL A   1      33.003  16.006  24.579  1.00  0.00     0.195 C 
ATOM     94  C   UNL A   1      35.157  16.001  25.385  1.00  0.00     0.163 C 
ATOM     95  O   UNL A   1      33.810  15.623  25.697  1.00  0.00    -0.378 OA
ENDBRANCH  81  86
ENDBRANCH  78  81
ENDBRANCH  76  77
ENDBRANCH  75  76
ENDBRANCH  74  75
ENDBRANCH   1  74
TORSDOF 15
ENDMDL
MODEL 2
REMARK VINA RESULT:     -12.5      7.438     12.956
REMARK SMILES O=C(NCCCCNC(=O)[C@@]1([C@@H]2CCO[C@@]3(CCOC3)C2)CCOC1)c1ccc(-c2c3nc(c(-c4c(F)cc(S(=O)(=O)[O-])cc4F)c4ccc([nH]4)c(-c4c(F)cc(S(=O)(=O)[O-])cc4F)c4nc(c(-c5c(F)cc(S(=O)(=O)[O-])cc5F)c5ccc2[nH]5)C=C4)C=C3)cc1
REMARK SMILES IDX 4 1 3 2 1 3 2 4 26 6 27 7 91 8 28 9 90 10 29 11 30 12 31 13
REMARK SMILES IDX 84 14 32 15 89 16 83 17 85 18 33 19 88 20 82 21 81 22 34 24
REMARK SMILES IDX 68 25 47 26 67 27 48 28 51 29 66 30 86 31 49 32 50 33 65 35
REMARK SMILES IDX 87 36 52 37 35 38 36 39 45 40 37 41 38 42 44 43 46 44 39 45
REMARK SMILES IDX 40 46 41 47 42 48 43 49 69 50 70 51 79 52 71 53 72 54 78 55
REMARK SMILES IDX 80 56 73 57 74 58 75 59 76 60 77 61 53 62 54 63 63 64 55 65
REMARK SMILES IDX 56 66 62 67 64 68 57 69 58 70 59 71 60 72 61 73 5 74 6 75
REMARK SMILES IDX 7 76 8 77 9 78 10 80 11 81 22 82 25 83 23 84 24 85 12 86
REMARK SMILES IDX 13 87 21 88 14 89 16 90 15 91 17 92 20 93 18 94 19 95
REMARK H PARENT 3 5 85 23 51 34 8 79
REMARK Flexibility Score: inf
ROOT
ATOM      1  C   UNL A   1      35.686  29.725  27.942  1.00  0.00     0.116 C 
ENDROOT
BRANCH   1   2
ATOM      2  N   UNL A   1      35.483  29.947  29.374  1.00  0.00    -0.352 N 
ATOM      3  O   UNL A   1      36.089  30.195  31.542  1.00  0.00    -0.269 OA
ATOM      4  C   UNL A   1      36.426  30.046  30.372  1.00  0.00     0.251 C 
ATOM      5  H   UNL A   1      34.547  30.038  29.663  1.00  0.00     0.163 HD
BRANCH   4   6
ATOM      6  C   UNL A   1      37.847  29.924  30.007  1.00  0.00     0.039 A 
ATOM      7  C   UNL A   1      38.249  30.241  28.711  1.00  0.00     0.014 A 
ATOM      8  C   UNL A   1      38.751  29.386  30.925  1.00  0.00     0.014 A 
ATOM      9  C   UNL A   1      39.487  29.814  28.266  1.00  0.00     0.010 A 
ATOM     10  C   UNL A   1      40.049  29.087  30.510  1.00  0.00     0.010 A 
ATOM     11  C   UNL A   1      40.412  29.259  29.166  1.00  0.00    -0.014 A 
BRANCH  11  12
ATOM     12  C   UNL A   1      41.773  28.945  28.668  1.00  0.00     0.031 A 
ATOM     13  C   UNL A   1      42.867  29.974  28.668  1.00  0.00     0.074 A 
ATOM     14  C   UNL A   1      42.014  27.679  28.273  1.00  0.00     0.049 A 
ATOM     15  N   UNL A   1      44.108  29.847  28.273  1.00  0.00    -0.248 NA
ATOM     16  C   UNL A   1      42.533  31.319  29.164  1.00  0.00     0.031 C 
ATOM     17  C   UNL A   1      41.013  26.605  28.234  1.00  0.00     0.029 A 
ATOM     18  N   UNL A   1      43.168  27.066  27.866  1.00  0.00    -0.354 N 
ATOM     19  C   UNL A   1      44.696  31.093  28.448  1.00  0.00     0.074 A 
ATOM     20  C   UNL A   1      43.671  31.973  28.968  1.00  0.00     0.031 C 
ATOM     21  C   UNL A   1      41.609  25.456  27.896  1.00  0.00     0.029 A 
ATOM     22  C   UNL A   1      43.010  25.726  27.603  1.00  0.00     0.049 A 
ATOM     23  H   UNL A   1      44.026  27.539  27.770  1.00  0.00     0.167 HD
ATOM     24  C   UNL A   1      45.976  31.462  28.199  1.00  0.00     0.037 A 
ATOM     25  C   UNL A   1      43.887  24.817  27.145  1.00  0.00     0.037 A 
ATOM     26  C   UNL A   1      46.986  30.565  27.693  1.00  0.00     0.049 A 
ATOM     27  C   UNL A   1      45.290  25.259  26.861  1.00  0.00     0.074 A 
ATOM     28  C   UNL A   1      48.312  30.834  27.406  1.00  0.00     0.029 A 
ATOM     29  N   UNL A   1      46.781  29.223  27.405  1.00  0.00    -0.354 N 
ATOM     30  N   UNL A   1      45.824  26.447  27.021  1.00  0.00    -0.248 NA
ATOM     31  C   UNL A   1      46.206  24.247  26.325  1.00  0.00     0.031 C 
ATOM     32  C   UNL A   1      48.900  29.663  26.911  1.00  0.00     0.029 A 
ATOM     33  C   UNL A   1      47.952  28.652  26.934  1.00  0.00     0.049 A 
ATOM     34  H   UNL A   1      45.928  28.745  27.520  1.00  0.00     0.167 HD
ATOM     35  C   UNL A   1      47.143  26.324  26.610  1.00  0.00     0.074 A 
ATOM     36  C   UNL A   1      47.331  24.939  26.220  1.00  0.00     0.031 C 
ATOM     37  C   UNL A   1      48.111  27.271  26.551  1.00  0.00     0.037 A 
BRANCH  24  38
ATOM     38  C   UNL A   1      46.358  32.897  28.450  1.00  0.00     0.058 A 
ATOM     39  C   UNL A   1      46.233  33.880  27.457  1.00  0.00     0.135 A 
ATOM     40  C   UNL A   1      46.810  33.304  29.718  1.00  0.00     0.135 A 
ATOM     41  F   UNL A   1      45.820  33.546  26.223  1.00  0.00    -0.206 F 
ATOM     42  C   UNL A   1      46.559  35.211  27.702  1.00  0.00     0.059 A 
ATOM     43  C   UNL A   1      47.120  34.633  29.992  1.00  0.00     0.059 A 
ATOM     44  F   UNL A   1      46.948  32.406  30.705  1.00  0.00    -0.206 F 
ATOM     45  C   UNL A   1      47.003  35.578  28.973  1.00  0.00     0.060 A 
BRANCH  45  46
ATOM     46  S   UNL A   1      47.418  37.309  29.280  1.00  0.00     0.124 S 
ATOM     47  O   UNL A   1      48.546  37.180  30.197  1.00  0.00    -0.237 OA
ATOM     48  O   UNL A   1      47.744  37.793  27.941  1.00  0.00    -0.237 OA
ATOM     49  O   UNL A   1      46.196  37.856  29.860  1.00  0.00    -0.744 OA
ENDBRANCH  45  46
ENDBRANCH  24  38
BRANCH  25  50
ATOM     50  C   UNL A   1      43.443  23.421  26.903  1.00  0.00     0.058 A 
ATOM     51  C   UNL A   1      43.218  22.944  25.605  1.00  0.00     0.135 A 
ATOM     52  C   UNL A   1      43.271  22.524  27.971  1.00  0.00     0.135 A 
ATOM     53  F   UNL A   1      43.373  23.763  24.554  1.00  0.00    -0.206 F 
ATOM     54  C   UNL A   1      42.822  21.631  25.372  1.00  0.00     0.059 A 
ATOM     55  C   UNL A   1      42.906  21.200  27.761  1.00  0.00     0.059 A 
ATOM     56  F   UNL A   1      43.499  22.925  29.231  1.00  0.00    -0.206 F 
ATOM     57  C   UNL A   1      42.670  20.766  26.457  1.00  0.00     0.060 A 
BRANCH  57  58
ATOM     58  S   UNL A   1      42.196  19.053  26.145  1.00  0.00     0.124 S 
ATOM     59  O   UNL A   1      40.801  19.204  25.750  1.00  0.00    -0.237 OA
ATOM     60  O   UNL A   1      43.122  18.664  25.087  1.00  0.00    -0.237 OA
ATOM     61  O   UNL A   1      42.422  18.404  27.435  1.00  0.00    -0.744 OA
ENDBRANCH  57  58
ENDBRANCH  25  50
BRANCH  37  62
ATOM     62  C   UNL A   1      49.461  26.825  26.068  1.00  0.00     0.058 A 
ATOM     63  C   UNL A   1      49.859  27.003  24.735  1.00  0.00     0.135 A 
ATOM     64  C   UNL A   1      50.370  26.229  26.956  1.00  0.00     0.135 A 
ATOM     65  F   UNL A   1      49.018  27.557  23.847  1.00  0.00    -0.206 F 
ATOM     66  C   UNL A   1      51.103  26.576  24.289  1.00  0.00     0.059 A 
ATOM     67  C   UNL A   1      51.631  25.820  26.537  1.00  0.00     0.059 A 
ATOM     68  F   UNL A   1      50.038  26.045  28.243  1.00  0.00    -0.206 F 
ATOM     69  C   UNL A   1      51.982  25.984  25.198  1.00  0.00     0.060 A 
BRANCH  69  70
ATOM     70  S   UNL A   1      53.605  25.451  24.613  1.00  0.00     0.124 S 
ATOM     71  O   UNL A   1      54.492  26.144  25.542  1.00  0.00    -0.237 OA
ATOM     72  O   UNL A   1      53.533  24.001  24.768  1.00  0.00    -0.237 OA
ATOM     73  O   UNL A   1      53.642  25.926  23.233  1.00  0.00    -0.744 OA
ENDBRANCH  69  70
ENDBRANCH  37  62
ENDBRANCH  11  12
ENDBRANCH   4   6
ENDBRANCH   1   2
BRANCH   1  74
ATOM     74  C   UNL A   1      34.445  29.282  27.193  1.00  0.00     0.023 C 
BRANCH  74  75
ATOM     75  C   UNL A   1      33.414  30.379  27.030  1.00  0.00     0.023 C 
BRANCH  75  76
ATOM     76  C   UNL A   1      31.964  29.936  26.797  1.00  0.00     0.116 C 
BRANCH  76  77
ATOM     77  N   UNL A   1      31.934  28.490  26.696  1.00  0.00    -0.356 N 
ATOM     78  C   UNL A   1      31.273  27.685  25.818  1.00  0.00     0.228 C 
ATOM     79  H   UNL A   1      32.477  28.015  27.367  1.00  0.00     0.163 HD
ATOM     80  O   UNL A   1      30.850  26.626  26.298  1.00  0.00    -0.274 OA
BRANCH  78  81
ATOM     81  C   UNL A   1      31.087  28.003  24.309  1.00  0.00     0.078 C 
ATOM     82  C   UNL A   1      32.315  28.659  23.680  1.00  0.00     0.048 C 
ATOM     83  C   UNL A   1      31.171  26.605  23.638  1.00  0.00     0.177 C 
ATOM     84  C   UNL A   1      32.570  27.920  22.373  1.00  0.00     0.161 C 
ATOM     85  O   UNL A   1      31.700  26.792  22.323  1.00  0.00    -0.380 OA
BRANCH  81  86
ATOM     86  C   UNL A   1      29.692  28.630  23.927  1.00  0.00     0.012 C 
ATOM     87  C   UNL A   1      28.590  27.630  23.502  1.00  0.00     0.033 C 
ATOM     88  C   UNL A   1      29.653  29.679  22.818  1.00  0.00     0.043 C 
ATOM     89  C   UNL A   1      27.315  28.332  23.010  1.00  0.00     0.161 C 
ATOM     90  C   UNL A   1      28.336  30.489  22.892  1.00  0.00     0.094 C 
ATOM     91  O   UNL A   1      27.267  29.695  23.415  1.00  0.00    -0.372 OA
ATOM     92  C   UNL A   1      28.503  31.727  23.780  1.00  0.00     0.066 C 
ATOM     93  C   UNL A   1      27.983  31.147  21.563  1.00  0.00     0.195 C 
ATOM     94  C   UNL A   1      28.872  32.851  22.825  1.00  0.00     0.163 C 
ATOM     95  O   UNL A   1      28.789  32.328  21.493  1.00  0.00    -0.378 OA
ENDBRANCH  81  86
ENDBRANCH  78  81
ENDBRANCH  76  77
ENDBRANCH  75  76
ENDBRANCH  74  75
ENDBRANCH   1  74
TORSDOF 15
ENDMDL
MODEL 3
REMARK VINA RESULT:     -12.5      7.229     12.707
REMARK SMILES O=C(NCCCCNC(=O)[C@@]1([C@@H]2CCO[C@@]3(CCOC3)C2)CCOC1)c1ccc(-c2c3nc(c(-c4c(F)cc(S(=O)(=O)[O-])cc4F)c4ccc([nH]4)c(-c4c(F)cc(S(=O)(=O)[O-])cc4F)c4nc(c(-c5c(F)cc(S(=O)(=O)[O-])cc5F)c5ccc2[nH]5)C=C4)C=C3)cc1
REMARK SMILES IDX 4 1 3 2 1 3 2 4 26 6 27 7 91 8 28 9 90 10 29 11 30 12 31 13
REMARK SMILES IDX 84 14 32 15 89 16 83 17 85 18 33 19 88 20 82 21 81 22 34 24
REMARK SMILES IDX 68 25 47 26 67 27 48 28 51 29 66 30 86 31 49 32 50 33 65 35
REMARK SMILES IDX 87 36 52 37 35 38 36 39 45 40 37 41 38 42 44 43 46 44 39 45
REMARK SMILES IDX 40 46 41 47 42 48 43 49 69 50 70 51 79 52 71 53 72 54 78 55
REMARK SMILES IDX 80 56 73 57 74 58 75 59 76 60 77 61 53 62 54 63 63 64 55 65
REMARK SMILES IDX 56 66 62 67 64 68 57 69 58 70 59 71 60 72 61 73 5 74 6 75
REMARK SMILES IDX 7 76 8 77 9 78 10 80 11 81 22 82 25 83 23 84 24 85 12 86
REMARK SMILES IDX 13 87 21 88 14 89 16 90 15 91 17 92 20 93 18 94 19 95
REMARK H PARENT 3 5 85 23 51 34 8 79
REMARK Flexibility Score: inf
ROOT
ATOM      1  C   UNL A   1      35.984  32.131  29.006  1.00  0.00     0.116 C 
ENDROOT
BRANCH   1   2
ATOM      2  N   UNL A   1      35.678  31.139  30.036  1.00  0.00    -0.352 N 
ATOM      3  O   UNL A   1      36.076  29.382  31.410  1.00  0.00    -0.269 OA
ATOM      4  C   UNL A   1      36.499  30.173  30.572  1.00  0.00     0.251 C 
ATOM      5  H   UNL A   1      34.761  31.164  30.394  1.00  0.00     0.163 HD
BRANCH   4   6
ATOM      6  C   UNL A   1      37.886  30.084  30.086  1.00  0.00     0.039 A 
ATOM      7  C   UNL A   1      38.121  29.831  28.735  1.00  0.00     0.014 A 
ATOM      8  C   UNL A   1      38.941  30.136  30.998  1.00  0.00     0.014 A 
ATOM      9  C   UNL A   1      39.377  29.412  28.337  1.00  0.00     0.010 A 
ATOM     10  C   UNL A   1      40.236  29.851  30.562  1.00  0.00     0.010 A 
ATOM     11  C   UNL A   1      40.455  29.445  29.237  1.00  0.00    -0.014 A 
BRANCH  11  12
ATOM     12  C   UNL A   1      41.807  29.117  28.725  1.00  0.00     0.031 A 
ATOM     13  C   UNL A   1      42.914  30.132  28.721  1.00  0.00     0.074 A 
ATOM     14  C   UNL A   1      42.029  27.851  28.320  1.00  0.00     0.049 A 
ATOM     15  N   UNL A   1      44.149  29.993  28.314  1.00  0.00    -0.248 NA
ATOM     16  C   UNL A   1      42.601  31.479  29.227  1.00  0.00     0.031 C 
ATOM     17  C   UNL A   1      41.014  26.790  28.284  1.00  0.00     0.029 A 
ATOM     18  N   UNL A   1      43.171  27.227  27.899  1.00  0.00    -0.354 N 
ATOM     19  C   UNL A   1      44.755  31.231  28.490  1.00  0.00     0.074 A 
ATOM     20  C   UNL A   1      43.745  32.120  29.024  1.00  0.00     0.031 C 
ATOM     21  C   UNL A   1      41.594  25.635  27.934  1.00  0.00     0.029 A 
ATOM     22  C   UNL A   1      42.995  25.890  27.629  1.00  0.00     0.049 A 
ATOM     23  H   UNL A   1      44.034  27.689  27.797  1.00  0.00     0.167 HD
ATOM     24  C   UNL A   1      46.036  31.586  28.231  1.00  0.00     0.037 A 
ATOM     25  C   UNL A   1      43.857  24.973  27.157  1.00  0.00     0.037 A 
ATOM     26  C   UNL A   1      47.030  30.680  27.711  1.00  0.00     0.049 A 
ATOM     27  C   UNL A   1      45.262  25.400  26.863  1.00  0.00     0.074 A 
ATOM     28  C   UNL A   1      48.357  30.934  27.412  1.00  0.00     0.029 A 
ATOM     29  N   UNL A   1      46.806  29.342  27.417  1.00  0.00    -0.354 N 
ATOM     30  N   UNL A   1      45.812  26.580  27.025  1.00  0.00    -0.248 NA
ATOM     31  C   UNL A   1      46.160  24.380  26.312  1.00  0.00     0.031 C 
ATOM     32  C   UNL A   1      48.926  29.759  26.906  1.00  0.00     0.029 A 
ATOM     33  C   UNL A   1      47.966  28.760  26.931  1.00  0.00     0.049 A 
ATOM     34  H   UNL A   1      45.948  28.874  27.537  1.00  0.00     0.167 HD
ATOM     35  C   UNL A   1      47.126  26.444  26.601  1.00  0.00     0.074 A 
ATOM     36  C   UNL A   1      47.293  25.059  26.201  1.00  0.00     0.031 C 
ATOM     37  C   UNL A   1      48.104  27.380  26.539  1.00  0.00     0.037 A 
BRANCH  24  38
ATOM     38  C   UNL A   1      46.438  33.014  28.487  1.00  0.00     0.058 A 
ATOM     39  C   UNL A   1      46.319  34.005  27.500  1.00  0.00     0.135 A 
ATOM     40  C   UNL A   1      46.903  33.409  29.754  1.00  0.00     0.135 A 
ATOM     41  F   UNL A   1      45.894  33.682  26.267  1.00  0.00    -0.206 F 
ATOM     42  C   UNL A   1      46.664  35.330  27.750  1.00  0.00     0.059 A 
ATOM     43  C   UNL A   1      47.232  34.733  30.033  1.00  0.00     0.059 A 
ATOM     44  F   UNL A   1      47.037  32.504  30.735  1.00  0.00    -0.206 F 
ATOM     45  C   UNL A   1      47.120  35.684  29.020  1.00  0.00     0.060 A 
BRANCH  45  46
ATOM     46  S   UNL A   1      47.559  37.409  29.333  1.00  0.00     0.124 S 
ATOM     47  O   UNL A   1      47.258  38.023  28.043  1.00  0.00    -0.237 OA
ATOM     48  O   UNL A   1      46.662  37.765  30.428  1.00  0.00    -0.237 OA
ATOM     49  O   UNL A   1      48.974  37.343  29.682  1.00  0.00    -0.744 OA
ENDBRANCH  45  46
ENDBRANCH  24  38
BRANCH  25  50
ATOM     50  C   UNL A   1      43.393  23.584  26.912  1.00  0.00     0.058 A 
ATOM     51  C   UNL A   1      43.080  23.140  25.620  1.00  0.00     0.135 A 
ATOM     52  C   UNL A   1      43.292  22.660  27.966  1.00  0.00     0.135 A 
ATOM     53  F   UNL A   1      43.165  23.985  24.582  1.00  0.00    -0.206 F 
ATOM     54  C   UNL A   1      42.664  21.834  25.381  1.00  0.00     0.059 A 
ATOM     55  C   UNL A   1      42.909  21.343  27.748  1.00  0.00     0.059 A 
ATOM     56  F   UNL A   1      43.606  23.030  29.217  1.00  0.00    -0.206 F 
ATOM     57  C   UNL A   1      42.584  20.943  26.452  1.00  0.00     0.060 A 
BRANCH  57  58
ATOM     58  S   UNL A   1      42.086  19.238  26.131  1.00  0.00     0.124 S 
ATOM     59  O   UNL A   1      42.971  18.879  25.030  1.00  0.00    -0.237 OA
ATOM     60  O   UNL A   1      42.359  18.590  27.409  1.00  0.00    -0.237 OA
ATOM     61  O   UNL A   1      40.671  19.362  25.790  1.00  0.00    -0.744 OA
ENDBRANCH  57  58
ENDBRANCH  25  50
BRANCH  37  62
ATOM     62  C   UNL A   1      49.444  26.920  26.040  1.00  0.00     0.058 A 
ATOM     63  C   UNL A   1      50.385  26.335  26.900  1.00  0.00     0.135 A 
ATOM     64  C   UNL A   1      49.780  27.054  24.684  1.00  0.00     0.135 A 
ATOM     65  F   UNL A   1      50.113  26.197  28.207  1.00  0.00    -0.206 F 
ATOM     66  C   UNL A   1      51.629  25.923  26.437  1.00  0.00     0.059 A 
ATOM     67  C   UNL A   1      51.008  26.624  24.195  1.00  0.00     0.059 A 
ATOM     68  F   UNL A   1      48.910  27.602  23.821  1.00  0.00    -0.206 F 
ATOM     69  C   UNL A   1      51.933  26.074  25.083  1.00  0.00     0.060 A 
BRANCH  69  70
ATOM     70  S   UNL A   1      53.543  25.519  24.488  1.00  0.00     0.124 S 
ATOM     71  O   UNL A   1      54.449  26.290  25.334  1.00  0.00    -0.237 OA
ATOM     72  O   UNL A   1      53.498  24.084  24.752  1.00  0.00    -0.237 OA
ATOM     73  O   UNL A   1      53.531  25.891  23.077  1.00  0.00    -0.744 OA
ENDBRANCH  69  70
ENDBRANCH  37  62
ENDBRANCH  11  12
ENDBRANCH   4   6
ENDBRANCH   1   2
BRANCH   1  74
ATOM     74  C   UNL A   1      35.416  31.813  27.638  1.00  0.00     0.023 C 
BRANCH  74  75
ATOM     75  C   UNL A   1      33.969  31.368  27.673  1.00  0.00     0.023 C 
BRANCH  75  76
ATOM     76  C   UNL A   1      33.595  30.161  26.803  1.00  0.00     0.116 C 
BRANCH  76  77
ATOM     77  N   UNL A   1      32.834  29.228  27.611  1.00  0.00    -0.356 N 
ATOM     78  C   UNL A   1      32.068  28.165  27.239  1.00  0.00     0.228 C 
ATOM     79  H   UNL A   1      32.880  29.387  28.582  1.00  0.00     0.163 HD
ATOM     80  O   UNL A   1      31.057  27.984  27.928  1.00  0.00    -0.274 OA
BRANCH  78  81
ATOM     81  C   UNL A   1      32.423  27.195  26.078  1.00  0.00     0.078 C 
ATOM     82  C   UNL A   1      33.820  26.591  26.210  1.00  0.00     0.048 C 
ATOM     83  C   UNL A   1      31.568  25.937  26.394  1.00  0.00     0.177 C 
ATOM     84  C   UNL A   1      33.664  25.097  25.954  1.00  0.00     0.161 C 
ATOM     85  O   UNL A   1      32.271  24.803  25.880  1.00  0.00    -0.380 OA
BRANCH  81  86
ATOM     86  C   UNL A   1      32.015  27.698  24.641  1.00  0.00     0.012 C 
ATOM     87  C   UNL A   1      33.163  28.257  23.767  1.00  0.00     0.033 C 
ATOM     88  C   UNL A   1      30.940  28.777  24.533  1.00  0.00     0.043 C 
ATOM     89  C   UNL A   1      32.657  28.857  22.445  1.00  0.00     0.161 C 
ATOM     90  C   UNL A   1      30.359  28.814  23.099  1.00  0.00     0.094 C 
ATOM     91  O   UNL A   1      31.338  28.423  22.133  1.00  0.00    -0.372 OA
ATOM     92  C   UNL A   1      29.150  27.882  22.973  1.00  0.00     0.066 C 
ATOM     93  C   UNL A   1      29.712  30.155  22.769  1.00  0.00     0.195 C 
ATOM     94  C   UNL A   1      27.941  28.765  23.238  1.00  0.00     0.163 C 
ATOM     95  O   UNL A   1      28.413  30.112  23.370  1.00  0.00    -0.378 OA
ENDBRANCH  81  86
ENDBRANCH  78  81
ENDBRANCH  76  77
ENDBRANCH  75  76
ENDBRANCH  74  75
ENDBRANCH   1  74
TORSDOF 15
ENDMDL
