MODEL 1
REMARK VINA RESULT:     -11.6      0.000      0.000
REMARK SMILES [NH3+][C@H](C(=O)NCCCCNC(=O)c1ccc(-c2c3nc(c(-c4c(F)cc(S(=O)(=O)[O-])cc4F)c4ccc([nH]4)c(-c4c(F)cc(S(=O)(=O)[O-])cc4F)c4nc(c(-c5c(F)cc(S(=O)(=O)[O-])cc5F)c5ccc2[nH]5)C=C4)C=C3)cc1)c1cc2[nH]ccc2cc1O
REMARK SMILES IDX 8 1 7 2 6 3 5 4 3 5 4 6 2 8 1 9 79 13 80 14 87 15 81 16
REMARK SMILES IDX 86 17 82 18 85 19 83 20 84 22 88 23 9 25 10 26 11 27 12 29
REMARK SMILES IDX 13 30 14 31 78 32 15 33 77 34 16 35 17 36 18 37 71 38 19 39
REMARK SMILES IDX 76 40 70 41 72 42 20 43 75 44 69 45 68 46 21 48 55 49 34 50
REMARK SMILES IDX 54 51 35 52 38 53 53 54 73 55 36 56 37 57 52 59 74 60 39 61
REMARK SMILES IDX 22 62 23 63 32 64 24 65 25 66 31 67 33 68 26 69 27 70 28 71
REMARK SMILES IDX 29 72 30 73 56 74 57 75 66 76 58 77 59 78 65 79 67 80 60 81
REMARK SMILES IDX 61 82 62 83 63 84 64 85 40 86 41 87 50 88 42 89 43 90 49 91
REMARK SMILES IDX 51 92 44 93 45 94 46 95 47 96 48 97
REMARK H PARENT 5 7 1 10 1 11 1 12 82 21 88 24 10 28 72 47 38 58
REMARK Flexibility Score: inf
ROOT
ATOM      1  C   UNL A   1      34.119  28.534  25.831  1.00  0.00     0.023 C 
ENDROOT
BRANCH   1   2
ATOM      2  C   UNL A   1      33.436  27.460  24.998  1.00  0.00     0.023 C 
BRANCH   2   3
ATOM      3  C   UNL A   1      33.272  26.092  25.671  1.00  0.00     0.116 C 
BRANCH   3   4
ATOM      4  N   UNL A   1      31.936  25.914  26.206  1.00  0.00    -0.351 N 
ATOM      5  C   UNL A   1      30.720  25.856  25.589  1.00  0.00     0.283 C 
ATOM      6  O   UNL A   1      29.732  25.697  26.318  1.00  0.00    -0.268 OA
ATOM      7  H   UNL A   1      31.900  25.818  27.185  1.00  0.00     0.163 HD
BRANCH   5   8
ATOM      8  C   UNL A   1      30.553  25.871  24.029  1.00  0.00     0.306 C 
BRANCH   8   9
ATOM      9  N   UNL A   1      29.999  24.527  23.655  1.00  0.00    -0.343 N 
ATOM     10  H   UNL A   1      29.619  24.567  22.710  1.00  0.00     0.345 HD
ATOM     11  H   UNL A   1      29.259  24.271  24.309  1.00  0.00     0.345 HD
ATOM     12  H   UNL A   1      30.743  23.830  23.695  1.00  0.00     0.345 HD
ENDBRANCH   8   9
BRANCH   8  13
ATOM     13  C   UNL A   1      29.683  27.023  23.527  1.00  0.00     0.063 A 
ATOM     14  C   UNL A   1      30.323  28.059  22.831  1.00  0.00     0.041 A 
ATOM     15  C   UNL A   1      28.294  27.133  23.679  1.00  0.00     0.126 A 
ATOM     16  C   UNL A   1      29.628  29.218  22.481  1.00  0.00     0.046 A 
ATOM     17  C   UNL A   1      27.569  28.257  23.240  1.00  0.00     0.057 A 
ATOM     18  N   UNL A   1      30.088  30.401  21.952  1.00  0.00    -0.361 N 
ATOM     19  C   UNL A   1      28.255  29.335  22.651  1.00  0.00     0.003 A 
ATOM     20  C   UNL A   1      29.034  31.237  21.701  1.00  0.00     0.083 A 
ATOM     21  H   UNL A   1      31.033  30.614  21.780  1.00  0.00     0.166 HD
ATOM     22  C   UNL A   1      27.884  30.596  22.108  1.00  0.00     0.028 A 
BRANCH  15  23
ATOM     23  O   UNL A   1      27.543  26.122  24.217  1.00  0.00    -0.507 OA
ATOM     24  H   UNL A   1      27.619  25.251  23.881  1.00  0.00     0.293 HD
ENDBRANCH  15  23
ENDBRANCH   8  13
ENDBRANCH   5   8
ENDBRANCH   3   4
ENDBRANCH   2   3
ENDBRANCH   1   2
BRANCH   1  25
ATOM     25  C   UNL A   1      33.619  28.657  27.257  1.00  0.00     0.116 C 
BRANCH  25  26
ATOM     26  N   UNL A   1      33.569  30.032  27.734  1.00  0.00    -0.352 N 
ATOM     27  C   UNL A   1      34.552  30.766  28.360  1.00  0.00     0.251 C 
ATOM     28  H   UNL A   1      32.714  30.501  27.591  1.00  0.00     0.163 HD
ATOM     29  O   UNL A   1      34.300  31.877  28.806  1.00  0.00    -0.269 OA
BRANCH  27  30
ATOM     30  C   UNL A   1      35.898  30.174  28.522  1.00  0.00     0.039 A 
ATOM     31  C   UNL A   1      36.805  30.253  27.463  1.00  0.00     0.014 A 
ATOM     32  C   UNL A   1      36.284  29.606  29.739  1.00  0.00     0.014 A 
ATOM     33  C   UNL A   1      38.126  29.844  27.658  1.00  0.00     0.010 A 
ATOM     34  C   UNL A   1      37.619  29.293  29.960  1.00  0.00     0.010 A 
ATOM     35  C   UNL A   1      38.556  29.410  28.923  1.00  0.00    -0.014 A 
BRANCH  35  36
ATOM     36  C   UNL A   1      39.979  29.082  29.190  1.00  0.00     0.031 A 
ATOM     37  C   UNL A   1      40.895  30.126  29.771  1.00  0.00     0.074 A 
ATOM     38  C   UNL A   1      40.463  27.873  28.838  1.00  0.00     0.049 A 
ATOM     39  N   UNL A   1      42.180  30.060  29.998  1.00  0.00    -0.248 NA
ATOM     40  C   UNL A   1      40.292  31.426  30.112  1.00  0.00     0.031 C 
ATOM     41  C   UNL A   1      39.689  26.800  28.206  1.00  0.00     0.029 A 
ATOM     42  N   UNL A   1      41.725  27.346  28.945  1.00  0.00    -0.354 N 
ATOM     43  C   UNL A   1      42.542  31.308  30.490  1.00  0.00     0.074 A 
ATOM     44  C   UNL A   1      41.353  32.131  30.478  1.00  0.00     0.031 C 
ATOM     45  C   UNL A   1      40.487  25.738  28.007  1.00  0.00     0.029 A 
ATOM     46  C   UNL A   1      41.835  26.064  28.457  1.00  0.00     0.049 A 
ATOM     47  H   UNL A   1      42.483  27.839  29.337  1.00  0.00     0.167 HD
ATOM     48  C   UNL A   1      43.750  31.723  30.939  1.00  0.00     0.037 A 
ATOM     49  C   UNL A   1      42.904  25.249  28.372  1.00  0.00     0.037 A 
ATOM     50  C   UNL A   1      44.920  30.887  30.984  1.00  0.00     0.049 A 
ATOM     51  C   UNL A   1      44.233  25.731  28.890  1.00  0.00     0.074 A 
ATOM     52  C   UNL A   1      46.173  31.190  31.487  1.00  0.00     0.029 A 
ATOM     53  N   UNL A   1      44.983  29.584  30.512  1.00  0.00    -0.354 N 
ATOM     54  N   UNL A   1      44.539  26.890  29.421  1.00  0.00    -0.248 NA
ATOM     55  C   UNL A   1      45.362  24.793  28.802  1.00  0.00     0.031 C 
ATOM     56  C   UNL A   1      47.006  30.088  31.280  1.00  0.00     0.029 A 
ATOM     57  C   UNL A   1      46.259  29.078  30.693  1.00  0.00     0.049 A 
ATOM     58  H   UNL A   1      44.232  29.094  30.108  1.00  0.00     0.167 HD
ATOM     59  C   UNL A   1      45.886  26.811  29.757  1.00  0.00     0.074 A 
ATOM     60  C   UNL A   1      46.332  25.486  29.382  1.00  0.00     0.031 C 
ATOM     61  C   UNL A   1      46.683  27.751  30.323  1.00  0.00     0.037 A 
BRANCH  48  62
ATOM     62  C   UNL A   1      43.868  33.138  31.433  1.00  0.00     0.058 A 
ATOM     63  C   UNL A   1      44.207  34.193  30.569  1.00  0.00     0.135 A 
ATOM     64  C   UNL A   1      43.585  33.453  32.771  1.00  0.00     0.135 A 
ATOM     65  F   UNL A   1      44.507  33.946  29.285  1.00  0.00    -0.206 F 
ATOM     66  C   UNL A   1      44.277  35.507  31.020  1.00  0.00     0.059 A 
ATOM     67  C   UNL A   1      43.622  34.765  33.237  1.00  0.00     0.059 A 
ATOM     68  F   UNL A   1      43.260  32.483  33.641  1.00  0.00    -0.206 F 
ATOM     69  C   UNL A   1      43.979  35.783  32.355  1.00  0.00     0.060 A 
BRANCH  69  70
ATOM     70  S   UNL A   1      44.046  37.498  32.913  1.00  0.00     0.124 S 
ATOM     71  O   UNL A   1      42.925  37.544  33.846  1.00  0.00    -0.237 OA
ATOM     72  O   UNL A   1      45.374  37.579  33.513  1.00  0.00    -0.237 OA
ATOM     73  O   UNL A   1      43.870  38.264  31.682  1.00  0.00    -0.744 OA
ENDBRANCH  69  70
ENDBRANCH  48  62
BRANCH  49  74
ATOM     74  C   UNL A   1      42.764  23.887  27.789  1.00  0.00     0.058 A 
ATOM     75  C   UNL A   1      42.816  23.687  26.401  1.00  0.00     0.135 A 
ATOM     76  C   UNL A   1      42.568  22.761  28.603  1.00  0.00     0.135 A 
ATOM     77  F   UNL A   1      42.996  24.732  25.579  1.00  0.00    -0.206 F 
ATOM     78  C   UNL A   1      42.650  22.425  25.840  1.00  0.00     0.059 A 
ATOM     79  C   UNL A   1      42.428  21.485  28.067  1.00  0.00     0.059 A 
ATOM     80  F   UNL A   1      42.532  22.896  29.939  1.00  0.00    -0.206 F 
ATOM     81  C   UNL A   1      42.455  21.329  26.682  1.00  0.00     0.060 A 
BRANCH  81  82
ATOM     82  S   UNL A   1      42.271  19.691  25.945  1.00  0.00     0.124 S 
ATOM     83  O   UNL A   1      43.273  19.731  24.888  1.00  0.00    -0.237 OA
ATOM     84  O   UNL A   1      42.567  18.811  27.072  1.00  0.00    -0.237 OA
ATOM     85  O   UNL A   1      40.881  19.679  25.500  1.00  0.00    -0.744 OA
ENDBRANCH  81  82
ENDBRANCH  49  74
BRANCH  61  86
ATOM     86  C   UNL A   1      48.109  27.370  30.605  1.00  0.00     0.058 A 
ATOM     87  C   UNL A   1      48.482  26.740  31.801  1.00  0.00     0.135 A 
ATOM     88  C   UNL A   1      49.107  27.592  29.640  1.00  0.00     0.135 A 
ATOM     89  F   UNL A   1      47.568  26.511  32.757  1.00  0.00    -0.206 F 
ATOM     90  C   UNL A   1      49.799  26.363  32.044  1.00  0.00     0.059 A 
ATOM     91  C   UNL A   1      50.424  27.197  29.850  1.00  0.00     0.059 A 
ATOM     92  F   UNL A   1      48.800  28.181  28.474  1.00  0.00    -0.206 F 
ATOM     93  C   UNL A   1      50.762  26.594  31.060  1.00  0.00     0.060 A 
BRANCH  93  94
ATOM     94  S   UNL A   1      52.461  26.071  31.373  1.00  0.00     0.124 S 
ATOM     95  O   UNL A   1      52.925  27.110  32.286  1.00  0.00    -0.237 OA
ATOM     96  O   UNL A   1      52.277  24.747  31.960  1.00  0.00    -0.237 OA
ATOM     97  O   UNL A   1      53.069  26.082  30.046  1.00  0.00    -0.744 OA
ENDBRANCH  93  94
ENDBRANCH  61  86
ENDBRANCH  35  36
ENDBRANCH  27  30
ENDBRANCH  25  26
ENDBRANCH   1  25
TORSDOF 17
ENDMDL
MODEL 2
REMARK VINA RESULT:     -11.6      5.377     10.935
REMARK SMILES [NH3+][C@H](C(=O)NCCCCNC(=O)c1ccc(-c2c3nc(c(-c4c(F)cc(S(=O)(=O)[O-])cc4F)c4ccc([nH]4)c(-c4c(F)cc(S(=O)(=O)[O-])cc4F)c4nc(c(-c5c(F)cc(S(=O)(=O)[O-])cc5F)c5ccc2[nH]5)C=C4)C=C3)cc1)c1cc2[nH]ccc2cc1O
REMARK SMILES IDX 8 1 7 2 6 3 5 4 3 5 4 6 2 8 1 9 79 13 80 14 87 15 81 16
REMARK SMILES IDX 86 17 82 18 85 19 83 20 84 22 88 23 9 25 10 26 11 27 12 29
REMARK SMILES IDX 13 30 14 31 78 32 15 33 77 34 16 35 17 36 18 37 71 38 19 39
REMARK SMILES IDX 76 40 70 41 72 42 20 43 75 44 69 45 68 46 21 48 55 49 34 50
REMARK SMILES IDX 54 51 35 52 38 53 53 54 73 55 36 56 37 57 52 59 74 60 39 61
REMARK SMILES IDX 22 62 23 63 32 64 24 65 25 66 31 67 33 68 26 69 27 70 28 71
REMARK SMILES IDX 29 72 30 73 56 74 57 75 66 76 58 77 59 78 65 79 67 80 60 81
REMARK SMILES IDX 61 82 62 83 63 84 64 85 40 86 41 87 50 88 42 89 43 90 49 91
REMARK SMILES IDX 51 92 44 93 45 94 46 95 47 96 48 97
REMARK H PARENT 5 7 1 10 1 11 1 12 82 21 88 24 10 28 72 47 38 58
REMARK Flexibility Score: inf
ROOT
ATOM      1  C   UNL A   1      37.414  22.983  25.773  1.00  0.00     0.023 C 
ENDROOT
BRANCH   1   2
ATOM      2  C   UNL A   1      36.737  23.266  24.440  1.00  0.00     0.023 C 
BRANCH   2   3
ATOM      3  C   UNL A   1      35.240  23.591  24.504  1.00  0.00     0.116 C 
BRANCH   3   4
ATOM      4  N   UNL A   1      34.681  23.807  23.184  1.00  0.00    -0.351 N 
ATOM      5  C   UNL A   1      33.447  23.527  22.673  1.00  0.00     0.283 C 
ATOM      6  O   UNL A   1      33.254  23.826  21.486  1.00  0.00    -0.268 OA
ATOM      7  H   UNL A   1      35.300  24.227  22.544  1.00  0.00     0.163 HD
BRANCH   5   8
ATOM      8  C   UNL A   1      32.271  22.962  23.544  1.00  0.00     0.306 C 
BRANCH   8   9
ATOM      9  N   UNL A   1      31.008  23.512  22.947  1.00  0.00    -0.343 N 
ATOM     10  H   UNL A   1      30.211  22.973  23.282  1.00  0.00     0.345 HD
ATOM     11  H   UNL A   1      31.057  23.450  21.930  1.00  0.00     0.345 HD
ATOM     12  H   UNL A   1      30.900  24.489  23.222  1.00  0.00     0.345 HD
ENDBRANCH   8   9
BRANCH   8  13
ATOM     13  C   UNL A   1      32.262  21.436  23.629  1.00  0.00     0.063 A 
ATOM     14  C   UNL A   1      32.435  20.860  24.895  1.00  0.00     0.041 A 
ATOM     15  C   UNL A   1      32.074  20.553  22.557  1.00  0.00     0.126 A 
ATOM     16  C   UNL A   1      32.598  19.480  25.033  1.00  0.00     0.046 A 
ATOM     17  C   UNL A   1      32.139  19.155  22.705  1.00  0.00     0.057 A 
ATOM     18  N   UNL A   1      32.936  18.734  26.138  1.00  0.00    -0.361 N 
ATOM     19  C   UNL A   1      32.433  18.607  23.967  1.00  0.00     0.003 A 
ATOM     20  C   UNL A   1      32.909  17.403  25.825  1.00  0.00     0.083 A 
ATOM     21  H   UNL A   1      33.164  19.104  27.022  1.00  0.00     0.166 HD
ATOM     22  C   UNL A   1      32.582  17.292  24.490  1.00  0.00     0.028 A 
BRANCH  15  23
ATOM     23  O   UNL A   1      31.759  20.997  21.300  1.00  0.00    -0.507 OA
ATOM     24  H   UNL A   1      31.097  20.561  20.800  1.00  0.00     0.293 HD
ENDBRANCH  15  23
ENDBRANCH   8  13
ENDBRANCH   5   8
ENDBRANCH   3   4
ENDBRANCH   2   3
ENDBRANCH   1   2
BRANCH   1  25
ATOM     25  C   UNL A   1      38.309  24.093  26.288  1.00  0.00     0.116 C 
BRANCH  25  26
ATOM     26  N   UNL A   1      39.729  23.800  26.151  1.00  0.00    -0.352 N 
ATOM     27  C   UNL A   1      40.807  24.487  26.664  1.00  0.00     0.251 C 
ATOM     28  H   UNL A   1      39.948  23.002  25.617  1.00  0.00     0.163 HD
ATOM     29  O   UNL A   1      41.945  24.169  26.349  1.00  0.00    -0.269 OA
BRANCH  27  30
ATOM     30  C   UNL A   1      40.564  25.637  27.564  1.00  0.00     0.039 A 
ATOM     31  C   UNL A   1      39.564  25.540  28.532  1.00  0.00     0.014 A 
ATOM     32  C   UNL A   1      41.371  26.776  27.495  1.00  0.00     0.014 A 
ATOM     33  C   UNL A   1      39.433  26.549  29.489  1.00  0.00     0.010 A 
ATOM     34  C   UNL A   1      41.304  27.728  28.503  1.00  0.00     0.010 A 
ATOM     35  C   UNL A   1      40.335  27.625  29.512  1.00  0.00    -0.014 A 
BRANCH  35  36
ATOM     36  C   UNL A   1      40.295  28.650  30.587  1.00  0.00     0.031 A 
ATOM     37  C   UNL A   1      41.201  28.522  31.782  1.00  0.00     0.074 A 
ATOM     38  C   UNL A   1      39.390  29.648  30.523  1.00  0.00     0.049 A 
ATOM     39  N   UNL A   1      41.257  29.264  32.856  1.00  0.00    -0.248 NA
ATOM     40  C   UNL A   1      42.148  27.394  31.783  1.00  0.00     0.031 C 
ATOM     41  C   UNL A   1      38.413  29.841  29.447  1.00  0.00     0.029 A 
ATOM     42  N   UNL A   1      39.132  30.682  31.388  1.00  0.00    -0.354 N 
ATOM     43  C   UNL A   1      42.227  28.686  33.666  1.00  0.00     0.074 A 
ATOM     44  C   UNL A   1      42.696  27.500  32.984  1.00  0.00     0.031 C 
ATOM     45  C   UNL A   1      37.682  30.938  29.705  1.00  0.00     0.029 A 
ATOM     46  C   UNL A   1      38.107  31.504  30.980  1.00  0.00     0.049 A 
ATOM     47  H   UNL A   1      39.635  30.823  32.223  1.00  0.00     0.167 HD
ATOM     48  C   UNL A   1      42.704  29.118  34.856  1.00  0.00     0.037 A 
ATOM     49  C   UNL A   1      37.566  32.586  31.572  1.00  0.00     0.037 A 
ATOM     50  C   UNL A   1      42.259  30.320  35.511  1.00  0.00     0.049 A 
ATOM     51  C   UNL A   1      38.123  33.054  32.890  1.00  0.00     0.074 A 
ATOM     52  C   UNL A   1      42.729  30.884  36.684  1.00  0.00     0.029 A 
ATOM     53  N   UNL A   1      41.243  31.145  35.050  1.00  0.00    -0.354 N 
ATOM     54  N   UNL A   1      39.094  32.536  33.605  1.00  0.00    -0.248 NA
ATOM     55  C   UNL A   1      37.518  34.257  33.480  1.00  0.00     0.031 C 
ATOM     56  C   UNL A   1      41.970  32.025  36.956  1.00  0.00     0.029 A 
ATOM     57  C   UNL A   1      41.059  32.201  35.926  1.00  0.00     0.049 A 
ATOM     58  H   UNL A   1      40.730  31.000  34.223  1.00  0.00     0.167 HD
ATOM     59  C   UNL A   1      39.233  33.363  34.713  1.00  0.00     0.074 A 
ATOM     60  C   UNL A   1      38.259  34.424  34.567  1.00  0.00     0.031 C 
ATOM     61  C   UNL A   1      40.090  33.255  35.759  1.00  0.00     0.037 A 
BRANCH  48  62
ATOM     62  C   UNL A   1      43.773  28.300  35.525  1.00  0.00     0.058 A 
ATOM     63  C   UNL A   1      43.459  27.302  36.462  1.00  0.00     0.135 A 
ATOM     64  C   UNL A   1      45.124  28.475  35.184  1.00  0.00     0.135 A 
ATOM     65  F   UNL A   1      42.186  27.105  36.838  1.00  0.00    -0.206 F 
ATOM     66  C   UNL A   1      44.446  26.519  37.049  1.00  0.00     0.059 A 
ATOM     67  C   UNL A   1      46.127  27.685  35.739  1.00  0.00     0.059 A 
ATOM     68  F   UNL A   1      45.482  29.419  34.298  1.00  0.00    -0.206 F 
ATOM     69  C   UNL A   1      45.777  26.716  36.679  1.00  0.00     0.060 A 
BRANCH  69  70
ATOM     70  S   UNL A   1      47.042  25.670  37.430  1.00  0.00     0.124 S 
ATOM     71  O   UNL A   1      47.835  25.291  36.265  1.00  0.00    -0.237 OA
ATOM     72  O   UNL A   1      47.688  26.584  38.366  1.00  0.00    -0.237 OA
ATOM     73  O   UNL A   1      46.271  24.591  38.042  1.00  0.00    -0.744 OA
ENDBRANCH  69  70
ENDBRANCH  48  62
BRANCH  49  74
ATOM     74  C   UNL A   1      36.443  33.314  30.920  1.00  0.00     0.058 A 
ATOM     75  C   UNL A   1      36.661  34.108  29.783  1.00  0.00     0.135 A 
ATOM     76  C   UNL A   1      35.135  33.240  31.422  1.00  0.00     0.135 A 
ATOM     77  F   UNL A   1      37.895  34.216  29.266  1.00  0.00    -0.206 F 
ATOM     78  C   UNL A   1      35.629  34.823  29.184  1.00  0.00     0.059 A 
ATOM     79  C   UNL A   1      34.081  33.923  30.824  1.00  0.00     0.059 A 
ATOM     80  F   UNL A   1      34.870  32.478  32.496  1.00  0.00    -0.206 F 
ATOM     81  C   UNL A   1      34.340  34.724  29.714  1.00  0.00     0.060 A 
BRANCH  81  82
ATOM     82  S   UNL A   1      33.002  35.633  28.912  1.00  0.00     0.124 S 
ATOM     83  O   UNL A   1      32.421  34.604  28.058  1.00  0.00    -0.237 OA
ATOM     84  O   UNL A   1      32.190  36.052  30.049  1.00  0.00    -0.237 OA
ATOM     85  O   UNL A   1      33.699  36.712  28.218  1.00  0.00    -0.744 OA
ENDBRANCH  81  82
ENDBRANCH  49  74
BRANCH  61  86
ATOM     86  C   UNL A   1      40.038  34.328  36.810  1.00  0.00     0.058 A 
ATOM     87  C   UNL A   1      40.807  35.497  36.709  1.00  0.00     0.135 A 
ATOM     88  C   UNL A   1      39.166  34.207  37.905  1.00  0.00     0.135 A 
ATOM     89  F   UNL A   1      41.660  35.658  35.685  1.00  0.00    -0.206 F 
ATOM     90  C   UNL A   1      40.732  36.500  37.670  1.00  0.00     0.059 A 
ATOM     91  C   UNL A   1      39.055  35.210  38.862  1.00  0.00     0.059 A 
ATOM     92  F   UNL A   1      38.400  33.113  38.042  1.00  0.00    -0.206 F 
ATOM     93  C   UNL A   1      39.851  36.348  38.742  1.00  0.00     0.060 A 
BRANCH  93  94
ATOM     94  S   UNL A   1      39.739  37.671  39.964  1.00  0.00     0.124 S 
ATOM     95  O   UNL A   1      40.979  38.401  39.721  1.00  0.00    -0.237 OA
ATOM     96  O   UNL A   1      38.512  38.357  39.571  1.00  0.00    -0.237 OA
ATOM     97  O   UNL A   1      39.670  36.954  41.234  1.00  0.00    -0.744 OA
ENDBRANCH  93  94
ENDBRANCH  61  86
ENDBRANCH  35  36
ENDBRANCH  27  30
ENDBRANCH  25  26
ENDBRANCH   1  25
TORSDOF 17
ENDMDL
MODEL 3
REMARK VINA RESULT:     -11.5      2.718      3.523
REMARK SMILES [NH3+][C@H](C(=O)NCCCCNC(=O)c1ccc(-c2c3nc(c(-c4c(F)cc(S(=O)(=O)[O-])cc4F)c4ccc([nH]4)c(-c4c(F)cc(S(=O)(=O)[O-])cc4F)c4nc(c(-c5c(F)cc(S(=O)(=O)[O-])cc5F)c5ccc2[nH]5)C=C4)C=C3)cc1)c1cc2[nH]ccc2cc1O
REMARK SMILES IDX 8 1 7 2 6 3 5 4 3 5 4 6 2 8 1 9 79 13 80 14 87 15 81 16
REMARK SMILES IDX 86 17 82 18 85 19 83 20 84 22 88 23 9 25 10 26 11 27 12 29
REMARK SMILES IDX 13 30 14 31 78 32 15 33 77 34 16 35 17 36 18 37 71 38 19 39
REMARK SMILES IDX 76 40 70 41 72 42 20 43 75 44 69 45 68 46 21 48 55 49 34 50
REMARK SMILES IDX 54 51 35 52 38 53 53 54 73 55 36 56 37 57 52 59 74 60 39 61
REMARK SMILES IDX 22 62 23 63 32 64 24 65 25 66 31 67 33 68 26 69 27 70 28 71
REMARK SMILES IDX 29 72 30 73 56 74 57 75 66 76 58 77 59 78 65 79 67 80 60 81
REMARK SMILES IDX 61 82 62 83 63 84 64 85 40 86 41 87 50 88 42 89 43 90 49 91
REMARK SMILES IDX 51 92 44 93 45 94 46 95 47 96 48 97
REMARK H PARENT 5 7 1 10 1 11 1 12 82 21 88 24 10 28 72 47 38 58
REMARK Flexibility Score: inf
ROOT
ATOM      1  C   UNL A   1      33.647  29.045  27.253  1.00  0.00     0.023 C 
ENDROOT
BRANCH   1   2
ATOM      2  C   UNL A   1      33.437  28.571  25.823  1.00  0.00     0.023 C 
BRANCH   2   3
ATOM      3  C   UNL A   1      33.272  27.058  25.635  1.00  0.00     0.116 C 
BRANCH   3   4
ATOM      4  N   UNL A   1      32.037  26.576  26.221  1.00  0.00    -0.351 N 
ATOM      5  C   UNL A   1      30.864  26.178  25.647  1.00  0.00     0.283 C 
ATOM      6  O   UNL A   1      29.964  25.813  26.415  1.00  0.00    -0.268 OA
ATOM      7  H   UNL A   1      32.046  26.526  27.204  1.00  0.00     0.163 HD
BRANCH   5   8
ATOM      8  C   UNL A   1      30.668  26.067  24.095  1.00  0.00     0.306 C 
BRANCH   8   9
ATOM      9  N   UNL A   1      30.136  24.687  23.839  1.00  0.00    -0.343 N 
ATOM     10  H   UNL A   1      29.283  24.546  24.380  1.00  0.00     0.345 HD
ATOM     11  H   UNL A   1      30.833  23.996  24.118  1.00  0.00     0.345 HD
ATOM     12  H   UNL A   1      29.931  24.580  22.845  1.00  0.00     0.345 HD
ENDBRANCH   8   9
BRANCH   8  13
ATOM     13  C   UNL A   1      29.765  27.159  23.522  1.00  0.00     0.063 A 
ATOM     14  C   UNL A   1      30.380  28.188  22.795  1.00  0.00     0.041 A 
ATOM     15  C   UNL A   1      28.369  27.217  23.636  1.00  0.00     0.126 A 
ATOM     16  C   UNL A   1      29.647  29.301  22.377  1.00  0.00     0.046 A 
ATOM     17  C   UNL A   1      27.611  28.289  23.130  1.00  0.00     0.057 A 
ATOM     18  N   UNL A   1      30.072  30.477  21.805  1.00  0.00    -0.361 N 
ATOM     19  C   UNL A   1      28.267  29.368  22.509  1.00  0.00     0.003 A 
ATOM     20  C   UNL A   1      28.992  31.257  21.493  1.00  0.00     0.083 A 
ATOM     21  H   UNL A   1      31.012  30.722  21.646  1.00  0.00     0.166 HD
ATOM     22  C   UNL A   1      27.859  30.588  21.901  1.00  0.00     0.028 A 
BRANCH  15  23
ATOM     23  O   UNL A   1      27.646  26.200  24.202  1.00  0.00    -0.507 OA
ATOM     24  H   UNL A   1      27.974  25.757  24.960  1.00  0.00     0.293 HD
ENDBRANCH  15  23
ENDBRANCH   8  13
ENDBRANCH   5   8
ENDBRANCH   3   4
ENDBRANCH   2   3
ENDBRANCH   1   2
BRANCH   1  25
ATOM     25  C   UNL A   1      35.085  29.345  27.626  1.00  0.00     0.116 C 
BRANCH  25  26
ATOM     26  N   UNL A   1      35.210  30.225  28.780  1.00  0.00    -0.352 N 
ATOM     27  C   UNL A   1      36.306  30.443  29.586  1.00  0.00     0.251 C 
ATOM     28  H   UNL A   1      34.400  30.731  29.018  1.00  0.00     0.163 HD
ATOM     29  O   UNL A   1      36.202  31.129  30.593  1.00  0.00    -0.269 OA
BRANCH  27  30
ATOM     30  C   UNL A   1      37.594  29.802  29.238  1.00  0.00     0.039 A 
ATOM     31  C   UNL A   1      38.001  29.782  27.903  1.00  0.00     0.014 A 
ATOM     32  C   UNL A   1      38.424  29.286  30.236  1.00  0.00     0.014 A 
ATOM     33  C   UNL A   1      39.283  29.327  27.582  1.00  0.00     0.010 A 
ATOM     34  C   UNL A   1      39.730  28.927  29.928  1.00  0.00     0.010 A 
ATOM     35  C   UNL A   1      40.174  28.945  28.598  1.00  0.00    -0.014 A 
BRANCH  35  36
ATOM     36  C   UNL A   1      41.580  28.570  28.298  1.00  0.00     0.031 A 
ATOM     37  C   UNL A   1      42.650  29.627  28.269  1.00  0.00     0.074 A 
ATOM     38  C   UNL A   1      41.875  27.294  27.976  1.00  0.00     0.049 A 
ATOM     39  N   UNL A   1      43.912  29.514  27.948  1.00  0.00    -0.248 NA
ATOM     40  C   UNL A   1      42.242  30.999  28.615  1.00  0.00     0.031 C 
ATOM     41  C   UNL A   1      40.913  26.191  27.906  1.00  0.00     0.029 A 
ATOM     42  N   UNL A   1      43.068  26.708  27.633  1.00  0.00    -0.354 N 
ATOM     43  C   UNL A   1      44.442  30.795  28.036  1.00  0.00     0.074 A 
ATOM     44  C   UNL A   1      43.355  31.681  28.387  1.00  0.00     0.031 C 
ATOM     45  C   UNL A   1      41.557  25.062  27.567  1.00  0.00     0.029 A 
ATOM     46  C   UNL A   1      42.967  25.364  27.356  1.00  0.00     0.049 A 
ATOM     47  H   UNL A   1      43.918  27.205  27.588  1.00  0.00     0.167 HD
ATOM     48  C   UNL A   1      45.724  31.194  27.868  1.00  0.00     0.037 A 
ATOM     49  C   UNL A   1      43.905  24.479  26.967  1.00  0.00     0.037 A 
ATOM     50  C   UNL A   1      46.809  30.301  27.556  1.00  0.00     0.049 A 
ATOM     51  C   UNL A   1      45.327  24.945  26.800  1.00  0.00     0.074 A 
ATOM     52  C   UNL A   1      48.156  30.594  27.436  1.00  0.00     0.029 A 
ATOM     53  N   UNL A   1      46.673  28.941  27.318  1.00  0.00    -0.354 N 
ATOM     54  N   UNL A   1      45.823  26.149  26.961  1.00  0.00    -0.248 NA
ATOM     55  C   UNL A   1      46.317  23.935  26.403  1.00  0.00     0.031 C 
ATOM     56  C   UNL A   1      48.829  29.422  27.082  1.00  0.00     0.029 A 
ATOM     57  C   UNL A   1      47.909  28.387  27.030  1.00  0.00     0.049 A 
ATOM     58  H   UNL A   1      45.824  28.445  27.348  1.00  0.00     0.167 HD
ATOM     59  C   UNL A   1      47.186  26.035  26.714  1.00  0.00     0.074 A 
ATOM     60  C   UNL A   1      47.439  24.642  26.406  1.00  0.00     0.031 C 
ATOM     61  C   UNL A   1      48.143  26.995  26.737  1.00  0.00     0.037 A 
BRANCH  48  62
ATOM     62  C   UNL A   1      46.034  32.656  28.032  1.00  0.00     0.058 A 
ATOM     63  C   UNL A   1      46.477  33.181  29.257  1.00  0.00     0.135 A 
ATOM     64  C   UNL A   1      45.942  33.532  26.939  1.00  0.00     0.135 A 
ATOM     65  F   UNL A   1      46.565  32.393  30.339  1.00  0.00    -0.206 F 
ATOM     66  C   UNL A   1      46.800  34.527  29.396  1.00  0.00     0.059 A 
ATOM     67  C   UNL A   1      46.287  34.877  27.049  1.00  0.00     0.059 A 
ATOM     68  F   UNL A   1      45.519  33.084  25.746  1.00  0.00    -0.206 F 
ATOM     69  C   UNL A   1      46.705  35.365  28.285  1.00  0.00     0.060 A 
BRANCH  69  70
ATOM     70  S   UNL A   1      47.159  37.102  28.478  1.00  0.00     0.124 S 
ATOM     71  O   UNL A   1      48.158  37.260  27.426  1.00  0.00    -0.237 OA
ATOM     72  O   UNL A   1      45.888  37.783  28.253  1.00  0.00    -0.237 OA
ATOM     73  O   UNL A   1      47.670  37.170  29.844  1.00  0.00    -0.744 OA
ENDBRANCH  69  70
ENDBRANCH  48  62
BRANCH  49  74
ATOM     74  C   UNL A   1      43.539  23.057  26.724  1.00  0.00     0.058 A 
ATOM     75  C   UNL A   1      43.174  22.213  27.785  1.00  0.00     0.135 A 
ATOM     76  C   UNL A   1      43.552  22.511  25.432  1.00  0.00     0.135 A 
ATOM     77  F   UNL A   1      43.150  22.687  29.040  1.00  0.00    -0.206 F 
ATOM     78  C   UNL A   1      42.863  20.873  27.577  1.00  0.00     0.059 A 
ATOM     79  C   UNL A   1      43.218  21.181  25.195  1.00  0.00     0.059 A 
ATOM     80  F   UNL A   1      43.874  23.281  24.380  1.00  0.00    -0.206 F 
ATOM     81  C   UNL A   1      42.890  20.365  26.277  1.00  0.00     0.060 A 
BRANCH  81  82
ATOM     82  S   UNL A   1      42.456  18.632  26.014  1.00  0.00     0.124 S 
ATOM     83  O   UNL A   1      41.034  18.729  25.713  1.00  0.00    -0.237 OA
ATOM     84  O   UNL A   1      43.322  18.264  24.899  1.00  0.00    -0.237 OA
ATOM     85  O   UNL A   1      42.792  18.007  27.290  1.00  0.00    -0.744 OA
ENDBRANCH  81  82
ENDBRANCH  49  74
BRANCH  61  86
ATOM     86  C   UNL A   1      49.557  26.569  26.457  1.00  0.00     0.058 A 
ATOM     87  C   UNL A   1      50.350  25.954  27.437  1.00  0.00     0.135 A 
ATOM     88  C   UNL A   1      50.107  26.733  25.174  1.00  0.00     0.135 A 
ATOM     89  F   UNL A   1      49.874  25.780  28.680  1.00  0.00    -0.206 F 
ATOM     90  C   UNL A   1      51.648  25.535  27.164  1.00  0.00     0.059 A 
ATOM     91  C   UNL A   1      51.392  26.296  24.871  1.00  0.00     0.059 A 
ATOM     92  F   UNL A   1      49.386  27.306  24.198  1.00  0.00    -0.206 F 
ATOM     93  C   UNL A   1      52.159  25.709  25.876  1.00  0.00     0.060 A 
BRANCH  93  94
ATOM     94  S   UNL A   1      53.833  25.132  25.524  1.00  0.00     0.124 S 
ATOM     95  O   UNL A   1      54.036  25.628  24.167  1.00  0.00    -0.237 OA
ATOM     96  O   UNL A   1      54.616  25.792  26.564  1.00  0.00    -0.237 OA
ATOM     97  O   UNL A   1      53.726  23.682  25.654  1.00  0.00    -0.744 OA
ENDBRANCH  93  94
ENDBRANCH  61  86
ENDBRANCH  35  36
ENDBRANCH  27  30
ENDBRANCH  25  26
ENDBRANCH   1  25
TORSDOF 17
ENDMDL
