MODEL 1
REMARK VINA RESULT:     -11.6      0.000      0.000
REMARK SMILES CC(=O)c1ccc(NC(=O)C[C@H](C(=O)NCCCCNC(=O)c2ccc(-c3c4nc(c(-c5c(F)cc(S(=O)(=O)[O-])cc5F)c5ccc([nH]5)c(-c5c(F)cc(S(=O)(=O)[O-])cc5F)c5nc(c(-c6c(F)cc(S(=O)(=O)[O-])cc6F)c6ccc3[nH]6)C=C5)C=C4)cc2)[NH+](C)C)cc1
REMARK SMILES IDX 17 1 16 2 15 3 13 4 14 5 12 7 11 8 9 9 8 10 10 12 7 13 4 14
REMARK SMILES IDX 5 15 93 16 6 17 92 18 2 19 1 20 3 21 89 22 90 23 91 24 18 26
REMARK SMILES IDX 19 27 20 28 21 29 22 31 23 32 24 33 88 34 25 35 87 36 26 37
REMARK SMILES IDX 27 38 28 39 81 40 29 41 86 42 80 43 82 44 30 45 85 46 79 47
REMARK SMILES IDX 78 48 31 50 65 51 44 52 64 53 45 54 48 55 63 56 83 57 46 58
REMARK SMILES IDX 47 59 62 61 84 62 49 63 32 64 33 65 42 66 34 67 35 68 41 69
REMARK SMILES IDX 43 70 36 71 37 72 38 73 39 74 40 75 66 76 67 77 76 78 68 79
REMARK SMILES IDX 69 80 75 81 77 82 70 83 71 84 72 85 73 86 74 87 50 88 51 89
REMARK SMILES IDX 60 90 52 91 53 92 59 93 61 94 54 95 55 96 56 97 57 98 58 99
REMARK H PARENT 15 6 8 11 89 25 20 30 82 49 48 60
REMARK Flexibility Score: inf
ROOT
ATOM      1  C   UNL A   1      37.298  23.253  24.577  1.00  0.00     0.023 C 
ENDROOT
BRANCH   1   2
ATOM      2  C   UNL A   1      35.902  23.226  23.960  1.00  0.00     0.116 C 
BRANCH   2   3
ATOM      3  N   UNL A   1      35.080  22.164  24.499  1.00  0.00    -0.351 N 
ATOM      4  C   UNL A   1      33.745  22.040  24.691  1.00  0.00     0.278 C 
ATOM      5  O   UNL A   1      33.363  20.897  24.992  1.00  0.00    -0.268 OA
ATOM      6  H   UNL A   1      35.594  21.373  24.783  1.00  0.00     0.163 HD
BRANCH   4   7
ATOM      7  C   UNL A   1      32.670  23.148  24.542  1.00  0.00     0.283 C 
BRANCH   7   8
ATOM      8  C   UNL A   1      32.797  24.222  25.652  1.00  0.00     0.175 C 
BRANCH   8   9
ATOM      9  C   UNL A   1      31.608  24.529  26.540  1.00  0.00     0.230 C 
ATOM     10  N   UNL A   1      30.602  25.392  26.232  1.00  0.00    -0.326 N 
ATOM     11  H   UNL A   1      29.864  25.368  26.883  1.00  0.00     0.169 HD
ATOM     12  O   UNL A   1      31.493  23.918  27.613  1.00  0.00    -0.274 OA
BRANCH  10  13
ATOM     13  C   UNL A   1      30.384  26.308  25.194  1.00  0.00     0.041 A 
ATOM     14  C   UNL A   1      29.873  28.413  23.408  1.00  0.00     0.017 A 
ATOM     15  C   UNL A   1      29.104  27.250  23.374  1.00  0.00     0.014 A 
ATOM     16  C   UNL A   1      30.985  28.476  24.248  1.00  0.00     0.014 A 
ATOM     17  C   UNL A   1      29.385  26.189  24.239  1.00  0.00     0.027 A 
ATOM     18  C   UNL A   1      31.237  27.421  25.136  1.00  0.00     0.027 A 
BRANCH  14  19
ATOM     19  C   UNL A   1      29.374  29.602  22.671  1.00  0.00     0.159 C 
ATOM     20  C   UNL A   1      28.216  30.379  23.228  1.00  0.00     0.093 C 
ATOM     21  O   UNL A   1      29.898  29.887  21.596  1.00  0.00    -0.295 OA
ENDBRANCH  14  19
ENDBRANCH  10  13
ENDBRANCH   8   9
ENDBRANCH   7   8
BRANCH   7  22
ATOM     22  N   UNL A   1      32.263  23.500  23.159  1.00  0.00    -0.329 N 
ATOM     23  C   UNL A   1      32.748  24.829  22.774  1.00  0.00     0.333 C 
ATOM     24  C   UNL A   1      32.618  22.553  22.111  1.00  0.00     0.333 C 
ATOM     25  H   UNL A   1      31.244  23.476  23.219  1.00  0.00     0.348 HD
ENDBRANCH   7  22
ENDBRANCH   4   7
ENDBRANCH   2   3
ENDBRANCH   1   2
BRANCH   1  26
ATOM     26  C   UNL A   1      37.324  23.452  26.086  1.00  0.00     0.023 C 
BRANCH  26  27
ATOM     27  C   UNL A   1      38.326  24.466  26.595  1.00  0.00     0.116 C 
BRANCH  27  28
ATOM     28  N   UNL A   1      39.679  24.214  26.127  1.00  0.00    -0.352 N 
ATOM     29  C   UNL A   1      40.852  24.813  26.528  1.00  0.00     0.251 C 
ATOM     30  H   UNL A   1      39.769  23.523  25.430  1.00  0.00     0.163 HD
ATOM     31  O   UNL A   1      41.897  24.579  25.939  1.00  0.00    -0.269 OA
BRANCH  29  32
ATOM     32  C   UNL A   1      40.819  25.775  27.654  1.00  0.00     0.039 A 
ATOM     33  C   UNL A   1      41.735  26.829  27.677  1.00  0.00     0.014 A 
ATOM     34  C   UNL A   1      39.857  25.658  28.660  1.00  0.00     0.014 A 
ATOM     35  C   UNL A   1      41.646  27.799  28.678  1.00  0.00     0.010 A 
ATOM     36  C   UNL A   1      39.700  26.678  29.587  1.00  0.00     0.010 A 
ATOM     37  C   UNL A   1      40.609  27.747  29.623  1.00  0.00    -0.014 A 
BRANCH  37  38
ATOM     38  C   UNL A   1      40.481  28.756  30.704  1.00  0.00     0.031 A 
ATOM     39  C   UNL A   1      41.354  28.639  31.927  1.00  0.00     0.074 A 
ATOM     40  C   UNL A   1      39.544  29.722  30.624  1.00  0.00     0.049 A 
ATOM     41  N   UNL A   1      41.331  29.337  33.031  1.00  0.00    -0.248 NA
ATOM     42  C   UNL A   1      42.361  27.564  31.920  1.00  0.00     0.031 C 
ATOM     43  C   UNL A   1      38.605  29.906  29.516  1.00  0.00     0.029 A 
ATOM     44  N   UNL A   1      39.218  30.725  31.502  1.00  0.00    -0.354 N 
ATOM     45  C   UNL A   1      42.294  28.766  33.857  1.00  0.00     0.074 A 
ATOM     46  C   UNL A   1      42.839  27.628  33.152  1.00  0.00     0.031 C 
ATOM     47  C   UNL A   1      37.827  30.972  29.770  1.00  0.00     0.029 A 
ATOM     48  C   UNL A   1      38.184  31.523  31.073  1.00  0.00     0.049 A 
ATOM     49  H   UNL A   1      39.682  30.860  32.360  1.00  0.00     0.167 HD
ATOM     50  C   UNL A   1      42.710  29.172  35.079  1.00  0.00     0.037 A 
ATOM     51  C   UNL A   1      37.589  32.575  31.669  1.00  0.00     0.037 A 
ATOM     52  C   UNL A   1      42.197  30.336  35.750  1.00  0.00     0.049 A 
ATOM     53  C   UNL A   1      38.087  33.027  33.016  1.00  0.00     0.074 A 
ATOM     54  C   UNL A   1      42.592  30.876  36.960  1.00  0.00     0.029 A 
ATOM     55  N   UNL A   1      41.180  31.144  35.262  1.00  0.00    -0.354 N 
ATOM     56  N   UNL A   1      39.038  32.512  33.760  1.00  0.00    -0.248 NA
ATOM     57  C   UNL A   1      37.439  34.206  33.605  1.00  0.00     0.031 C 
ATOM     58  C   UNL A   1      41.790  31.992  37.220  1.00  0.00     0.029 A 
ATOM     59  C   UNL A   1      40.928  32.174  36.150  1.00  0.00     0.049 A 
ATOM     60  H   UNL A   1      40.709  31.005  34.409  1.00  0.00     0.167 HD
ATOM     61  C   UNL A   1      39.123  33.322  34.886  1.00  0.00     0.074 A 
ATOM     62  C   UNL A   1      38.133  34.366  34.723  1.00  0.00     0.031 C 
ATOM     63  C   UNL A   1      39.947  33.214  35.957  1.00  0.00     0.037 A 
BRANCH  50  64
ATOM     64  C   UNL A   1      43.779  28.360  35.756  1.00  0.00     0.058 A 
ATOM     65  C   UNL A   1      45.145  28.605  35.531  1.00  0.00     0.135 A 
ATOM     66  C   UNL A   1      43.439  27.336  36.653  1.00  0.00     0.135 A 
ATOM     67  F   UNL A   1      45.528  29.560  34.668  1.00  0.00    -0.206 F 
ATOM     68  C   UNL A   1      46.132  27.840  36.143  1.00  0.00     0.059 A 
ATOM     69  C   UNL A   1      44.411  26.578  37.302  1.00  0.00     0.059 A 
ATOM     70  F   UNL A   1      42.150  27.057  36.906  1.00  0.00    -0.206 F 
ATOM     71  C   UNL A   1      45.755  26.828  37.027  1.00  0.00     0.060 A 
BRANCH  71  72
ATOM     72  S   UNL A   1      47.049  25.849  37.816  1.00  0.00     0.124 S 
ATOM     73  O   UNL A   1      48.129  26.825  37.921  1.00  0.00    -0.237 OA
ATOM     74  O   UNL A   1      46.423  25.460  39.077  1.00  0.00    -0.237 OA
ATOM     75  O   UNL A   1      47.277  24.760  36.871  1.00  0.00    -0.744 OA
ENDBRANCH  71  72
ENDBRANCH  50  64
BRANCH  51  76
ATOM     76  C   UNL A   1      36.482  33.293  30.982  1.00  0.00     0.058 A 
ATOM     77  C   UNL A   1      35.163  33.201  31.451  1.00  0.00     0.135 A 
ATOM     78  C   UNL A   1      36.719  34.093  29.853  1.00  0.00     0.135 A 
ATOM     79  F   UNL A   1      34.885  32.445  32.524  1.00  0.00    -0.206 F 
ATOM     80  C   UNL A   1      34.116  33.864  30.820  1.00  0.00     0.059 A 
ATOM     81  C   UNL A   1      35.691  34.785  29.218  1.00  0.00     0.059 A 
ATOM     82  F   UNL A   1      37.966  34.232  29.374  1.00  0.00    -0.206 F 
ATOM     83  C   UNL A   1      34.391  34.656  29.705  1.00  0.00     0.060 A 
BRANCH  83  84
ATOM     84  S   UNL A   1      33.032  35.555  28.924  1.00  0.00     0.124 S 
ATOM     85  O   UNL A   1      33.731  36.687  28.328  1.00  0.00    -0.237 OA
ATOM     86  O   UNL A   1      32.504  34.564  27.991  1.00  0.00    -0.237 OA
ATOM     87  O   UNL A   1      32.154  35.874  30.047  1.00  0.00    -0.744 OA
ENDBRANCH  83  84
ENDBRANCH  51  76
BRANCH  63  88
ATOM     88  C   UNL A   1      39.850  34.274  37.017  1.00  0.00     0.058 A 
ATOM     89  C   UNL A   1      40.472  35.523  36.872  1.00  0.00     0.135 A 
ATOM     90  C   UNL A   1      39.064  34.060  38.161  1.00  0.00     0.135 A 
ATOM     91  F   UNL A   1      41.238  35.775  35.799  1.00  0.00    -0.206 F 
ATOM     92  C   UNL A   1      40.333  36.518  37.833  1.00  0.00     0.059 A 
ATOM     93  C   UNL A   1      38.889  35.049  39.122  1.00  0.00     0.059 A 
ATOM     94  F   UNL A   1      38.438  32.886  38.341  1.00  0.00    -0.206 F 
ATOM     95  C   UNL A   1      39.536  36.273  38.953  1.00  0.00     0.060 A 
BRANCH  95  96
ATOM     96  S   UNL A   1      39.327  37.588  40.172  1.00  0.00     0.124 S 
ATOM     97  O   UNL A   1      38.904  36.833  41.348  1.00  0.00    -0.237 OA
ATOM     98  O   UNL A   1      40.665  38.168  40.239  1.00  0.00    -0.237 OA
ATOM     99  O   UNL A   1      38.308  38.446  39.576  1.00  0.00    -0.744 OA
ENDBRANCH  95  96
ENDBRANCH  63  88
ENDBRANCH  37  38
ENDBRANCH  29  32
ENDBRANCH  27  28
ENDBRANCH  26  27
ENDBRANCH   1  26
TORSDOF 19
ENDMDL
MODEL 2
REMARK VINA RESULT:     -11.4      6.266      8.315
REMARK SMILES CC(=O)c1ccc(NC(=O)C[C@H](C(=O)NCCCCNC(=O)c2ccc(-c3c4nc(c(-c5c(F)cc(S(=O)(=O)[O-])cc5F)c5ccc([nH]5)c(-c5c(F)cc(S(=O)(=O)[O-])cc5F)c5nc(c(-c6c(F)cc(S(=O)(=O)[O-])cc6F)c6ccc3[nH]6)C=C5)C=C4)cc2)[NH+](C)C)cc1
REMARK SMILES IDX 17 1 16 2 15 3 13 4 14 5 12 7 11 8 9 9 8 10 10 12 7 13 4 14
REMARK SMILES IDX 5 15 93 16 6 17 92 18 2 19 1 20 3 21 89 22 90 23 91 24 18 26
REMARK SMILES IDX 19 27 20 28 21 29 22 31 23 32 24 33 88 34 25 35 87 36 26 37
REMARK SMILES IDX 27 38 28 39 81 40 29 41 86 42 80 43 82 44 30 45 85 46 79 47
REMARK SMILES IDX 78 48 31 50 65 51 44 52 64 53 45 54 48 55 63 56 83 57 46 58
REMARK SMILES IDX 47 59 62 61 84 62 49 63 32 64 33 65 42 66 34 67 35 68 41 69
REMARK SMILES IDX 43 70 36 71 37 72 38 73 39 74 40 75 66 76 67 77 76 78 68 79
REMARK SMILES IDX 69 80 75 81 77 82 70 83 71 84 72 85 73 86 74 87 50 88 51 89
REMARK SMILES IDX 60 90 52 91 53 92 59 93 61 94 54 95 55 96 56 97 57 98 58 99
REMARK H PARENT 15 6 8 11 89 25 20 30 82 49 48 60
REMARK Flexibility Score: inf
ROOT
ATOM      1  C   UNL A   1      37.395  21.207  24.928  1.00  0.00     0.023 C 
ENDROOT
BRANCH   1   2
ATOM      2  C   UNL A   1      35.957  20.851  25.298  1.00  0.00     0.116 C 
BRANCH   2   3
ATOM      3  N   UNL A   1      35.503  21.549  26.482  1.00  0.00    -0.351 N 
ATOM      4  C   UNL A   1      34.395  22.280  26.751  1.00  0.00     0.278 C 
ATOM      5  O   UNL A   1      34.234  22.565  27.950  1.00  0.00    -0.268 OA
ATOM      6  H   UNL A   1      36.123  21.477  27.244  1.00  0.00     0.163 HD
BRANCH   4   7
ATOM      7  C   UNL A   1      33.318  22.757  25.742  1.00  0.00     0.283 C 
BRANCH   7   8
ATOM      8  C   UNL A   1      32.722  24.129  26.146  1.00  0.00     0.175 C 
BRANCH   8   9
ATOM      9  C   UNL A   1      31.285  24.215  26.618  1.00  0.00     0.230 C 
ATOM     10  N   UNL A   1      30.334  25.035  26.094  1.00  0.00    -0.326 N 
ATOM     11  H   UNL A   1      29.436  24.862  26.457  1.00  0.00     0.169 HD
ATOM     12  O   UNL A   1      30.907  23.448  27.517  1.00  0.00    -0.274 OA
BRANCH  10  13
ATOM     13  C   UNL A   1      30.352  26.072  25.152  1.00  0.00     0.041 A 
ATOM     14  C   UNL A   1      30.232  28.382  23.560  1.00  0.00     0.017 A 
ATOM     15  C   UNL A   1      29.534  27.232  23.195  1.00  0.00     0.014 A 
ATOM     16  C   UNL A   1      31.099  28.341  24.653  1.00  0.00     0.014 A 
ATOM     17  C   UNL A   1      29.626  26.071  23.970  1.00  0.00     0.027 A 
ATOM     18  C   UNL A   1      31.157  27.184  25.442  1.00  0.00     0.027 A 
BRANCH  14  19
ATOM     19  C   UNL A   1      29.894  29.653  22.870  1.00  0.00     0.159 C 
ATOM     20  C   UNL A   1      29.208  30.746  23.638  1.00  0.00     0.093 C 
ATOM     21  O   UNL A   1      30.146  29.753  21.670  1.00  0.00    -0.295 OA
ENDBRANCH  14  19
ENDBRANCH  10  13
ENDBRANCH   8   9
ENDBRANCH   7   8
BRANCH   7  22
ATOM     22  N   UNL A   1      33.526  22.384  24.321  1.00  0.00    -0.329 N 
ATOM     23  C   UNL A   1      32.313  21.809  23.730  1.00  0.00     0.333 C 
ATOM     24  C   UNL A   1      34.026  23.428  23.437  1.00  0.00     0.333 C 
ATOM     25  H   UNL A   1      34.275  21.694  24.384  1.00  0.00     0.348 HD
ENDBRANCH   7  22
ENDBRANCH   4   7
ENDBRANCH   2   3
ENDBRANCH   1   2
BRANCH   1  26
ATOM     26  C   UNL A   1      38.406  20.092  25.156  1.00  0.00     0.023 C 
BRANCH  26  27
ATOM     27  C   UNL A   1      39.541  20.422  26.102  1.00  0.00     0.116 C 
BRANCH  27  28
ATOM     28  N   UNL A   1      40.562  19.388  26.150  1.00  0.00    -0.352 N 
ATOM     29  C   UNL A   1      41.926  19.534  26.267  1.00  0.00     0.251 C 
ATOM     30  H   UNL A   1      40.235  18.461  26.089  1.00  0.00     0.163 HD
ATOM     31  O   UNL A   1      42.661  18.564  26.160  1.00  0.00    -0.269 OA
BRANCH  29  32
ATOM     32  C   UNL A   1      42.488  20.887  26.483  1.00  0.00     0.039 A 
ATOM     33  C   UNL A   1      42.807  21.677  25.377  1.00  0.00     0.014 A 
ATOM     34  C   UNL A   1      42.659  21.387  27.777  1.00  0.00     0.014 A 
ATOM     35  C   UNL A   1      43.241  22.991  25.570  1.00  0.00     0.010 A 
ATOM     36  C   UNL A   1      42.982  22.723  27.964  1.00  0.00     0.010 A 
ATOM     37  C   UNL A   1      43.302  23.534  26.864  1.00  0.00    -0.014 A 
BRANCH  37  38
ATOM     38  C   UNL A   1      43.760  24.924  27.111  1.00  0.00     0.031 A 
ATOM     39  C   UNL A   1      45.210  25.270  26.891  1.00  0.00     0.074 A 
ATOM     40  C   UNL A   1      42.904  25.844  27.596  1.00  0.00     0.049 A 
ATOM     41  N   UNL A   1      45.844  26.382  27.150  1.00  0.00    -0.248 NA
ATOM     42  C   UNL A   1      46.069  24.206  26.342  1.00  0.00     0.031 C 
ATOM     43  C   UNL A   1      41.490  25.614  27.899  1.00  0.00     0.029 A 
ATOM     44  N   UNL A   1      43.104  27.159  27.933  1.00  0.00    -0.354 N 
ATOM     45  C   UNL A   1      47.176  26.141  26.827  1.00  0.00     0.074 A 
ATOM     46  C   UNL A   1      47.269  24.760  26.412  1.00  0.00     0.031 C 
ATOM     47  C   UNL A   1      40.946  26.756  28.354  1.00  0.00     0.029 A 
ATOM     48  C   UNL A   1      41.977  27.787  28.411  1.00  0.00     0.049 A 
ATOM     49  H   UNL A   1      43.973  27.612  27.842  1.00  0.00     0.167 HD
ATOM     50  C   UNL A   1      48.221  27.001  26.844  1.00  0.00     0.037 A 
ATOM     51  C   UNL A   1      41.801  29.048  28.850  1.00  0.00     0.037 A 
ATOM     52  C   UNL A   1      48.107  28.387  27.210  1.00  0.00     0.049 A 
ATOM     53  C   UNL A   1      42.971  29.996  28.834  1.00  0.00     0.074 A 
ATOM     54  C   UNL A   1      49.087  29.362  27.199  1.00  0.00     0.029 A 
ATOM     55  N   UNL A   1      46.939  28.995  27.645  1.00  0.00    -0.354 N 
ATOM     56  N   UNL A   1      44.212  29.768  28.471  1.00  0.00    -0.248 NA
ATOM     57  C   UNL A   1      42.720  31.373  29.278  1.00  0.00     0.031 C 
ATOM     58  C   UNL A   1      48.519  30.554  27.661  1.00  0.00     0.029 A 
ATOM     59  C   UNL A   1      47.174  30.331  27.915  1.00  0.00     0.049 A 
ATOM     60  H   UNL A   1      46.071  28.542  27.746  1.00  0.00     0.167 HD
ATOM     61  C   UNL A   1      44.879  30.979  28.612  1.00  0.00     0.074 A 
ATOM     62  C   UNL A   1      43.904  31.939  29.087  1.00  0.00     0.031 C 
ATOM     63  C   UNL A   1      46.181  31.272  28.370  1.00  0.00     0.037 A 
BRANCH  50  64
ATOM     64  C   UNL A   1      49.568  26.467  26.441  1.00  0.00     0.058 A 
ATOM     65  C   UNL A   1      50.448  25.900  27.379  1.00  0.00     0.135 A 
ATOM     66  C   UNL A   1      49.980  26.507  25.100  1.00  0.00     0.135 A 
ATOM     67  F   UNL A   1      50.113  25.853  28.678  1.00  0.00    -0.206 F 
ATOM     68  C   UNL A   1      51.701  25.425  27.007  1.00  0.00     0.059 A 
ATOM     69  C   UNL A   1      51.217  26.009  24.700  1.00  0.00     0.059 A 
ATOM     70  F   UNL A   1      49.181  27.038  24.161  1.00  0.00    -0.206 F 
ATOM     71  C   UNL A   1      52.077  25.485  25.664  1.00  0.00     0.060 A 
BRANCH  71  72
ATOM     72  S   UNL A   1      53.705  24.860  25.199  1.00  0.00     0.124 S 
ATOM     73  O   UNL A   1      53.443  23.428  25.082  1.00  0.00    -0.237 OA
ATOM     74  O   UNL A   1      53.963  25.560  23.945  1.00  0.00    -0.237 OA
ATOM     75  O   UNL A   1      54.554  25.252  26.319  1.00  0.00    -0.744 OA
ENDBRANCH  71  72
ENDBRANCH  50  64
BRANCH  51  76
ATOM     76  C   UNL A   1      40.460  29.496  29.310  1.00  0.00     0.058 A 
ATOM     77  C   UNL A   1      40.200  29.713  30.672  1.00  0.00     0.135 A 
ATOM     78  C   UNL A   1      39.416  29.731  28.402  1.00  0.00     0.135 A 
ATOM     79  F   UNL A   1      41.164  29.499  31.580  1.00  0.00    -0.206 F 
ATOM     80  C   UNL A   1      38.950  30.131  31.119  1.00  0.00     0.059 A 
ATOM     81  C   UNL A   1      38.164  30.171  28.823  1.00  0.00     0.059 A 
ATOM     82  F   UNL A   1      39.616  29.558  27.085  1.00  0.00    -0.206 F 
ATOM     83  C   UNL A   1      37.939  30.360  30.186  1.00  0.00     0.060 A 
BRANCH  83  84
ATOM     84  S   UNL A   1      36.337  30.953  30.772  1.00  0.00     0.124 S 
ATOM     85  O   UNL A   1      35.982  29.929  31.747  1.00  0.00    -0.237 OA
ATOM     86  O   UNL A   1      36.675  32.265  31.315  1.00  0.00    -0.237 OA
ATOM     87  O   UNL A   1      35.525  30.978  29.558  1.00  0.00    -0.744 OA
ENDBRANCH  83  84
ENDBRANCH  51  76
BRANCH  63  88
ATOM     88  C   UNL A   1      46.620  32.696  28.567  1.00  0.00     0.058 A 
ATOM     89  C   UNL A   1      46.539  33.643  27.535  1.00  0.00     0.135 A 
ATOM     90  C   UNL A   1      47.059  33.131  29.828  1.00  0.00     0.135 A 
ATOM     91  F   UNL A   1      46.131  33.275  26.311  1.00  0.00    -0.206 F 
ATOM     92  C   UNL A   1      46.898  34.970  27.741  1.00  0.00     0.059 A 
ATOM     93  C   UNL A   1      47.397  34.460  30.064  1.00  0.00     0.059 A 
ATOM     94  F   UNL A   1      47.142  32.267  30.851  1.00  0.00    -0.206 F 
ATOM     95  C   UNL A   1      47.322  35.370  29.010  1.00  0.00     0.060 A 
BRANCH  95  96
ATOM     96  S   UNL A   1      47.741  37.105  29.276  1.00  0.00     0.124 S 
ATOM     97  O   UNL A   1      48.118  37.526  27.931  1.00  0.00    -0.237 OA
ATOM     98  O   UNL A   1      46.489  37.656  29.785  1.00  0.00    -0.237 OA
ATOM     99  O   UNL A   1      48.832  37.047  30.245  1.00  0.00    -0.744 OA
ENDBRANCH  95  96
ENDBRANCH  63  88
ENDBRANCH  37  38
ENDBRANCH  29  32
ENDBRANCH  27  28
ENDBRANCH  26  27
ENDBRANCH   1  26
TORSDOF 19
ENDMDL
MODEL 3
REMARK VINA RESULT:     -11.2      6.313     10.899
REMARK SMILES CC(=O)c1ccc(NC(=O)C[C@H](C(=O)NCCCCNC(=O)c2ccc(-c3c4nc(c(-c5c(F)cc(S(=O)(=O)[O-])cc5F)c5ccc([nH]5)c(-c5c(F)cc(S(=O)(=O)[O-])cc5F)c5nc(c(-c6c(F)cc(S(=O)(=O)[O-])cc6F)c6ccc3[nH]6)C=C5)C=C4)cc2)[NH+](C)C)cc1
REMARK SMILES IDX 17 1 16 2 15 3 13 4 14 5 12 7 11 8 9 9 8 10 10 12 7 13 4 14
REMARK SMILES IDX 5 15 93 16 6 17 92 18 2 19 1 20 3 21 89 22 90 23 91 24 18 26
REMARK SMILES IDX 19 27 20 28 21 29 22 31 23 32 24 33 88 34 25 35 87 36 26 37
REMARK SMILES IDX 27 38 28 39 81 40 29 41 86 42 80 43 82 44 30 45 85 46 79 47
REMARK SMILES IDX 78 48 31 50 65 51 44 52 64 53 45 54 48 55 63 56 83 57 46 58
REMARK SMILES IDX 47 59 62 61 84 62 49 63 32 64 33 65 42 66 34 67 35 68 41 69
REMARK SMILES IDX 43 70 36 71 37 72 38 73 39 74 40 75 66 76 67 77 76 78 68 79
REMARK SMILES IDX 69 80 75 81 77 82 70 83 71 84 72 85 73 86 74 87 50 88 51 89
REMARK SMILES IDX 60 90 52 91 53 92 59 93 61 94 54 95 55 96 56 97 57 98 58 99
REMARK H PARENT 15 6 8 11 89 25 20 30 82 49 48 60
REMARK Flexibility Score: inf
ROOT
ATOM      1  C   UNL A   1      37.344  21.375  24.944  1.00  0.00     0.023 C 
ENDROOT
BRANCH   1   2
ATOM      2  C   UNL A   1      35.901  20.945  25.195  1.00  0.00     0.116 C 
BRANCH   2   3
ATOM      3  N   UNL A   1      35.391  21.431  26.459  1.00  0.00    -0.351 N 
ATOM      4  C   UNL A   1      34.291  22.145  26.794  1.00  0.00     0.278 C 
ATOM      5  O   UNL A   1      34.060  22.212  28.013  1.00  0.00    -0.268 OA
ATOM      6  H   UNL A   1      35.958  21.195  27.229  1.00  0.00     0.163 HD
BRANCH   4   7
ATOM      7  C   UNL A   1      33.296  22.843  25.830  1.00  0.00     0.283 C 
BRANCH   7   8
ATOM      8  C   UNL A   1      32.548  24.009  26.524  1.00  0.00     0.175 C 
BRANCH   8   9
ATOM      9  C   UNL A   1      31.040  23.957  26.661  1.00  0.00     0.230 C 
ATOM     10  N   UNL A   1      30.162  24.737  25.973  1.00  0.00    -0.326 N 
ATOM     11  H   UNL A   1      29.224  24.475  26.114  1.00  0.00     0.169 HD
ATOM     12  O   UNL A   1      30.539  23.109  27.415  1.00  0.00    -0.274 OA
BRANCH  10  13
ATOM     13  C   UNL A   1      30.299  25.830  25.107  1.00  0.00     0.041 A 
ATOM     14  C   UNL A   1      30.311  28.212  23.620  1.00  0.00     0.017 A 
ATOM     15  C   UNL A   1      29.907  27.012  23.036  1.00  0.00     0.014 A 
ATOM     16  C   UNL A   1      30.836  28.203  24.913  1.00  0.00     0.014 A 
ATOM     17  C   UNL A   1      29.938  25.822  23.768  1.00  0.00     0.027 A 
ATOM     18  C   UNL A   1      30.830  27.011  25.650  1.00  0.00     0.027 A 
BRANCH  14  19
ATOM     19  C   UNL A   1      30.008  29.476  22.902  1.00  0.00     0.159 C 
ATOM     20  C   UNL A   1      29.591  30.686  23.689  1.00  0.00     0.093 C 
ATOM     21  O   UNL A   1      30.061  29.479  21.674  1.00  0.00    -0.295 OA
ENDBRANCH  14  19
ENDBRANCH  10  13
ENDBRANCH   8   9
ENDBRANCH   7   8
BRANCH   7  22
ATOM     22  N   UNL A   1      33.690  22.910  24.400  1.00  0.00    -0.329 N 
ATOM     23  C   UNL A   1      32.753  22.174  23.546  1.00  0.00     0.333 C 
ATOM     24  C   UNL A   1      33.890  24.238  23.838  1.00  0.00     0.333 C 
ATOM     25  H   UNL A   1      34.612  22.472  24.408  1.00  0.00     0.348 HD
ENDBRANCH   7  22
ENDBRANCH   4   7
ENDBRANCH   2   3
ENDBRANCH   1   2
BRANCH   1  26
ATOM     26  C   UNL A   1      38.364  20.247  25.001  1.00  0.00     0.023 C 
BRANCH  26  27
ATOM     27  C   UNL A   1      39.490  20.433  25.997  1.00  0.00     0.116 C 
BRANCH  27  28
ATOM     28  N   UNL A   1      40.431  19.325  26.007  1.00  0.00    -0.352 N 
ATOM     29  C   UNL A   1      41.802  19.365  26.125  1.00  0.00     0.251 C 
ATOM     30  H   UNL A   1      40.036  18.427  25.916  1.00  0.00     0.163 HD
ATOM     31  O   UNL A   1      42.463  18.346  25.983  1.00  0.00    -0.269 OA
BRANCH  29  32
ATOM     32  C   UNL A   1      42.464  20.664  26.385  1.00  0.00     0.039 A 
ATOM     33  C   UNL A   1      42.873  21.449  25.305  1.00  0.00     0.014 A 
ATOM     34  C   UNL A   1      42.640  21.122  27.694  1.00  0.00     0.014 A 
ATOM     35  C   UNL A   1      43.405  22.719  25.538  1.00  0.00     0.010 A 
ATOM     36  C   UNL A   1      43.063  22.425  27.917  1.00  0.00     0.010 A 
ATOM     37  C   UNL A   1      43.475  23.229  26.844  1.00  0.00    -0.014 A 
BRANCH  37  38
ATOM     38  C   UNL A   1      44.034  24.573  27.133  1.00  0.00     0.031 A 
ATOM     39  C   UNL A   1      43.106  25.677  27.570  1.00  0.00     0.074 A 
ATOM     40  C   UNL A   1      45.344  24.820  26.936  1.00  0.00     0.049 A 
ATOM     41  N   UNL A   1      43.360  26.944  27.764  1.00  0.00    -0.248 NA
ATOM     42  C   UNL A   1      41.694  25.313  27.777  1.00  0.00     0.031 C 
ATOM     43  C   UNL A   1      46.331  23.847  26.465  1.00  0.00     0.029 A 
ATOM     44  N   UNL A   1      46.069  25.974  27.095  1.00  0.00    -0.354 N 
ATOM     45  C   UNL A   1      42.139  27.529  28.083  1.00  0.00     0.074 A 
ATOM     46  C   UNL A   1      41.135  26.492  27.996  1.00  0.00     0.031 C 
ATOM     47  C   UNL A   1      47.536  24.438  26.397  1.00  0.00     0.029 A 
ATOM     48  C   UNL A   1      47.401  25.839  26.782  1.00  0.00     0.049 A 
ATOM     49  H   UNL A   1      45.672  26.820  27.404  1.00  0.00     0.167 HD
ATOM     50  C   UNL A   1      41.880  28.806  28.447  1.00  0.00     0.037 A 
ATOM     51  C   UNL A   1      48.398  26.747  26.798  1.00  0.00     0.037 A 
ATOM     52  C   UNL A   1      42.894  29.818  28.580  1.00  0.00     0.049 A 
ATOM     53  C   UNL A   1      48.093  28.156  27.233  1.00  0.00     0.074 A 
ATOM     54  C   UNL A   1      42.753  31.126  29.005  1.00  0.00     0.029 A 
ATOM     55  N   UNL A   1      44.238  29.629  28.297  1.00  0.00    -0.354 N 
ATOM     56  N   UNL A   1      46.942  28.679  27.588  1.00  0.00    -0.248 NA
ATOM     57  C   UNL A   1      49.219  29.097  27.279  1.00  0.00     0.031 C 
ATOM     58  C   UNL A   1      44.008  31.740  28.946  1.00  0.00     0.029 A 
ATOM     59  C   UNL A   1      44.938  30.800  28.529  1.00  0.00     0.049 A 
ATOM     60  H   UNL A   1      44.636  28.787  27.978  1.00  0.00     0.167 HD
ATOM     61  C   UNL A   1      47.212  29.999  27.929  1.00  0.00     0.074 A 
ATOM     62  C   UNL A   1      48.636  30.193  27.746  1.00  0.00     0.031 C 
ATOM     63  C   UNL A   1      46.361  30.964  28.357  1.00  0.00     0.037 A 
BRANCH  50  64
ATOM     64  C   UNL A   1      40.451  29.171  28.740  1.00  0.00     0.058 A 
ATOM     65  C   UNL A   1      39.523  29.402  27.710  1.00  0.00     0.135 A 
ATOM     66  C   UNL A   1      39.997  29.277  30.064  1.00  0.00     0.135 A 
ATOM     67  F   UNL A   1      39.906  29.333  26.425  1.00  0.00    -0.206 F 
ATOM     68  C   UNL A   1      38.207  29.758  27.984  1.00  0.00     0.059 A 
ATOM     69  C   UNL A   1      38.677  29.602  30.361  1.00  0.00     0.059 A 
ATOM     70  F   UNL A   1      40.841  29.069  31.087  1.00  0.00    -0.206 F 
ATOM     71  C   UNL A   1      37.793  29.857  29.313  1.00  0.00     0.060 A 
BRANCH  71  72
ATOM     72  S   UNL A   1      36.080  30.315  29.649  1.00  0.00     0.124 S 
ATOM     73  O   UNL A   1      35.379  29.639  28.562  1.00  0.00    -0.237 OA
ATOM     74  O   UNL A   1      35.863  29.762  30.982  1.00  0.00    -0.237 OA
ATOM     75  O   UNL A   1      36.097  31.773  29.574  1.00  0.00    -0.744 OA
ENDBRANCH  71  72
ENDBRANCH  50  64
BRANCH  51  76
ATOM     76  C   UNL A   1      49.779  26.343  26.423  1.00  0.00     0.058 A 
ATOM     77  C   UNL A   1      50.668  25.840  27.384  1.00  0.00     0.135 A 
ATOM     78  C   UNL A   1      50.234  26.438  25.099  1.00  0.00     0.135 A 
ATOM     79  F   UNL A   1      50.281  25.734  28.665  1.00  0.00    -0.206 F 
ATOM     80  C   UNL A   1      51.964  25.459  27.051  1.00  0.00     0.059 A 
ATOM     81  C   UNL A   1      51.519  26.041  24.737  1.00  0.00     0.059 A 
ATOM     82  F   UNL A   1      49.417  26.894  24.136  1.00  0.00    -0.206 F 
ATOM     83  C   UNL A   1      52.379  25.561  25.723  1.00  0.00     0.060 A 
BRANCH  83  84
ATOM     84  S   UNL A   1      54.047  25.014  25.292  1.00  0.00     0.124 S 
ATOM     85  O   UNL A   1      54.374  25.909  24.188  1.00  0.00    -0.237 OA
ATOM     86  O   UNL A   1      54.775  25.239  26.536  1.00  0.00    -0.237 OA
ATOM     87  O   UNL A   1      53.855  23.611  24.933  1.00  0.00    -0.744 OA
ENDBRANCH  83  84
ENDBRANCH  51  76
BRANCH  63  88
ATOM     88  C   UNL A   1      46.947  32.303  28.703  1.00  0.00     0.058 A 
ATOM     89  C   UNL A   1      47.445  32.582  29.984  1.00  0.00     0.135 A 
ATOM     90  C   UNL A   1      47.075  33.294  27.716  1.00  0.00     0.135 A 
ATOM     91  F   UNL A   1      47.341  31.670  30.963  1.00  0.00    -0.206 F 
ATOM     92  C   UNL A   1      48.035  33.806  30.281  1.00  0.00     0.059 A 
ATOM     93  C   UNL A   1      47.686  34.515  27.984  1.00  0.00     0.059 A 
ATOM     94  F   UNL A   1      46.626  33.072  26.471  1.00  0.00    -0.206 F 
ATOM     95  C   UNL A   1      48.153  34.765  29.274  1.00  0.00     0.060 A 
BRANCH  95  96
ATOM     96  S   UNL A   1      48.960  36.332  29.660  1.00  0.00     0.124 S 
ATOM     97  O   UNL A   1      49.412  36.100  31.028  1.00  0.00    -0.237 OA
ATOM     98  O   UNL A   1      50.011  36.401  28.649  1.00  0.00    -0.237 OA
ATOM     99  O   UNL A   1      47.890  37.313  29.509  1.00  0.00    -0.744 OA
ENDBRANCH  95  96
ENDBRANCH  63  88
ENDBRANCH  37  38
ENDBRANCH  29  32
ENDBRANCH  27  28
ENDBRANCH  26  27
ENDBRANCH   1  26
TORSDOF 19
ENDMDL
