MODEL 1
REMARK VINA RESULT:     -12.8      0.000      0.000
REMARK SMILES CC[C@](C)(NC(=O)N(C)Cc1cccc(C)c1)C(=O)NCCCCNC(=O)c1ccc(-c2c3nc(c(-c4c(F)cc(S(=O)(=O)[O-])cc4F)c4ccc([nH]4)c(-c4c(F)cc(S(=O)(=O)[O-])cc4F)c4nc(c(-c5c(F)cc(S(=O)(=O)[O-])cc5F)c5ccc2[nH]5)C=C4)C=C3)cc1
REMARK SMILES IDX 22 1 21 2 20 3 18 4 19 5 3 7 4 8 2 9 1 10 5 11 6 12 7 14
REMARK SMILES IDX 8 15 9 16 10 17 11 18 12 19 17 20 13 21 15 22 14 23 16 24
REMARK SMILES IDX 23 25 24 26 25 27 26 28 27 30 28 31 29 32 93 33 30 34 92 35
REMARK SMILES IDX 31 36 32 37 33 38 86 39 34 40 91 41 85 42 87 43 35 44 90 45
REMARK SMILES IDX 84 46 83 47 36 49 70 50 49 51 69 52 50 53 53 54 68 55 88 56
REMARK SMILES IDX 51 57 52 58 67 60 89 61 54 62 37 63 38 64 47 65 39 66 40 67
REMARK SMILES IDX 46 68 48 69 41 70 42 71 43 72 44 73 45 74 71 75 72 76 81 77
REMARK SMILES IDX 73 78 74 79 80 80 82 81 75 82 76 83 77 84 78 85 79 86 55 87
REMARK SMILES IDX 56 88 65 89 57 90 58 91 64 92 66 93 59 94 60 95 61 96 62 97
REMARK SMILES IDX 63 98
REMARK H PARENT 20 6 5 13 25 29 87 48 53 59
REMARK Flexibility Score: inf
ROOT
ATOM      1  C   UNL A   1      32.272  30.631  26.784  1.00  0.00     0.023 C 
ENDROOT
BRANCH   1   2
ATOM      2  C   UNL A   1      31.925  29.959  25.458  1.00  0.00     0.116 C 
BRANCH   2   3
ATOM      3  N   UNL A   1      33.020  29.597  24.561  1.00  0.00    -0.354 N 
ATOM      4  C   UNL A   1      33.455  28.388  24.067  1.00  0.00     0.245 C 
ATOM      5  O   UNL A   1      34.134  28.428  23.033  1.00  0.00    -0.272 OA
ATOM      6  H   UNL A   1      33.549  30.367  24.250  1.00  0.00     0.163 HD
BRANCH   4   7
ATOM      7  C   UNL A   1      33.029  27.005  24.675  1.00  0.00     0.117 C 
ATOM      8  C   UNL A   1      33.604  26.702  26.077  1.00  0.00     0.045 C 
BRANCH   7   9
ATOM      9  C   UNL A   1      33.555  25.914  23.660  1.00  0.00     0.035 C 
ATOM     10  C   UNL A   1      34.530  24.858  24.181  1.00  0.00     0.007 C 
ENDBRANCH   7   9
BRANCH   7  11
ATOM     11  N   UNL A   1      31.555  26.936  24.783  1.00  0.00    -0.324 N 
ATOM     12  C   UNL A   1      30.605  25.991  24.614  1.00  0.00     0.318 C 
ATOM     13  H   UNL A   1      31.168  27.802  25.046  1.00  0.00     0.166 HD
ATOM     14  O   UNL A   1      29.445  26.411  24.701  1.00  0.00    -0.249 OA
BRANCH  12  15
ATOM     15  N   UNL A   1      30.879  24.657  24.494  1.00  0.00    -0.324 N 
ATOM     16  C   UNL A   1      30.899  23.886  23.255  1.00  0.00     0.149 C 
BRANCH  15  17
ATOM     17  C   UNL A   1      30.732  23.845  25.711  1.00  0.00     0.156 C 
BRANCH  17  18
ATOM     18  C   UNL A   1      31.958  23.031  26.073  1.00  0.00    -0.028 A 
ATOM     19  C   UNL A   1      32.782  23.462  27.122  1.00  0.00     0.005 A 
ATOM     20  C   UNL A   1      32.323  21.872  25.373  1.00  0.00     0.009 A 
ATOM     21  C   UNL A   1      33.925  22.742  27.459  1.00  0.00     0.001 A 
ATOM     22  C   UNL A   1      33.463  21.143  25.693  1.00  0.00    -0.051 A 
ATOM     23  C   UNL A   1      34.239  21.573  26.768  1.00  0.00     0.003 A 
ATOM     24  C   UNL A   1      33.863  19.996  24.815  1.00  0.00     0.044 C 
ENDBRANCH  17  18
ENDBRANCH  15  17
ENDBRANCH  12  15
ENDBRANCH   7  11
ENDBRANCH   4   7
ENDBRANCH   2   3
ENDBRANCH   1   2
BRANCH   1  25
ATOM     25  C   UNL A   1      33.685  31.138  27.121  1.00  0.00     0.023 C 
BRANCH  25  26
ATOM     26  C   UNL A   1      34.477  30.625  28.328  1.00  0.00     0.116 C 
BRANCH  26  27
ATOM     27  N   UNL A   1      35.761  31.351  28.371  1.00  0.00    -0.352 N 
ATOM     28  C   UNL A   1      36.920  31.071  29.058  1.00  0.00     0.251 C 
ATOM     29  H   UNL A   1      35.793  32.167  27.821  1.00  0.00     0.163 HD
ATOM     30  O   UNL A   1      37.536  31.890  29.734  1.00  0.00    -0.269 OA
BRANCH  28  31
ATOM     31  C   UNL A   1      37.412  29.694  28.945  1.00  0.00     0.039 A 
ATOM     32  C   UNL A   1      37.571  28.933  30.101  1.00  0.00     0.014 A 
ATOM     33  C   UNL A   1      38.023  29.330  27.766  1.00  0.00     0.014 A 
ATOM     34  C   UNL A   1      38.619  28.035  30.175  1.00  0.00     0.010 A 
ATOM     35  C   UNL A   1      39.122  28.519  27.858  1.00  0.00     0.010 A 
ATOM     36  C   UNL A   1      39.488  27.987  29.099  1.00  0.00    -0.014 A 
BRANCH  36  37
ATOM     37  C   UNL A   1      40.861  27.530  29.193  1.00  0.00     0.031 A 
ATOM     38  C   UNL A   1      41.159  26.161  28.747  1.00  0.00     0.074 A 
ATOM     39  C   UNL A   1      41.827  28.421  29.519  1.00  0.00     0.049 A 
ATOM     40  N   UNL A   1      42.287  25.580  28.924  1.00  0.00    -0.248 NA
ATOM     41  C   UNL A   1      40.175  25.307  28.087  1.00  0.00     0.031 C 
ATOM     42  C   UNL A   1      43.275  28.278  29.393  1.00  0.00     0.029 A 
ATOM     43  N   UNL A   1      41.670  29.613  30.244  1.00  0.00    -0.354 N 
ATOM     44  C   UNL A   1      42.273  24.394  28.228  1.00  0.00     0.074 A 
ATOM     45  C   UNL A   1      40.919  24.246  27.769  1.00  0.00     0.031 C 
ATOM     46  C   UNL A   1      43.873  29.125  30.249  1.00  0.00     0.029 A 
ATOM     47  C   UNL A   1      42.823  29.743  31.043  1.00  0.00     0.049 A 
ATOM     48  H   UNL A   1      40.907  30.234  30.203  1.00  0.00     0.167 HD
ATOM     49  C   UNL A   1      43.463  23.752  28.071  1.00  0.00     0.037 A 
ATOM     50  C   UNL A   1      42.722  29.645  32.402  1.00  0.00     0.037 A 
ATOM     51  C   UNL A   1      44.436  24.316  29.014  1.00  0.00     0.049 A 
ATOM     52  C   UNL A   1      43.424  28.415  32.951  1.00  0.00     0.074 A 
ATOM     53  C   UNL A   1      45.452  25.247  28.892  1.00  0.00     0.029 A 
ATOM     54  N   UNL A   1      44.167  24.203  30.378  1.00  0.00    -0.354 N 
ATOM     55  N   UNL A   1      43.723  27.357  32.242  1.00  0.00    -0.248 NA
ATOM     56  C   UNL A   1      43.888  28.307  34.330  1.00  0.00     0.031 C 
ATOM     57  C   UNL A   1      45.719  25.767  30.191  1.00  0.00     0.029 A 
ATOM     58  C   UNL A   1      44.900  25.123  31.105  1.00  0.00     0.049 A 
ATOM     59  H   UNL A   1      43.541  23.555  30.771  1.00  0.00     0.167 HD
ATOM     60  C   UNL A   1      44.370  26.434  33.030  1.00  0.00     0.074 A 
ATOM     61  C   UNL A   1      44.473  27.095  34.319  1.00  0.00     0.031 C 
ATOM     62  C   UNL A   1      44.763  25.208  32.560  1.00  0.00     0.037 A 
BRANCH  49  63
ATOM     63  C   UNL A   1      43.812  22.765  26.972  1.00  0.00     0.058 A 
ATOM     64  C   UNL A   1      43.129  21.530  26.899  1.00  0.00     0.135 A 
ATOM     65  C   UNL A   1      44.867  22.893  26.041  1.00  0.00     0.135 A 
ATOM     66  F   UNL A   1      42.100  21.254  27.713  1.00  0.00    -0.206 F 
ATOM     67  C   UNL A   1      43.486  20.506  26.016  1.00  0.00     0.059 A 
ATOM     68  C   UNL A   1      45.235  21.890  25.141  1.00  0.00     0.059 A 
ATOM     69  F   UNL A   1      45.625  23.988  25.954  1.00  0.00    -0.206 F 
ATOM     70  C   UNL A   1      44.549  20.690  25.144  1.00  0.00     0.060 A 
BRANCH  70  71
ATOM     71  S   UNL A   1      45.027  19.357  24.034  1.00  0.00     0.124 S 
ATOM     72  O   UNL A   1      46.483  19.416  24.097  1.00  0.00    -0.237 OA
ATOM     73  O   UNL A   1      44.406  18.197  24.664  1.00  0.00    -0.237 OA
ATOM     74  O   UNL A   1      44.445  19.754  22.753  1.00  0.00    -0.744 OA
ENDBRANCH  70  71
ENDBRANCH  49  63
BRANCH  50  75
ATOM     75  C   UNL A   1      41.483  30.294  32.934  1.00  0.00     0.058 A 
ATOM     76  C   UNL A   1      40.412  29.451  33.302  1.00  0.00     0.135 A 
ATOM     77  C   UNL A   1      41.476  31.589  33.467  1.00  0.00     0.135 A 
ATOM     78  F   UNL A   1      40.350  28.199  32.819  1.00  0.00    -0.206 F 
ATOM     79  C   UNL A   1      39.465  29.821  34.258  1.00  0.00     0.059 A 
ATOM     80  C   UNL A   1      40.527  31.986  34.424  1.00  0.00     0.059 A 
ATOM     81  F   UNL A   1      42.467  32.443  33.169  1.00  0.00    -0.206 F 
ATOM     82  C   UNL A   1      39.553  31.078  34.848  1.00  0.00     0.060 A 
BRANCH  82  83
ATOM     83  S   UNL A   1      38.471  31.441  36.262  1.00  0.00     0.124 S 
ATOM     84  O   UNL A   1      38.113  30.102  36.712  1.00  0.00    -0.237 OA
ATOM     85  O   UNL A   1      39.352  32.193  37.155  1.00  0.00    -0.237 OA
ATOM     86  O   UNL A   1      37.387  32.218  35.675  1.00  0.00    -0.744 OA
ENDBRANCH  82  83
ENDBRANCH  50  75
BRANCH  62  87
ATOM     87  C   UNL A   1      45.152  24.000  33.410  1.00  0.00     0.058 A 
ATOM     88  C   UNL A   1      46.402  23.829  34.033  1.00  0.00     0.135 A 
ATOM     89  C   UNL A   1      44.194  23.003  33.738  1.00  0.00     0.135 A 
ATOM     90  F   UNL A   1      47.363  24.758  33.958  1.00  0.00    -0.206 F 
ATOM     91  C   UNL A   1      46.713  22.714  34.816  1.00  0.00     0.059 A 
ATOM     92  C   UNL A   1      44.458  21.925  34.582  1.00  0.00     0.059 A 
ATOM     93  F   UNL A   1      42.941  23.038  33.263  1.00  0.00    -0.206 F 
ATOM     94  C   UNL A   1      45.737  21.763  35.082  1.00  0.00     0.060 A 
BRANCH  94  95
ATOM     95  S   UNL A   1      46.139  20.343  36.111  1.00  0.00     0.124 S 
ATOM     96  O   UNL A   1      47.587  20.268  35.947  1.00  0.00    -0.237 OA
ATOM     97  O   UNL A   1      45.674  20.765  37.429  1.00  0.00    -0.237 OA
ATOM     98  O   UNL A   1      45.377  19.257  35.504  1.00  0.00    -0.744 OA
ENDBRANCH  94  95
ENDBRANCH  62  87
ENDBRANCH  36  37
ENDBRANCH  28  31
ENDBRANCH  26  27
ENDBRANCH  25  26
ENDBRANCH   1  25
TORSDOF 19
ENDMDL
MODEL 2
REMARK VINA RESULT:     -12.4      1.161      2.159
REMARK SMILES CC[C@](C)(NC(=O)N(C)Cc1cccc(C)c1)C(=O)NCCCCNC(=O)c1ccc(-c2c3nc(c(-c4c(F)cc(S(=O)(=O)[O-])cc4F)c4ccc([nH]4)c(-c4c(F)cc(S(=O)(=O)[O-])cc4F)c4nc(c(-c5c(F)cc(S(=O)(=O)[O-])cc5F)c5ccc2[nH]5)C=C4)C=C3)cc1
REMARK SMILES IDX 22 1 21 2 20 3 18 4 19 5 3 7 4 8 2 9 1 10 5 11 6 12 7 14
REMARK SMILES IDX 8 15 9 16 10 17 11 18 12 19 17 20 13 21 15 22 14 23 16 24
REMARK SMILES IDX 23 25 24 26 25 27 26 28 27 30 28 31 29 32 93 33 30 34 92 35
REMARK SMILES IDX 31 36 32 37 33 38 86 39 34 40 91 41 85 42 87 43 35 44 90 45
REMARK SMILES IDX 84 46 83 47 36 49 70 50 49 51 69 52 50 53 53 54 68 55 88 56
REMARK SMILES IDX 51 57 52 58 67 60 89 61 54 62 37 63 38 64 47 65 39 66 40 67
REMARK SMILES IDX 46 68 48 69 41 70 42 71 43 72 44 73 45 74 71 75 72 76 81 77
REMARK SMILES IDX 73 78 74 79 80 80 82 81 75 82 76 83 77 84 78 85 79 86 55 87
REMARK SMILES IDX 56 88 65 89 57 90 58 91 64 92 66 93 59 94 60 95 61 96 62 97
REMARK SMILES IDX 63 98
REMARK H PARENT 20 6 5 13 25 29 87 48 53 59
REMARK Flexibility Score: inf
ROOT
ATOM      1  C   UNL A   1      33.151  30.115  26.700  1.00  0.00     0.023 C 
ENDROOT
BRANCH   1   2
ATOM      2  C   UNL A   1      32.739  29.046  25.690  1.00  0.00     0.116 C 
BRANCH   2   3
ATOM      3  N   UNL A   1      31.791  28.021  26.119  1.00  0.00    -0.354 N 
ATOM      4  C   UNL A   1      30.962  27.173  25.421  1.00  0.00     0.245 C 
ATOM      5  O   UNL A   1      30.581  26.158  26.019  1.00  0.00    -0.272 OA
ATOM      6  H   UNL A   1      31.732  27.918  27.097  1.00  0.00     0.163 HD
BRANCH   4   7
ATOM      7  C   UNL A   1      30.598  27.376  23.907  1.00  0.00     0.117 C 
ATOM      8  C   UNL A   1      30.112  28.794  23.535  1.00  0.00     0.045 C 
BRANCH   7   9
ATOM      9  C   UNL A   1      29.441  26.343  23.606  1.00  0.00     0.035 C 
ATOM     10  C   UNL A   1      28.002  26.771  23.897  1.00  0.00     0.007 C 
ENDBRANCH   7   9
BRANCH   7  11
ATOM     11  N   UNL A   1      31.778  27.083  23.063  1.00  0.00    -0.324 N 
ATOM     12  C   UNL A   1      32.631  26.049  22.900  1.00  0.00     0.318 C 
ATOM     13  H   UNL A   1      31.996  27.835  22.468  1.00  0.00     0.166 HD
ATOM     14  O   UNL A   1      33.577  26.282  22.138  1.00  0.00    -0.249 OA
BRANCH  12  15
ATOM     15  N   UNL A   1      32.412  24.800  23.412  1.00  0.00    -0.324 N 
ATOM     16  C   UNL A   1      31.290  23.922  23.100  1.00  0.00     0.149 C 
BRANCH  15  17
ATOM     17  C   UNL A   1      33.104  24.476  24.668  1.00  0.00     0.156 C 
BRANCH  17  18
ATOM     18  C   UNL A   1      34.523  23.973  24.491  1.00  0.00    -0.028 A 
ATOM     19  C   UNL A   1      34.846  23.220  23.354  1.00  0.00     0.005 A 
ATOM     20  C   UNL A   1      35.526  24.203  25.443  1.00  0.00     0.009 A 
ATOM     21  C   UNL A   1      36.137  22.729  23.179  1.00  0.00     0.001 A 
ATOM     22  C   UNL A   1      36.819  23.717  25.288  1.00  0.00    -0.051 A 
ATOM     23  C   UNL A   1      37.120  23.008  24.128  1.00  0.00     0.003 A 
ATOM     24  C   UNL A   1      37.798  23.885  26.411  1.00  0.00     0.044 C 
ENDBRANCH  17  18
ENDBRANCH  15  17
ENDBRANCH  12  15
ENDBRANCH   7  11
ENDBRANCH   4   7
ENDBRANCH   2   3
ENDBRANCH   1   2
BRANCH   1  25
ATOM     25  C   UNL A   1      34.580  30.236  27.256  1.00  0.00     0.023 C 
BRANCH  25  26
ATOM     26  C   UNL A   1      34.886  30.901  28.602  1.00  0.00     0.116 C 
BRANCH  26  27
ATOM     27  N   UNL A   1      36.170  31.616  28.475  1.00  0.00    -0.352 N 
ATOM     28  C   UNL A   1      37.408  31.323  28.999  1.00  0.00     0.251 C 
ATOM     29  H   UNL A   1      36.135  32.434  27.928  1.00  0.00     0.163 HD
ATOM     30  O   UNL A   1      38.117  32.135  29.588  1.00  0.00    -0.269 OA
BRANCH  28  31
ATOM     31  C   UNL A   1      37.868  29.943  28.817  1.00  0.00     0.039 A 
ATOM     32  C   UNL A   1      37.908  29.089  29.917  1.00  0.00     0.014 A 
ATOM     33  C   UNL A   1      38.566  29.650  27.666  1.00  0.00     0.014 A 
ATOM     34  C   UNL A   1      38.920  28.153  30.004  1.00  0.00     0.010 A 
ATOM     35  C   UNL A   1      39.630  28.796  27.782  1.00  0.00     0.010 A 
ATOM     36  C   UNL A   1      39.875  28.157  29.002  1.00  0.00    -0.014 A 
BRANCH  36  37
ATOM     37  C   UNL A   1      41.222  27.647  29.170  1.00  0.00     0.031 A 
ATOM     38  C   UNL A   1      41.493  26.271  28.729  1.00  0.00     0.074 A 
ATOM     39  C   UNL A   1      42.200  28.497  29.561  1.00  0.00     0.049 A 
ATOM     40  N   UNL A   1      42.585  25.646  28.965  1.00  0.00    -0.248 NA
ATOM     41  C   UNL A   1      40.517  25.461  28.004  1.00  0.00     0.031 C 
ATOM     42  C   UNL A   1      43.647  28.300  29.518  1.00  0.00     0.029 A 
ATOM     43  N   UNL A   1      42.047  29.689  30.288  1.00  0.00    -0.354 N 
ATOM     44  C   UNL A   1      42.567  24.466  28.257  1.00  0.00     0.074 A 
ATOM     45  C   UNL A   1      41.238  24.375  27.719  1.00  0.00     0.031 C 
ATOM     46  C   UNL A   1      44.226  29.116  30.415  1.00  0.00     0.029 A 
ATOM     47  C   UNL A   1      43.156  29.768  31.154  1.00  0.00     0.049 A 
ATOM     48  H   UNL A   1      41.312  30.339  30.209  1.00  0.00     0.167 HD
ATOM     49  C   UNL A   1      43.739  23.780  28.163  1.00  0.00     0.037 A 
ATOM     50  C   UNL A   1      42.972  29.663  32.503  1.00  0.00     0.037 A 
ATOM     51  C   UNL A   1      44.675  24.299  29.166  1.00  0.00     0.049 A 
ATOM     52  C   UNL A   1      43.594  28.402  33.080  1.00  0.00     0.074 A 
ATOM     53  C   UNL A   1      45.732  25.191  29.113  1.00  0.00     0.029 A 
ATOM     54  N   UNL A   1      44.324  24.186  30.511  1.00  0.00    -0.354 N 
ATOM     55  N   UNL A   1      43.892  27.339  32.379  1.00  0.00    -0.248 NA
ATOM     56  C   UNL A   1      43.972  28.265  34.482  1.00  0.00     0.031 C 
ATOM     57  C   UNL A   1      45.943  25.689  30.431  1.00  0.00     0.029 A 
ATOM     58  C   UNL A   1      45.047  25.070  31.289  1.00  0.00     0.049 A 
ATOM     59  H   UNL A   1      43.651  23.558  30.860  1.00  0.00     0.167 HD
ATOM     60  C   UNL A   1      44.456  26.386  33.194  1.00  0.00     0.074 A 
ATOM     61  C   UNL A   1      44.510  27.031  34.492  1.00  0.00     0.031 C 
ATOM     62  C   UNL A   1      44.830  25.149  32.734  1.00  0.00     0.037 A 
BRANCH  49  63
ATOM     63  C   UNL A   1      44.114  22.790  27.076  1.00  0.00     0.058 A 
ATOM     64  C   UNL A   1      43.243  21.716  26.779  1.00  0.00     0.135 A 
ATOM     65  C   UNL A   1      45.339  22.746  26.374  1.00  0.00     0.135 A 
ATOM     66  F   UNL A   1      42.039  21.614  27.359  1.00  0.00    -0.206 F 
ATOM     67  C   UNL A   1      43.575  20.679  25.901  1.00  0.00     0.059 A 
ATOM     68  C   UNL A   1      45.689  21.728  25.484  1.00  0.00     0.059 A 
ATOM     69  F   UNL A   1      46.287  23.673  26.518  1.00  0.00    -0.206 F 
ATOM     70  C   UNL A   1      44.807  20.686  25.263  1.00  0.00     0.060 A 
BRANCH  70  71
ATOM     71  S   UNL A   1      45.243  19.331  24.162  1.00  0.00     0.124 S 
ATOM     72  O   UNL A   1      44.886  18.164  24.961  1.00  0.00    -0.237 OA
ATOM     73  O   UNL A   1      44.398  19.595  23.003  1.00  0.00    -0.237 OA
ATOM     74  O   UNL A   1      46.676  19.518  23.942  1.00  0.00    -0.744 OA
ENDBRANCH  70  71
ENDBRANCH  49  63
BRANCH  50  75
ATOM     75  C   UNL A   1      41.730  30.354  32.969  1.00  0.00     0.058 A 
ATOM     76  C   UNL A   1      40.628  29.548  33.326  1.00  0.00     0.135 A 
ATOM     77  C   UNL A   1      41.733  31.667  33.459  1.00  0.00     0.135 A 
ATOM     78  F   UNL A   1      40.555  28.282  32.882  1.00  0.00    -0.206 F 
ATOM     79  C   UNL A   1      39.657  29.969  34.235  1.00  0.00     0.059 A 
ATOM     80  C   UNL A   1      40.760  32.115  34.368  1.00  0.00     0.059 A 
ATOM     81  F   UNL A   1      42.753  32.489  33.170  1.00  0.00    -0.206 F 
ATOM     82  C   UNL A   1      39.752  31.243  34.786  1.00  0.00     0.060 A 
BRANCH  82  83
ATOM     83  S   UNL A   1      38.629  31.675  36.148  1.00  0.00     0.124 S 
ATOM     84  O   UNL A   1      37.885  30.435  36.324  1.00  0.00    -0.237 OA
ATOM     85  O   UNL A   1      39.553  32.016  37.230  1.00  0.00    -0.237 OA
ATOM     86  O   UNL A   1      37.864  32.797  35.621  1.00  0.00    -0.744 OA
ENDBRANCH  82  83
ENDBRANCH  50  75
BRANCH  62  87
ATOM     87  C   UNL A   1      45.122  23.920  33.593  1.00  0.00     0.058 A 
ATOM     88  C   UNL A   1      44.227  22.852  33.794  1.00  0.00     0.135 A 
ATOM     89  C   UNL A   1      46.410  23.716  34.156  1.00  0.00     0.135 A 
ATOM     90  F   UNL A   1      43.029  22.812  33.198  1.00  0.00    -0.206 F 
ATOM     91  C   UNL A   1      44.539  21.738  34.576  1.00  0.00     0.059 A 
ATOM     92  C   UNL A   1      46.769  22.575  34.872  1.00  0.00     0.059 A 
ATOM     93  F   UNL A   1      47.394  24.616  34.022  1.00  0.00    -0.206 F 
ATOM     94  C   UNL A   1      45.812  21.609  35.117  1.00  0.00     0.060 A 
BRANCH  94  95
ATOM     95  S   UNL A   1      46.213  20.158  36.104  1.00  0.00     0.124 S 
ATOM     96  O   UNL A   1      45.376  19.141  35.476  1.00  0.00    -0.237 OA
ATOM     97  O   UNL A   1      47.650  20.016  35.887  1.00  0.00    -0.237 OA
ATOM     98  O   UNL A   1      45.827  20.549  37.455  1.00  0.00    -0.744 OA
ENDBRANCH  94  95
ENDBRANCH  62  87
ENDBRANCH  36  37
ENDBRANCH  28  31
ENDBRANCH  26  27
ENDBRANCH  25  26
ENDBRANCH   1  25
TORSDOF 19
ENDMDL
MODEL 3
REMARK VINA RESULT:     -12.4      4.976     11.527
REMARK SMILES CC[C@](C)(NC(=O)N(C)Cc1cccc(C)c1)C(=O)NCCCCNC(=O)c1ccc(-c2c3nc(c(-c4c(F)cc(S(=O)(=O)[O-])cc4F)c4ccc([nH]4)c(-c4c(F)cc(S(=O)(=O)[O-])cc4F)c4nc(c(-c5c(F)cc(S(=O)(=O)[O-])cc5F)c5ccc2[nH]5)C=C4)C=C3)cc1
REMARK SMILES IDX 22 1 21 2 20 3 18 4 19 5 3 7 4 8 2 9 1 10 5 11 6 12 7 14
REMARK SMILES IDX 8 15 9 16 10 17 11 18 12 19 17 20 13 21 15 22 14 23 16 24
REMARK SMILES IDX 23 25 24 26 25 27 26 28 27 30 28 31 29 32 93 33 30 34 92 35
REMARK SMILES IDX 31 36 32 37 33 38 86 39 34 40 91 41 85 42 87 43 35 44 90 45
REMARK SMILES IDX 84 46 83 47 36 49 70 50 49 51 69 52 50 53 53 54 68 55 88 56
REMARK SMILES IDX 51 57 52 58 67 60 89 61 54 62 37 63 38 64 47 65 39 66 40 67
REMARK SMILES IDX 46 68 48 69 41 70 42 71 43 72 44 73 45 74 71 75 72 76 81 77
REMARK SMILES IDX 73 78 74 79 80 80 82 81 75 82 76 83 77 84 78 85 79 86 55 87
REMARK SMILES IDX 56 88 65 89 57 90 58 91 64 92 66 93 59 94 60 95 61 96 62 97
REMARK SMILES IDX 63 98
REMARK H PARENT 20 6 5 13 25 29 87 48 53 59
REMARK Flexibility Score: inf
ROOT
ATOM      1  C   UNL A   1      38.311  20.681  25.323  1.00  0.00     0.023 C 
ENDROOT
BRANCH   1   2
ATOM      2  C   UNL A   1      36.955  21.244  24.905  1.00  0.00     0.116 C 
BRANCH   2   3
ATOM      3  N   UNL A   1      35.752  20.548  25.354  1.00  0.00    -0.354 N 
ATOM      4  C   UNL A   1      34.420  20.897  25.347  1.00  0.00     0.245 C 
ATOM      5  O   UNL A   1      33.606  19.966  25.414  1.00  0.00    -0.272 OA
ATOM      6  H   UNL A   1      35.927  19.657  25.736  1.00  0.00     0.163 HD
BRANCH   4   7
ATOM      7  C   UNL A   1      33.915  22.368  25.136  1.00  0.00     0.117 C 
ATOM      8  C   UNL A   1      34.695  23.446  25.922  1.00  0.00     0.045 C 
BRANCH   7   9
ATOM      9  C   UNL A   1      32.410  22.375  25.617  1.00  0.00     0.035 C 
ATOM     10  C   UNL A   1      32.113  22.835  27.044  1.00  0.00     0.007 C 
ENDBRANCH   7   9
BRANCH   7  11
ATOM     11  N   UNL A   1      33.996  22.727  23.703  1.00  0.00    -0.324 N 
ATOM     12  C   UNL A   1      33.368  23.586  22.872  1.00  0.00     0.318 C 
ATOM     13  H   UNL A   1      34.687  22.204  23.235  1.00  0.00     0.166 HD
ATOM     14  O   UNL A   1      33.686  23.473  21.683  1.00  0.00    -0.249 OA
BRANCH  12  15
ATOM     15  N   UNL A   1      32.551  24.595  23.305  1.00  0.00    -0.324 N 
ATOM     16  C   UNL A   1      31.093  24.593  23.287  1.00  0.00     0.149 C 
BRANCH  15  17
ATOM     17  C   UNL A   1      33.156  25.931  23.404  1.00  0.00     0.156 C 
BRANCH  17  18
ATOM     18  C   UNL A   1      32.665  26.756  24.576  1.00  0.00    -0.028 A 
ATOM     19  C   UNL A   1      32.490  26.140  25.823  1.00  0.00     0.005 A 
ATOM     20  C   UNL A   1      32.343  28.115  24.455  1.00  0.00     0.009 A 
ATOM     21  C   UNL A   1      32.020  26.873  26.909  1.00  0.00     0.001 A 
ATOM     22  C   UNL A   1      31.869  28.862  25.528  1.00  0.00    -0.051 A 
ATOM     23  C   UNL A   1      31.745  28.232  26.764  1.00  0.00     0.003 A 
ATOM     24  C   UNL A   1      31.417  30.271  25.289  1.00  0.00     0.044 C 
ENDBRANCH  17  18
ENDBRANCH  15  17
ENDBRANCH  12  15
ENDBRANCH   7  11
ENDBRANCH   4   7
ENDBRANCH   2   3
ENDBRANCH   1   2
BRANCH   1  25
ATOM     25  C   UNL A   1      39.402  21.535  25.991  1.00  0.00     0.023 C 
BRANCH  25  26
ATOM     26  C   UNL A   1      39.141  22.961  26.489  1.00  0.00     0.116 C 
BRANCH  26  27
ATOM     27  N   UNL A   1      40.332  23.406  27.237  1.00  0.00    -0.352 N 
ATOM     28  C   UNL A   1      41.040  24.584  27.166  1.00  0.00     0.251 C 
ATOM     29  H   UNL A   1      40.675  22.757  27.893  1.00  0.00     0.163 HD
ATOM     30  O   UNL A   1      42.263  24.648  27.073  1.00  0.00    -0.269 OA
BRANCH  28  31
ATOM     31  C   UNL A   1      40.241  25.813  27.207  1.00  0.00     0.039 A 
ATOM     32  C   UNL A   1      40.647  26.912  26.455  1.00  0.00     0.014 A 
ATOM     33  C   UNL A   1      39.340  25.953  28.239  1.00  0.00     0.014 A 
ATOM     34  C   UNL A   1      40.446  28.183  26.959  1.00  0.00     0.010 A 
ATOM     35  C   UNL A   1      39.221  27.197  28.798  1.00  0.00     0.010 A 
ATOM     36  C   UNL A   1      39.892  28.281  28.224  1.00  0.00    -0.014 A 
BRANCH  36  37
ATOM     37  C   UNL A   1      40.076  29.424  29.097  1.00  0.00     0.031 A 
ATOM     38  C   UNL A   1      39.036  30.463  29.094  1.00  0.00     0.074 A 
ATOM     39  C   UNL A   1      41.093  29.408  29.991  1.00  0.00     0.049 A 
ATOM     40  N   UNL A   1      39.149  31.591  29.689  1.00  0.00    -0.248 NA
ATOM     41  C   UNL A   1      37.775  30.324  28.370  1.00  0.00     0.031 C 
ATOM     42  C   UNL A   1      41.303  30.280  31.145  1.00  0.00     0.029 A 
ATOM     43  N   UNL A   1      42.290  28.679  29.901  1.00  0.00    -0.354 N 
ATOM     44  C   UNL A   1      37.933  32.231  29.632  1.00  0.00     0.074 A 
ATOM     45  C   UNL A   1      37.128  31.425  28.756  1.00  0.00     0.031 C 
ATOM     46  C   UNL A   1      42.609  30.277  31.461  1.00  0.00     0.029 A 
ATOM     47  C   UNL A   1      43.296  29.506  30.438  1.00  0.00     0.049 A 
ATOM     48  H   UNL A   1      42.403  27.772  29.536  1.00  0.00     0.167 HD
ATOM     49  C   UNL A   1      37.768  33.323  30.428  1.00  0.00     0.037 A 
ATOM     50  C   UNL A   1      44.275  30.000  29.623  1.00  0.00     0.037 A 
ATOM     51  C   UNL A   1      39.083  33.773  30.897  1.00  0.00     0.049 A 
ATOM     52  C   UNL A   1      44.199  31.510  29.470  1.00  0.00     0.074 A 
ATOM     53  C   UNL A   1      39.786  33.598  32.076  1.00  0.00     0.029 A 
ATOM     54  N   UNL A   1      40.013  34.187  29.943  1.00  0.00    -0.354 N 
ATOM     55  N   UNL A   1      43.128  32.222  29.709  1.00  0.00    -0.248 NA
ATOM     56  C   UNL A   1      45.338  32.334  29.085  1.00  0.00     0.031 C 
ATOM     57  C   UNL A   1      41.166  33.813  31.792  1.00  0.00     0.029 A 
ATOM     58  C   UNL A   1      41.296  34.160  30.457  1.00  0.00     0.049 A 
ATOM     59  H   UNL A   1      39.785  34.463  29.027  1.00  0.00     0.167 HD
ATOM     60  C   UNL A   1      43.397  33.554  29.494  1.00  0.00     0.074 A 
ATOM     61  C   UNL A   1      44.803  33.568  29.136  1.00  0.00     0.031 C 
ATOM     62  C   UNL A   1      42.443  34.531  29.627  1.00  0.00     0.037 A 
BRANCH  49  63
ATOM     63  C   UNL A   1      36.446  33.874  30.933  1.00  0.00     0.058 A 
ATOM     64  C   UNL A   1      35.475  34.316  30.007  1.00  0.00     0.135 A 
ATOM     65  C   UNL A   1      36.104  34.114  32.282  1.00  0.00     0.135 A 
ATOM     66  F   UNL A   1      35.647  34.158  28.686  1.00  0.00    -0.206 F 
ATOM     67  C   UNL A   1      34.298  34.971  30.383  1.00  0.00     0.059 A 
ATOM     68  C   UNL A   1      34.930  34.755  32.684  1.00  0.00     0.059 A 
ATOM     69  F   UNL A   1      36.893  33.764  33.300  1.00  0.00    -0.206 F 
ATOM     70  C   UNL A   1      34.036  35.196  31.726  1.00  0.00     0.060 A 
BRANCH  70  71
ATOM     71  S   UNL A   1      32.537  36.070  32.204  1.00  0.00     0.124 S 
ATOM     72  O   UNL A   1      32.189  36.772  30.973  1.00  0.00    -0.237 OA
ATOM     73  O   UNL A   1      31.652  34.973  32.585  1.00  0.00    -0.237 OA
ATOM     74  O   UNL A   1      32.975  36.925  33.305  1.00  0.00    -0.744 OA
ENDBRANCH  70  71
ENDBRANCH  49  63
BRANCH  50  75
ATOM     75  C   UNL A   1      44.724  29.008  28.598  1.00  0.00     0.058 A 
ATOM     76  C   UNL A   1      44.221  29.151  27.286  1.00  0.00     0.135 A 
ATOM     77  C   UNL A   1      45.886  28.241  28.744  1.00  0.00     0.135 A 
ATOM     78  F   UNL A   1      43.103  29.865  27.074  1.00  0.00    -0.206 F 
ATOM     79  C   UNL A   1      44.910  28.684  26.167  1.00  0.00     0.059 A 
ATOM     80  C   UNL A   1      46.592  27.753  27.631  1.00  0.00     0.059 A 
ATOM     81  F   UNL A   1      46.428  28.068  29.959  1.00  0.00    -0.206 F 
ATOM     82  C   UNL A   1      46.120  28.020  26.344  1.00  0.00     0.060 A 
BRANCH  82  83
ATOM     83  S   UNL A   1      47.119  27.647  24.872  1.00  0.00     0.124 S 
ATOM     84  O   UNL A   1      46.726  28.720  23.968  1.00  0.00    -0.237 OA
ATOM     85  O   UNL A   1      48.487  27.722  25.385  1.00  0.00    -0.237 OA
ATOM     86  O   UNL A   1      46.681  26.311  24.489  1.00  0.00    -0.744 OA
ENDBRANCH  82  83
ENDBRANCH  50  75
BRANCH  62  87
ATOM     87  C   UNL A   1      42.530  35.953  29.080  1.00  0.00     0.058 A 
ATOM     88  C   UNL A   1      43.217  37.011  29.705  1.00  0.00     0.135 A 
ATOM     89  C   UNL A   1      42.009  36.273  27.797  1.00  0.00     0.135 A 
ATOM     90  F   UNL A   1      43.901  36.836  30.842  1.00  0.00    -0.206 F 
ATOM     91  C   UNL A   1      43.285  38.297  29.163  1.00  0.00     0.059 A 
ATOM     92  C   UNL A   1      42.136  37.527  27.201  1.00  0.00     0.059 A 
ATOM     93  F   UNL A   1      41.363  35.369  27.048  1.00  0.00    -0.206 F 
ATOM     94  C   UNL A   1      42.737  38.549  27.912  1.00  0.00     0.060 A 
BRANCH  94  95
ATOM     95  S   UNL A   1      42.850  40.202  27.211  1.00  0.00     0.124 S 
ATOM     96  O   UNL A   1      43.193  39.904  25.824  1.00  0.00    -0.237 OA
ATOM     97  O   UNL A   1      41.507  40.731  27.430  1.00  0.00    -0.237 OA
ATOM     98  O   UNL A   1      43.901  40.836  28.000  1.00  0.00    -0.744 OA
ENDBRANCH  94  95
ENDBRANCH  62  87
ENDBRANCH  36  37
ENDBRANCH  28  31
ENDBRANCH  26  27
ENDBRANCH  25  26
ENDBRANCH   1  25
TORSDOF 19
ENDMDL
