MODEL 1
REMARK VINA RESULT:      -8.8      0.000      0.000
REMARK SMILES CC(=O)c1ccc(N2/C(=[NH+]/C(=O)CCCC(=O)NCCCCNC(=O)c3ccc(-c4c5nc(c(-c6c(F)cc(S(=O)(=O)[O-])cc6F)c6ccc([nH]6)c(-c6c(F)cc(S(=O)(=O)[O-])cc6F)c6nc(c(-c7c(F)cc(S(=O)(=O)[O-])cc7F)c7ccc4[nH]7)C=C6)C=C5)cc3)S[C@H]3CS(=O)(=O)C[C@H]32)cc1
REMARK SMILES IDX 19 1 18 2 16 3 17 4 15 6 14 7 13 8 11 9 8 10 9 11 99 12
REMARK SMILES IDX 10 13 92 14 93 15 98 16 94 18 95 19 12 20 96 21 97 22 7 23
REMARK SMILES IDX 4 24 5 25 101 26 6 27 100 28 2 29 1 30 3 31 20 32 21 33
REMARK SMILES IDX 22 34 23 35 24 36 25 38 26 39 27 40 91 41 28 42 90 43 29 44
REMARK SMILES IDX 30 45 31 46 84 47 32 48 89 49 83 50 85 51 33 52 88 53 82 54
REMARK SMILES IDX 81 55 34 57 68 58 47 59 67 60 48 61 51 62 66 63 86 64 49 65
REMARK SMILES IDX 50 66 65 68 87 69 52 70 35 71 36 72 45 73 37 74 38 75 44 76
REMARK SMILES IDX 46 77 39 78 40 79 41 80 42 81 43 82 69 83 70 84 79 85 71 86
REMARK SMILES IDX 72 87 78 88 80 89 73 90 74 91 75 92 76 93 77 94 53 95 54 96
REMARK SMILES IDX 63 97 55 98 56 99 62 100 64 101 57 102 58 103 59 104 60 105
REMARK SMILES IDX 61 106
REMARK H PARENT 18 5 10 17 23 37 85 56 51 67
REMARK Flexibility Score: inf
ROOT
ATOM      1  C   UNL A   1      43.997  23.567  27.841  1.00  0.00     0.116 C 
ENDROOT
BRANCH   1   2
ATOM      2  N   UNL A   1      44.854  22.601  27.192  1.00  0.00    -0.356 N 
ATOM      3  C   UNL A   1      45.651  22.742  26.098  1.00  0.00     0.220 C 
ATOM      4  O   UNL A   1      46.236  21.748  25.665  1.00  0.00    -0.275 OA
ATOM      5  H   UNL A   1      44.864  21.707  27.603  1.00  0.00     0.163 HD
BRANCH   3   6
ATOM      6  C   UNL A   1      45.857  24.100  25.456  1.00  0.00     0.100 C 
BRANCH   6   7
ATOM      7  C   UNL A   1      46.934  24.989  26.080  1.00  0.00     0.022 C 
BRANCH   7   8
ATOM      8  C   UNL A   1      47.618  24.531  27.367  1.00  0.00     0.128 C 
BRANCH   8   9
ATOM      9  C   UNL A   1      48.977  25.135  27.725  1.00  0.00     0.307 C 
ATOM     10  N   UNL A   1      50.165  28.599  27.442  1.00  0.00    -0.217 N 
ATOM     11  C   UNL A   1      50.087  27.206  27.526  1.00  0.00     0.319 C 
ATOM     12  C   UNL A   1      51.435  29.145  26.916  1.00  0.00     0.212 C 
ATOM     13  N   UNL A   1      49.021  26.510  27.759  1.00  0.00    -0.204 N 
ATOM     14  S   UNL A   1      51.684  26.523  27.165  1.00  0.00    -0.029 SA
ATOM     15  C   UNL A   1      52.522  28.127  27.286  1.00  0.00     0.120 C 
ATOM     16  C   UNL A   1      51.424  29.272  25.396  1.00  0.00     0.188 C 
ATOM     17  H   UNL A   1      48.191  26.994  27.974  1.00  0.00     0.316 HD
ATOM     18  C   UNL A   1      53.701  28.235  26.338  1.00  0.00     0.156 C 
ATOM     19  S   UNL A   1      53.130  29.160  24.936  1.00  0.00     0.155 S 
ATOM     20  O   UNL A   1      49.924  24.372  27.906  1.00  0.00    -0.247 OA
ATOM     21  O   UNL A   1      53.240  28.351  23.748  1.00  0.00    -0.229 OA
ATOM     22  O   UNL A   1      53.695  30.492  25.033  1.00  0.00    -0.229 OA
BRANCH  10  23
ATOM     23  C   UNL A   1      49.195  29.529  27.871  1.00  0.00     0.128 A 
ATOM     24  C   UNL A   1      47.136  31.255  28.830  1.00  0.00     0.018 A 
ATOM     25  C   UNL A   1      48.257  30.984  29.611  1.00  0.00     0.016 A 
ATOM     26  C   UNL A   1      47.056  30.696  27.553  1.00  0.00     0.016 A 
ATOM     27  C   UNL A   1      49.261  30.130  29.140  1.00  0.00     0.052 A 
ATOM     28  C   UNL A   1      48.084  29.857  27.077  1.00  0.00     0.052 A 
BRANCH  24  29
ATOM     29  C   UNL A   1      46.078  32.128  29.418  1.00  0.00     0.159 C 
ATOM     30  C   UNL A   1      46.476  33.402  30.111  1.00  0.00     0.093 C 
ATOM     31  O   UNL A   1      44.894  31.838  29.255  1.00  0.00    -0.295 OA
ENDBRANCH  24  29
ENDBRANCH  10  23
ENDBRANCH   8   9
ENDBRANCH   7   8
ENDBRANCH   6   7
ENDBRANCH   3   6
ENDBRANCH   1   2
BRANCH   1  32
ATOM     32  C   UNL A   1      42.799  22.878  28.496  1.00  0.00     0.023 C 
BRANCH  32  33
ATOM     33  C   UNL A   1      42.070  21.900  27.584  1.00  0.00     0.023 C 
BRANCH  33  34
ATOM     34  C   UNL A   1      41.680  22.483  26.234  1.00  0.00     0.116 C 
BRANCH  34  35
ATOM     35  N   UNL A   1      40.304  22.194  25.852  1.00  0.00    -0.352 N 
ATOM     36  C   UNL A   1      39.178  22.937  26.133  1.00  0.00     0.251 C 
ATOM     37  H   UNL A   1      40.162  21.371  25.332  1.00  0.00     0.163 HD
ATOM     38  O   UNL A   1      38.062  22.501  25.877  1.00  0.00    -0.269 OA
BRANCH  36  39
ATOM     39  C   UNL A   1      39.347  24.241  26.807  1.00  0.00     0.039 A 
ATOM     40  C   UNL A   1      38.896  24.389  28.119  1.00  0.00     0.014 A 
ATOM     41  C   UNL A   1      40.054  25.269  26.178  1.00  0.00     0.014 A 
ATOM     42  C   UNL A   1      39.232  25.540  28.831  1.00  0.00     0.010 A 
ATOM     43  C   UNL A   1      40.475  26.363  26.921  1.00  0.00     0.010 A 
ATOM     44  C   UNL A   1      40.066  26.515  28.255  1.00  0.00    -0.014 A 
BRANCH  44  45
ATOM     45  C   UNL A   1      40.518  27.700  29.027  1.00  0.00     0.031 A 
ATOM     46  C   UNL A   1      41.873  27.691  29.684  1.00  0.00     0.074 A 
ATOM     47  C   UNL A   1      39.689  28.752  29.192  1.00  0.00     0.049 A 
ATOM     48  N   UNL A   1      42.426  28.597  30.447  1.00  0.00    -0.248 NA
ATOM     49  C   UNL A   1      42.702  26.491  29.485  1.00  0.00     0.031 C 
ATOM     50  C   UNL A   1      38.330  28.855  28.652  1.00  0.00     0.029 A 
ATOM     51  N   UNL A   1      39.864  29.935  29.866  1.00  0.00    -0.354 N 
ATOM     52  C   UNL A   1      43.654  28.070  30.831  1.00  0.00     0.074 A 
ATOM     53  C   UNL A   1      43.738  26.740  30.271  1.00  0.00     0.031 C 
ATOM     54  C   UNL A   1      37.812  30.048  28.984  1.00  0.00     0.029 A 
ATOM     55  C   UNL A   1      38.780  30.779  29.796  1.00  0.00     0.049 A 
ATOM     56  H   UNL A   1      40.689  30.160  30.353  1.00  0.00     0.167 HD
ATOM     57  C   UNL A   1      44.634  28.653  31.559  1.00  0.00     0.037 A 
ATOM     58  C   UNL A   1      38.585  32.001  30.330  1.00  0.00     0.037 A 
ATOM     59  C   UNL A   1      44.555  29.990  32.084  1.00  0.00     0.049 A 
ATOM     60  C   UNL A   1      39.691  32.626  31.140  1.00  0.00     0.074 A 
ATOM     61  C   UNL A   1      45.521  30.701  32.773  1.00  0.00     0.029 A 
ATOM     62  N   UNL A   1      43.446  30.818  31.981  1.00  0.00    -0.354 N 
ATOM     63  N   UNL A   1      40.877  32.144  31.427  1.00  0.00    -0.248 NA
ATOM     64  C   UNL A   1      39.436  33.962  31.694  1.00  0.00     0.031 C 
ATOM     65  C   UNL A   1      44.976  31.936  33.138  1.00  0.00     0.029 A 
ATOM     66  C   UNL A   1      43.694  32.021  32.620  1.00  0.00     0.049 A 
ATOM     67  H   UNL A   1      42.607  30.584  31.521  1.00  0.00     0.167 HD
ATOM     68  C   UNL A   1      41.521  33.132  32.166  1.00  0.00     0.074 A 
ATOM     69  C   UNL A   1      40.597  34.241  32.271  1.00  0.00     0.031 C 
ATOM     70  C   UNL A   1      42.765  33.122  32.706  1.00  0.00     0.037 A 
BRANCH  57  71
ATOM     71  C   UNL A   1      45.878  27.850  31.832  1.00  0.00     0.058 A 
ATOM     72  C   UNL A   1      46.125  27.269  33.086  1.00  0.00     0.135 A 
ATOM     73  C   UNL A   1      46.817  27.626  30.812  1.00  0.00     0.135 A 
ATOM     74  F   UNL A   1      45.272  27.465  34.104  1.00  0.00    -0.206 F 
ATOM     75  C   UNL A   1      47.271  26.519  33.327  1.00  0.00     0.059 A 
ATOM     76  C   UNL A   1      47.953  26.851  31.021  1.00  0.00     0.059 A 
ATOM     77  F   UNL A   1      46.634  28.160  29.594  1.00  0.00    -0.206 F 
ATOM     78  C   UNL A   1      48.178  26.312  32.287  1.00  0.00     0.060 A 
BRANCH  78  79
ATOM     79  S   UNL A   1      49.650  25.319  32.613  1.00  0.00     0.124 S 
ATOM     80  O   UNL A   1      50.549  26.313  33.189  1.00  0.00    -0.237 OA
ATOM     81  O   UNL A   1      49.145  24.309  33.538  1.00  0.00    -0.237 OA
ATOM     82  O   UNL A   1      50.027  24.823  31.293  1.00  0.00    -0.744 OA
ENDBRANCH  78  79
ENDBRANCH  57  71
BRANCH  58  83
ATOM     83  C   UNL A   1      37.307  32.728  30.098  1.00  0.00     0.058 A 
ATOM     84  C   UNL A   1      36.202  32.534  30.943  1.00  0.00     0.135 A 
ATOM     85  C   UNL A   1      37.158  33.626  29.030  1.00  0.00     0.135 A 
ATOM     86  F   UNL A   1      36.289  31.681  31.975  1.00  0.00    -0.206 F 
ATOM     87  C   UNL A   1      34.991  33.184  30.724  1.00  0.00     0.059 A 
ATOM     88  C   UNL A   1      35.967  34.311  28.808  1.00  0.00     0.059 A 
ATOM     89  F   UNL A   1      38.186  33.861  28.200  1.00  0.00    -0.206 F 
ATOM     90  C   UNL A   1      34.884  34.072  29.654  1.00  0.00     0.060 A 
BRANCH  90  91
ATOM     91  S   UNL A   1      33.319  34.938  29.402  1.00  0.00     0.124 S 
ATOM     92  O   UNL A   1      32.666  34.084  28.417  1.00  0.00    -0.237 OA
ATOM     93  O   UNL A   1      32.743  34.924  30.742  1.00  0.00    -0.237 OA
ATOM     94  O   UNL A   1      33.736  36.253  28.921  1.00  0.00    -0.744 OA
ENDBRANCH  90  91
ENDBRANCH  58  83
BRANCH  70  95
ATOM     95  C   UNL A   1      43.221  34.363  33.424  1.00  0.00     0.058 A 
ATOM     96  C   UNL A   1      43.125  34.492  34.817  1.00  0.00     0.135 A 
ATOM     97  C   UNL A   1      43.820  35.414  32.709  1.00  0.00     0.135 A 
ATOM     98  F   UNL A   1      42.557  33.519  35.549  1.00  0.00    -0.206 F 
ATOM     99  C   UNL A   1      43.581  35.630  35.475  1.00  0.00     0.059 A 
ATOM    100  C   UNL A   1      44.313  36.546  33.348  1.00  0.00     0.059 A 
ATOM    101  F   UNL A   1      43.948  35.337  31.374  1.00  0.00    -0.206 F 
ATOM    102  C   UNL A   1      44.177  36.649  34.732  1.00  0.00     0.060 A 
BRANCH 102 103
ATOM    103  S   UNL A   1      44.799  38.104  35.602  1.00  0.00     0.124 S 
ATOM    104  O   UNL A   1      46.176  37.712  35.884  1.00  0.00    -0.237 OA
ATOM    105  O   UNL A   1      44.630  39.157  34.605  1.00  0.00    -0.237 OA
ATOM    106  O   UNL A   1      43.924  38.205  36.766  1.00  0.00    -0.744 OA
ENDBRANCH 102 103
ENDBRANCH  70  95
ENDBRANCH  44  45
ENDBRANCH  36  39
ENDBRANCH  34  35
ENDBRANCH  33  34
ENDBRANCH  32  33
ENDBRANCH   1  32
TORSDOF 19
ENDMDL
MODEL 2
REMARK VINA RESULT:      -8.5      3.678     13.252
REMARK SMILES CC(=O)c1ccc(N2/C(=[NH+]/C(=O)CCCC(=O)NCCCCNC(=O)c3ccc(-c4c5nc(c(-c6c(F)cc(S(=O)(=O)[O-])cc6F)c6ccc([nH]6)c(-c6c(F)cc(S(=O)(=O)[O-])cc6F)c6nc(c(-c7c(F)cc(S(=O)(=O)[O-])cc7F)c7ccc4[nH]7)C=C6)C=C5)cc3)S[C@H]3CS(=O)(=O)C[C@H]32)cc1
REMARK SMILES IDX 19 1 18 2 16 3 17 4 15 6 14 7 13 8 11 9 8 10 9 11 99 12
REMARK SMILES IDX 10 13 92 14 93 15 98 16 94 18 95 19 12 20 96 21 97 22 7 23
REMARK SMILES IDX 4 24 5 25 101 26 6 27 100 28 2 29 1 30 3 31 20 32 21 33
REMARK SMILES IDX 22 34 23 35 24 36 25 38 26 39 27 40 91 41 28 42 90 43 29 44
REMARK SMILES IDX 30 45 31 46 84 47 32 48 89 49 83 50 85 51 33 52 88 53 82 54
REMARK SMILES IDX 81 55 34 57 68 58 47 59 67 60 48 61 51 62 66 63 86 64 49 65
REMARK SMILES IDX 50 66 65 68 87 69 52 70 35 71 36 72 45 73 37 74 38 75 44 76
REMARK SMILES IDX 46 77 39 78 40 79 41 80 42 81 43 82 69 83 70 84 79 85 71 86
REMARK SMILES IDX 72 87 78 88 80 89 73 90 74 91 75 92 76 93 77 94 53 95 54 96
REMARK SMILES IDX 63 97 55 98 56 99 62 100 64 101 57 102 58 103 59 104 60 105
REMARK SMILES IDX 61 106
REMARK H PARENT 18 5 10 17 23 37 85 56 51 67
REMARK Flexibility Score: inf
ROOT
ATOM      1  C   UNL A   1      50.550  32.604  30.369  1.00  0.00     0.116 C 
ENDROOT
BRANCH   1   2
ATOM      2  N   UNL A   1      50.043  31.250  30.366  1.00  0.00    -0.356 N 
ATOM      3  C   UNL A   1      48.964  30.725  31.007  1.00  0.00     0.220 C 
ATOM      4  O   UNL A   1      48.766  29.511  30.926  1.00  0.00    -0.275 OA
ATOM      5  H   UNL A   1      50.554  30.613  29.817  1.00  0.00     0.163 HD
BRANCH   3   6
ATOM      6  C   UNL A   1      47.996  31.617  31.759  1.00  0.00     0.100 C 
BRANCH   6   7
ATOM      7  C   UNL A   1      46.660  30.986  32.157  1.00  0.00     0.022 C 
BRANCH   7   8
ATOM      8  C   UNL A   1      45.744  31.739  33.119  1.00  0.00     0.128 C 
BRANCH   8   9
ATOM      9  C   UNL A   1      44.246  31.428  33.092  1.00  0.00     0.307 C 
ATOM     10  N   UNL A   1      41.415  33.548  32.100  1.00  0.00    -0.217 N 
ATOM     11  C   UNL A   1      42.221  32.566  32.683  1.00  0.00     0.319 C 
ATOM     12  C   UNL A   1      40.108  33.783  32.752  1.00  0.00     0.212 C 
ATOM     13  N   UNL A   1      43.466  32.336  32.413  1.00  0.00    -0.204 N 
ATOM     14  S   UNL A   1      41.285  31.730  33.937  1.00  0.00    -0.029 SA
ATOM     15  C   UNL A   1      39.709  32.448  33.398  1.00  0.00     0.120 C 
ATOM     16  C   UNL A   1      40.195  34.822  33.864  1.00  0.00     0.188 C 
ATOM     17  H   UNL A   1      43.881  32.842  31.677  1.00  0.00     0.316 HD
ATOM     18  C   UNL A   1      38.754  32.678  34.554  1.00  0.00     0.156 C 
ATOM     19  S   UNL A   1      38.870  34.402  34.960  1.00  0.00     0.155 S 
ATOM     20  O   UNL A   1      43.845  30.440  33.704  1.00  0.00    -0.247 OA
ATOM     21  O   UNL A   1      39.327  34.547  36.320  1.00  0.00    -0.229 OA
ATOM     22  O   UNL A   1      37.670  35.048  34.463  1.00  0.00    -0.229 OA
BRANCH  10  23
ATOM     23  C   UNL A   1      41.686  34.279  30.925  1.00  0.00     0.128 A 
ATOM     24  C   UNL A   1      42.290  35.581  28.459  1.00  0.00     0.018 A 
ATOM     25  C   UNL A   1      41.022  35.051  28.691  1.00  0.00     0.016 A 
ATOM     26  C   UNL A   1      43.249  35.497  29.471  1.00  0.00     0.016 A 
ATOM     27  C   UNL A   1      40.734  34.405  29.899  1.00  0.00     0.052 A 
ATOM     28  C   UNL A   1      42.940  34.867  30.694  1.00  0.00     0.052 A 
BRANCH  24  29
ATOM     29  C   UNL A   1      42.545  36.205  27.128  1.00  0.00     0.159 C 
ATOM     30  C   UNL A   1      43.229  35.401  26.056  1.00  0.00     0.093 C 
ATOM     31  O   UNL A   1      42.120  37.336  26.898  1.00  0.00    -0.295 OA
ENDBRANCH  24  29
ENDBRANCH  10  23
ENDBRANCH   8   9
ENDBRANCH   7   8
ENDBRANCH   6   7
ENDBRANCH   3   6
ENDBRANCH   1   2
BRANCH   1  32
ATOM     32  C   UNL A   1      50.465  33.221  28.971  1.00  0.00     0.023 C 
BRANCH  32  33
ATOM     33  C   UNL A   1      50.753  34.716  28.935  1.00  0.00     0.023 C 
BRANCH  33  34
ATOM     34  C   UNL A   1      49.921  35.533  29.912  1.00  0.00     0.116 C 
BRANCH  34  35
ATOM     35  N   UNL A   1      49.254  36.672  29.296  1.00  0.00    -0.352 N 
ATOM     36  C   UNL A   1      48.128  36.661  28.502  1.00  0.00     0.251 C 
ATOM     37  H   UNL A   1      49.656  37.554  29.467  1.00  0.00     0.163 HD
ATOM     38  O   UNL A   1      47.758  37.678  27.928  1.00  0.00    -0.269 OA
BRANCH  36  39
ATOM     39  C   UNL A   1      47.416  35.380  28.311  1.00  0.00     0.039 A 
ATOM     40  C   UNL A   1      47.297  34.858  27.023  1.00  0.00     0.014 A 
ATOM     41  C   UNL A   1      46.976  34.651  29.418  1.00  0.00     0.014 A 
ATOM     42  C   UNL A   1      46.813  33.561  26.854  1.00  0.00     0.010 A 
ATOM     43  C   UNL A   1      46.595  33.326  29.255  1.00  0.00     0.010 A 
ATOM     44  C   UNL A   1      46.505  32.766  27.972  1.00  0.00    -0.014 A 
BRANCH  44  45
ATOM     45  C   UNL A   1      46.083  31.350  27.820  1.00  0.00     0.031 A 
ATOM     46  C   UNL A   1      44.656  30.962  28.101  1.00  0.00     0.074 A 
ATOM     47  C   UNL A   1      46.993  30.408  27.496  1.00  0.00     0.049 A 
ATOM     48  N   UNL A   1      44.105  29.776  28.084  1.00  0.00    -0.248 NA
ATOM     49  C   UNL A   1      43.733  32.044  28.483  1.00  0.00     0.031 C 
ATOM     50  C   UNL A   1      48.418  30.652  27.256  1.00  0.00     0.029 A 
ATOM     51  N   UNL A   1      46.858  29.053  27.317  1.00  0.00    -0.354 N 
ATOM     52  C   UNL A   1      42.782  29.968  28.469  1.00  0.00     0.074 A 
ATOM     53  C   UNL A   1      42.630  31.372  28.775  1.00  0.00     0.031 C 
ATOM     54  C   UNL A   1      49.015  29.495  26.926  1.00  0.00     0.029 A 
ATOM     55  C   UNL A   1      48.029  28.420  26.974  1.00  0.00     0.049 A 
ATOM     56  H   UNL A   1      46.002  28.580  27.425  1.00  0.00     0.167 HD
ATOM     57  C   UNL A   1      41.780  29.062  28.534  1.00  0.00     0.037 A 
ATOM     58  C   UNL A   1      48.282  27.118  26.729  1.00  0.00     0.037 A 
ATOM     59  C   UNL A   1      41.933  27.672  28.194  1.00  0.00     0.049 A 
ATOM     60  C   UNL A   1      47.149  26.129  26.811  1.00  0.00     0.074 A 
ATOM     61  C   UNL A   1      40.965  26.685  28.156  1.00  0.00     0.029 A 
ATOM     62  N   UNL A   1      43.132  27.070  27.837  1.00  0.00    -0.354 N 
ATOM     63  N   UNL A   1      45.887  26.342  27.101  1.00  0.00    -0.248 NA
ATOM     64  C   UNL A   1      47.471  24.724  26.528  1.00  0.00     0.031 C 
ATOM     65  C   UNL A   1      41.588  25.476  27.834  1.00  0.00     0.029 A 
ATOM     66  C   UNL A   1      42.932  25.720  27.607  1.00  0.00     0.049 A 
ATOM     67  H   UNL A   1      43.997  27.536  27.759  1.00  0.00     0.167 HD
ATOM     68  C   UNL A   1      45.260  25.104  27.001  1.00  0.00     0.074 A 
ATOM     69  C   UNL A   1      46.278  24.151  26.613  1.00  0.00     0.031 C 
ATOM     70  C   UNL A   1      43.958  24.786  27.210  1.00  0.00     0.037 A 
BRANCH  57  71
ATOM     71  C   UNL A   1      40.427  29.542  28.986  1.00  0.00     0.058 A 
ATOM     72  C   UNL A   1      40.150  29.813  30.336  1.00  0.00     0.135 A 
ATOM     73  C   UNL A   1      39.405  29.773  28.052  1.00  0.00     0.135 A 
ATOM     74  F   UNL A   1      41.083  29.594  31.277  1.00  0.00    -0.206 F 
ATOM     75  C   UNL A   1      38.901  30.268  30.746  1.00  0.00     0.059 A 
ATOM     76  C   UNL A   1      38.159  30.259  28.434  1.00  0.00     0.059 A 
ATOM     77  F   UNL A   1      39.613  29.527  26.748  1.00  0.00    -0.206 F 
ATOM     78  C   UNL A   1      37.913  30.492  29.786  1.00  0.00     0.060 A 
BRANCH  78  79
ATOM     79  S   UNL A   1      36.305  31.102  30.334  1.00  0.00     0.124 S 
ATOM     80  O   UNL A   1      36.432  32.532  30.077  1.00  0.00    -0.237 OA
ATOM     81  O   UNL A   1      35.385  30.380  29.461  1.00  0.00    -0.237 OA
ATOM     82  O   UNL A   1      36.257  30.720  31.743  1.00  0.00    -0.744 OA
ENDBRANCH  78  79
ENDBRANCH  57  71
BRANCH  58  83
ATOM     83  C   UNL A   1      49.654  26.676  26.359  1.00  0.00     0.058 A 
ATOM     84  C   UNL A   1      50.093  26.721  25.026  1.00  0.00     0.135 A 
ATOM     85  C   UNL A   1      50.555  26.197  27.324  1.00  0.00     0.135 A 
ATOM     86  F   UNL A   1      49.269  27.164  24.065  1.00  0.00    -0.206 F 
ATOM     87  C   UNL A   1      51.363  26.285  24.659  1.00  0.00     0.059 A 
ATOM     88  C   UNL A   1      51.840  25.784  26.986  1.00  0.00     0.059 A 
ATOM     89  F   UNL A   1      50.194  26.146  28.615  1.00  0.00    -0.206 F 
ATOM     90  C   UNL A   1      52.230  25.820  25.647  1.00  0.00     0.060 A 
BRANCH  90  91
ATOM     91  S   UNL A   1      53.889  25.292  25.164  1.00  0.00     0.124 S 
ATOM     92  O   UNL A   1      53.676  23.878  24.879  1.00  0.00    -0.237 OA
ATOM     93  O   UNL A   1      54.156  26.143  24.009  1.00  0.00    -0.237 OA
ATOM     94  O   UNL A   1      54.693  25.584  26.347  1.00  0.00    -0.744 OA
ENDBRANCH  90  91
ENDBRANCH  58  83
BRANCH  70  95
ATOM     95  C   UNL A   1      43.546  23.357  26.982  1.00  0.00     0.058 A 
ATOM     96  C   UNL A   1      43.360  22.459  28.044  1.00  0.00     0.135 A 
ATOM     97  C   UNL A   1      43.276  22.897  25.681  1.00  0.00     0.135 A 
ATOM     98  F   UNL A   1      43.608  22.845  29.306  1.00  0.00    -0.206 F 
ATOM     99  C   UNL A   1      42.946  21.150  27.824  1.00  0.00     0.059 A 
ATOM    100  C   UNL A   1      42.830  21.602  25.441  1.00  0.00     0.059 A 
ATOM    101  F   UNL A   1      43.426  23.718  24.629  1.00  0.00    -0.206 F 
ATOM    102  C   UNL A   1      42.680  20.732  26.520  1.00  0.00     0.060 A 
BRANCH 102 103
ATOM    103  S   UNL A   1      42.108  19.040  26.253  1.00  0.00     0.124 S 
ATOM    104  O   UNL A   1      42.233  18.473  27.592  1.00  0.00    -0.237 OA
ATOM    105  O   UNL A   1      40.744  19.246  25.776  1.00  0.00    -0.237 OA
ATOM    106  O   UNL A   1      43.041  18.518  25.260  1.00  0.00    -0.744 OA
ENDBRANCH 102 103
ENDBRANCH  70  95
ENDBRANCH  44  45
ENDBRANCH  36  39
ENDBRANCH  34  35
ENDBRANCH  33  34
ENDBRANCH  32  33
ENDBRANCH   1  32
TORSDOF 19
ENDMDL
MODEL 3
REMARK VINA RESULT:      -8.4      5.939     14.310
REMARK SMILES CC(=O)c1ccc(N2/C(=[NH+]/C(=O)CCCC(=O)NCCCCNC(=O)c3ccc(-c4c5nc(c(-c6c(F)cc(S(=O)(=O)[O-])cc6F)c6ccc([nH]6)c(-c6c(F)cc(S(=O)(=O)[O-])cc6F)c6nc(c(-c7c(F)cc(S(=O)(=O)[O-])cc7F)c7ccc4[nH]7)C=C6)C=C5)cc3)S[C@H]3CS(=O)(=O)C[C@H]32)cc1
REMARK SMILES IDX 19 1 18 2 16 3 17 4 15 6 14 7 13 8 11 9 8 10 9 11 99 12
REMARK SMILES IDX 10 13 92 14 93 15 98 16 94 18 95 19 12 20 96 21 97 22 7 23
REMARK SMILES IDX 4 24 5 25 101 26 6 27 100 28 2 29 1 30 3 31 20 32 21 33
REMARK SMILES IDX 22 34 23 35 24 36 25 38 26 39 27 40 91 41 28 42 90 43 29 44
REMARK SMILES IDX 30 45 31 46 84 47 32 48 89 49 83 50 85 51 33 52 88 53 82 54
REMARK SMILES IDX 81 55 34 57 68 58 47 59 67 60 48 61 51 62 66 63 86 64 49 65
REMARK SMILES IDX 50 66 65 68 87 69 52 70 35 71 36 72 45 73 37 74 38 75 44 76
REMARK SMILES IDX 46 77 39 78 40 79 41 80 42 81 43 82 69 83 70 84 79 85 71 86
REMARK SMILES IDX 72 87 78 88 80 89 73 90 74 91 75 92 76 93 77 94 53 95 54 96
REMARK SMILES IDX 63 97 55 98 56 99 62 100 64 101 57 102 58 103 59 104 60 105
REMARK SMILES IDX 61 106
REMARK H PARENT 18 5 10 17 23 37 85 56 51 67
REMARK Flexibility Score: inf
ROOT
ATOM      1  C   UNL A   1      43.659  39.448  26.680  1.00  0.00     0.116 C 
ENDROOT
BRANCH   1   2
ATOM      2  N   UNL A   1      42.559  40.266  26.223  1.00  0.00    -0.356 N 
ATOM      3  C   UNL A   1      41.360  40.520  26.814  1.00  0.00     0.220 C 
ATOM      4  O   UNL A   1      40.530  41.188  26.195  1.00  0.00    -0.275 OA
ATOM      5  H   UNL A   1      42.698  40.706  25.353  1.00  0.00     0.163 HD
BRANCH   3   6
ATOM      6  C   UNL A   1      41.069  40.039  28.222  1.00  0.00     0.100 C 
BRANCH   6   7
ATOM      7  C   UNL A   1      41.520  40.956  29.360  1.00  0.00     0.022 C 
BRANCH   7   8
ATOM      8  C   UNL A   1      42.797  40.614  30.124  1.00  0.00     0.128 C 
BRANCH   8   9
ATOM      9  C   UNL A   1      43.871  41.695  30.270  1.00  0.00     0.307 C 
ATOM     10  N   UNL A   1      46.449  42.792  27.895  1.00  0.00    -0.217 N 
ATOM     11  C   UNL A   1      45.718  42.513  29.053  1.00  0.00     0.319 C 
ATOM     12  C   UNL A   1      47.890  43.061  28.089  1.00  0.00     0.212 C 
ATOM     13  N   UNL A   1      44.508  42.054  29.104  1.00  0.00    -0.204 N 
ATOM     14  S   UNL A   1      46.753  42.800  30.464  1.00  0.00    -0.029 SA
ATOM     15  C   UNL A   1      48.025  43.659  29.497  1.00  0.00     0.120 C 
ATOM     16  C   UNL A   1      48.728  41.787  28.050  1.00  0.00     0.188 C 
ATOM     17  H   UNL A   1      44.014  41.957  28.259  1.00  0.00     0.316 HD
ATOM     18  C   UNL A   1      49.421  43.427  30.045  1.00  0.00     0.156 C 
ATOM     19  S   UNL A   1      50.152  42.170  29.028  1.00  0.00     0.155 S 
ATOM     20  O   UNL A   1      44.118  42.122  31.396  1.00  0.00    -0.247 OA
ATOM     21  O   UNL A   1      50.482  41.026  29.839  1.00  0.00    -0.229 OA
ATOM     22  O   UNL A   1      51.116  42.819  28.159  1.00  0.00    -0.229 OA
BRANCH  10  23
ATOM     23  C   UNL A   1      45.945  42.911  26.583  1.00  0.00     0.128 A 
ATOM     24  C   UNL A   1      45.111  43.212  23.871  1.00  0.00     0.018 A 
ATOM     25  C   UNL A   1      45.648  42.007  24.320  1.00  0.00     0.016 A 
ATOM     26  C   UNL A   1      44.952  44.258  24.782  1.00  0.00     0.016 A 
ATOM     27  C   UNL A   1      46.063  41.867  25.650  1.00  0.00     0.052 A 
ATOM     28  C   UNL A   1      45.351  44.099  26.125  1.00  0.00     0.052 A 
BRANCH  24  29
ATOM     29  C   UNL A   1      44.742  43.308  22.428  1.00  0.00     0.159 C 
ATOM     30  C   UNL A   1      44.694  44.659  21.769  1.00  0.00     0.093 C 
ATOM     31  O   UNL A   1      44.565  42.279  21.779  1.00  0.00    -0.295 OA
ENDBRANCH  24  29
ENDBRANCH  10  23
ENDBRANCH   8   9
ENDBRANCH   7   8
ENDBRANCH   6   7
ENDBRANCH   3   6
ENDBRANCH   1   2
BRANCH   1  32
ATOM     32  C   UNL A   1      43.210  38.001  26.894  1.00  0.00     0.023 C 
BRANCH  32  33
ATOM     33  C   UNL A   1      44.340  37.048  27.262  1.00  0.00     0.023 C 
BRANCH  33  34
ATOM     34  C   UNL A   1      44.864  37.224  28.679  1.00  0.00     0.116 C 
BRANCH  34  35
ATOM     35  N   UNL A   1      46.245  37.685  28.735  1.00  0.00    -0.352 N 
ATOM     36  C   UNL A   1      47.390  36.919  28.723  1.00  0.00     0.251 C 
ATOM     37  H   UNL A   1      46.376  38.659  28.787  1.00  0.00     0.163 HD
ATOM     38  O   UNL A   1      48.485  37.429  28.924  1.00  0.00    -0.269 OA
BRANCH  36  39
ATOM     39  C   UNL A   1      47.257  35.460  28.526  1.00  0.00     0.039 A 
ATOM     40  C   UNL A   1      47.162  34.633  29.644  1.00  0.00     0.014 A 
ATOM     41  C   UNL A   1      47.109  34.937  27.239  1.00  0.00     0.014 A 
ATOM     42  C   UNL A   1      46.832  33.288  29.473  1.00  0.00     0.010 A 
ATOM     43  C   UNL A   1      46.679  33.627  27.079  1.00  0.00     0.010 A 
ATOM     44  C   UNL A   1      46.539  32.786  28.193  1.00  0.00    -0.014 A 
BRANCH  44  45
ATOM     45  C   UNL A   1      46.088  31.384  27.997  1.00  0.00     0.031 A 
ATOM     46  C   UNL A   1      44.669  31.003  28.326  1.00  0.00     0.074 A 
ATOM     47  C   UNL A   1      46.967  30.446  27.588  1.00  0.00     0.049 A 
ATOM     48  N   UNL A   1      44.099  29.827  28.281  1.00  0.00    -0.248 NA
ATOM     49  C   UNL A   1      43.782  32.079  28.799  1.00  0.00     0.031 C 
ATOM     50  C   UNL A   1      48.383  30.681  27.293  1.00  0.00     0.029 A 
ATOM     51  N   UNL A   1      46.803  29.103  27.354  1.00  0.00    -0.354 N 
ATOM     52  C   UNL A   1      42.799  30.019  28.736  1.00  0.00     0.074 A 
ATOM     53  C   UNL A   1      42.684  31.410  29.112  1.00  0.00     0.031 C 
ATOM     54  C   UNL A   1      48.946  29.532  26.883  1.00  0.00     0.029 A 
ATOM     55  C   UNL A   1      47.947  28.470  26.928  1.00  0.00     0.049 A 
ATOM     56  H   UNL A   1      45.945  28.636  27.480  1.00  0.00     0.167 HD
ATOM     57  C   UNL A   1      41.786  29.125  28.806  1.00  0.00     0.037 A 
ATOM     58  C   UNL A   1      48.168  27.177  26.613  1.00  0.00     0.037 A 
ATOM     59  C   UNL A   1      41.902  27.750  28.396  1.00  0.00     0.049 A 
ATOM     60  C   UNL A   1      47.024  26.201  26.703  1.00  0.00     0.074 A 
ATOM     61  C   UNL A   1      40.918  26.779  28.359  1.00  0.00     0.029 A 
ATOM     62  N   UNL A   1      43.074  27.149  27.957  1.00  0.00    -0.354 N 
ATOM     63  N   UNL A   1      45.780  26.418  27.060  1.00  0.00    -0.248 NA
ATOM     64  C   UNL A   1      47.310  24.806  26.341  1.00  0.00     0.031 C 
ATOM     65  C   UNL A   1      41.506  25.578  27.953  1.00  0.00     0.029 A 
ATOM     66  C   UNL A   1      42.842  25.814  27.675  1.00  0.00     0.049 A 
ATOM     67  H   UNL A   1      43.941  27.606  27.860  1.00  0.00     0.167 HD
ATOM     68  C   UNL A   1      45.129  25.195  26.934  1.00  0.00     0.074 A 
ATOM     69  C   UNL A   1      46.114  24.247  26.456  1.00  0.00     0.031 C 
ATOM     70  C   UNL A   1      43.833  24.885  27.189  1.00  0.00     0.037 A 
BRANCH  57  71
ATOM     71  C   UNL A   1      40.464  29.602  29.342  1.00  0.00     0.058 A 
ATOM     72  C   UNL A   1      40.262  29.841  30.712  1.00  0.00     0.135 A 
ATOM     73  C   UNL A   1      39.395  29.862  28.470  1.00  0.00     0.135 A 
ATOM     74  F   UNL A   1      41.242  29.593  31.595  1.00  0.00    -0.206 F 
ATOM     75  C   UNL A   1      39.040  30.294  31.199  1.00  0.00     0.059 A 
ATOM     76  C   UNL A   1      38.175  30.347  28.931  1.00  0.00     0.059 A 
ATOM     77  F   UNL A   1      39.530  29.648  27.151  1.00  0.00    -0.206 F 
ATOM     78  C   UNL A   1      38.004  30.548  30.300  1.00  0.00     0.060 A 
BRANCH  78  79
ATOM     79  S   UNL A   1      36.432  31.153  30.949  1.00  0.00     0.124 S 
ATOM     80  O   UNL A   1      35.612  31.186  29.742  1.00  0.00    -0.237 OA
ATOM     81  O   UNL A   1      36.082  30.127  31.925  1.00  0.00    -0.237 OA
ATOM     82  O   UNL A   1      36.774  32.457  31.510  1.00  0.00    -0.744 OA
ENDBRANCH  78  79
ENDBRANCH  57  71
BRANCH  58  83
ATOM     83  C   UNL A   1      49.514  26.734  26.160  1.00  0.00     0.058 A 
ATOM     84  C   UNL A   1      50.435  26.182  27.064  1.00  0.00     0.135 A 
ATOM     85  C   UNL A   1      49.912  26.854  24.819  1.00  0.00     0.135 A 
ATOM     86  F   UNL A   1      50.107  26.051  28.358  1.00  0.00    -0.206 F 
ATOM     87  C   UNL A   1      51.708  25.787  26.662  1.00  0.00     0.059 A 
ATOM     88  C   UNL A   1      51.168  26.439  24.387  1.00  0.00     0.059 A 
ATOM     89  F   UNL A   1      49.066  27.360  23.909  1.00  0.00    -0.206 F 
ATOM     90  C   UNL A   1      52.064  25.919  25.319  1.00  0.00     0.060 A 
BRANCH  90  91
ATOM     91  S   UNL A   1      53.706  25.370  24.802  1.00  0.00     0.124 S 
ATOM     92  O   UNL A   1      54.540  25.875  25.887  1.00  0.00    -0.237 OA
ATOM     93  O   UNL A   1      53.539  23.921  24.747  1.00  0.00    -0.237 OA
ATOM     94  O   UNL A   1      53.887  26.023  23.509  1.00  0.00    -0.744 OA
ENDBRANCH  90  91
ENDBRANCH  58  83
BRANCH  70  95
ATOM     95  C   UNL A   1      43.389  23.473  26.916  1.00  0.00     0.058 A 
ATOM     96  C   UNL A   1      43.233  22.983  25.611  1.00  0.00     0.135 A 
ATOM     97  C   UNL A   1      43.175  22.581  27.980  1.00  0.00     0.135 A 
ATOM     98  F   UNL A   1      43.421  23.795  24.557  1.00  0.00    -0.206 F 
ATOM     99  C   UNL A   1      42.855  21.667  25.370  1.00  0.00     0.059 A 
ATOM    100  C   UNL A   1      42.829  21.252  27.762  1.00  0.00     0.059 A 
ATOM    101  F   UNL A   1      43.322  22.994  29.250  1.00  0.00    -0.206 F 
ATOM    102  C   UNL A   1      42.659  20.808  26.452  1.00  0.00     0.060 A 
BRANCH 102 103
ATOM    103  S   UNL A   1      42.205  19.092  26.123  1.00  0.00     0.124 S 
ATOM    104  O   UNL A   1      43.034  18.785  24.961  1.00  0.00    -0.237 OA
ATOM    105  O   UNL A   1      42.584  18.427  27.366  1.00  0.00    -0.237 OA
ATOM    106  O   UNL A   1      40.770  19.161  25.869  1.00  0.00    -0.744 OA
ENDBRANCH 102 103
ENDBRANCH  70  95
ENDBRANCH  44  45
ENDBRANCH  36  39
ENDBRANCH  34  35
ENDBRANCH  33  34
ENDBRANCH  32  33
ENDBRANCH   1  32
TORSDOF 19
ENDMDL
