MODEL 1
REMARK VINA RESULT:     -11.6      0.000      0.000
REMARK SMILES Cc1ccc2c(c1)C=C(C(=O)NCCCCNC(=O)c1ccc(-c3c4nc(c(-c5c(F)cc(S(=O)(=O)[O-])cc5F)c5ccc([nH]5)c(-c5c(F)cc(S(=O)(=O)[O-])cc5F)c5nc(c(-c6c(F)cc(S(=O)(=O)[O-])cc6F)c6ccc3[nH]6)C=C5)C=C4)cc1)[C@@H](C(F)(F)F)O2
REMARK SMILES IDX 15 1 14 2 13 3 12 4 10 5 11 6 9 8 1 9 2 10 3 11 7 12 4 13
REMARK SMILES IDX 6 14 5 15 8 16 91 17 86 18 87 19 88 20 89 21 90 22 16 23
REMARK SMILES IDX 17 24 18 25 19 27 20 28 21 29 85 30 22 31 84 32 23 33 24 34
REMARK SMILES IDX 25 35 78 36 26 37 83 38 77 39 79 40 27 41 82 42 76 43 75 44
REMARK SMILES IDX 28 46 62 47 41 48 61 49 42 50 45 51 60 52 80 53 43 54 44 55
REMARK SMILES IDX 59 57 81 58 46 59 29 60 30 61 39 62 31 63 32 64 38 65 40 66
REMARK SMILES IDX 33 67 34 68 35 69 36 70 37 71 63 72 64 73 73 74 65 75 66 76
REMARK SMILES IDX 72 77 74 78 67 79 68 80 69 81 70 82 71 83 47 84 48 85 57 86
REMARK SMILES IDX 49 87 50 88 56 89 58 90 51 91 52 92 53 93 54 94 55 95
REMARK H PARENT 12 7 17 26 79 45 45 56
REMARK Flexibility Score: inf
ROOT
ATOM      1  C   UNL A   1      33.501  28.484  25.740  1.00  0.00     0.023 C 
ENDROOT
BRANCH   1   2
ATOM      2  C   UNL A   1      33.519  27.068  25.156  1.00  0.00     0.023 C 
BRANCH   2   3
ATOM      3  C   UNL A   1      32.143  26.513  24.801  1.00  0.00     0.116 C 
BRANCH   3   4
ATOM      4  N   UNL A   1      31.610  25.655  25.845  1.00  0.00    -0.352 N 
ATOM      5  C   UNL A   1      31.872  24.425  26.345  1.00  0.00     0.251 C 
ATOM      6  O   UNL A   1      31.143  24.069  27.276  1.00  0.00    -0.270 OA
ATOM      7  H   UNL A   1      30.857  26.083  26.314  1.00  0.00     0.163 HD
BRANCH   5   8
ATOM      8  C   UNL A   1      32.947  23.505  25.863  1.00  0.00     0.067 C 
ATOM      9  C   UNL A   1      39.083  22.776  26.198  1.00  0.00     0.044 C 
ATOM     10  C   UNL A   1      37.673  22.427  25.823  1.00  0.00    -0.050 A 
ATOM     11  C   UNL A   1      37.391  21.254  25.114  1.00  0.00     0.007 A 
ATOM     12  C   UNL A   1      36.614  23.253  26.227  1.00  0.00     0.015 A 
ATOM     13  C   UNL A   1      36.073  20.922  24.796  1.00  0.00     0.047 A 
ATOM     14  C   UNL A   1      35.292  22.926  25.907  1.00  0.00     0.017 A 
ATOM     15  C   UNL A   1      35.033  21.763  25.183  1.00  0.00     0.128 A 
ATOM     16  C   UNL A   1      34.178  23.752  26.349  1.00  0.00     0.025 C 
ATOM     17  O   UNL A   1      33.767  21.363  24.863  1.00  0.00    -0.475 OA
ATOM     18  C   UNL A   1      32.741  22.397  24.867  1.00  0.00     0.314 C 
BRANCH  18  19
ATOM     19  C   UNL A   1      32.555  22.921  23.430  1.00  0.00     0.429 C 
ATOM     20  F   UNL A   1      31.292  23.393  23.260  1.00  0.00    -0.167 F 
ATOM     21  F   UNL A   1      33.388  23.945  23.136  1.00  0.00    -0.167 F 
ATOM     22  F   UNL A   1      32.756  21.966  22.495  1.00  0.00    -0.167 F 
ENDBRANCH  18  19
ENDBRANCH   5   8
ENDBRANCH   3   4
ENDBRANCH   2   3
ENDBRANCH   1   2
BRANCH   1  23
ATOM     23  C   UNL A   1      33.722  28.582  27.249  1.00  0.00     0.116 C 
BRANCH  23  24
ATOM     24  N   UNL A   1      33.699  29.941  27.773  1.00  0.00    -0.352 N 
ATOM     25  C   UNL A   1      34.738  30.641  28.346  1.00  0.00     0.251 C 
ATOM     26  H   UNL A   1      32.838  30.415  27.711  1.00  0.00     0.163 HD
ATOM     27  O   UNL A   1      34.559  31.767  28.801  1.00  0.00    -0.269 OA
BRANCH  25  28
ATOM     28  C   UNL A   1      36.055  29.984  28.454  1.00  0.00     0.039 A 
ATOM     29  C   UNL A   1      36.464  29.430  29.668  1.00  0.00     0.014 A 
ATOM     30  C   UNL A   1      36.924  30.027  27.360  1.00  0.00     0.014 A 
ATOM     31  C   UNL A   1      37.799  29.079  29.840  1.00  0.00     0.010 A 
ATOM     32  C   UNL A   1      38.247  29.610  27.518  1.00  0.00     0.010 A 
ATOM     33  C   UNL A   1      38.708  29.191  28.777  1.00  0.00    -0.014 A 
BRANCH  33  34
ATOM     34  C   UNL A   1      40.147  28.919  29.020  1.00  0.00     0.031 A 
ATOM     35  C   UNL A   1      40.750  27.594  28.629  1.00  0.00     0.074 A 
ATOM     36  C   UNL A   1      40.928  29.894  29.519  1.00  0.00     0.049 A 
ATOM     37  N   UNL A   1      41.988  27.186  28.742  1.00  0.00    -0.248 NA
ATOM     38  C   UNL A   1      39.846  26.595  28.033  1.00  0.00     0.031 C 
ATOM     39  C   UNL A   1      40.463  31.226  29.912  1.00  0.00     0.029 A 
ATOM     40  N   UNL A   1      42.278  29.932  29.750  1.00  0.00    -0.354 N 
ATOM     41  C   UNL A   1      42.009  25.885  28.256  1.00  0.00     0.074 A 
ATOM     42  C   UNL A   1      40.655  25.559  27.861  1.00  0.00     0.031 C 
ATOM     43  C   UNL A   1      41.518  31.967  30.281  1.00  0.00     0.029 A 
ATOM     44  C   UNL A   1      42.724  31.150  30.200  1.00  0.00     0.049 A 
ATOM     45  H   UNL A   1      42.872  29.159  29.606  1.00  0.00     0.167 HD
ATOM     46  C   UNL A   1      43.062  25.041  28.141  1.00  0.00     0.037 A 
ATOM     47  C   UNL A   1      43.966  31.564  30.518  1.00  0.00     0.037 A 
ATOM     48  C   UNL A   1      44.414  25.377  28.504  1.00  0.00     0.049 A 
ATOM     49  C   UNL A   1      45.113  30.604  30.399  1.00  0.00     0.074 A 
ATOM     50  C   UNL A   1      45.550  24.591  28.418  1.00  0.00     0.029 A 
ATOM     51  N   UNL A   1      44.814  26.603  29.013  1.00  0.00    -0.354 N 
ATOM     52  N   UNL A   1      45.106  29.366  29.969  1.00  0.00    -0.248 NA
ATOM     53  C   UNL A   1      46.431  31.090  30.829  1.00  0.00     0.031 C 
ATOM     54  C   UNL A   1      46.634  25.335  28.897  1.00  0.00     0.029 A 
ATOM     55  C   UNL A   1      46.177  26.593  29.255  1.00  0.00     0.049 A 
ATOM     56  H   UNL A   1      44.217  27.367  29.179  1.00  0.00     0.167 HD
ATOM     57  C   UNL A   1      46.417  28.921  30.077  1.00  0.00     0.074 A 
ATOM     58  C   UNL A   1      47.194  30.030  30.594  1.00  0.00     0.031 C 
ATOM     59  C   UNL A   1      46.930  27.702  29.783  1.00  0.00     0.037 A 
BRANCH  46  60
ATOM     60  C   UNL A   1      42.796  23.662  27.606  1.00  0.00     0.058 A 
ATOM     61  C   UNL A   1      42.897  23.373  26.236  1.00  0.00     0.135 A 
ATOM     62  C   UNL A   1      42.481  22.608  28.479  1.00  0.00     0.135 A 
ATOM     63  F   UNL A   1      43.177  24.350  25.359  1.00  0.00    -0.206 F 
ATOM     64  C   UNL A   1      42.680  22.089  25.748  1.00  0.00     0.059 A 
ATOM     65  C   UNL A   1      42.276  21.312  28.013  1.00  0.00     0.059 A 
ATOM     66  F   UNL A   1      42.368  22.833  29.797  1.00  0.00    -0.206 F 
ATOM     67  C   UNL A   1      42.368  21.064  26.644  1.00  0.00     0.060 A 
BRANCH  67  68
ATOM     68  S   UNL A   1      42.093  19.401  25.995  1.00  0.00     0.124 S 
ATOM     69  O   UNL A   1      40.649  19.406  25.789  1.00  0.00    -0.237 OA
ATOM     70  O   UNL A   1      42.906  19.399  24.784  1.00  0.00    -0.237 OA
ATOM     71  O   UNL A   1      42.571  18.536  27.069  1.00  0.00    -0.744 OA
ENDBRANCH  67  68
ENDBRANCH  46  60
BRANCH  47  72
ATOM     72  C   UNL A   1      44.174  32.960  30.976  1.00  0.00     0.058 A 
ATOM     73  C   UNL A   1      44.172  33.275  32.341  1.00  0.00     0.135 A 
ATOM     74  C   UNL A   1      44.437  33.991  30.062  1.00  0.00     0.135 A 
ATOM     75  F   UNL A   1      43.920  32.321  33.249  1.00  0.00    -0.206 F 
ATOM     76  C   UNL A   1      44.428  34.566  32.788  1.00  0.00     0.059 A 
ATOM     77  C   UNL A   1      44.716  35.286  30.485  1.00  0.00     0.059 A 
ATOM     78  F   UNL A   1      44.463  33.732  28.745  1.00  0.00    -0.206 F 
ATOM     79  C   UNL A   1      44.707  35.564  31.851  1.00  0.00     0.060 A 
BRANCH  79  80
ATOM     80  S   UNL A   1      45.127  37.219  32.441  1.00  0.00     0.124 S 
ATOM     81  O   UNL A   1      45.634  36.934  33.778  1.00  0.00    -0.237 OA
ATOM     82  O   UNL A   1      46.118  37.654  31.460  1.00  0.00    -0.237 OA
ATOM     83  O   UNL A   1      43.851  37.926  32.383  1.00  0.00    -0.744 OA
ENDBRANCH  79  80
ENDBRANCH  47  72
BRANCH  59  84
ATOM     84  C   UNL A   1      48.396  27.499  30.023  1.00  0.00     0.058 A 
ATOM     85  C   UNL A   1      48.863  26.932  31.219  1.00  0.00     0.135 A 
ATOM     86  C   UNL A   1      49.337  27.824  29.035  1.00  0.00     0.135 A 
ATOM     87  F   UNL A   1      48.000  26.612  32.197  1.00  0.00    -0.206 F 
ATOM     88  C   UNL A   1      50.217  26.704  31.432  1.00  0.00     0.059 A 
ATOM     89  C   UNL A   1      50.695  27.588  29.219  1.00  0.00     0.059 A 
ATOM     90  F   UNL A   1      48.937  28.362  27.872  1.00  0.00    -0.206 F 
ATOM     91  C   UNL A   1      51.126  27.035  30.425  1.00  0.00     0.060 A 
BRANCH  91  92
ATOM     92  S   UNL A   1      52.880  26.700  30.696  1.00  0.00     0.124 S 
ATOM     93  O   UNL A   1      53.333  27.959  31.277  1.00  0.00    -0.237 OA
ATOM     94  O   UNL A   1      52.845  25.559  31.606  1.00  0.00    -0.237 OA
ATOM     95  O   UNL A   1      53.380  26.409  29.357  1.00  0.00    -0.744 OA
ENDBRANCH  91  92
ENDBRANCH  59  84
ENDBRANCH  33  34
ENDBRANCH  25  28
ENDBRANCH  23  24
ENDBRANCH   1  23
TORSDOF 15
ENDMDL
MODEL 2
REMARK VINA RESULT:     -11.5      1.976      9.123
REMARK SMILES Cc1ccc2c(c1)C=C(C(=O)NCCCCNC(=O)c1ccc(-c3c4nc(c(-c5c(F)cc(S(=O)(=O)[O-])cc5F)c5ccc([nH]5)c(-c5c(F)cc(S(=O)(=O)[O-])cc5F)c5nc(c(-c6c(F)cc(S(=O)(=O)[O-])cc6F)c6ccc3[nH]6)C=C5)C=C4)cc1)[C@@H](C(F)(F)F)O2
REMARK SMILES IDX 15 1 14 2 13 3 12 4 10 5 11 6 9 8 1 9 2 10 3 11 7 12 4 13
REMARK SMILES IDX 6 14 5 15 8 16 91 17 86 18 87 19 88 20 89 21 90 22 16 23
REMARK SMILES IDX 17 24 18 25 19 27 20 28 21 29 85 30 22 31 84 32 23 33 24 34
REMARK SMILES IDX 25 35 78 36 26 37 83 38 77 39 79 40 27 41 82 42 76 43 75 44
REMARK SMILES IDX 28 46 62 47 41 48 61 49 42 50 45 51 60 52 80 53 43 54 44 55
REMARK SMILES IDX 59 57 81 58 46 59 29 60 30 61 39 62 31 63 32 64 38 65 40 66
REMARK SMILES IDX 33 67 34 68 35 69 36 70 37 71 63 72 64 73 73 74 65 75 66 76
REMARK SMILES IDX 72 77 74 78 67 79 68 80 69 81 70 82 71 83 47 84 48 85 57 86
REMARK SMILES IDX 49 87 50 88 56 89 58 90 51 91 52 92 53 93 54 94 55 95
REMARK H PARENT 12 7 17 26 79 45 45 56
REMARK Flexibility Score: inf
ROOT
ATOM      1  C   UNL A   1      33.112  28.941  25.593  1.00  0.00     0.023 C 
ENDROOT
BRANCH   1   2
ATOM      2  C   UNL A   1      33.984  28.035  24.718  1.00  0.00     0.023 C 
BRANCH   2   3
ATOM      3  C   UNL A   1      33.805  26.542  24.977  1.00  0.00     0.116 C 
BRANCH   3   4
ATOM      4  N   UNL A   1      33.462  25.812  23.770  1.00  0.00    -0.352 N 
ATOM      5  C   UNL A   1      32.384  25.688  22.962  1.00  0.00     0.251 C 
ATOM      6  O   UNL A   1      32.533  24.928  21.999  1.00  0.00    -0.270 OA
ATOM      7  H   UNL A   1      34.215  25.259  23.456  1.00  0.00     0.163 HD
BRANCH   5   8
ATOM      8  C   UNL A   1      31.075  26.385  23.149  1.00  0.00     0.067 C 
ATOM      9  C   UNL A   1      28.440  31.894  22.145  1.00  0.00     0.044 C 
ATOM     10  C   UNL A   1      28.505  30.453  22.559  1.00  0.00    -0.050 A 
ATOM     11  C   UNL A   1      27.366  29.792  23.032  1.00  0.00     0.007 A 
ATOM     12  C   UNL A   1      29.706  29.739  22.427  1.00  0.00     0.015 A 
ATOM     13  C   UNL A   1      27.430  28.444  23.386  1.00  0.00     0.047 A 
ATOM     14  C   UNL A   1      29.774  28.388  22.785  1.00  0.00     0.017 A 
ATOM     15  C   UNL A   1      28.633  27.753  23.272  1.00  0.00     0.128 A 
ATOM     16  C   UNL A   1      31.001  27.621  22.620  1.00  0.00     0.025 C 
ATOM     17  O   UNL A   1      28.617  26.429  23.610  1.00  0.00    -0.475 OA
ATOM     18  C   UNL A   1      29.907  25.821  23.908  1.00  0.00     0.314 C 
BRANCH  18  19
ATOM     19  C   UNL A   1      30.127  25.840  25.433  1.00  0.00     0.429 C 
ATOM     20  F   UNL A   1      30.600  27.051  25.826  1.00  0.00    -0.167 F 
ATOM     21  F   UNL A   1      28.986  25.630  26.128  1.00  0.00    -0.167 F 
ATOM     22  F   UNL A   1      31.017  24.909  25.844  1.00  0.00    -0.167 F 
ENDBRANCH  18  19
ENDBRANCH   5   8
ENDBRANCH   3   4
ENDBRANCH   2   3
ENDBRANCH   1   2
BRANCH   1  23
ATOM     23  C   UNL A   1      33.419  28.910  27.090  1.00  0.00     0.116 C 
BRANCH  23  24
ATOM     24  N   UNL A   1      33.399  30.217  27.734  1.00  0.00    -0.352 N 
ATOM     25  C   UNL A   1      34.434  30.854  28.381  1.00  0.00     0.251 C 
ATOM     26  H   UNL A   1      32.542  30.702  27.704  1.00  0.00     0.163 HD
ATOM     27  O   UNL A   1      34.258  31.936  28.933  1.00  0.00    -0.269 OA
BRANCH  25  28
ATOM     28  C   UNL A   1      35.746  30.179  28.446  1.00  0.00     0.039 A 
ATOM     29  C   UNL A   1      36.205  29.655  29.656  1.00  0.00     0.014 A 
ATOM     30  C   UNL A   1      36.561  30.174  27.311  1.00  0.00     0.014 A 
ATOM     31  C   UNL A   1      37.540  29.288  29.775  1.00  0.00     0.010 A 
ATOM     32  C   UNL A   1      37.884  29.741  27.419  1.00  0.00     0.010 A 
ATOM     33  C   UNL A   1      38.399  29.353  28.666  1.00  0.00    -0.014 A 
BRANCH  33  34
ATOM     34  C   UNL A   1      39.843  29.064  28.849  1.00  0.00     0.031 A 
ATOM     35  C   UNL A   1      40.744  30.068  29.522  1.00  0.00     0.074 A 
ATOM     36  C   UNL A   1      40.328  27.863  28.481  1.00  0.00     0.049 A 
ATOM     37  N   UNL A   1      42.022  29.980  29.788  1.00  0.00    -0.248 NA
ATOM     38  C   UNL A   1      40.131  31.336  29.952  1.00  0.00     0.031 C 
ATOM     39  C   UNL A   1      39.547  26.802  27.842  1.00  0.00     0.029 A 
ATOM     40  N   UNL A   1      41.579  27.320  28.619  1.00  0.00    -0.354 N 
ATOM     41  C   UNL A   1      42.371  31.181  30.393  1.00  0.00     0.074 A 
ATOM     42  C   UNL A   1      41.174  31.994  30.441  1.00  0.00     0.031 C 
ATOM     43  C   UNL A   1      40.322  25.716  27.696  1.00  0.00     0.029 A 
ATOM     44  C   UNL A   1      41.664  26.021  28.183  1.00  0.00     0.049 A 
ATOM     45  H   UNL A   1      42.343  27.814  28.995  1.00  0.00     0.167 HD
ATOM     46  C   UNL A   1      43.576  31.569  30.873  1.00  0.00     0.037 A 
ATOM     47  C   UNL A   1      42.707  25.170  28.169  1.00  0.00     0.037 A 
ATOM     48  C   UNL A   1      44.758  30.748  30.855  1.00  0.00     0.049 A 
ATOM     49  C   UNL A   1      44.037  25.629  28.690  1.00  0.00     0.074 A 
ATOM     50  C   UNL A   1      46.025  31.050  31.324  1.00  0.00     0.029 A 
ATOM     51  N   UNL A   1      44.817  29.458  30.349  1.00  0.00    -0.354 N 
ATOM     52  N   UNL A   1      44.354  26.782  29.228  1.00  0.00    -0.248 NA
ATOM     53  C   UNL A   1      45.154  24.682  28.584  1.00  0.00     0.031 C 
ATOM     54  C   UNL A   1      46.856  29.951  31.080  1.00  0.00     0.029 A 
ATOM     55  C   UNL A   1      46.100  28.954  30.485  1.00  0.00     0.049 A 
ATOM     56  H   UNL A   1      44.059  28.973  29.951  1.00  0.00     0.167 HD
ATOM     57  C   UNL A   1      45.709  26.702  29.523  1.00  0.00     0.074 A 
ATOM     58  C   UNL A   1      46.146  25.379  29.123  1.00  0.00     0.031 C 
ATOM     59  C   UNL A   1      46.519  27.641  30.068  1.00  0.00     0.037 A 
BRANCH  46  60
ATOM     60  C   UNL A   1      43.683  32.950  31.456  1.00  0.00     0.058 A 
ATOM     61  C   UNL A   1      43.524  33.182  32.831  1.00  0.00     0.135 A 
ATOM     62  C   UNL A   1      43.995  34.047  30.636  1.00  0.00     0.135 A 
ATOM     63  F   UNL A   1      43.207  32.170  33.654  1.00  0.00    -0.206 F 
ATOM     64  C   UNL A   1      43.655  34.457  33.372  1.00  0.00     0.059 A 
ATOM     65  C   UNL A   1      44.147  35.328  31.159  1.00  0.00     0.059 A 
ATOM     66  F   UNL A   1      44.154  33.878  29.315  1.00  0.00    -0.206 F 
ATOM     67  C   UNL A   1      43.965  35.525  32.527  1.00  0.00     0.060 A 
BRANCH  67  68
ATOM     68  S   UNL A   1      44.135  37.174  33.244  1.00  0.00     0.124 S 
ATOM     69  O   UNL A   1      42.879  37.303  33.975  1.00  0.00    -0.237 OA
ATOM     70  O   UNL A   1      45.334  37.037  34.063  1.00  0.00    -0.237 OA
ATOM     71  O   UNL A   1      44.273  38.038  32.076  1.00  0.00    -0.744 OA
ENDBRANCH  67  68
ENDBRANCH  46  60
BRANCH  47  72
ATOM     72  C   UNL A   1      42.520  23.795  27.643  1.00  0.00     0.058 A 
ATOM     73  C   UNL A   1      42.571  23.540  26.267  1.00  0.00     0.135 A 
ATOM     74  C   UNL A   1      42.345  22.705  28.509  1.00  0.00     0.135 A 
ATOM     75  F   UNL A   1      42.732  24.554  25.403  1.00  0.00    -0.206 F 
ATOM     76  C   UNL A   1      42.461  22.249  25.762  1.00  0.00     0.059 A 
ATOM     77  C   UNL A   1      42.252  21.403  28.031  1.00  0.00     0.059 A 
ATOM     78  F   UNL A   1      42.303  22.900  29.836  1.00  0.00    -0.206 F 
ATOM     79  C   UNL A   1      42.309  21.185  26.655  1.00  0.00     0.060 A 
BRANCH  79  80
ATOM     80  S   UNL A   1      42.255  19.502  26.001  1.00  0.00     0.124 S 
ATOM     81  O   UNL A   1      42.729  18.729  27.143  1.00  0.00    -0.237 OA
ATOM     82  O   UNL A   1      40.842  19.346  25.666  1.00  0.00    -0.237 OA
ATOM     83  O   UNL A   1      43.157  19.561  24.856  1.00  0.00    -0.744 OA
ENDBRANCH  79  80
ENDBRANCH  47  72
BRANCH  59  84
ATOM     84  C   UNL A   1      47.962  27.277  30.253  1.00  0.00     0.058 A 
ATOM     85  C   UNL A   1      48.928  27.639  29.302  1.00  0.00     0.135 A 
ATOM     86  C   UNL A   1      48.390  26.610  31.411  1.00  0.00     0.135 A 
ATOM     87  F   UNL A   1      48.563  28.273  28.176  1.00  0.00    -0.206 F 
ATOM     88  C   UNL A   1      50.273  27.341  29.487  1.00  0.00     0.059 A 
ATOM     89  C   UNL A   1      49.733  26.316  31.624  1.00  0.00     0.059 A 
ATOM     90  F   UNL A   1      47.503  26.250  32.351  1.00  0.00    -0.206 F 
ATOM     91  C   UNL A   1      50.666  26.679  30.652  1.00  0.00     0.060 A 
BRANCH  91  92
ATOM     92  S   UNL A   1      52.420  26.330  30.900  1.00  0.00     0.124 S 
ATOM     93  O   UNL A   1      52.876  26.130  29.529  1.00  0.00    -0.237 OA
ATOM     94  O   UNL A   1      52.894  27.546  31.554  1.00  0.00    -0.237 OA
ATOM     95  O   UNL A   1      52.413  25.137  31.741  1.00  0.00    -0.744 OA
ENDBRANCH  91  92
ENDBRANCH  59  84
ENDBRANCH  33  34
ENDBRANCH  25  28
ENDBRANCH  23  24
ENDBRANCH   1  23
TORSDOF 15
ENDMDL
MODEL 3
REMARK VINA RESULT:     -11.4      5.080      9.756
REMARK SMILES Cc1ccc2c(c1)C=C(C(=O)NCCCCNC(=O)c1ccc(-c3c4nc(c(-c5c(F)cc(S(=O)(=O)[O-])cc5F)c5ccc([nH]5)c(-c5c(F)cc(S(=O)(=O)[O-])cc5F)c5nc(c(-c6c(F)cc(S(=O)(=O)[O-])cc6F)c6ccc3[nH]6)C=C5)C=C4)cc1)[C@@H](C(F)(F)F)O2
REMARK SMILES IDX 15 1 14 2 13 3 12 4 10 5 11 6 9 8 1 9 2 10 3 11 7 12 4 13
REMARK SMILES IDX 6 14 5 15 8 16 91 17 86 18 87 19 88 20 89 21 90 22 16 23
REMARK SMILES IDX 17 24 18 25 19 27 20 28 21 29 85 30 22 31 84 32 23 33 24 34
REMARK SMILES IDX 25 35 78 36 26 37 83 38 77 39 79 40 27 41 82 42 76 43 75 44
REMARK SMILES IDX 28 46 62 47 41 48 61 49 42 50 45 51 60 52 80 53 43 54 44 55
REMARK SMILES IDX 59 57 81 58 46 59 29 60 30 61 39 62 31 63 32 64 38 65 40 66
REMARK SMILES IDX 33 67 34 68 35 69 36 70 37 71 63 72 64 73 73 74 65 75 66 76
REMARK SMILES IDX 72 77 74 78 67 79 68 80 69 81 70 82 71 83 47 84 48 85 57 86
REMARK SMILES IDX 49 87 50 88 56 89 58 90 51 91 52 92 53 93 54 94 55 95
REMARK H PARENT 12 7 17 26 79 45 45 56
REMARK Flexibility Score: inf
ROOT
ATOM      1  C   UNL A   1      37.671  22.818  25.675  1.00  0.00     0.023 C 
ENDROOT
BRANCH   1   2
ATOM      2  C   UNL A   1      36.165  22.853  25.955  1.00  0.00     0.023 C 
BRANCH   2   3
ATOM      3  C   UNL A   1      35.471  24.142  25.522  1.00  0.00     0.116 C 
BRANCH   3   4
ATOM      4  N   UNL A   1      34.096  24.208  25.985  1.00  0.00    -0.352 N 
ATOM      5  C   UNL A   1      32.927  23.588  25.703  1.00  0.00     0.251 C 
ATOM      6  O   UNL A   1      31.956  23.967  26.366  1.00  0.00    -0.270 OA
ATOM      7  H   UNL A   1      33.986  24.883  26.693  1.00  0.00     0.163 HD
BRANCH   5   8
ATOM      8  C   UNL A   1      32.739  22.515  24.679  1.00  0.00     0.067 C 
ATOM      9  C   UNL A   1      33.614  16.431  23.962  1.00  0.00     0.044 C 
ATOM     10  C   UNL A   1      33.161  17.811  23.586  1.00  0.00    -0.050 A 
ATOM     11  C   UNL A   1      32.533  18.049  22.358  1.00  0.00     0.007 A 
ATOM     12  C   UNL A   1      33.320  18.872  24.490  1.00  0.00     0.015 A 
ATOM     13  C   UNL A   1      32.089  19.330  22.031  1.00  0.00     0.047 A 
ATOM     14  C   UNL A   1      32.879  20.159  24.163  1.00  0.00     0.017 A 
ATOM     15  C   UNL A   1      32.274  20.379  22.927  1.00  0.00     0.128 A 
ATOM     16  C   UNL A   1      33.002  21.264  25.103  1.00  0.00     0.025 C 
ATOM     17  O   UNL A   1      31.790  21.601  22.553  1.00  0.00    -0.475 OA
ATOM     18  C   UNL A   1      32.339  22.755  23.250  1.00  0.00     0.314 C 
BRANCH  18  19
ATOM     19  C   UNL A   1      33.484  23.349  22.408  1.00  0.00     0.429 C 
ATOM     20  F   UNL A   1      33.595  24.683  22.636  1.00  0.00    -0.167 F 
ATOM     21  F   UNL A   1      34.687  22.809  22.707  1.00  0.00    -0.167 F 
ATOM     22  F   UNL A   1      33.296  23.183  21.079  1.00  0.00    -0.167 F 
ENDBRANCH  18  19
ENDBRANCH   5   8
ENDBRANCH   3   4
ENDBRANCH   2   3
ENDBRANCH   1   2
BRANCH   1  23
ATOM     23  C   UNL A   1      38.501  23.888  26.384  1.00  0.00     0.116 C 
BRANCH  23  24
ATOM     24  N   UNL A   1      39.939  23.751  26.199  1.00  0.00    -0.352 N 
ATOM     25  C   UNL A   1      40.936  24.545  26.724  1.00  0.00     0.251 C 
ATOM     26  H   UNL A   1      40.235  23.004  25.630  1.00  0.00     0.163 HD
ATOM     27  O   UNL A   1      42.112  24.347  26.436  1.00  0.00    -0.269 OA
BRANCH  25  28
ATOM     28  C   UNL A   1      40.551  25.674  27.595  1.00  0.00     0.039 A 
ATOM     29  C   UNL A   1      41.239  26.885  27.515  1.00  0.00     0.014 A 
ATOM     30  C   UNL A   1      39.572  25.472  28.571  1.00  0.00     0.014 A 
ATOM     31  C   UNL A   1      41.071  27.831  28.520  1.00  0.00     0.010 A 
ATOM     32  C   UNL A   1      39.357  26.453  29.541  1.00  0.00     0.010 A 
ATOM     33  C   UNL A   1      40.149  27.613  29.557  1.00  0.00    -0.014 A 
BRANCH  33  34
ATOM     34  C   UNL A   1      40.072  28.584  30.677  1.00  0.00     0.031 A 
ATOM     35  C   UNL A   1      41.072  28.532  31.803  1.00  0.00     0.074 A 
ATOM     36  C   UNL A   1      39.150  29.564  30.637  1.00  0.00     0.049 A 
ATOM     37  N   UNL A   1      41.175  29.310  32.850  1.00  0.00    -0.248 NA
ATOM     38  C   UNL A   1      42.089  27.469  31.748  1.00  0.00     0.031 C 
ATOM     39  C   UNL A   1      38.145  29.731  29.586  1.00  0.00     0.029 A 
ATOM     40  N   UNL A   1      38.929  30.621  31.482  1.00  0.00    -0.354 N 
ATOM     41  C   UNL A   1      42.247  28.821  33.587  1.00  0.00     0.074 A 
ATOM     42  C   UNL A   1      42.755  27.666  32.878  1.00  0.00     0.031 C 
ATOM     43  C   UNL A   1      37.453  30.857  29.817  1.00  0.00     0.029 A 
ATOM     44  C   UNL A   1      37.929  31.461  31.057  1.00  0.00     0.049 A 
ATOM     45  H   UNL A   1      39.438  30.764  32.312  1.00  0.00     0.167 HD
ATOM     46  C   UNL A   1      42.766  29.296  34.744  1.00  0.00     0.037 A 
ATOM     47  C   UNL A   1      37.444  32.591  31.607  1.00  0.00     0.037 A 
ATOM     48  C   UNL A   1      42.281  30.465  35.431  1.00  0.00     0.049 A 
ATOM     49  C   UNL A   1      38.024  33.087  32.899  1.00  0.00     0.074 A 
ATOM     50  C   UNL A   1      42.746  31.029  36.606  1.00  0.00     0.029 A 
ATOM     51  N   UNL A   1      41.226  31.255  34.999  1.00  0.00    -0.354 N 
ATOM     52  N   UNL A   1      39.016  32.591  33.597  1.00  0.00    -0.248 NA
ATOM     53  C   UNL A   1      37.407  34.282  33.487  1.00  0.00     0.031 C 
ATOM     54  C   UNL A   1      41.957  32.147  36.897  1.00  0.00     0.029 A 
ATOM     55  C   UNL A   1      41.019  32.295  35.889  1.00  0.00     0.049 A 
ATOM     56  H   UNL A   1      40.702  31.098  34.181  1.00  0.00     0.167 HD
ATOM     57  C   UNL A   1      39.142  33.411  34.711  1.00  0.00     0.074 A 
ATOM     58  C   UNL A   1      38.138  34.449  34.582  1.00  0.00     0.031 C 
ATOM     59  C   UNL A   1      40.005  33.309  35.750  1.00  0.00     0.037 A 
BRANCH  46  60
ATOM     60  C   UNL A   1      43.920  28.548  35.350  1.00  0.00     0.058 A 
ATOM     61  C   UNL A   1      45.249  28.847  35.012  1.00  0.00     0.135 A 
ATOM     62  C   UNL A   1      43.695  27.552  36.314  1.00  0.00     0.135 A 
ATOM     63  F   UNL A   1      45.516  29.778  34.083  1.00  0.00    -0.206 F 
ATOM     64  C   UNL A   1      46.316  28.174  35.598  1.00  0.00     0.059 A 
ATOM     65  C   UNL A   1      44.749  26.877  36.925  1.00  0.00     0.059 A 
ATOM     66  F   UNL A   1      42.442  27.226  36.668  1.00  0.00    -0.206 F 
ATOM     67  C   UNL A   1      46.055  27.188  36.553  1.00  0.00     0.060 A 
BRANCH  67  68
ATOM     68  S   UNL A   1      47.450  26.325  37.308  1.00  0.00     0.124 S 
ATOM     69  O   UNL A   1      48.572  26.872  36.553  1.00  0.00    -0.237 OA
ATOM     70  O   UNL A   1      47.361  26.744  38.702  1.00  0.00    -0.237 OA
ATOM     71  O   UNL A   1      47.153  24.918  37.060  1.00  0.00    -0.744 OA
ENDBRANCH  67  68
ENDBRANCH  46  60
BRANCH  47  72
ATOM     72  C   UNL A   1      36.349  33.322  30.924  1.00  0.00     0.058 A 
ATOM     73  C   UNL A   1      35.041  33.290  31.426  1.00  0.00     0.135 A 
ATOM     74  C   UNL A   1      36.601  34.113  29.793  1.00  0.00     0.135 A 
ATOM     75  F   UNL A   1      34.755  32.543  32.503  1.00  0.00    -0.206 F 
ATOM     76  C   UNL A   1      34.018  34.021  30.834  1.00  0.00     0.059 A 
ATOM     77  C   UNL A   1      35.598  34.868  29.194  1.00  0.00     0.059 A 
ATOM     78  F   UNL A   1      37.841  34.185  29.285  1.00  0.00    -0.206 F 
ATOM     79  C   UNL A   1      34.309  34.814  29.722  1.00  0.00     0.060 A 
BRANCH  79  80
ATOM     80  S   UNL A   1      32.996  35.830  29.010  1.00  0.00     0.124 S 
ATOM     81  O   UNL A   1      32.346  34.882  28.112  1.00  0.00    -0.237 OA
ATOM     82  O   UNL A   1      32.231  36.220  30.192  1.00  0.00    -0.237 OA
ATOM     83  O   UNL A   1      33.729  36.915  28.364  1.00  0.00    -0.744 OA
ENDBRANCH  79  80
ENDBRANCH  47  72
BRANCH  59  84
ATOM     84  C   UNL A   1      39.896  34.339  36.835  1.00  0.00     0.058 A 
ATOM     85  C   UNL A   1      40.540  35.581  36.723  1.00  0.00     0.135 A 
ATOM     86  C   UNL A   1      39.100  34.106  37.967  1.00  0.00     0.135 A 
ATOM     87  F   UNL A   1      41.316  35.845  35.660  1.00  0.00    -0.206 F 
ATOM     88  C   UNL A   1      40.409  36.555  37.705  1.00  0.00     0.059 A 
ATOM     89  C   UNL A   1      38.942  35.073  38.954  1.00  0.00     0.059 A 
ATOM     90  F   UNL A   1      38.460  32.937  38.114  1.00  0.00    -0.206 F 
ATOM     91  C   UNL A   1      39.607  36.292  38.818  1.00  0.00     0.060 A 
BRANCH  91  92
ATOM     92  S   UNL A   1      39.413  37.579  40.070  1.00  0.00     0.124 S 
ATOM     93  O   UNL A   1      40.755  38.153  40.110  1.00  0.00    -0.237 OA
ATOM     94  O   UNL A   1      38.378  38.429  39.490  1.00  0.00    -0.237 OA
ATOM     95  O   UNL A   1      39.011  36.836  41.260  1.00  0.00    -0.744 OA
ENDBRANCH  91  92
ENDBRANCH  59  84
ENDBRANCH  33  34
ENDBRANCH  25  28
ENDBRANCH  23  24
ENDBRANCH   1  23
TORSDOF 15
ENDMDL
