MODEL 1
REMARK VINA RESULT:     -12.9      0.000      0.000
REMARK SMILES Cc1ccc(C)c(-n2nc(C)c(/C=C(/C#N)C(=O)NCCCCNC(=O)c3ccc(-c4c5nc(c(-c6c(F)cc(S(=O)(=O)[O-])cc6F)c6ccc([nH]6)c(-c6c(F)cc(S(=O)(=O)[O-])cc6F)c6nc(c(-c7c(F)cc(S(=O)(=O)[O-])cc7F)c7ccc4[nH]7)C=C6)C=C5)cc3)c2Cl)c1
REMARK SMILES IDX 22 1 21 2 20 3 19 4 17 5 18 6 14 8 13 9 12 10 8 11 9 12
REMARK SMILES IDX 93 13 10 14 94 15 11 16 7 17 1 18 2 19 3 20 95 21 4 22 5 23
REMARK SMILES IDX 6 24 15 25 16 26 23 27 24 28 25 29 26 31 27 32 28 33 92 34
REMARK SMILES IDX 29 35 91 36 30 37 31 38 32 39 85 40 33 41 90 42 84 43 86 44
REMARK SMILES IDX 34 45 89 46 83 47 82 48 35 50 69 51 48 52 68 53 49 54 52 55
REMARK SMILES IDX 67 56 87 57 50 58 51 59 66 61 88 62 53 63 36 64 37 65 46 66
REMARK SMILES IDX 38 67 39 68 45 69 47 70 40 71 41 72 42 73 43 74 44 75 70 76
REMARK SMILES IDX 71 77 80 78 72 79 73 80 79 81 81 82 74 83 75 84 76 85 77 86
REMARK SMILES IDX 78 87 54 88 55 89 64 90 56 91 57 92 63 93 65 94 58 95 59 96
REMARK SMILES IDX 60 97 61 98 62 99
REMARK H PARENT 19 7 24 30 86 49 52 60
REMARK Flexibility Score: inf
ROOT
ATOM      1  C   UNL A   1      38.706  22.010  25.704  1.00  0.00     0.023 C 
ENDROOT
BRANCH   1   2
ATOM      2  C   UNL A   1      37.421  21.272  25.276  1.00  0.00     0.023 C 
BRANCH   2   3
ATOM      3  C   UNL A   1      36.105  22.052  25.469  1.00  0.00     0.116 C 
BRANCH   3   4
ATOM      4  N   UNL A   1      35.350  21.510  26.587  1.00  0.00    -0.351 N 
ATOM      5  C   UNL A   1      34.024  21.227  26.752  1.00  0.00     0.261 C 
ATOM      6  O   UNL A   1      33.591  21.272  27.904  1.00  0.00    -0.268 OA
ATOM      7  H   UNL A   1      35.900  21.307  27.377  1.00  0.00     0.163 HD
BRANCH   5   8
ATOM      8  C   UNL A   1      33.128  20.884  25.596  1.00  0.00     0.117 C 
ATOM      9  C   UNL A   1      32.204  21.740  25.119  1.00  0.00     0.038 C 
BRANCH   9  10
ATOM     10  C   UNL A   1      31.873  23.072  25.574  1.00  0.00     0.036 A 
ATOM     11  N   UNL A   1      32.030  25.291  25.841  1.00  0.00    -0.221 N 
ATOM     12  N   UNL A   1      31.147  24.883  26.782  1.00  0.00    -0.171 NA
ATOM     13  C   UNL A   1      32.535  24.206  25.152  1.00  0.00     0.140 A 
ATOM     14  C   UNL A   1      30.912  23.594  26.495  1.00  0.00     0.069 A 
ATOM     15  Cl  UNL A   1      33.886  24.369  24.108  1.00  0.00    -0.061 Cl
ATOM     16  C   UNL A   1      29.752  22.960  27.177  1.00  0.00     0.069 C 
BRANCH  11  17
ATOM     17  C   UNL A   1      32.318  26.671  25.671  1.00  0.00     0.069 A 
ATOM     18  C   UNL A   1      34.815  29.133  27.173  1.00  0.00     0.044 C 
ATOM     19  C   UNL A   1      33.697  28.567  26.350  1.00  0.00    -0.049 A 
ATOM     20  C   UNL A   1      33.027  29.367  25.422  1.00  0.00     0.004 A 
ATOM     21  C   UNL A   1      33.336  27.221  26.471  1.00  0.00     0.032 A 
ATOM     22  C   UNL A   1      32.030  28.822  24.610  1.00  0.00     0.006 A 
ATOM     23  C   UNL A   1      31.658  27.469  24.714  1.00  0.00    -0.025 A 
ATOM     24  C   UNL A   1      30.562  26.990  23.803  1.00  0.00     0.047 C 
ENDBRANCH  11  17
ENDBRANCH   9  10
BRANCH   8  25
ATOM     25  C   UNL A   1      33.556  19.607  24.889  1.00  0.00     0.105 C 
ATOM     26  N   UNL A   1      33.911  18.548  24.304  1.00  0.00    -0.192 NA
ENDBRANCH   8  25
ENDBRANCH   5   8
ENDBRANCH   3   4
ENDBRANCH   2   3
ENDBRANCH   1   2
BRANCH   1  27
ATOM     27  C   UNL A   1      39.859  21.161  26.266  1.00  0.00     0.116 C 
BRANCH  27  28
ATOM     28  N   UNL A   1      41.192  21.547  25.767  1.00  0.00    -0.352 N 
ATOM     29  C   UNL A   1      41.887  22.755  25.688  1.00  0.00     0.251 C 
ATOM     30  H   UNL A   1      41.704  20.786  25.412  1.00  0.00     0.163 HD
ATOM     31  O   UNL A   1      42.870  22.833  24.976  1.00  0.00    -0.269 OA
BRANCH  29  32
ATOM     32  C   UNL A   1      41.467  23.935  26.484  1.00  0.00     0.039 A 
ATOM     33  C   UNL A   1      40.651  24.974  26.025  1.00  0.00     0.014 A 
ATOM     34  C   UNL A   1      42.083  24.109  27.694  1.00  0.00     0.014 A 
ATOM     35  C   UNL A   1      40.606  26.175  26.761  1.00  0.00     0.010 A 
ATOM     36  C   UNL A   1      41.661  25.046  28.574  1.00  0.00     0.010 A 
ATOM     37  C   UNL A   1      41.195  26.215  28.024  1.00  0.00    -0.014 A 
BRANCH  37  38
ATOM     38  C   UNL A   1      41.387  27.374  28.883  1.00  0.00     0.031 A 
ATOM     39  C   UNL A   1      42.382  28.355  28.387  1.00  0.00     0.074 A 
ATOM     40  C   UNL A   1      40.416  27.803  29.724  1.00  0.00     0.049 A 
ATOM     41  N   UNL A   1      43.603  28.518  28.776  1.00  0.00    -0.248 NA
ATOM     42  C   UNL A   1      42.047  29.101  27.158  1.00  0.00     0.031 C 
ATOM     43  C   UNL A   1      39.070  27.255  29.939  1.00  0.00     0.029 A 
ATOM     44  N   UNL A   1      40.402  28.931  30.486  1.00  0.00    -0.354 N 
ATOM     45  C   UNL A   1      44.095  29.545  27.974  1.00  0.00     0.074 A 
ATOM     46  C   UNL A   1      43.245  29.572  26.819  1.00  0.00     0.031 C 
ATOM     47  C   UNL A   1      38.323  28.152  30.629  1.00  0.00     0.029 A 
ATOM     48  C   UNL A   1      39.162  29.278  31.007  1.00  0.00     0.049 A 
ATOM     49  H   UNL A   1      41.213  29.463  30.655  1.00  0.00     0.167 HD
ATOM     50  C   UNL A   1      44.936  30.507  28.451  1.00  0.00     0.037 A 
ATOM     51  C   UNL A   1      38.861  30.439  31.646  1.00  0.00     0.037 A 
ATOM     52  C   UNL A   1      45.388  30.168  29.781  1.00  0.00     0.049 A 
ATOM     53  C   UNL A   1      40.154  31.077  32.031  1.00  0.00     0.074 A 
ATOM     54  C   UNL A   1      46.018  29.077  30.348  1.00  0.00     0.029 A 
ATOM     55  N   UNL A   1      44.837  30.866  30.834  1.00  0.00    -0.354 N 
ATOM     56  N   UNL A   1      40.994  30.580  32.898  1.00  0.00    -0.248 NA
ATOM     57  C   UNL A   1      40.719  32.064  31.121  1.00  0.00     0.031 C 
ATOM     58  C   UNL A   1      45.405  28.916  31.626  1.00  0.00     0.029 A 
ATOM     59  C   UNL A   1      44.486  29.954  31.796  1.00  0.00     0.049 A 
ATOM     60  H   UNL A   1      44.717  31.841  30.886  1.00  0.00     0.167 HD
ATOM     61  C   UNL A   1      42.255  30.878  32.396  1.00  0.00     0.074 A 
ATOM     62  C   UNL A   1      42.020  31.876  31.356  1.00  0.00     0.031 C 
ATOM     63  C   UNL A   1      43.333  30.082  32.663  1.00  0.00     0.037 A 
BRANCH  50  64
ATOM     64  C   UNL A   1      45.057  31.923  27.905  1.00  0.00     0.058 A 
ATOM     65  C   UNL A   1      46.269  32.301  27.287  1.00  0.00     0.135 A 
ATOM     66  C   UNL A   1      44.163  32.989  28.160  1.00  0.00     0.135 A 
ATOM     67  F   UNL A   1      47.190  31.379  26.966  1.00  0.00    -0.206 F 
ATOM     68  C   UNL A   1      46.613  33.633  27.054  1.00  0.00     0.059 A 
ATOM     69  C   UNL A   1      44.459  34.317  27.877  1.00  0.00     0.059 A 
ATOM     70  F   UNL A   1      42.992  32.835  28.784  1.00  0.00    -0.206 F 
ATOM     71  C   UNL A   1      45.707  34.636  27.379  1.00  0.00     0.060 A 
BRANCH  71  72
ATOM     72  S   UNL A   1      46.196  36.361  27.234  1.00  0.00     0.124 S 
ATOM     73  O   UNL A   1      44.896  37.019  27.169  1.00  0.00    -0.237 OA
ATOM     74  O   UNL A   1      46.958  36.563  28.462  1.00  0.00    -0.237 OA
ATOM     75  O   UNL A   1      46.980  36.385  26.003  1.00  0.00    -0.744 OA
ENDBRANCH  71  72
ENDBRANCH  50  64
BRANCH  51  76
ATOM     76  C   UNL A   1      37.568  31.177  31.697  1.00  0.00     0.058 A 
ATOM     77  C   UNL A   1      36.948  31.480  32.925  1.00  0.00     0.135 A 
ATOM     78  C   UNL A   1      37.044  31.830  30.565  1.00  0.00     0.135 A 
ATOM     79  F   UNL A   1      37.396  30.924  34.062  1.00  0.00    -0.206 F 
ATOM     80  C   UNL A   1      35.900  32.402  33.031  1.00  0.00     0.059 A 
ATOM     81  C   UNL A   1      35.993  32.744  30.646  1.00  0.00     0.059 A 
ATOM     82  F   UNL A   1      37.593  31.666  29.352  1.00  0.00    -0.206 F 
ATOM     83  C   UNL A   1      35.435  33.039  31.883  1.00  0.00     0.060 A 
BRANCH  83  84
ATOM     84  S   UNL A   1      34.192  34.348  32.014  1.00  0.00     0.124 S 
ATOM     85  O   UNL A   1      33.255  33.768  32.970  1.00  0.00    -0.237 OA
ATOM     86  O   UNL A   1      34.978  35.481  32.491  1.00  0.00    -0.237 OA
ATOM     87  O   UNL A   1      33.699  34.468  30.646  1.00  0.00    -0.744 OA
ENDBRANCH  83  84
ENDBRANCH  51  76
BRANCH  63  88
ATOM     88  C   UNL A   1      43.230  29.079  33.783  1.00  0.00     0.058 A 
ATOM     89  C   UNL A   1      43.394  29.389  35.143  1.00  0.00     0.135 A 
ATOM     90  C   UNL A   1      42.753  27.795  33.473  1.00  0.00     0.135 A 
ATOM     91  F   UNL A   1      43.752  30.621  35.531  1.00  0.00    -0.206 F 
ATOM     92  C   UNL A   1      43.114  28.462  36.149  1.00  0.00     0.059 A 
ATOM     93  C   UNL A   1      42.438  26.865  34.459  1.00  0.00     0.059 A 
ATOM     94  F   UNL A   1      42.521  27.456  32.194  1.00  0.00    -0.206 F 
ATOM     95  C   UNL A   1      42.624  27.205  35.798  1.00  0.00     0.060 A 
BRANCH  95  96
ATOM     96  S   UNL A   1      42.139  26.055  37.103  1.00  0.00     0.124 S 
ATOM     97  O   UNL A   1      42.304  24.762  36.449  1.00  0.00    -0.237 OA
ATOM     98  O   UNL A   1      43.096  26.357  38.164  1.00  0.00    -0.237 OA
ATOM     99  O   UNL A   1      40.759  26.436  37.396  1.00  0.00    -0.744 OA
ENDBRANCH  95  96
ENDBRANCH  63  88
ENDBRANCH  37  38
ENDBRANCH  29  32
ENDBRANCH  27  28
ENDBRANCH   1  27
TORSDOF 17
ENDMDL
MODEL 2
REMARK VINA RESULT:     -12.7      2.945      9.566
REMARK SMILES Cc1ccc(C)c(-n2nc(C)c(/C=C(/C#N)C(=O)NCCCCNC(=O)c3ccc(-c4c5nc(c(-c6c(F)cc(S(=O)(=O)[O-])cc6F)c6ccc([nH]6)c(-c6c(F)cc(S(=O)(=O)[O-])cc6F)c6nc(c(-c7c(F)cc(S(=O)(=O)[O-])cc7F)c7ccc4[nH]7)C=C6)C=C5)cc3)c2Cl)c1
REMARK SMILES IDX 22 1 21 2 20 3 19 4 17 5 18 6 14 8 13 9 12 10 8 11 9 12
REMARK SMILES IDX 93 13 10 14 94 15 11 16 7 17 1 18 2 19 3 20 95 21 4 22 5 23
REMARK SMILES IDX 6 24 15 25 16 26 23 27 24 28 25 29 26 31 27 32 28 33 92 34
REMARK SMILES IDX 29 35 91 36 30 37 31 38 32 39 85 40 33 41 90 42 84 43 86 44
REMARK SMILES IDX 34 45 89 46 83 47 82 48 35 50 69 51 48 52 68 53 49 54 52 55
REMARK SMILES IDX 67 56 87 57 50 58 51 59 66 61 88 62 53 63 36 64 37 65 46 66
REMARK SMILES IDX 38 67 39 68 45 69 47 70 40 71 41 72 42 73 43 74 44 75 70 76
REMARK SMILES IDX 71 77 80 78 72 79 73 80 79 81 81 82 74 83 75 84 76 85 77 86
REMARK SMILES IDX 78 87 54 88 55 89 64 90 56 91 57 92 63 93 65 94 58 95 59 96
REMARK SMILES IDX 60 97 61 98 62 99
REMARK H PARENT 19 7 24 30 86 49 52 60
REMARK Flexibility Score: inf
ROOT
ATOM      1  C   UNL A   1      33.251  30.919  27.459  1.00  0.00     0.023 C 
ENDROOT
BRANCH   1   2
ATOM      2  C   UNL A   1      32.047  30.721  26.515  1.00  0.00     0.023 C 
BRANCH   2   3
ATOM      3  C   UNL A   1      32.032  29.402  25.716  1.00  0.00     0.116 C 
BRANCH   3   4
ATOM      4  N   UNL A   1      32.688  29.576  24.431  1.00  0.00    -0.351 N 
ATOM      5  C   UNL A   1      32.492  28.996  23.210  1.00  0.00     0.261 C 
ATOM      6  O   UNL A   1      33.470  28.938  22.465  1.00  0.00    -0.268 OA
ATOM      7  H   UNL A   1      33.414  30.241  24.441  1.00  0.00     0.163 HD
BRANCH   5   8
ATOM      8  C   UNL A   1      31.158  28.446  22.790  1.00  0.00     0.117 C 
ATOM      9  C   UNL A   1      30.986  27.157  22.443  1.00  0.00     0.038 C 
BRANCH   9  10
ATOM     10  C   UNL A   1      31.958  26.089  22.386  1.00  0.00     0.036 A 
ATOM     11  N   UNL A   1      33.425  24.554  23.102  1.00  0.00    -0.221 N 
ATOM     12  N   UNL A   1      33.651  24.665  21.772  1.00  0.00    -0.171 NA
ATOM     13  C   UNL A   1      32.460  25.456  23.504  1.00  0.00     0.140 A 
ATOM     14  C   UNL A   1      32.651  25.435  21.318  1.00  0.00     0.069 A 
ATOM     15  Cl  UNL A   1      32.171  25.762  25.167  1.00  0.00    -0.061 Cl
ATOM     16  C   UNL A   1      32.464  25.485  19.844  1.00  0.00     0.069 C 
BRANCH  11  17
ATOM     17  C   UNL A   1      34.137  23.600  23.877  1.00  0.00     0.069 A 
ATOM     18  C   UNL A   1      37.331  23.633  25.963  1.00  0.00     0.044 C 
ATOM     19  C   UNL A   1      36.083  23.157  25.283  1.00  0.00    -0.049 A 
ATOM     20  C   UNL A   1      35.630  21.850  25.469  1.00  0.00     0.004 A 
ATOM     21  C   UNL A   1      35.333  24.027  24.484  1.00  0.00     0.032 A 
ATOM     22  C   UNL A   1      34.433  21.426  24.888  1.00  0.00     0.006 A 
ATOM     23  C   UNL A   1      33.663  22.289  24.086  1.00  0.00    -0.025 A 
ATOM     24  C   UNL A   1      32.399  21.727  23.496  1.00  0.00     0.047 C 
ENDBRANCH  11  17
ENDBRANCH   9  10
BRANCH   8  25
ATOM     25  C   UNL A   1      30.021  29.423  23.048  1.00  0.00     0.105 C 
ATOM     26  N   UNL A   1      29.078  30.232  23.263  1.00  0.00    -0.192 NA
ENDBRANCH   8  25
ENDBRANCH   5   8
ENDBRANCH   3   4
ENDBRANCH   2   3
ENDBRANCH   1   2
BRANCH   1  27
ATOM     27  C   UNL A   1      33.711  32.362  27.730  1.00  0.00     0.116 C 
BRANCH  27  28
ATOM     28  N   UNL A   1      33.915  32.672  29.157  1.00  0.00    -0.352 N 
ATOM     29  C   UNL A   1      34.777  32.189  30.142  1.00  0.00     0.251 C 
ATOM     30  H   UNL A   1      33.310  33.375  29.487  1.00  0.00     0.163 HD
ATOM     31  O   UNL A   1      34.543  32.431  31.311  1.00  0.00    -0.269 OA
BRANCH  29  32
ATOM     32  C   UNL A   1      35.992  31.416  29.786  1.00  0.00     0.039 A 
ATOM     33  C   UNL A   1      36.054  30.027  29.636  1.00  0.00     0.014 A 
ATOM     34  C   UNL A   1      37.178  32.099  29.794  1.00  0.00     0.014 A 
ATOM     35  C   UNL A   1      37.318  29.402  29.626  1.00  0.00     0.010 A 
ATOM     36  C   UNL A   1      38.318  31.543  29.322  1.00  0.00     0.010 A 
ATOM     37  C   UNL A   1      38.462  30.196  29.546  1.00  0.00    -0.014 A 
BRANCH  37  38
ATOM     38  C   UNL A   1      39.850  29.774  29.664  1.00  0.00     0.031 A 
ATOM     39  C   UNL A   1      40.275  29.418  31.039  1.00  0.00     0.074 A 
ATOM     40  C   UNL A   1      40.519  29.235  28.617  1.00  0.00     0.049 A 
ATOM     41  N   UNL A   1      40.965  30.127  31.868  1.00  0.00    -0.248 NA
ATOM     42  C   UNL A   1      39.674  28.214  31.645  1.00  0.00     0.031 C 
ATOM     43  C   UNL A   1      40.043  28.970  27.253  1.00  0.00     0.029 A 
ATOM     44  N   UNL A   1      41.764  28.686  28.609  1.00  0.00    -0.354 N 
ATOM     45  C   UNL A   1      41.058  29.341  33.014  1.00  0.00     0.074 A 
ATOM     46  C   UNL A   1      39.973  28.407  32.928  1.00  0.00     0.031 C 
ATOM     47  C   UNL A   1      40.923  28.154  26.620  1.00  0.00     0.029 A 
ATOM     48  C   UNL A   1      42.073  27.935  27.482  1.00  0.00     0.049 A 
ATOM     49  H   UNL A   1      42.400  28.810  29.351  1.00  0.00     0.167 HD
ATOM     50  C   UNL A   1      42.191  29.282  33.772  1.00  0.00     0.037 A 
ATOM     51  C   UNL A   1      43.173  27.153  27.319  1.00  0.00     0.037 A 
ATOM     52  C   UNL A   1      43.136  30.290  33.346  1.00  0.00     0.049 A 
ATOM     53  C   UNL A   1      44.154  27.552  28.370  1.00  0.00     0.074 A 
ATOM     54  C   UNL A   1      43.092  31.662  33.188  1.00  0.00     0.029 A 
ATOM     55  N   UNL A   1      44.227  29.867  32.618  1.00  0.00    -0.354 N 
ATOM     56  N   UNL A   1      44.741  28.717  28.432  1.00  0.00    -0.248 NA
ATOM     57  C   UNL A   1      44.158  26.794  29.615  1.00  0.00     0.031 C 
ATOM     58  C   UNL A   1      43.844  31.924  32.004  1.00  0.00     0.029 A 
ATOM     59  C   UNL A   1      44.359  30.710  31.544  1.00  0.00     0.049 A 
ATOM     60  H   UNL A   1      44.807  29.101  32.830  1.00  0.00     0.167 HD
ATOM     61  C   UNL A   1      44.827  29.010  29.787  1.00  0.00     0.074 A 
ATOM     62  C   UNL A   1      44.544  27.748  30.465  1.00  0.00     0.031 C 
ATOM     63  C   UNL A   1      44.830  30.300  30.237  1.00  0.00     0.037 A 
BRANCH  50  64
ATOM     64  C   UNL A   1      42.620  28.098  34.626  1.00  0.00     0.058 A 
ATOM     65  C   UNL A   1      42.767  28.294  36.017  1.00  0.00     0.135 A 
ATOM     66  C   UNL A   1      43.122  26.866  34.145  1.00  0.00     0.135 A 
ATOM     67  F   UNL A   1      42.307  29.411  36.602  1.00  0.00    -0.206 F 
ATOM     68  C   UNL A   1      43.460  27.401  36.835  1.00  0.00     0.059 A 
ATOM     69  C   UNL A   1      43.758  25.933  34.955  1.00  0.00     0.059 A 
ATOM     70  F   UNL A   1      43.121  26.524  32.853  1.00  0.00    -0.206 F 
ATOM     71  C   UNL A   1      43.974  26.233  36.285  1.00  0.00     0.060 A 
BRANCH  71  72
ATOM     72  S   UNL A   1      45.003  25.151  37.288  1.00  0.00     0.124 S 
ATOM     73  O   UNL A   1      46.337  25.631  36.946  1.00  0.00    -0.237 OA
ATOM     74  O   UNL A   1      44.537  25.455  38.637  1.00  0.00    -0.237 OA
ATOM     75  O   UNL A   1      44.664  23.818  36.798  1.00  0.00    -0.744 OA
ENDBRANCH  71  72
ENDBRANCH  50  64
BRANCH  51  76
ATOM     76  C   UNL A   1      43.332  25.907  26.520  1.00  0.00     0.058 A 
ATOM     77  C   UNL A   1      44.297  25.812  25.498  1.00  0.00     0.135 A 
ATOM     78  C   UNL A   1      42.726  24.697  26.909  1.00  0.00     0.135 A 
ATOM     79  F   UNL A   1      44.944  26.911  25.079  1.00  0.00    -0.206 F 
ATOM     80  C   UNL A   1      44.667  24.590  24.924  1.00  0.00     0.059 A 
ATOM     81  C   UNL A   1      43.073  23.469  26.344  1.00  0.00     0.059 A 
ATOM     82  F   UNL A   1      41.838  24.656  27.913  1.00  0.00    -0.206 F 
ATOM     83  C   UNL A   1      44.055  23.419  25.364  1.00  0.00     0.060 A 
BRANCH  83  84
ATOM     84  S   UNL A   1      44.627  21.814  24.753  1.00  0.00     0.124 S 
ATOM     85  O   UNL A   1      44.639  22.036  23.311  1.00  0.00    -0.237 OA
ATOM     86  O   UNL A   1      45.931  21.681  25.393  1.00  0.00    -0.237 OA
ATOM     87  O   UNL A   1      43.602  20.896  25.238  1.00  0.00    -0.744 OA
ENDBRANCH  83  84
ENDBRANCH  51  76
BRANCH  63  88
ATOM     88  C   UNL A   1      45.091  31.408  29.248  1.00  0.00     0.058 A 
ATOM     89  C   UNL A   1      46.365  31.767  28.777  1.00  0.00     0.135 A 
ATOM     90  C   UNL A   1      43.985  31.995  28.612  1.00  0.00     0.135 A 
ATOM     91  F   UNL A   1      47.469  31.183  29.263  1.00  0.00    -0.206 F 
ATOM     92  C   UNL A   1      46.534  32.678  27.733  1.00  0.00     0.059 A 
ATOM     93  C   UNL A   1      44.128  32.882  27.549  1.00  0.00     0.059 A 
ATOM     94  F   UNL A   1      42.739  31.651  28.979  1.00  0.00    -0.206 F 
ATOM     95  C   UNL A   1      45.408  33.222  27.116  1.00  0.00     0.060 A 
BRANCH  95  96
ATOM     96  S   UNL A   1      45.627  34.298  25.682  1.00  0.00     0.124 S 
ATOM     97  O   UNL A   1      44.848  33.606  24.661  1.00  0.00    -0.237 OA
ATOM     98  O   UNL A   1      45.076  35.567  26.150  1.00  0.00    -0.237 OA
ATOM     99  O   UNL A   1      47.073  34.297  25.473  1.00  0.00    -0.744 OA
ENDBRANCH  95  96
ENDBRANCH  63  88
ENDBRANCH  37  38
ENDBRANCH  29  32
ENDBRANCH  27  28
ENDBRANCH   1  27
TORSDOF 17
ENDMDL
MODEL 3
REMARK VINA RESULT:     -12.4      2.787      9.571
REMARK SMILES Cc1ccc(C)c(-n2nc(C)c(/C=C(/C#N)C(=O)NCCCCNC(=O)c3ccc(-c4c5nc(c(-c6c(F)cc(S(=O)(=O)[O-])cc6F)c6ccc([nH]6)c(-c6c(F)cc(S(=O)(=O)[O-])cc6F)c6nc(c(-c7c(F)cc(S(=O)(=O)[O-])cc7F)c7ccc4[nH]7)C=C6)C=C5)cc3)c2Cl)c1
REMARK SMILES IDX 22 1 21 2 20 3 19 4 17 5 18 6 14 8 13 9 12 10 8 11 9 12
REMARK SMILES IDX 93 13 10 14 94 15 11 16 7 17 1 18 2 19 3 20 95 21 4 22 5 23
REMARK SMILES IDX 6 24 15 25 16 26 23 27 24 28 25 29 26 31 27 32 28 33 92 34
REMARK SMILES IDX 29 35 91 36 30 37 31 38 32 39 85 40 33 41 90 42 84 43 86 44
REMARK SMILES IDX 34 45 89 46 83 47 82 48 35 50 69 51 48 52 68 53 49 54 52 55
REMARK SMILES IDX 67 56 87 57 50 58 51 59 66 61 88 62 53 63 36 64 37 65 46 66
REMARK SMILES IDX 38 67 39 68 45 69 47 70 40 71 41 72 42 73 43 74 44 75 70 76
REMARK SMILES IDX 71 77 80 78 72 79 73 80 79 81 81 82 74 83 75 84 76 85 77 86
REMARK SMILES IDX 78 87 54 88 55 89 64 90 56 91 57 92 63 93 65 94 58 95 59 96
REMARK SMILES IDX 60 97 61 98 62 99
REMARK H PARENT 19 7 24 30 86 49 52 60
REMARK Flexibility Score: inf
ROOT
ATOM      1  C   UNL A   1      32.079  30.220  26.855  1.00  0.00     0.023 C 
ENDROOT
BRANCH   1   2
ATOM      2  C   UNL A   1      31.599  29.329  25.691  1.00  0.00     0.023 C 
BRANCH   2   3
ATOM      3  C   UNL A   1      31.870  27.819  25.848  1.00  0.00     0.116 C 
BRANCH   3   4
ATOM      4  N   UNL A   1      32.816  27.363  24.842  1.00  0.00    -0.351 N 
ATOM      5  C   UNL A   1      32.724  26.435  23.845  1.00  0.00     0.261 C 
ATOM      6  O   UNL A   1      33.774  25.896  23.496  1.00  0.00    -0.268 OA
ATOM      7  H   UNL A   1      33.692  27.810  24.889  1.00  0.00     0.163 HD
BRANCH   5   8
ATOM      8  C   UNL A   1      31.414  26.077  23.203  1.00  0.00     0.117 C 
ATOM      9  C   UNL A   1      30.833  24.873  23.369  1.00  0.00     0.038 C 
BRANCH   9  10
ATOM     10  C   UNL A   1      31.296  23.734  24.129  1.00  0.00     0.036 A 
ATOM     11  N   UNL A   1      32.363  21.816  24.584  1.00  0.00    -0.221 N 
ATOM     12  N   UNL A   1      31.493  21.989  25.606  1.00  0.00    -0.171 NA
ATOM     13  C   UNL A   1      32.208  22.818  23.646  1.00  0.00     0.140 A 
ATOM     14  C   UNL A   1      30.998  23.223  25.431  1.00  0.00     0.069 A 
ATOM     15  Cl  UNL A   1      32.954  22.712  22.105  1.00  0.00    -0.061 Cl
ATOM     16  C   UNL A   1      30.240  23.806  26.570  1.00  0.00     0.069 C 
BRANCH  11  17
ATOM     17  C   UNL A   1      33.269  20.723  24.585  1.00  0.00     0.069 A 
ATOM     18  C   UNL A   1      33.140  17.086  23.438  1.00  0.00     0.044 C 
ATOM     19  C   UNL A   1      33.634  18.376  24.022  1.00  0.00    -0.049 A 
ATOM     20  C   UNL A   1      34.948  18.487  24.480  1.00  0.00     0.004 A 
ATOM     21  C   UNL A   1      32.799  19.497  24.079  1.00  0.00     0.032 A 
ATOM     22  C   UNL A   1      35.427  19.707  24.964  1.00  0.00     0.006 A 
ATOM     23  C   UNL A   1      34.603  20.846  25.023  1.00  0.00    -0.025 A 
ATOM     24  C   UNL A   1      35.215  22.103  25.575  1.00  0.00     0.047 C 
ENDBRANCH  11  17
ENDBRANCH   9  10
BRANCH   8  25
ATOM     25  C   UNL A   1      30.723  27.282  22.583  1.00  0.00     0.105 C 
ATOM     26  N   UNL A   1      30.150  28.280  22.069  1.00  0.00    -0.192 NA
ENDBRANCH   8  25
ENDBRANCH   5   8
ENDBRANCH   3   4
ENDBRANCH   2   3
ENDBRANCH   1   2
BRANCH   1  27
ATOM     27  C   UNL A   1      33.596  30.401  27.031  1.00  0.00     0.116 C 
BRANCH  27  28
ATOM     28  N   UNL A   1      33.971  31.506  27.933  1.00  0.00    -0.352 N 
ATOM     29  C   UNL A   1      34.940  31.664  28.925  1.00  0.00     0.251 C 
ATOM     30  H   UNL A   1      33.416  32.309  27.807  1.00  0.00     0.163 HD
ATOM     31  O   UNL A   1      34.849  32.592  29.706  1.00  0.00    -0.269 OA
BRANCH  29  32
ATOM     32  C   UNL A   1      36.097  30.741  29.020  1.00  0.00     0.039 A 
ATOM     33  C   UNL A   1      36.240  29.714  29.960  1.00  0.00     0.014 A 
ATOM     34  C   UNL A   1      37.188  31.043  28.252  1.00  0.00     0.014 A 
ATOM     35  C   UNL A   1      37.514  29.140  30.148  1.00  0.00     0.010 A 
ATOM     36  C   UNL A   1      38.227  30.184  28.129  1.00  0.00     0.010 A 
ATOM     37  C   UNL A   1      38.534  29.454  29.251  1.00  0.00    -0.014 A 
BRANCH  37  38
ATOM     38  C   UNL A   1      39.941  29.092  29.339  1.00  0.00     0.031 A 
ATOM     39  C   UNL A   1      40.449  28.907  30.719  1.00  0.00     0.074 A 
ATOM     40  C   UNL A   1      40.576  28.460  28.322  1.00  0.00     0.049 A 
ATOM     41  N   UNL A   1      41.154  29.727  31.426  1.00  0.00    -0.248 NA
ATOM     42  C   UNL A   1      39.925  27.761  31.487  1.00  0.00     0.031 C 
ATOM     43  C   UNL A   1      40.041  28.027  27.025  1.00  0.00     0.029 A 
ATOM     44  N   UNL A   1      41.838  27.952  28.308  1.00  0.00    -0.354 N 
ATOM     45  C   UNL A   1      41.335  29.078  32.644  1.00  0.00     0.074 A 
ATOM     46  C   UNL A   1      40.282  28.107  32.723  1.00  0.00     0.031 C 
ATOM     47  C   UNL A   1      40.916  27.173  26.439  1.00  0.00     0.029 A 
ATOM     48  C   UNL A   1      42.116  27.089  27.255  1.00  0.00     0.049 A 
ATOM     49  H   UNL A   1      42.506  28.179  28.995  1.00  0.00     0.167 HD
ATOM     50  C   UNL A   1      42.506  29.140  33.340  1.00  0.00     0.037 A 
ATOM     51  C   UNL A   1      43.235  26.329  27.120  1.00  0.00     0.037 A 
ATOM     52  C   UNL A   1      43.390  30.123  32.754  1.00  0.00     0.049 A 
ATOM     53  C   UNL A   1      44.253  26.874  28.065  1.00  0.00     0.074 A 
ATOM     54  C   UNL A   1      43.287  31.466  32.447  1.00  0.00     0.029 A 
ATOM     55  N   UNL A   1      44.457  29.655  32.019  1.00  0.00    -0.354 N 
ATOM     56  N   UNL A   1      44.798  28.056  27.965  1.00  0.00    -0.248 NA
ATOM     57  C   UNL A   1      44.349  26.261  29.384  1.00  0.00     0.031 C 
ATOM     58  C   UNL A   1      43.966  31.617  31.202  1.00  0.00     0.029 A 
ATOM     59  C   UNL A   1      44.502  30.375  30.852  1.00  0.00     0.049 A 
ATOM     60  H   UNL A   1      45.075  28.936  32.283  1.00  0.00     0.167 HD
ATOM     61  C   UNL A   1      44.943  28.503  29.272  1.00  0.00     0.074 A 
ATOM     62  C   UNL A   1      44.742  27.318  30.100  1.00  0.00     0.031 C 
ATOM     63  C   UNL A   1      44.921  29.835  29.574  1.00  0.00     0.037 A 
BRANCH  50  64
ATOM     64  C   UNL A   1      43.023  28.074  34.297  1.00  0.00     0.058 A 
ATOM     65  C   UNL A   1      43.250  28.436  35.642  1.00  0.00     0.135 A 
ATOM     66  C   UNL A   1      43.529  26.806  33.929  1.00  0.00     0.135 A 
ATOM     67  F   UNL A   1      42.794  29.603  36.123  1.00  0.00    -0.206 F 
ATOM     68  C   UNL A   1      44.018  27.660  36.512  1.00  0.00     0.059 A 
ATOM     69  C   UNL A   1      44.242  25.988  34.798  1.00  0.00     0.059 A 
ATOM     70  F   UNL A   1      43.458  26.315  32.689  1.00  0.00    -0.206 F 
ATOM     71  C   UNL A   1      44.531  26.448  36.068  1.00  0.00     0.060 A 
BRANCH  71  72
ATOM     72  S   UNL A   1      45.652  25.514  37.120  1.00  0.00     0.124 S 
ATOM     73  O   UNL A   1      46.898  26.247  36.929  1.00  0.00    -0.237 OA
ATOM     74  O   UNL A   1      45.021  25.648  38.428  1.00  0.00    -0.237 OA
ATOM     75  O   UNL A   1      45.612  24.172  36.544  1.00  0.00    -0.744 OA
ENDBRANCH  71  72
ENDBRANCH  50  64
BRANCH  51  76
ATOM     76  C   UNL A   1      43.399  25.006  26.457  1.00  0.00     0.058 A 
ATOM     77  C   UNL A   1      44.265  24.842  25.358  1.00  0.00     0.135 A 
ATOM     78  C   UNL A   1      42.917  23.819  27.042  1.00  0.00     0.135 A 
ATOM     79  F   UNL A   1      44.794  25.915  24.751  1.00  0.00    -0.206 F 
ATOM     80  C   UNL A   1      44.660  23.581  24.892  1.00  0.00     0.059 A 
ATOM     81  C   UNL A   1      43.289  22.554  26.589  1.00  0.00     0.059 A 
ATOM     82  F   UNL A   1      42.134  23.851  28.131  1.00  0.00    -0.206 F 
ATOM     83  C   UNL A   1      44.172  22.440  25.524  1.00  0.00     0.060 A 
BRANCH  83  84
ATOM     84  S   UNL A   1      44.789  20.807  25.045  1.00  0.00     0.124 S 
ATOM     85  O   UNL A   1      46.162  20.855  25.538  1.00  0.00    -0.237 OA
ATOM     86  O   UNL A   1      43.884  19.909  25.754  1.00  0.00    -0.237 OA
ATOM     87  O   UNL A   1      44.642  20.816  23.593  1.00  0.00    -0.744 OA
ENDBRANCH  83  84
ENDBRANCH  51  76
BRANCH  63  88
ATOM     88  C   UNL A   1      45.090  30.832  28.456  1.00  0.00     0.058 A 
ATOM     89  C   UNL A   1      44.038  31.315  27.660  1.00  0.00     0.135 A 
ATOM     90  C   UNL A   1      46.336  31.464  28.322  1.00  0.00     0.135 A 
ATOM     91  F   UNL A   1      42.795  30.833  27.793  1.00  0.00    -0.206 F 
ATOM     92  C   UNL A   1      44.220  32.366  26.758  1.00  0.00     0.059 A 
ATOM     93  C   UNL A   1      46.533  32.534  27.454  1.00  0.00     0.059 A 
ATOM     94  F   UNL A   1      47.367  31.087  29.097  1.00  0.00    -0.206 F 
ATOM     95  C   UNL A   1      45.470  32.978  26.671  1.00  0.00     0.060 A 
BRANCH  95  96
ATOM     96  S   UNL A   1      45.668  34.420  25.602  1.00  0.00     0.124 S 
ATOM     97  O   UNL A   1      44.812  34.082  24.470  1.00  0.00    -0.237 OA
ATOM     98  O   UNL A   1      45.196  35.511  26.451  1.00  0.00    -0.237 OA
ATOM     99  O   UNL A   1      47.101  34.440  25.318  1.00  0.00    -0.744 OA
ENDBRANCH  95  96
ENDBRANCH  63  88
ENDBRANCH  37  38
ENDBRANCH  29  32
ENDBRANCH  27  28
ENDBRANCH   1  27
TORSDOF 17
ENDMDL
