MODEL 1
REMARK VINA RESULT:     -12.6      0.000      0.000
REMARK SMILES Cc1c(CC(=O)NCCCCNC(=O)c2ccc(-c3c4nc(c(-c5c(F)cc(S(=O)(=O)[O-])cc5F)c5ccc([nH]5)c(-c5c(F)cc(S(=O)(=O)[O-])cc5F)c5nc(c(-c6c(F)cc(S(=O)(=O)[O-])cc6F)c6ccc3[nH]6)C=C5)C=C4)cc2)cc(-c2ccc(S(C)(=O)=O)cc2)n1-c1cccc(F)c1
REMARK SMILES IDX 9 1 8 2 7 3 5 4 6 5 4 7 3 8 1 9 2 10 93 11 81 12 82 13 94 14
REMARK SMILES IDX 95 15 100 16 96 17 98 18 97 19 99 20 83 21 84 22 92 23 85 24
REMARK SMILES IDX 91 25 86 26 87 27 88 28 89 29 90 30 10 31 11 32 12 33 13 34
REMARK SMILES IDX 14 36 15 37 16 38 80 39 17 40 79 41 18 42 19 43 20 44 73 45
REMARK SMILES IDX 21 46 78 47 72 48 74 49 22 50 77 51 71 52 70 53 23 55 57 56
REMARK SMILES IDX 36 57 56 58 37 59 40 60 55 61 75 62 38 63 39 64 54 66 76 67
REMARK SMILES IDX 41 68 24 69 25 70 34 71 26 72 27 73 33 74 35 75 28 76 29 77
REMARK SMILES IDX 30 78 31 79 32 80 58 81 59 82 68 83 60 84 61 85 67 86 69 87
REMARK SMILES IDX 62 88 63 89 64 90 65 91 66 92 42 93 43 94 52 95 44 96 45 97
REMARK SMILES IDX 51 98 53 99 46 100 47 101 48 102 49 103 50 104
REMARK H PARENT 7 6 12 35 74 54 40 65
REMARK Flexibility Score: inf
ROOT
ATOM      1  C   UNL A   1      36.196  21.537  24.672  1.00  0.00     0.023 C 
ENDROOT
BRANCH   1   2
ATOM      2  C   UNL A   1      34.719  21.154  24.788  1.00  0.00     0.116 C 
BRANCH   2   3
ATOM      3  N   UNL A   1      33.995  21.353  23.544  1.00  0.00    -0.356 N 
ATOM      4  C   UNL A   1      32.704  21.734  23.329  1.00  0.00     0.224 C 
ATOM      5  O   UNL A   1      32.318  21.847  22.164  1.00  0.00    -0.275 OA
ATOM      6  H   UNL A   1      34.520  21.187  22.728  1.00  0.00     0.163 HD
BRANCH   4   7
ATOM      7  C   UNL A   1      31.786  22.028  24.499  1.00  0.00     0.137 C 
BRANCH   7   8
ATOM      8  C   UNL A   1      31.585  23.496  24.717  1.00  0.00    -0.017 A 
ATOM      9  C   UNL A   1      33.253  23.947  26.654  1.00  0.00     0.065 C 
ATOM     10  C   UNL A   1      32.257  24.326  25.605  1.00  0.00     0.024 A 
ATOM     11  N   UNL A   1      31.800  25.626  25.416  1.00  0.00    -0.313 N 
ATOM     12  C   UNL A   1      30.637  24.303  24.040  1.00  0.00     0.033 A 
ATOM     13  C   UNL A   1      30.799  25.615  24.445  1.00  0.00     0.053 A 
BRANCH  11  14
ATOM     14  C   UNL A   1      32.265  26.775  26.108  1.00  0.00     0.049 A 
ATOM     15  C   UNL A   1      31.408  27.447  26.990  1.00  0.00     0.027 A 
ATOM     16  C   UNL A   1      33.554  27.256  25.864  1.00  0.00     0.065 A 
ATOM     17  C   UNL A   1      31.844  28.605  27.633  1.00  0.00     0.005 A 
ATOM     18  C   UNL A   1      33.963  28.423  26.498  1.00  0.00     0.125 A 
ATOM     19  C   UNL A   1      33.123  29.098  27.380  1.00  0.00     0.039 A 
ATOM     20  F   UNL A   1      35.179  28.920  26.241  1.00  0.00    -0.207 F 
ENDBRANCH  11  14
BRANCH  13  21
ATOM     21  C   UNL A   1      30.134  26.800  23.892  1.00  0.00    -0.001 A 
ATOM     22  C   UNL A   1      28.735  26.900  23.874  1.00  0.00     0.011 A 
ATOM     23  C   UNL A   1      30.902  27.861  23.395  1.00  0.00     0.011 A 
ATOM     24  C   UNL A   1      28.109  28.018  23.319  1.00  0.00     0.021 A 
ATOM     25  C   UNL A   1      30.283  28.984  22.839  1.00  0.00     0.021 A 
ATOM     26  C   UNL A   1      28.889  29.046  22.788  1.00  0.00     0.067 A 
BRANCH  26  27
ATOM     27  S   UNL A   1      28.095  30.461  22.065  1.00  0.00     0.175 S 
ATOM     28  C   UNL A   1      29.235  31.789  22.350  1.00  0.00     0.163 C 
ATOM     29  O   UNL A   1      28.027  30.225  20.629  1.00  0.00    -0.224 OA
ATOM     30  O   UNL A   1      26.902  30.744  22.831  1.00  0.00    -0.224 OA
ENDBRANCH  26  27
ENDBRANCH  13  21
ENDBRANCH   7   8
ENDBRANCH   4   7
ENDBRANCH   2   3
ENDBRANCH   1   2
BRANCH   1  31
ATOM     31  C   UNL A   1      36.540  23.025  24.875  1.00  0.00     0.023 C 
BRANCH  31  32
ATOM     32  C   UNL A   1      37.735  23.384  25.770  1.00  0.00     0.116 C 
BRANCH  32  33
ATOM     33  N   UNL A   1      38.828  22.446  25.769  1.00  0.00    -0.352 N 
ATOM     34  C   UNL A   1      40.118  22.714  26.205  1.00  0.00     0.251 C 
ATOM     35  H   UNL A   1      38.645  21.541  25.429  1.00  0.00     0.163 HD
ATOM     36  O   UNL A   1      40.956  21.820  26.134  1.00  0.00    -0.269 OA
BRANCH  34  37
ATOM     37  C   UNL A   1      40.490  24.101  26.677  1.00  0.00     0.039 A 
ATOM     38  C   UNL A   1      40.302  24.429  28.013  1.00  0.00     0.014 A 
ATOM     39  C   UNL A   1      40.893  25.137  25.819  1.00  0.00     0.014 A 
ATOM     40  C   UNL A   1      40.565  25.750  28.482  1.00  0.00     0.010 A 
ATOM     41  C   UNL A   1      41.091  26.497  26.288  1.00  0.00     0.010 A 
ATOM     42  C   UNL A   1      40.931  26.864  27.643  1.00  0.00    -0.014 A 
BRANCH  42  43
ATOM     43  C   UNL A   1      40.465  28.306  28.165  1.00  0.00     0.031 A 
ATOM     44  C   UNL A   1      41.697  29.118  27.919  1.00  0.00     0.074 A 
ATOM     45  C   UNL A   1      39.412  28.959  28.805  1.00  0.00     0.049 A 
ATOM     46  N   UNL A   1      42.829  28.753  28.458  1.00  0.00    -0.248 NA
ATOM     47  C   UNL A   1      41.828  30.023  26.777  1.00  0.00     0.031 C 
ATOM     48  C   UNL A   1      38.197  28.362  29.385  1.00  0.00     0.029 A 
ATOM     49  N   UNL A   1      39.159  30.336  29.101  1.00  0.00    -0.354 N 
ATOM     50  C   UNL A   1      43.796  29.570  27.929  1.00  0.00     0.074 A 
ATOM     51  C   UNL A   1      43.161  30.156  26.752  1.00  0.00     0.031 C 
ATOM     52  C   UNL A   1      37.305  29.314  29.794  1.00  0.00     0.029 A 
ATOM     53  C   UNL A   1      37.835  30.663  29.597  1.00  0.00     0.049 A 
ATOM     54  H   UNL A   1      39.849  31.028  28.974  1.00  0.00     0.167 HD
ATOM     55  C   UNL A   1      44.565  30.221  28.849  1.00  0.00     0.037 A 
ATOM     56  C   UNL A   1      37.241  31.896  29.895  1.00  0.00     0.037 A 
ATOM     57  C   UNL A   1      44.024  31.519  29.155  1.00  0.00     0.049 A 
ATOM     58  C   UNL A   1      38.368  32.780  30.223  1.00  0.00     0.074 A 
ATOM     59  C   UNL A   1      43.606  32.558  28.349  1.00  0.00     0.029 A 
ATOM     60  N   UNL A   1      43.399  31.677  30.376  1.00  0.00    -0.354 N 
ATOM     61  N   UNL A   1      39.023  32.694  31.340  1.00  0.00    -0.248 NA
ATOM     62  C   UNL A   1      38.791  33.840  29.314  1.00  0.00     0.031 C 
ATOM     63  C   UNL A   1      42.392  32.984  28.924  1.00  0.00     0.029 A 
ATOM     64  C   UNL A   1      42.321  32.527  30.233  1.00  0.00     0.049 A 
ATOM     65  H   UNL A   1      43.680  31.251  31.218  1.00  0.00     0.167 HD
ATOM     66  C   UNL A   1      40.207  33.294  31.039  1.00  0.00     0.074 A 
ATOM     67  C   UNL A   1      39.917  34.189  29.934  1.00  0.00     0.031 C 
ATOM     68  C   UNL A   1      41.337  32.588  31.289  1.00  0.00     0.037 A 
BRANCH  55  69
ATOM     69  C   UNL A   1      45.221  29.321  29.854  1.00  0.00     0.058 A 
ATOM     70  C   UNL A   1      46.610  29.159  29.793  1.00  0.00     0.135 A 
ATOM     71  C   UNL A   1      44.519  28.552  30.806  1.00  0.00     0.135 A 
ATOM     72  F   UNL A   1      47.335  29.882  28.923  1.00  0.00    -0.206 F 
ATOM     73  C   UNL A   1      47.273  28.255  30.618  1.00  0.00     0.059 A 
ATOM     74  C   UNL A   1      45.155  27.614  31.611  1.00  0.00     0.059 A 
ATOM     75  F   UNL A   1      43.198  28.721  30.979  1.00  0.00    -0.206 F 
ATOM     76  C   UNL A   1      46.535  27.474  31.511  1.00  0.00     0.060 A 
BRANCH  76  77
ATOM     77  S   UNL A   1      47.419  26.275  32.531  1.00  0.00     0.124 S 
ATOM     78  O   UNL A   1      48.242  25.578  31.546  1.00  0.00    -0.237 OA
ATOM     79  O   UNL A   1      48.148  27.146  33.447  1.00  0.00    -0.237 OA
ATOM     80  O   UNL A   1      46.357  25.470  33.124  1.00  0.00    -0.744 OA
ENDBRANCH  76  77
ENDBRANCH  55  69
BRANCH  56  81
ATOM     81  C   UNL A   1      35.890  32.648  30.151  1.00  0.00     0.058 A 
ATOM     82  C   UNL A   1      35.348  32.771  31.482  1.00  0.00     0.135 A 
ATOM     83  C   UNL A   1      35.328  33.569  29.253  1.00  0.00     0.135 A 
ATOM     84  F   UNL A   1      35.716  31.931  32.462  1.00  0.00    -0.206 F 
ATOM     85  C   UNL A   1      34.482  33.797  31.911  1.00  0.00     0.059 A 
ATOM     86  C   UNL A   1      34.424  34.596  29.658  1.00  0.00     0.059 A 
ATOM     87  F   UNL A   1      35.702  33.557  27.967  1.00  0.00    -0.206 F 
ATOM     88  C   UNL A   1      34.056  34.743  30.999  1.00  0.00     0.060 A 
BRANCH  88  89
ATOM     89  S   UNL A   1      33.174  36.218  31.617  1.00  0.00     0.124 S 
ATOM     90  O   UNL A   1      32.079  35.640  32.388  1.00  0.00    -0.237 OA
ATOM     91  O   UNL A   1      34.207  36.892  32.400  1.00  0.00    -0.237 OA
ATOM     92  O   UNL A   1      32.781  36.913  30.395  1.00  0.00    -0.744 OA
ENDBRANCH  88  89
ENDBRANCH  56  81
BRANCH  68  93
ATOM     93  C   UNL A   1      41.425  31.860  32.618  1.00  0.00     0.058 A 
ATOM     94  C   UNL A   1      41.866  32.383  33.855  1.00  0.00     0.135 A 
ATOM     95  C   UNL A   1      41.107  30.490  32.608  1.00  0.00     0.135 A 
ATOM     96  F   UNL A   1      42.101  33.692  34.030  1.00  0.00    -0.206 F 
ATOM     97  C   UNL A   1      42.065  31.570  34.978  1.00  0.00     0.059 A 
ATOM     98  C   UNL A   1      41.246  29.674  33.728  1.00  0.00     0.059 A 
ATOM     99  F   UNL A   1      40.657  29.918  31.479  1.00  0.00    -0.206 F 
ATOM    100  C   UNL A   1      41.764  30.213  34.900  1.00  0.00     0.060 A 
BRANCH 100 101
ATOM    101  S   UNL A   1      42.053  29.159  36.338  1.00  0.00     0.124 S 
ATOM    102  O   UNL A   1      42.356  30.141  37.375  1.00  0.00    -0.237 OA
ATOM    103  O   UNL A   1      40.781  28.461  36.484  1.00  0.00    -0.237 OA
ATOM    104  O   UNL A   1      43.183  28.329  35.928  1.00  0.00    -0.744 OA
ENDBRANCH 100 101
ENDBRANCH  68  93
ENDBRANCH  42  43
ENDBRANCH  34  37
ENDBRANCH  32  33
ENDBRANCH  31  32
ENDBRANCH   1  31
TORSDOF 18
ENDMDL
MODEL 2
REMARK VINA RESULT:     -12.4      2.579      3.723
REMARK SMILES Cc1c(CC(=O)NCCCCNC(=O)c2ccc(-c3c4nc(c(-c5c(F)cc(S(=O)(=O)[O-])cc5F)c5ccc([nH]5)c(-c5c(F)cc(S(=O)(=O)[O-])cc5F)c5nc(c(-c6c(F)cc(S(=O)(=O)[O-])cc6F)c6ccc3[nH]6)C=C5)C=C4)cc2)cc(-c2ccc(S(C)(=O)=O)cc2)n1-c1cccc(F)c1
REMARK SMILES IDX 9 1 8 2 7 3 5 4 6 5 4 7 3 8 1 9 2 10 93 11 81 12 82 13 94 14
REMARK SMILES IDX 95 15 100 16 96 17 98 18 97 19 99 20 83 21 84 22 92 23 85 24
REMARK SMILES IDX 91 25 86 26 87 27 88 28 89 29 90 30 10 31 11 32 12 33 13 34
REMARK SMILES IDX 14 36 15 37 16 38 80 39 17 40 79 41 18 42 19 43 20 44 73 45
REMARK SMILES IDX 21 46 78 47 72 48 74 49 22 50 77 51 71 52 70 53 23 55 57 56
REMARK SMILES IDX 36 57 56 58 37 59 40 60 55 61 75 62 38 63 39 64 54 66 76 67
REMARK SMILES IDX 41 68 24 69 25 70 34 71 26 72 27 73 33 74 35 75 28 76 29 77
REMARK SMILES IDX 30 78 31 79 32 80 58 81 59 82 68 83 60 84 61 85 67 86 69 87
REMARK SMILES IDX 62 88 63 89 64 90 65 91 66 92 42 93 43 94 52 95 44 96 45 97
REMARK SMILES IDX 51 98 53 99 46 100 47 101 48 102 49 103 50 104
REMARK H PARENT 7 6 12 35 74 54 40 65
REMARK Flexibility Score: inf
ROOT
ATOM      1  C   UNL A   1      36.529  23.229  25.642  1.00  0.00     0.023 C 
ENDROOT
BRANCH   1   2
ATOM      2  C   UNL A   1      35.214  22.623  26.134  1.00  0.00     0.116 C 
BRANCH   2   3
ATOM      3  N   UNL A   1      34.418  22.068  25.052  1.00  0.00    -0.356 N 
ATOM      4  C   UNL A   1      33.080  22.150  24.813  1.00  0.00     0.224 C 
ATOM      5  O   UNL A   1      32.634  21.597  23.805  1.00  0.00    -0.275 OA
ATOM      6  H   UNL A   1      34.928  21.551  24.387  1.00  0.00     0.163 HD
BRANCH   4   7
ATOM      7  C   UNL A   1      32.178  22.921  25.756  1.00  0.00     0.137 C 
BRANCH   7   8
ATOM      8  C   UNL A   1      32.162  24.390  25.463  1.00  0.00    -0.017 A 
ATOM      9  C   UNL A   1      30.682  24.461  23.332  1.00  0.00     0.065 C 
ATOM     10  C   UNL A   1      31.474  25.052  24.455  1.00  0.00     0.024 A 
ATOM     11  N   UNL A   1      31.690  26.417  24.605  1.00  0.00    -0.313 N 
ATOM     12  C   UNL A   1      32.882  25.376  26.183  1.00  0.00     0.033 A 
ATOM     13  C   UNL A   1      32.558  26.621  25.676  1.00  0.00     0.053 A 
BRANCH  11  14
ATOM     14  C   UNL A   1      31.128  27.438  23.792  1.00  0.00     0.049 A 
ATOM     15  C   UNL A   1      31.972  28.268  23.042  1.00  0.00     0.027 A 
ATOM     16  C   UNL A   1      29.746  27.639  23.789  1.00  0.00     0.065 A 
ATOM     17  C   UNL A   1      31.428  29.303  22.282  1.00  0.00     0.005 A 
ATOM     18  C   UNL A   1      29.225  28.688  23.042  1.00  0.00     0.125 A 
ATOM     19  C   UNL A   1      30.051  29.518  22.289  1.00  0.00     0.039 A 
ATOM     20  F   UNL A   1      27.906  28.921  23.063  1.00  0.00    -0.207 F 
ENDBRANCH  11  14
BRANCH  13  21
ATOM     21  C   UNL A   1      32.953  27.927  26.217  1.00  0.00    -0.001 A 
ATOM     22  C   UNL A   1      34.303  28.309  26.267  1.00  0.00     0.011 A 
ATOM     23  C   UNL A   1      31.973  28.818  26.672  1.00  0.00     0.011 A 
ATOM     24  C   UNL A   1      34.673  29.540  26.810  1.00  0.00     0.021 A 
ATOM     25  C   UNL A   1      32.336  30.053  27.216  1.00  0.00     0.021 A 
ATOM     26  C   UNL A   1      33.687  30.398  27.298  1.00  0.00     0.067 A 
BRANCH  26  27
ATOM     27  S   UNL A   1      34.157  31.957  28.007  1.00  0.00     0.175 S 
ATOM     28  C   UNL A   1      32.894  33.077  27.465  1.00  0.00     0.163 C 
ATOM     29  O   UNL A   1      34.048  31.820  29.453  1.00  0.00    -0.224 OA
ATOM     30  O   UNL A   1      35.397  32.373  27.390  1.00  0.00    -0.224 OA
ENDBRANCH  26  27
ENDBRANCH  13  21
ENDBRANCH   7   8
ENDBRANCH   4   7
ENDBRANCH   2   3
ENDBRANCH   1   2
BRANCH   1  31
ATOM     31  C   UNL A   1      37.700  22.251  25.427  1.00  0.00     0.023 C 
BRANCH  31  32
ATOM     32  C   UNL A   1      38.997  22.479  26.219  1.00  0.00     0.116 C 
BRANCH  32  33
ATOM     33  N   UNL A   1      40.106  21.629  25.870  1.00  0.00    -0.352 N 
ATOM     34  C   UNL A   1      41.443  21.907  26.121  1.00  0.00     0.251 C 
ATOM     35  H   UNL A   1      39.899  20.782  25.414  1.00  0.00     0.163 HD
ATOM     36  O   UNL A   1      42.286  21.095  25.755  1.00  0.00    -0.269 OA
BRANCH  34  37
ATOM     37  C   UNL A   1      41.841  23.219  26.756  1.00  0.00     0.039 A 
ATOM     38  C   UNL A   1      41.774  23.345  28.137  1.00  0.00     0.014 A 
ATOM     39  C   UNL A   1      42.152  24.379  26.027  1.00  0.00     0.014 A 
ATOM     40  C   UNL A   1      42.064  24.590  28.769  1.00  0.00     0.010 A 
ATOM     41  C   UNL A   1      42.377  25.660  26.672  1.00  0.00     0.010 A 
ATOM     42  C   UNL A   1      42.339  25.822  28.074  1.00  0.00    -0.014 A 
BRANCH  42  43
ATOM     43  C   UNL A   1      41.908  27.161  28.842  1.00  0.00     0.031 A 
ATOM     44  C   UNL A   1      43.230  27.838  29.015  1.00  0.00     0.074 A 
ATOM     45  C   UNL A   1      40.810  27.790  29.430  1.00  0.00     0.049 A 
ATOM     46  N   UNL A   1      44.196  27.218  29.637  1.00  0.00    -0.248 NA
ATOM     47  C   UNL A   1      43.664  28.949  28.167  1.00  0.00     0.031 C 
ATOM     48  C   UNL A   1      39.457  27.245  29.631  1.00  0.00     0.029 A 
ATOM     49  N   UNL A   1      40.626  29.089  30.003  1.00  0.00    -0.354 N 
ATOM     50  C   UNL A   1      45.317  27.996  29.496  1.00  0.00     0.074 A 
ATOM     51  C   UNL A   1      44.981  28.907  28.405  1.00  0.00     0.031 C 
ATOM     52  C   UNL A   1      38.588  28.192  30.098  1.00  0.00     0.029 A 
ATOM     53  C   UNL A   1      39.263  29.468  30.329  1.00  0.00     0.049 A 
ATOM     54  H   UNL A   1      41.384  29.694  30.168  1.00  0.00     0.167 HD
ATOM     55  C   UNL A   1      45.943  28.320  30.665  1.00  0.00     0.037 A 
ATOM     56  C   UNL A   1      38.733  30.672  30.809  1.00  0.00     0.037 A 
ATOM     57  C   UNL A   1      45.468  29.578  31.178  1.00  0.00     0.049 A 
ATOM     58  C   UNL A   1      39.845  31.305  31.530  1.00  0.00     0.074 A 
ATOM     59  C   UNL A   1      45.311  30.816  30.588  1.00  0.00     0.029 A 
ATOM     60  N   UNL A   1      44.630  29.543  32.274  1.00  0.00    -0.354 N 
ATOM     61  N   UNL A   1      40.256  30.889  32.689  1.00  0.00    -0.248 NA
ATOM     62  C   UNL A   1      40.531  32.475  30.992  1.00  0.00     0.031 C 
ATOM     63  C   UNL A   1      44.049  31.260  31.032  1.00  0.00     0.029 A 
ATOM     64  C   UNL A   1      43.680  30.538  32.159  1.00  0.00     0.049 A 
ATOM     65  H   UNL A   1      44.700  28.908  33.023  1.00  0.00     0.167 HD
ATOM     66  C   UNL A   1      41.524  31.379  32.751  1.00  0.00     0.074 A 
ATOM     67  C   UNL A   1      41.539  32.527  31.862  1.00  0.00     0.031 C 
ATOM     68  C   UNL A   1      42.516  30.493  33.013  1.00  0.00     0.037 A 
BRANCH  55  69
ATOM     69  C   UNL A   1      46.305  27.142  31.518  1.00  0.00     0.058 A 
ATOM     70  C   UNL A   1      45.287  26.503  32.235  1.00  0.00     0.135 A 
ATOM     71  C   UNL A   1      47.625  26.686  31.720  1.00  0.00     0.135 A 
ATOM     72  F   UNL A   1      44.008  26.878  32.067  1.00  0.00    -0.206 F 
ATOM     73  C   UNL A   1      45.564  25.476  33.133  1.00  0.00     0.059 A 
ATOM     74  C   UNL A   1      47.930  25.691  32.642  1.00  0.00     0.059 A 
ATOM     75  F   UNL A   1      48.640  27.194  31.001  1.00  0.00    -0.206 F 
ATOM     76  C   UNL A   1      46.890  25.090  33.344  1.00  0.00     0.060 A 
BRANCH  76  77
ATOM     77  S   UNL A   1      47.220  23.790  34.552  1.00  0.00     0.124 S 
ATOM     78  O   UNL A   1      46.096  22.881  34.345  1.00  0.00    -0.237 OA
ATOM     79  O   UNL A   1      48.516  23.292  34.104  1.00  0.00    -0.237 OA
ATOM     80  O   UNL A   1      47.214  24.493  35.831  1.00  0.00    -0.744 OA
ENDBRANCH  76  77
ENDBRANCH  55  69
BRANCH  56  81
ATOM     81  C   UNL A   1      37.429  31.521  31.004  1.00  0.00     0.058 A 
ATOM     82  C   UNL A   1      36.506  31.231  32.074  1.00  0.00     0.135 A 
ATOM     83  C   UNL A   1      37.247  32.805  30.469  1.00  0.00     0.135 A 
ATOM     84  F   UNL A   1      36.483  30.027  32.665  1.00  0.00    -0.206 F 
ATOM     85  C   UNL A   1      35.628  32.165  32.659  1.00  0.00     0.059 A 
ATOM     86  C   UNL A   1      36.340  33.758  31.024  1.00  0.00     0.059 A 
ATOM     87  F   UNL A   1      38.006  33.212  29.441  1.00  0.00    -0.206 F 
ATOM     88  C   UNL A   1      35.581  33.452  32.157  1.00  0.00     0.060 A 
BRANCH  88  89
ATOM     89  S   UNL A   1      34.661  34.722  33.091  1.00  0.00     0.124 S 
ATOM     90  O   UNL A   1      33.287  34.518  32.648  1.00  0.00    -0.237 OA
ATOM     91  O   UNL A   1      34.937  34.348  34.477  1.00  0.00    -0.237 OA
ATOM     92  O   UNL A   1      35.278  35.973  32.660  1.00  0.00    -0.744 OA
ENDBRANCH  88  89
ENDBRANCH  56  81
BRANCH  68  93
ATOM     93  C   UNL A   1      42.275  29.483  34.120  1.00  0.00     0.058 A 
ATOM     94  C   UNL A   1      42.542  29.643  35.499  1.00  0.00     0.135 A 
ATOM     95  C   UNL A   1      41.805  28.217  33.728  1.00  0.00     0.135 A 
ATOM     96  F   UNL A   1      42.893  30.827  36.022  1.00  0.00    -0.206 F 
ATOM     97  C   UNL A   1      42.436  28.580  36.405  1.00  0.00     0.059 A 
ATOM     98  C   UNL A   1      41.641  27.162  34.621  1.00  0.00     0.059 A 
ATOM     99  F   UNL A   1      41.504  27.988  32.438  1.00  0.00    -0.206 F 
ATOM    100  C   UNL A   1      41.997  27.339  35.953  1.00  0.00     0.060 A 
BRANCH 100 101
ATOM    101  S   UNL A   1      41.894  25.960  37.115  1.00  0.00     0.124 S 
ATOM    102  O   UNL A   1      42.221  24.821  36.261  1.00  0.00    -0.237 OA
ATOM    103  O   UNL A   1      42.899  26.308  38.114  1.00  0.00    -0.237 OA
ATOM    104  O   UNL A   1      40.509  26.007  37.574  1.00  0.00    -0.744 OA
ENDBRANCH 100 101
ENDBRANCH  68  93
ENDBRANCH  42  43
ENDBRANCH  34  37
ENDBRANCH  32  33
ENDBRANCH  31  32
ENDBRANCH   1  31
TORSDOF 18
ENDMDL
MODEL 3
REMARK VINA RESULT:     -11.8      1.518      2.177
REMARK SMILES Cc1c(CC(=O)NCCCCNC(=O)c2ccc(-c3c4nc(c(-c5c(F)cc(S(=O)(=O)[O-])cc5F)c5ccc([nH]5)c(-c5c(F)cc(S(=O)(=O)[O-])cc5F)c5nc(c(-c6c(F)cc(S(=O)(=O)[O-])cc6F)c6ccc3[nH]6)C=C5)C=C4)cc2)cc(-c2ccc(S(C)(=O)=O)cc2)n1-c1cccc(F)c1
REMARK SMILES IDX 9 1 8 2 7 3 5 4 6 5 4 7 3 8 1 9 2 10 93 11 81 12 82 13 94 14
REMARK SMILES IDX 95 15 100 16 96 17 98 18 97 19 99 20 83 21 84 22 92 23 85 24
REMARK SMILES IDX 91 25 86 26 87 27 88 28 89 29 90 30 10 31 11 32 12 33 13 34
REMARK SMILES IDX 14 36 15 37 16 38 80 39 17 40 79 41 18 42 19 43 20 44 73 45
REMARK SMILES IDX 21 46 78 47 72 48 74 49 22 50 77 51 71 52 70 53 23 55 57 56
REMARK SMILES IDX 36 57 56 58 37 59 40 60 55 61 75 62 38 63 39 64 54 66 76 67
REMARK SMILES IDX 41 68 24 69 25 70 34 71 26 72 27 73 33 74 35 75 28 76 29 77
REMARK SMILES IDX 30 78 31 79 32 80 58 81 59 82 68 83 60 84 61 85 67 86 69 87
REMARK SMILES IDX 62 88 63 89 64 90 65 91 66 92 42 93 43 94 52 95 44 96 45 97
REMARK SMILES IDX 51 98 53 99 46 100 47 101 48 102 49 103 50 104
REMARK H PARENT 7 6 12 35 74 54 40 65
REMARK Flexibility Score: inf
ROOT
ATOM      1  C   UNL A   1      36.192  22.609  25.466  1.00  0.00     0.023 C 
ENDROOT
BRANCH   1   2
ATOM      2  C   UNL A   1      35.119  21.904  24.633  1.00  0.00     0.116 C 
BRANCH   2   3
ATOM      3  N   UNL A   1      34.948  22.507  23.322  1.00  0.00    -0.356 N 
ATOM      4  C   UNL A   1      33.851  23.086  22.758  1.00  0.00     0.224 C 
ATOM      5  O   UNL A   1      33.958  23.546  21.619  1.00  0.00    -0.275 OA
ATOM      6  H   UNL A   1      35.751  22.497  22.753  1.00  0.00     0.163 HD
BRANCH   4   7
ATOM      7  C   UNL A   1      32.548  23.175  23.527  1.00  0.00     0.137 C 
BRANCH   7   8
ATOM      8  C   UNL A   1      32.250  24.567  23.993  1.00  0.00    -0.017 A 
ATOM      9  C   UNL A   1      33.745  24.718  26.109  1.00  0.00     0.065 C 
ATOM     10  C   UNL A   1      32.808  25.244  25.069  1.00  0.00     0.024 A 
ATOM     11  N   UNL A   1      32.293  26.536  25.085  1.00  0.00    -0.313 N 
ATOM     12  C   UNL A   1      31.309  25.445  23.400  1.00  0.00     0.033 A 
ATOM     13  C   UNL A   1      31.367  26.664  24.050  1.00  0.00     0.053 A 
BRANCH  11  14
ATOM     14  C   UNL A   1      32.642  27.554  26.011  1.00  0.00     0.049 A 
ATOM     15  C   UNL A   1      31.694  27.996  26.944  1.00  0.00     0.027 A 
ATOM     16  C   UNL A   1      33.906  28.144  25.949  1.00  0.00     0.065 A 
ATOM     17  C   UNL A   1      32.015  29.030  27.822  1.00  0.00     0.005 A 
ATOM     18  C   UNL A   1      34.201  29.187  26.818  1.00  0.00     0.125 A 
ATOM     19  C   UNL A   1      33.271  29.633  27.753  1.00  0.00     0.039 A 
ATOM     20  F   UNL A   1      35.394  29.791  26.741  1.00  0.00    -0.207 F 
ENDBRANCH  11  14
BRANCH  13  21
ATOM     21  C   UNL A   1      30.678  27.903  23.671  1.00  0.00    -0.001 A 
ATOM     22  C   UNL A   1      30.888  29.093  24.386  1.00  0.00     0.011 A 
ATOM     23  C   UNL A   1      29.815  27.911  22.568  1.00  0.00     0.011 A 
ATOM     24  C   UNL A   1      30.207  30.260  24.038  1.00  0.00     0.021 A 
ATOM     25  C   UNL A   1      29.130  29.077  22.213  1.00  0.00     0.021 A 
ATOM     26  C   UNL A   1      29.317  30.240  22.963  1.00  0.00     0.067 A 
BRANCH  26  27
ATOM     27  S   UNL A   1      28.435  31.719  22.530  1.00  0.00     0.175 S 
ATOM     28  C   UNL A   1      27.938  31.450  20.850  1.00  0.00     0.163 C 
ATOM     29  O   UNL A   1      27.236  31.758  23.356  1.00  0.00    -0.224 OA
ATOM     30  O   UNL A   1      29.376  32.817  22.531  1.00  0.00    -0.224 OA
ENDBRANCH  26  27
ENDBRANCH  13  21
ENDBRANCH   7   8
ENDBRANCH   4   7
ENDBRANCH   2   3
ENDBRANCH   1   2
BRANCH   1  31
ATOM     31  C   UNL A   1      37.649  22.442  24.995  1.00  0.00     0.023 C 
BRANCH  31  32
ATOM     32  C   UNL A   1      38.765  22.463  26.049  1.00  0.00     0.116 C 
BRANCH  32  33
ATOM     33  N   UNL A   1      39.909  21.632  25.774  1.00  0.00    -0.352 N 
ATOM     34  C   UNL A   1      41.230  21.973  26.028  1.00  0.00     0.251 C 
ATOM     35  H   UNL A   1      39.739  20.750  25.372  1.00  0.00     0.163 HD
ATOM     36  O   UNL A   1      42.108  21.169  25.729  1.00  0.00    -0.269 OA
BRANCH  34  37
ATOM     37  C   UNL A   1      41.573  23.337  26.581  1.00  0.00     0.039 A 
ATOM     38  C   UNL A   1      41.548  23.530  27.955  1.00  0.00     0.014 A 
ATOM     39  C   UNL A   1      41.787  24.473  25.784  1.00  0.00     0.014 A 
ATOM     40  C   UNL A   1      41.787  24.821  28.513  1.00  0.00     0.010 A 
ATOM     41  C   UNL A   1      41.958  25.797  26.355  1.00  0.00     0.010 A 
ATOM     42  C   UNL A   1      41.962  26.029  27.748  1.00  0.00    -0.014 A 
BRANCH  42  43
ATOM     43  C   UNL A   1      41.479  27.379  28.465  1.00  0.00     0.031 A 
ATOM     44  C   UNL A   1      42.765  28.137  28.556  1.00  0.00     0.074 A 
ATOM     45  C   UNL A   1      40.368  27.973  29.062  1.00  0.00     0.049 A 
ATOM     46  N   UNL A   1      43.786  27.604  29.171  1.00  0.00    -0.248 NA
ATOM     47  C   UNL A   1      43.104  29.226  27.640  1.00  0.00     0.031 C 
ATOM     48  C   UNL A   1      39.056  27.363  29.339  1.00  0.00     0.029 A 
ATOM     49  N   UNL A   1      40.127  29.287  29.578  1.00  0.00    -0.354 N 
ATOM     50  C   UNL A   1      44.855  28.437  28.951  1.00  0.00     0.074 A 
ATOM     51  C   UNL A   1      44.429  29.271  27.830  1.00  0.00     0.031 C 
ATOM     52  C   UNL A   1      38.150  28.282  29.791  1.00  0.00     0.029 A 
ATOM     53  C   UNL A   1      38.757  29.605  29.934  1.00  0.00     0.049 A 
ATOM     54  H   UNL A   1      40.854  29.942  29.685  1.00  0.00     0.167 HD
ATOM     55  C   UNL A   1      45.500  28.855  30.079  1.00  0.00     0.037 A 
ATOM     56  C   UNL A   1      38.174  30.799  30.374  1.00  0.00     0.037 A 
ATOM     57  C   UNL A   1      44.970  30.108  30.547  1.00  0.00     0.049 A 
ATOM     58  C   UNL A   1      39.271  31.530  31.022  1.00  0.00     0.074 A 
ATOM     59  C   UNL A   1      44.721  31.304  29.904  1.00  0.00     0.029 A 
ATOM     60  N   UNL A   1      44.173  30.082  31.675  1.00  0.00    -0.354 N 
ATOM     61  N   UNL A   1      39.745  31.197  32.184  1.00  0.00    -0.248 NA
ATOM     62  C   UNL A   1      39.869  32.708  30.403  1.00  0.00     0.031 C 
ATOM     63  C   UNL A   1      43.451  31.698  30.372  1.00  0.00     0.029 A 
ATOM     64  C   UNL A   1      43.164  31.014  31.546  1.00  0.00     0.049 A 
ATOM     65  H   UNL A   1      44.306  29.490  32.451  1.00  0.00     0.167 HD
ATOM     66  C   UNL A   1      40.983  31.760  32.175  1.00  0.00     0.074 A 
ATOM     67  C   UNL A   1      40.901  32.861  31.232  1.00  0.00     0.031 C 
ATOM     68  C   UNL A   1      42.034  30.946  32.443  1.00  0.00     0.037 A 
BRANCH  55  69
ATOM     69  C   UNL A   1      45.959  27.744  30.975  1.00  0.00     0.058 A 
ATOM     70  C   UNL A   1      45.012  27.113  31.790  1.00  0.00     0.135 A 
ATOM     71  C   UNL A   1      47.305  27.348  31.119  1.00  0.00     0.135 A 
ATOM     72  F   UNL A   1      43.711  27.432  31.681  1.00  0.00    -0.206 F 
ATOM     73  C   UNL A   1      45.383  26.153  32.727  1.00  0.00     0.059 A 
ATOM     74  C   UNL A   1      47.704  26.422  32.077  1.00  0.00     0.059 A 
ATOM     75  F   UNL A   1      48.254  27.847  30.310  1.00  0.00    -0.206 F 
ATOM     76  C   UNL A   1      46.733  25.827  32.876  1.00  0.00     0.060 A 
BRANCH  76  77
ATOM     77  S   UNL A   1      47.187  24.616  34.135  1.00  0.00     0.124 S 
ATOM     78  O   UNL A   1      47.115  25.403  35.363  1.00  0.00    -0.237 OA
ATOM     79  O   UNL A   1      46.137  23.615  33.974  1.00  0.00    -0.237 OA
ATOM     80  O   UNL A   1      48.531  24.199  33.750  1.00  0.00    -0.744 OA
ENDBRANCH  76  77
ENDBRANCH  55  69
BRANCH  56  81
ATOM     81  C   UNL A   1      36.830  31.582  30.576  1.00  0.00     0.058 A 
ATOM     82  C   UNL A   1      36.125  31.537  31.833  1.00  0.00     0.135 A 
ATOM     83  C   UNL A   1      36.424  32.655  29.768  1.00  0.00     0.135 A 
ATOM     84  F   UNL A   1      36.330  30.542  32.710  1.00  0.00    -0.206 F 
ATOM     85  C   UNL A   1      35.250  32.536  32.305  1.00  0.00     0.059 A 
ATOM     86  C   UNL A   1      35.515  33.662  30.212  1.00  0.00     0.059 A 
ATOM     87  F   UNL A   1      36.962  32.813  28.551  1.00  0.00    -0.206 F 
ATOM     88  C   UNL A   1      34.981  33.629  31.504  1.00  0.00     0.060 A 
BRANCH  88  89
ATOM     89  S   UNL A   1      34.083  35.044  32.228  1.00  0.00     0.124 S 
ATOM     90  O   UNL A   1      33.683  35.810  31.053  1.00  0.00    -0.237 OA
ATOM     91  O   UNL A   1      32.996  34.386  32.950  1.00  0.00    -0.237 OA
ATOM     92  O   UNL A   1      35.084  35.681  33.079  1.00  0.00    -0.744 OA
ENDBRANCH  88  89
ENDBRANCH  56  81
BRANCH  68  93
ATOM     93  C   UNL A   1      41.890  29.982  33.607  1.00  0.00     0.058 A 
ATOM     94  C   UNL A   1      42.105  30.254  34.977  1.00  0.00     0.135 A 
ATOM     95  C   UNL A   1      41.583  28.648  33.285  1.00  0.00     0.135 A 
ATOM     96  F   UNL A   1      42.302  31.501  35.432  1.00  0.00    -0.206 F 
ATOM     97  C   UNL A   1      42.106  29.241  35.945  1.00  0.00     0.059 A 
ATOM     98  C   UNL A   1      41.525  27.635  34.239  1.00  0.00     0.059 A 
ATOM     99  F   UNL A   1      41.339  28.309  32.008  1.00  0.00    -0.206 F 
ATOM    100  C   UNL A   1      41.828  27.932  35.563  1.00  0.00     0.060 A 
BRANCH 100 101
ATOM    101  S   UNL A   1      41.864  26.622  36.806  1.00  0.00     0.124 S 
ATOM    102  O   UNL A   1      41.978  25.424  35.978  1.00  0.00    -0.237 OA
ATOM    103  O   UNL A   1      43.046  26.959  37.592  1.00  0.00    -0.237 OA
ATOM    104  O   UNL A   1      40.585  26.773  37.495  1.00  0.00    -0.744 OA
ENDBRANCH 100 101
ENDBRANCH  68  93
ENDBRANCH  42  43
ENDBRANCH  34  37
ENDBRANCH  32  33
ENDBRANCH  31  32
ENDBRANCH   1  31
TORSDOF 18
ENDMDL
