MODEL 1
REMARK VINA RESULT:     -12.1      0.000      0.000
REMARK SMILES Cc1cc(/C=C2\C(=O)N(Cc3ccco3)C(=O)[NH+]=C2NCCCCNC(=O)c2ccc(-c3c4nc(c(-c5c(F)cc(S(=O)(=O)[O-])cc5F)c5ccc([nH]5)c(-c5c(F)cc(S(=O)(=O)[O-])cc5F)c5nc(c(-c6c(F)cc(S(=O)(=O)[O-])cc6F)c6ccc3[nH]6)C=C5)C=C4)cc2)c(C)n1-c1ccc(Cl)c(C(=O)[O-])c1
REMARK SMILES IDX 23 1 22 2 21 3 20 4 5 5 6 6 7 7 19 8 8 9 9 10 18 11 16 12
REMARK SMILES IDX 17 15 4 16 1 17 2 18 3 19 96 20 94 21 95 22 97 23 98 24
REMARK SMILES IDX 106 25 99 26 102 27 100 28 101 29 103 30 104 31 105 32 10 33
REMARK SMILES IDX 11 34 12 35 15 36 13 37 14 38 24 39 25 40 26 41 27 43 28 44
REMARK SMILES IDX 29 45 93 46 30 47 92 48 31 49 32 50 33 51 86 52 34 53 91 54
REMARK SMILES IDX 85 55 87 56 35 57 90 58 84 59 83 60 36 62 70 63 49 64 69 65
REMARK SMILES IDX 50 66 53 67 68 68 88 69 51 70 52 71 67 73 89 74 54 75 37 76
REMARK SMILES IDX 38 77 47 78 39 79 40 80 46 81 48 82 41 83 42 84 43 85 44 86
REMARK SMILES IDX 45 87 71 88 72 89 81 90 73 91 74 92 80 93 82 94 75 95 76 96
REMARK SMILES IDX 77 97 78 98 79 99 55 100 56 101 65 102 57 103 58 104 64 105
REMARK SMILES IDX 66 106 59 107 60 108 61 109 62 110 63 111
REMARK H PARENT 18 13 20 14 25 42 87 61 53 72
REMARK Flexibility Score: inf
ROOT
ATOM      1  C   UNL A   1      45.249  25.693  37.394  1.00  0.00     0.024 C 
ENDROOT
BRANCH   1   2
ATOM      2  C   UNL A   1      44.766  25.562  38.849  1.00  0.00     0.039 C 
BRANCH   2   3
ATOM      3  C   UNL A   1      45.746  24.889  39.811  1.00  0.00     0.194 C 
BRANCH   3   4
ATOM      4  N   UNL A   1      45.127  23.707  40.366  1.00  0.00    -0.305 N 
ATOM      5  C   UNL A   1      46.574  22.171  38.097  1.00  0.00     0.032 C 
ATOM      6  C   UNL A   1      46.496  21.785  39.385  1.00  0.00     0.129 C 
ATOM      7  C   UNL A   1      47.189  20.632  39.989  1.00  0.00     0.323 C 
ATOM      8  C   UNL A   1      45.493  22.390  40.298  1.00  0.00     0.236 C 
ATOM      9  O   UNL A   1      48.397  20.450  39.876  1.00  0.00    -0.250 OA
ATOM     10  N   UNL A   1      46.299  19.798  40.635  1.00  0.00    -0.182 N 
ATOM     11  N   UNL A   1      44.876  21.625  41.157  1.00  0.00    -0.210 N 
ATOM     12  C   UNL A   1      45.119  20.274  41.183  1.00  0.00     0.444 C 
ATOM     13  H   UNL A   1      44.233  22.019  41.790  1.00  0.00     0.270 HD
ATOM     14  H   UNL A   1      44.305  23.878  40.880  1.00  0.00     0.256 HD
ATOM     15  O   UNL A   1      44.296  19.509  41.680  1.00  0.00    -0.212 OA
BRANCH   5  16
ATOM     16  C   UNL A   1      47.383  21.709  37.006  1.00  0.00    -0.003 A 
ATOM     17  C   UNL A   1      47.841  19.865  33.798  1.00  0.00     0.065 C 
ATOM     18  C   UNL A   1      47.894  20.668  35.052  1.00  0.00     0.020 A 
ATOM     19  C   UNL A   1      46.874  20.909  35.952  1.00  0.00     0.031 A 
ATOM     20  N   UNL A   1      49.041  21.266  35.546  1.00  0.00    -0.318 N 
ATOM     21  C   UNL A   1      48.741  21.871  36.770  1.00  0.00     0.027 A 
ATOM     22  C   UNL A   1      49.751  22.656  37.534  1.00  0.00     0.065 C 
BRANCH  20  23
ATOM     23  C   UNL A   1      50.300  21.359  34.889  1.00  0.00     0.046 A 
ATOM     24  C   UNL A   1      50.533  22.396  33.986  1.00  0.00     0.028 A 
ATOM     25  C   UNL A   1      51.212  20.305  35.004  1.00  0.00     0.038 A 
ATOM     26  C   UNL A   1      51.610  22.317  33.108  1.00  0.00     0.023 A 
ATOM     27  C   UNL A   1      52.323  20.231  34.136  1.00  0.00     0.018 A 
ATOM     28  C   UNL A   1      52.492  21.229  33.162  1.00  0.00     0.050 A 
ATOM     29  Cl  UNL A   1      53.730  21.212  31.954  1.00  0.00    -0.084 Cl
BRANCH  27  30
ATOM     30  C   UNL A   1      53.253  19.072  34.241  1.00  0.00     0.073 C 
ATOM     31  O   UNL A   1      53.699  18.379  33.348  1.00  0.00    -0.545 OA
ATOM     32  O   UNL A   1      53.620  18.834  35.516  1.00  0.00    -0.545 OA
ENDBRANCH  27  30
ENDBRANCH  20  23
ENDBRANCH   5  16
BRANCH  10  33
ATOM     33  C   UNL A   1      46.558  18.372  40.678  1.00  0.00     0.285 C 
BRANCH  33  34
ATOM     34  C   UNL A   1      45.702  17.611  39.746  1.00  0.00     0.138 A 
ATOM     35  C   UNL A   1      45.021  16.416  39.835  1.00  0.00     0.049 A 
ATOM     36  O   UNL A   1      45.441  18.212  38.550  1.00  0.00    -0.466 OA
ATOM     37  C   UNL A   1      44.323  16.270  38.612  1.00  0.00     0.042 A 
ATOM     38  C   UNL A   1      44.618  17.383  37.862  1.00  0.00     0.195 A 
ENDBRANCH  33  34
ENDBRANCH  10  33
ENDBRANCH   3   4
ENDBRANCH   2   3
ENDBRANCH   1   2
BRANCH   1  39
ATOM     39  C   UNL A   1      44.838  24.594  36.400  1.00  0.00     0.116 C 
BRANCH  39  40
ATOM     40  N   UNL A   1      45.595  24.579  35.177  1.00  0.00    -0.352 N 
ATOM     41  C   UNL A   1      45.196  25.081  33.950  1.00  0.00     0.251 C 
ATOM     42  H   UNL A   1      46.490  24.168  35.216  1.00  0.00     0.163 HD
ATOM     43  O   UNL A   1      45.847  24.753  32.963  1.00  0.00    -0.269 OA
BRANCH  41  44
ATOM     44  C   UNL A   1      43.924  25.875  33.802  1.00  0.00     0.039 A 
ATOM     45  C   UNL A   1      43.950  26.971  32.960  1.00  0.00     0.014 A 
ATOM     46  C   UNL A   1      42.767  25.706  34.586  1.00  0.00     0.014 A 
ATOM     47  C   UNL A   1      42.830  27.842  32.883  1.00  0.00     0.010 A 
ATOM     48  C   UNL A   1      41.666  26.663  34.575  1.00  0.00     0.010 A 
ATOM     49  C   UNL A   1      41.666  27.792  33.738  1.00  0.00    -0.014 A 
BRANCH  49  50
ATOM     50  C   UNL A   1      40.890  29.192  33.945  1.00  0.00     0.031 A 
ATOM     51  C   UNL A   1      39.721  29.048  33.025  1.00  0.00     0.074 A 
ATOM     52  C   UNL A   1      40.972  30.452  34.537  1.00  0.00     0.049 A 
ATOM     53  N   UNL A   1      39.922  28.760  31.769  1.00  0.00    -0.248 NA
ATOM     54  C   UNL A   1      38.362  28.777  33.503  1.00  0.00     0.031 C 
ATOM     55  C   UNL A   1      42.092  31.038  35.290  1.00  0.00     0.029 A 
ATOM     56  N   UNL A   1      40.045  31.544  34.607  1.00  0.00    -0.354 N 
ATOM     57  C   UNL A   1      38.686  28.570  31.217  1.00  0.00     0.074 A 
ATOM     58  C   UNL A   1      37.810  28.349  32.360  1.00  0.00     0.031 C 
ATOM     59  C   UNL A   1      41.760  32.245  35.841  1.00  0.00     0.029 A 
ATOM     60  C   UNL A   1      40.401  32.645  35.472  1.00  0.00     0.049 A 
ATOM     61  H   UNL A   1      39.207  31.542  34.091  1.00  0.00     0.167 HD
ATOM     62  C   UNL A   1      38.433  29.262  30.071  1.00  0.00     0.037 A 
ATOM     63  C   UNL A   1      39.710  33.814  35.805  1.00  0.00     0.037 A 
ATOM     64  C   UNL A   1      37.574  30.390  30.314  1.00  0.00     0.049 A 
ATOM     65  C   UNL A   1      38.793  34.060  34.683  1.00  0.00     0.074 A 
ATOM     66  C   UNL A   1      36.426  30.563  31.063  1.00  0.00     0.029 A 
ATOM     67  N   UNL A   1      38.144  31.639  30.177  1.00  0.00    -0.354 N 
ATOM     68  N   UNL A   1      39.207  34.544  33.553  1.00  0.00    -0.248 NA
ATOM     69  C   UNL A   1      37.350  33.874  34.802  1.00  0.00     0.031 C 
ATOM     70  C   UNL A   1      36.659  31.753  31.793  1.00  0.00     0.029 A 
ATOM     71  C   UNL A   1      37.717  32.440  31.214  1.00  0.00     0.049 A 
ATOM     72  H   UNL A   1      38.756  31.912  29.455  1.00  0.00     0.167 HD
ATOM     73  C   UNL A   1      38.194  34.244  32.700  1.00  0.00     0.074 A 
ATOM     74  C   UNL A   1      37.014  34.109  33.533  1.00  0.00     0.031 C 
ATOM     75  C   UNL A   1      38.521  33.590  31.559  1.00  0.00     0.037 A 
BRANCH  62  76
ATOM     76  C   UNL A   1      39.574  29.263  29.086  1.00  0.00     0.058 A 
ATOM     77  C   UNL A   1      39.482  28.472  27.937  1.00  0.00     0.135 A 
ATOM     78  C   UNL A   1      40.798  29.931  29.316  1.00  0.00     0.135 A 
ATOM     79  F   UNL A   1      38.332  27.844  27.642  1.00  0.00    -0.206 F 
ATOM     80  C   UNL A   1      40.568  28.306  27.080  1.00  0.00     0.059 A 
ATOM     81  C   UNL A   1      41.911  29.740  28.503  1.00  0.00     0.059 A 
ATOM     82  F   UNL A   1      40.923  30.783  30.347  1.00  0.00    -0.206 F 
ATOM     83  C   UNL A   1      41.786  28.921  27.386  1.00  0.00     0.060 A 
BRANCH  83  84
ATOM     84  S   UNL A   1      43.209  28.596  26.323  1.00  0.00     0.124 S 
ATOM     85  O   UNL A   1      42.590  28.424  25.010  1.00  0.00    -0.237 OA
ATOM     86  O   UNL A   1      43.986  29.820  26.486  1.00  0.00    -0.237 OA
ATOM     87  O   UNL A   1      43.793  27.383  26.886  1.00  0.00    -0.744 OA
ENDBRANCH  83  84
ENDBRANCH  62  76
BRANCH  63  88
ATOM     88  C   UNL A   1      39.647  35.026  36.793  1.00  0.00     0.058 A 
ATOM     89  C   UNL A   1      38.908  34.941  38.028  1.00  0.00     0.135 A 
ATOM     90  C   UNL A   1      40.561  36.091  36.781  1.00  0.00     0.135 A 
ATOM     91  F   UNL A   1      37.946  34.024  38.206  1.00  0.00    -0.206 F 
ATOM     92  C   UNL A   1      39.162  35.713  39.176  1.00  0.00     0.059 A 
ATOM     93  C   UNL A   1      40.811  36.910  37.922  1.00  0.00     0.059 A 
ATOM     94  F   UNL A   1      41.307  36.315  35.690  1.00  0.00    -0.206 F 
ATOM     95  C   UNL A   1      40.151  36.676  39.132  1.00  0.00     0.060 A 
BRANCH  95  96
ATOM     96  S   UNL A   1      40.646  37.477  40.693  1.00  0.00     0.124 S 
ATOM     97  O   UNL A   1      41.716  38.372  40.269  1.00  0.00    -0.237 OA
ATOM     98  O   UNL A   1      39.409  38.130  41.114  1.00  0.00    -0.237 OA
ATOM     99  O   UNL A   1      41.063  36.356  41.531  1.00  0.00    -0.744 OA
ENDBRANCH  95  96
ENDBRANCH  63  88
BRANCH  75 100
ATOM    100  C   UNL A   1      39.794  34.023  30.844  1.00  0.00     0.058 A 
ATOM    101  C   UNL A   1      41.129  33.800  31.260  1.00  0.00     0.135 A 
ATOM    102  C   UNL A   1      39.641  34.788  29.675  1.00  0.00     0.135 A 
ATOM    103  F   UNL A   1      41.430  32.985  32.281  1.00  0.00    -0.206 F 
ATOM    104  C   UNL A   1      42.220  34.397  30.620  1.00  0.00     0.059 A 
ATOM    105  C   UNL A   1      40.718  35.340  28.986  1.00  0.00     0.059 A 
ATOM    106  F   UNL A   1      38.411  35.010  29.181  1.00  0.00    -0.206 F 
ATOM    107  C   UNL A   1      42.003  35.181  29.492  1.00  0.00     0.060 A 
BRANCH 107 108
ATOM    108  S   UNL A   1      43.404  35.991  28.691  1.00  0.00     0.124 S 
ATOM    109  O   UNL A   1      43.354  35.415  27.350  1.00  0.00    -0.237 OA
ATOM    110  O   UNL A   1      43.056  37.405  28.779  1.00  0.00    -0.237 OA
ATOM    111  O   UNL A   1      44.544  35.571  29.500  1.00  0.00    -0.744 OA
ENDBRANCH 107 108
ENDBRANCH  75 100
ENDBRANCH  49  50
ENDBRANCH  41  44
ENDBRANCH  39  40
ENDBRANCH   1  39
TORSDOF 18
ENDMDL
MODEL 2
REMARK VINA RESULT:     -11.5      5.733     14.764
REMARK SMILES Cc1cc(/C=C2\C(=O)N(Cc3ccco3)C(=O)[NH+]=C2NCCCCNC(=O)c2ccc(-c3c4nc(c(-c5c(F)cc(S(=O)(=O)[O-])cc5F)c5ccc([nH]5)c(-c5c(F)cc(S(=O)(=O)[O-])cc5F)c5nc(c(-c6c(F)cc(S(=O)(=O)[O-])cc6F)c6ccc3[nH]6)C=C5)C=C4)cc2)c(C)n1-c1ccc(Cl)c(C(=O)[O-])c1
REMARK SMILES IDX 23 1 22 2 21 3 20 4 5 5 6 6 7 7 19 8 8 9 9 10 18 11 16 12
REMARK SMILES IDX 17 15 4 16 1 17 2 18 3 19 96 20 94 21 95 22 97 23 98 24
REMARK SMILES IDX 106 25 99 26 102 27 100 28 101 29 103 30 104 31 105 32 10 33
REMARK SMILES IDX 11 34 12 35 15 36 13 37 14 38 24 39 25 40 26 41 27 43 28 44
REMARK SMILES IDX 29 45 93 46 30 47 92 48 31 49 32 50 33 51 86 52 34 53 91 54
REMARK SMILES IDX 85 55 87 56 35 57 90 58 84 59 83 60 36 62 70 63 49 64 69 65
REMARK SMILES IDX 50 66 53 67 68 68 88 69 51 70 52 71 67 73 89 74 54 75 37 76
REMARK SMILES IDX 38 77 47 78 39 79 40 80 46 81 48 82 41 83 42 84 43 85 44 86
REMARK SMILES IDX 45 87 71 88 72 89 81 90 73 91 74 92 80 93 82 94 75 95 76 96
REMARK SMILES IDX 77 97 78 98 79 99 55 100 56 101 65 102 57 103 58 104 64 105
REMARK SMILES IDX 66 106 59 107 60 108 61 109 62 110 63 111
REMARK H PARENT 18 13 20 14 25 42 87 61 53 72
REMARK Flexibility Score: inf
ROOT
ATOM      1  C   UNL A   1      40.993  25.911  26.506  1.00  0.00     0.024 C 
ENDROOT
BRANCH   1   2
ATOM      2  C   UNL A   1      41.934  26.873  25.762  1.00  0.00     0.039 C 
BRANCH   2   3
ATOM      3  C   UNL A   1      41.889  28.330  26.226  1.00  0.00     0.194 C 
BRANCH   3   4
ATOM      4  N   UNL A   1      42.403  28.414  27.573  1.00  0.00    -0.305 N 
ATOM      5  C   UNL A   1      39.650  29.637  28.296  1.00  0.00     0.032 C 
ATOM      6  C   UNL A   1      40.308  28.703  29.007  1.00  0.00     0.129 C 
ATOM      7  C   UNL A   1      39.792  27.989  30.191  1.00  0.00     0.323 C 
ATOM      8  C   UNL A   1      41.754  28.454  28.777  1.00  0.00     0.236 C 
ATOM      9  O   UNL A   1      38.709  27.413  30.198  1.00  0.00    -0.250 OA
ATOM     10  N   UNL A   1      40.657  28.104  31.259  1.00  0.00    -0.182 N 
ATOM     11  N   UNL A   1      42.529  28.230  29.804  1.00  0.00    -0.210 N 
ATOM     12  C   UNL A   1      42.021  28.270  31.079  1.00  0.00     0.444 C 
ATOM     13  H   UNL A   1      43.482  28.031  29.662  1.00  0.00     0.270 HD
ATOM     14  H   UNL A   1      43.386  28.447  27.636  1.00  0.00     0.256 HD
ATOM     15  O   UNL A   1      42.770  28.455  32.035  1.00  0.00    -0.212 OA
BRANCH   5  16
ATOM     16  C   UNL A   1      38.300  30.120  28.365  1.00  0.00    -0.003 A 
ATOM     17  C   UNL A   1      34.651  29.801  27.674  1.00  0.00     0.065 C 
ATOM     18  C   UNL A   1      36.047  30.132  28.074  1.00  0.00     0.020 A 
ATOM     19  C   UNL A   1      37.201  29.422  27.805  1.00  0.00     0.031 A 
ATOM     20  N   UNL A   1      36.410  31.283  28.754  1.00  0.00    -0.318 N 
ATOM     21  C   UNL A   1      37.801  31.301  28.897  1.00  0.00     0.027 A 
ATOM     22  C   UNL A   1      38.507  32.381  29.641  1.00  0.00     0.065 C 
BRANCH  20  23
ATOM     23  C   UNL A   1      35.531  32.248  29.319  1.00  0.00     0.046 A 
ATOM     24  C   UNL A   1      35.180  33.379  28.581  1.00  0.00     0.028 A 
ATOM     25  C   UNL A   1      35.186  32.153  30.671  1.00  0.00     0.038 A 
ATOM     26  C   UNL A   1      34.600  34.469  29.224  1.00  0.00     0.023 A 
ATOM     27  C   UNL A   1      34.572  33.243  31.324  1.00  0.00     0.018 A 
ATOM     28  C   UNL A   1      34.316  34.417  30.595  1.00  0.00     0.050 A 
ATOM     29  Cl  UNL A   1      33.682  35.872  31.282  1.00  0.00    -0.084 Cl
BRANCH  27  30
ATOM     30  C   UNL A   1      34.260  33.139  32.778  1.00  0.00     0.073 C 
ATOM     31  O   UNL A   1      33.174  33.029  33.310  1.00  0.00    -0.545 OA
ATOM     32  O   UNL A   1      35.375  33.155  33.535  1.00  0.00    -0.545 OA
ENDBRANCH  27  30
ENDBRANCH  20  23
ENDBRANCH   5  16
BRANCH  10  33
ATOM     33  C   UNL A   1      40.128  28.132  32.608  1.00  0.00     0.285 C 
BRANCH  33  34
ATOM     34  C   UNL A   1      39.405  29.384  32.909  1.00  0.00     0.138 A 
ATOM     35  C   UNL A   1      39.721  30.720  32.793  1.00  0.00     0.049 A 
ATOM     36  O   UNL A   1      38.115  29.242  33.329  1.00  0.00    -0.466 OA
ATOM     37  C   UNL A   1      38.564  31.434  33.187  1.00  0.00     0.042 A 
ATOM     38  C   UNL A   1      37.619  30.489  33.511  1.00  0.00     0.195 A 
ENDBRANCH  33  34
ENDBRANCH  10  33
ENDBRANCH   3   4
ENDBRANCH   2   3
ENDBRANCH   1   2
BRANCH   1  39
ATOM     39  C   UNL A   1      41.611  24.665  27.163  1.00  0.00     0.116 C 
BRANCH  39  40
ATOM     40  N   UNL A   1      42.939  24.345  26.710  1.00  0.00    -0.352 N 
ATOM     41  C   UNL A   1      44.066  24.189  27.498  1.00  0.00     0.251 C 
ATOM     42  H   UNL A   1      43.058  24.226  25.739  1.00  0.00     0.163 HD
ATOM     43  O   UNL A   1      45.156  24.178  26.933  1.00  0.00    -0.269 OA
BRANCH  41  44
ATOM     44  C   UNL A   1      43.981  24.185  29.002  1.00  0.00     0.039 A 
ATOM     45  C   UNL A   1      44.624  25.203  29.681  1.00  0.00     0.014 A 
ATOM     46  C   UNL A   1      43.458  23.136  29.781  1.00  0.00     0.014 A 
ATOM     47  C   UNL A   1      44.700  25.181  31.099  1.00  0.00     0.010 A 
ATOM     48  C   UNL A   1      43.632  23.072  31.228  1.00  0.00     0.010 A 
ATOM     49  C   UNL A   1      44.289  24.085  31.946  1.00  0.00    -0.014 A 
BRANCH  49  50
ATOM     50  C   UNL A   1      45.052  23.974  33.364  1.00  0.00     0.031 A 
ATOM     51  C   UNL A   1      45.571  25.361  33.558  1.00  0.00     0.074 A 
ATOM     52  C   UNL A   1      45.479  23.084  34.350  1.00  0.00     0.049 A 
ATOM     53  N   UNL A   1      46.305  25.910  32.629  1.00  0.00    -0.248 NA
ATOM     54  C   UNL A   1      44.971  26.311  34.501  1.00  0.00     0.031 C 
ATOM     55  C   UNL A   1      45.381  21.616  34.364  1.00  0.00     0.029 A 
ATOM     56  N   UNL A   1      46.125  23.288  35.614  1.00  0.00    -0.354 N 
ATOM     57  C   UNL A   1      46.519  27.201  33.022  1.00  0.00     0.074 A 
ATOM     58  C   UNL A   1      45.490  27.449  34.024  1.00  0.00     0.031 C 
ATOM     59  C   UNL A   1      45.782  21.089  35.561  1.00  0.00     0.029 A 
ATOM     60  C   UNL A   1      46.258  22.132  36.471  1.00  0.00     0.049 A 
ATOM     61  H   UNL A   1      46.461  24.173  35.885  1.00  0.00     0.167 HD
ATOM     62  C   UNL A   1      47.816  27.619  33.012  1.00  0.00     0.037 A 
ATOM     63  C   UNL A   1      46.775  21.999  37.763  1.00  0.00     0.037 A 
ATOM     64  C   UNL A   1      48.364  27.674  34.342  1.00  0.00     0.049 A 
ATOM     65  C   UNL A   1      47.719  23.114  37.924  1.00  0.00     0.074 A 
ATOM     66  C   UNL A   1      47.877  28.141  35.548  1.00  0.00     0.029 A 
ATOM     67  N   UNL A   1      49.340  26.748  34.644  1.00  0.00    -0.354 N 
ATOM     68  N   UNL A   1      48.895  23.101  37.377  1.00  0.00    -0.248 NA
ATOM     69  C   UNL A   1      47.436  24.255  38.789  1.00  0.00     0.031 C 
ATOM     70  C   UNL A   1      48.163  27.103  36.467  1.00  0.00     0.029 A 
ATOM     71  C   UNL A   1      49.105  26.250  35.908  1.00  0.00     0.049 A 
ATOM     72  H   UNL A   1      50.084  26.487  34.054  1.00  0.00     0.167 HD
ATOM     73  C   UNL A   1      49.266  24.406  37.413  1.00  0.00     0.074 A 
ATOM     74  C   UNL A   1      48.508  24.994  38.502  1.00  0.00     0.031 C 
ATOM     75  C   UNL A   1      49.673  24.965  36.248  1.00  0.00     0.037 A 
BRANCH  62  76
ATOM     76  C   UNL A   1      48.593  27.190  31.794  1.00  0.00     0.058 A 
ATOM     77  C   UNL A   1      48.838  28.120  30.781  1.00  0.00     0.135 A 
ATOM     78  C   UNL A   1      48.990  25.854  31.556  1.00  0.00     0.135 A 
ATOM     79  F   UNL A   1      48.520  29.413  30.962  1.00  0.00    -0.206 F 
ATOM     80  C   UNL A   1      49.403  27.740  29.565  1.00  0.00     0.059 A 
ATOM     81  C   UNL A   1      49.508  25.441  30.333  1.00  0.00     0.059 A 
ATOM     82  F   UNL A   1      48.873  24.929  32.524  1.00  0.00    -0.206 F 
ATOM     83  C   UNL A   1      49.708  26.394  29.340  1.00  0.00     0.060 A 
BRANCH  83  84
ATOM     84  S   UNL A   1      50.331  25.909  27.715  1.00  0.00     0.124 S 
ATOM     85  O   UNL A   1      51.681  26.469  27.714  1.00  0.00    -0.237 OA
ATOM     86  O   UNL A   1      50.263  24.455  27.795  1.00  0.00    -0.237 OA
ATOM     87  O   UNL A   1      49.405  26.547  26.785  1.00  0.00    -0.744 OA
ENDBRANCH  83  84
ENDBRANCH  62  76
BRANCH  63  88
ATOM     88  C   UNL A   1      46.873  21.061  39.012  1.00  0.00     0.058 A 
ATOM     89  C   UNL A   1      45.980  21.221  40.133  1.00  0.00     0.135 A 
ATOM     90  C   UNL A   1      47.512  19.812  39.002  1.00  0.00     0.135 A 
ATOM     91  F   UNL A   1      45.324  22.370  40.347  1.00  0.00    -0.206 F 
ATOM     92  C   UNL A   1      45.635  20.203  41.040  1.00  0.00     0.059 A 
ATOM     93  C   UNL A   1      47.203  18.777  39.933  1.00  0.00     0.059 A 
ATOM     94  F   UNL A   1      48.392  19.523  38.033  1.00  0.00    -0.206 F 
ATOM     95  C   UNL A   1      46.221  18.960  40.911  1.00  0.00     0.060 A 
BRANCH  95  96
ATOM     96  S   UNL A   1      45.569  17.588  41.919  1.00  0.00     0.124 S 
ATOM     97  O   UNL A   1      44.217  17.422  41.398  1.00  0.00    -0.237 OA
ATOM     98  O   UNL A   1      46.500  16.505  41.611  1.00  0.00    -0.237 OA
ATOM     99  O   UNL A   1      45.656  18.101  43.284  1.00  0.00    -0.744 OA
ENDBRANCH  95  96
ENDBRANCH  63  88
BRANCH  75 100
ATOM    100  C   UNL A   1      50.552  24.120  35.335  1.00  0.00     0.058 A 
ATOM    101  C   UNL A   1      50.144  23.056  34.496  1.00  0.00     0.135 A 
ATOM    102  C   UNL A   1      51.935  24.370  35.371  1.00  0.00     0.135 A 
ATOM    103  F   UNL A   1      48.850  22.788  34.265  1.00  0.00    -0.206 F 
ATOM    104  C   UNL A   1      51.060  22.232  33.835  1.00  0.00     0.059 A 
ATOM    105  C   UNL A   1      52.861  23.600  34.672  1.00  0.00     0.059 A 
ATOM    106  F   UNL A   1      52.408  25.392  36.105  1.00  0.00    -0.206 F 
ATOM    107  C   UNL A   1      52.420  22.500  33.944  1.00  0.00     0.060 A 
BRANCH 107 108
ATOM    108  S   UNL A   1      53.608  21.410  33.131  1.00  0.00     0.124 S 
ATOM    109  O   UNL A   1      52.815  20.872  32.030  1.00  0.00    -0.237 OA
ATOM    110  O   UNL A   1      54.677  22.325  32.745  1.00  0.00    -0.237 OA
ATOM    111  O   UNL A   1      53.949  20.447  34.174  1.00  0.00    -0.744 OA
ENDBRANCH 107 108
ENDBRANCH  75 100
ENDBRANCH  49  50
ENDBRANCH  41  44
ENDBRANCH  39  40
ENDBRANCH   1  39
TORSDOF 18
ENDMDL
MODEL 3
REMARK VINA RESULT:     -11.3      4.341      7.755
REMARK SMILES Cc1cc(/C=C2\C(=O)N(Cc3ccco3)C(=O)[NH+]=C2NCCCCNC(=O)c2ccc(-c3c4nc(c(-c5c(F)cc(S(=O)(=O)[O-])cc5F)c5ccc([nH]5)c(-c5c(F)cc(S(=O)(=O)[O-])cc5F)c5nc(c(-c6c(F)cc(S(=O)(=O)[O-])cc6F)c6ccc3[nH]6)C=C5)C=C4)cc2)c(C)n1-c1ccc(Cl)c(C(=O)[O-])c1
REMARK SMILES IDX 23 1 22 2 21 3 20 4 5 5 6 6 7 7 19 8 8 9 9 10 18 11 16 12
REMARK SMILES IDX 17 15 4 16 1 17 2 18 3 19 96 20 94 21 95 22 97 23 98 24
REMARK SMILES IDX 106 25 99 26 102 27 100 28 101 29 103 30 104 31 105 32 10 33
REMARK SMILES IDX 11 34 12 35 15 36 13 37 14 38 24 39 25 40 26 41 27 43 28 44
REMARK SMILES IDX 29 45 93 46 30 47 92 48 31 49 32 50 33 51 86 52 34 53 91 54
REMARK SMILES IDX 85 55 87 56 35 57 90 58 84 59 83 60 36 62 70 63 49 64 69 65
REMARK SMILES IDX 50 66 53 67 68 68 88 69 51 70 52 71 67 73 89 74 54 75 37 76
REMARK SMILES IDX 38 77 47 78 39 79 40 80 46 81 48 82 41 83 42 84 43 85 44 86
REMARK SMILES IDX 45 87 71 88 72 89 81 90 73 91 74 92 80 93 82 94 75 95 76 96
REMARK SMILES IDX 77 97 78 98 79 99 55 100 56 101 65 102 57 103 58 104 64 105
REMARK SMILES IDX 66 106 59 107 60 108 61 109 62 110 63 111
REMARK H PARENT 18 13 20 14 25 42 87 61 53 72
REMARK Flexibility Score: inf
ROOT
ATOM      1  C   UNL A   1      47.544  27.519  34.596  1.00  0.00     0.024 C 
ENDROOT
BRANCH   1   2
ATOM      2  C   UNL A   1      47.758  27.397  33.077  1.00  0.00     0.039 C 
BRANCH   2   3
ATOM      3  C   UNL A   1      48.691  26.270  32.631  1.00  0.00     0.194 C 
BRANCH   3   4
ATOM      4  N   UNL A   1      49.666  26.802  31.706  1.00  0.00    -0.305 N 
ATOM      5  C   UNL A   1      47.794  25.727  29.483  1.00  0.00     0.032 C 
ATOM      6  C   UNL A   1      48.397  26.931  29.492  1.00  0.00     0.129 C 
ATOM      7  C   UNL A   1      48.183  28.017  28.516  1.00  0.00     0.323 C 
ATOM      8  C   UNL A   1      49.538  27.201  30.403  1.00  0.00     0.236 C 
ATOM      9  O   UNL A   1      47.067  28.437  28.225  1.00  0.00    -0.250 OA
ATOM     10  N   UNL A   1      49.377  28.439  27.969  1.00  0.00    -0.182 N 
ATOM     11  N   UNL A   1      50.547  27.903  29.964  1.00  0.00    -0.210 N 
ATOM     12  C   UNL A   1      50.572  28.346  28.665  1.00  0.00     0.444 C 
ATOM     13  H   UNL A   1      51.294  28.116  30.568  1.00  0.00     0.270 HD
ATOM     14  H   UNL A   1      50.574  26.892  32.076  1.00  0.00     0.256 HD
ATOM     15  O   UNL A   1      51.640  28.645  28.136  1.00  0.00    -0.212 OA
BRANCH   5  16
ATOM     16  C   UNL A   1      46.742  25.189  28.669  1.00  0.00    -0.003 A 
ATOM     17  C   UNL A   1      45.341  24.115  25.385  1.00  0.00     0.065 C 
ATOM     18  C   UNL A   1      45.691  24.457  26.792  1.00  0.00     0.020 A 
ATOM     19  C   UNL A   1      46.856  25.030  27.265  1.00  0.00     0.031 A 
ATOM     20  N   UNL A   1      44.835  24.296  27.869  1.00  0.00    -0.318 N 
ATOM     21  C   UNL A   1      45.461  24.785  29.019  1.00  0.00     0.027 A 
ATOM     22  C   UNL A   1      44.825  24.701  30.363  1.00  0.00     0.065 C 
BRANCH  20  23
ATOM     23  C   UNL A   1      43.569  23.646  27.856  1.00  0.00     0.046 A 
ATOM     24  C   UNL A   1      43.500  22.270  27.632  1.00  0.00     0.028 A 
ATOM     25  C   UNL A   1      42.402  24.417  27.870  1.00  0.00     0.038 A 
ATOM     26  C   UNL A   1      42.283  21.687  27.295  1.00  0.00     0.023 A 
ATOM     27  C   UNL A   1      41.159  23.827  27.557  1.00  0.00     0.018 A 
ATOM     28  C   UNL A   1      41.116  22.461  27.233  1.00  0.00     0.050 A 
ATOM     29  Cl  UNL A   1      39.693  21.627  26.714  1.00  0.00    -0.084 Cl
BRANCH  27  30
ATOM     30  C   UNL A   1      39.936  24.679  27.528  1.00  0.00     0.073 C 
ATOM     31  O   UNL A   1      39.209  24.987  28.451  1.00  0.00    -0.545 OA
ATOM     32  O   UNL A   1      39.678  25.148  26.291  1.00  0.00    -0.545 OA
ENDBRANCH  27  30
ENDBRANCH  20  23
ENDBRANCH   5  16
BRANCH  10  33
ATOM     33  C   UNL A   1      49.407  28.921  26.603  1.00  0.00     0.285 C 
BRANCH  33  34
ATOM     34  C   UNL A   1      49.066  27.870  25.622  1.00  0.00     0.138 A 
ATOM     35  C   UNL A   1      49.586  26.626  25.337  1.00  0.00     0.049 A 
ATOM     36  O   UNL A   1      47.962  28.104  24.857  1.00  0.00    -0.466 OA
ATOM     37  C   UNL A   1      48.764  26.080  24.322  1.00  0.00     0.042 A 
ATOM     38  C   UNL A   1      47.796  27.020  24.060  1.00  0.00     0.195 A 
ENDBRANCH  33  34
ENDBRANCH  10  33
ENDBRANCH   3   4
ENDBRANCH   2   3
ENDBRANCH   1   2
BRANCH   1  39
ATOM     39  C   UNL A   1      46.340  26.789  35.212  1.00  0.00     0.116 C 
BRANCH  39  40
ATOM     40  N   UNL A   1      46.139  25.449  34.728  1.00  0.00    -0.352 N 
ATOM     41  C   UNL A   1      44.959  24.915  34.239  1.00  0.00     0.251 C 
ATOM     42  H   UNL A   1      46.921  24.850  34.747  1.00  0.00     0.163 HD
ATOM     43  O   UNL A   1      44.897  23.695  34.117  1.00  0.00    -0.269 OA
BRANCH  41  44
ATOM     44  C   UNL A   1      43.743  25.774  34.007  1.00  0.00     0.039 A 
ATOM     45  C   UNL A   1      43.896  26.897  33.217  1.00  0.00     0.014 A 
ATOM     46  C   UNL A   1      42.511  25.630  34.673  1.00  0.00     0.014 A 
ATOM     47  C   UNL A   1      42.828  27.823  33.073  1.00  0.00     0.010 A 
ATOM     48  C   UNL A   1      41.459  26.638  34.600  1.00  0.00     0.010 A 
ATOM     49  C   UNL A   1      41.587  27.796  33.814  1.00  0.00    -0.014 A 
BRANCH  49  50
ATOM     50  C   UNL A   1      40.857  29.222  34.006  1.00  0.00     0.031 A 
ATOM     51  C   UNL A   1      39.706  29.123  33.059  1.00  0.00     0.074 A 
ATOM     52  C   UNL A   1      40.970  30.477  34.605  1.00  0.00     0.049 A 
ATOM     53  N   UNL A   1      39.927  28.831  31.807  1.00  0.00    -0.248 NA
ATOM     54  C   UNL A   1      38.327  28.900  33.503  1.00  0.00     0.031 C 
ATOM     55  C   UNL A   1      42.092  31.021  35.386  1.00  0.00     0.029 A 
ATOM     56  N   UNL A   1      40.082  31.602  34.656  1.00  0.00    -0.354 N 
ATOM     57  C   UNL A   1      38.699  28.686  31.225  1.00  0.00     0.074 A 
ATOM     58  C   UNL A   1      37.788  28.494  32.346  1.00  0.00     0.031 C 
ATOM     59  C   UNL A   1      41.790  32.239  35.933  1.00  0.00     0.029 A 
ATOM     60  C   UNL A   1      40.456  32.688  35.532  1.00  0.00     0.049 A 
ATOM     61  H   UNL A   1      39.256  31.631  34.120  1.00  0.00     0.167 HD
ATOM     62  C   UNL A   1      38.498  29.389  30.075  1.00  0.00     0.037 A 
ATOM     63  C   UNL A   1      39.799  33.879  35.852  1.00  0.00     0.037 A 
ATOM     64  C   UNL A   1      37.674  30.547  30.301  1.00  0.00     0.049 A 
ATOM     65  C   UNL A   1      38.919  34.161  34.710  1.00  0.00     0.074 A 
ATOM     66  C   UNL A   1      36.515  30.759  31.023  1.00  0.00     0.029 A 
ATOM     67  N   UNL A   1      38.292  31.775  30.181  1.00  0.00    -0.354 N 
ATOM     68  N   UNL A   1      39.377  34.632  33.591  1.00  0.00    -0.248 NA
ATOM     69  C   UNL A   1      37.468  34.027  34.793  1.00  0.00     0.031 C 
ATOM     70  C   UNL A   1      36.773  31.938  31.762  1.00  0.00     0.029 A 
ATOM     71  C   UNL A   1      37.870  32.589  31.210  1.00  0.00     0.049 A 
ATOM     72  H   UNL A   1      38.931  32.028  29.476  1.00  0.00     0.167 HD
ATOM     73  C   UNL A   1      38.375  34.370  32.714  1.00  0.00     0.074 A 
ATOM     74  C   UNL A   1      37.171  34.277  33.518  1.00  0.00     0.031 C 
ATOM     75  C   UNL A   1      38.705  33.708  31.579  1.00  0.00     0.037 A 
BRANCH  62  76
ATOM     76  C   UNL A   1      39.662  29.352  29.118  1.00  0.00     0.058 A 
ATOM     77  C   UNL A   1      39.585  28.535  27.986  1.00  0.00     0.135 A 
ATOM     78  C   UNL A   1      40.890  30.008  29.361  1.00  0.00     0.135 A 
ATOM     79  F   UNL A   1      38.434  27.916  27.679  1.00  0.00    -0.206 F 
ATOM     80  C   UNL A   1      40.689  28.334  27.159  1.00  0.00     0.059 A 
ATOM     81  C   UNL A   1      42.018  29.783  28.580  1.00  0.00     0.059 A 
ATOM     82  F   UNL A   1      41.002  30.882  30.375  1.00  0.00    -0.206 F 
ATOM     83  C   UNL A   1      41.908  28.940  27.480  1.00  0.00     0.060 A 
BRANCH  83  84
ATOM     84  S   UNL A   1      43.351  28.570  26.458  1.00  0.00     0.124 S 
ATOM     85  O   UNL A   1      42.767  28.430  25.125  1.00  0.00    -0.237 OA
ATOM     86  O   UNL A   1      44.166  29.764  26.655  1.00  0.00    -0.237 OA
ATOM     87  O   UNL A   1      43.873  27.333  27.029  1.00  0.00    -0.744 OA
ENDBRANCH  83  84
ENDBRANCH  62  76
BRANCH  63  88
ATOM     88  C   UNL A   1      39.756  35.091  36.842  1.00  0.00     0.058 A 
ATOM     89  C   UNL A   1      38.978  35.033  38.055  1.00  0.00     0.135 A 
ATOM     90  C   UNL A   1      40.712  36.118  36.862  1.00  0.00     0.135 A 
ATOM     91  F   UNL A   1      37.975  34.156  38.201  1.00  0.00    -0.206 F 
ATOM     92  C   UNL A   1      39.229  35.792  39.212  1.00  0.00     0.059 A 
ATOM     93  C   UNL A   1      40.961  36.923  38.012  1.00  0.00     0.059 A 
ATOM     94  F   UNL A   1      41.499  36.314  35.793  1.00  0.00    -0.206 F 
ATOM     95  C   UNL A   1      40.257  36.714  39.201  1.00  0.00     0.060 A 
BRANCH  95  96
ATOM     96  S   UNL A   1      40.737  37.490  40.779  1.00  0.00     0.124 S 
ATOM     97  O   UNL A   1      41.585  38.596  40.347  1.00  0.00    -0.237 OA
ATOM     98  O   UNL A   1      39.445  37.872  41.344  1.00  0.00    -0.237 OA
ATOM     99  O   UNL A   1      41.423  36.415  41.489  1.00  0.00    -0.744 OA
ENDBRANCH  95  96
ENDBRANCH  63  88
BRANCH  75 100
ATOM    100  C   UNL A   1      40.010  34.097  30.896  1.00  0.00     0.058 A 
ATOM    101  C   UNL A   1      41.325  33.865  31.365  1.00  0.00     0.135 A 
ATOM    102  C   UNL A   1      39.911  34.827  29.699  1.00  0.00     0.135 A 
ATOM    103  F   UNL A   1      41.576  33.076  32.420  1.00  0.00    -0.206 F 
ATOM    104  C   UNL A   1      42.448  34.422  30.745  1.00  0.00     0.059 A 
ATOM    105  C   UNL A   1      41.021  35.339  29.031  1.00  0.00     0.059 A 
ATOM    106  F   UNL A   1      38.703  35.054  29.155  1.00  0.00    -0.206 F 
ATOM    107  C   UNL A   1      42.285  35.174  29.587  1.00  0.00     0.060 A 
BRANCH 107 108
ATOM    108  S   UNL A   1      43.727  35.934  28.811  1.00  0.00     0.124 S 
ATOM    109  O   UNL A   1      43.426  37.356  28.950  1.00  0.00    -0.237 OA
ATOM    110  O   UNL A   1      44.832  35.445  29.629  1.00  0.00    -0.237 OA
ATOM    111  O   UNL A   1      43.682  35.425  27.444  1.00  0.00    -0.744 OA
ENDBRANCH 107 108
ENDBRANCH  75 100
ENDBRANCH  49  50
ENDBRANCH  41  44
ENDBRANCH  39  40
ENDBRANCH   1  39
TORSDOF 18
ENDMDL
