MODEL 1
REMARK VINA RESULT:     -11.0      0.000      0.000
REMARK SMILES CC(C)N(CC1CC1)C(=O)N1CC[C@H](C(=O)NCCCCNC(=O)c2ccc(-c3c4nc(c(-c5c(F)cc(S(=O)(=O)[O-])cc5F)c5ccc([nH]5)c(-c5c(F)cc(S(=O)(=O)[O-])cc5F)c5nc(c(-c6c(F)cc(S(=O)(=O)[O-])cc6F)c6ccc3[nH]6)C=C5)C=C4)cc2)[C@H]1C
REMARK SMILES IDX 19 1 18 2 17 3 15 4 16 5 14 7 11 8 12 9 91 10 13 11 92 12
REMARK SMILES IDX 9 13 10 14 4 15 2 16 1 17 3 18 5 19 6 20 7 21 8 22 20 23
REMARK SMILES IDX 21 24 22 25 23 26 24 28 25 29 26 30 90 31 27 32 89 33 28 34
REMARK SMILES IDX 29 35 30 36 83 37 31 38 88 39 82 40 84 41 32 42 87 43 81 44
REMARK SMILES IDX 80 45 33 47 67 48 46 49 66 50 47 51 50 52 65 53 85 54 48 55
REMARK SMILES IDX 49 56 64 58 86 59 51 60 34 61 35 62 44 63 36 64 37 65 43 66
REMARK SMILES IDX 45 67 38 68 39 69 40 70 41 71 42 72 68 73 69 74 78 75 70 76
REMARK SMILES IDX 71 77 77 78 79 79 72 80 73 81 74 82 75 83 76 84 52 85 53 86
REMARK SMILES IDX 62 87 54 88 55 89 61 90 63 91 56 92 57 93 58 94 59 95 60 96
REMARK H PARENT 17 6 22 27 84 46 50 57
REMARK Flexibility Score: inf
ROOT
ATOM      1  C   UNL A   1      32.911  29.305  24.878  1.00  0.00     0.023 C 
ENDROOT
BRANCH   1   2
ATOM      2  C   UNL A   1      32.055  28.658  23.797  1.00  0.00     0.116 C 
BRANCH   2   3
ATOM      3  N   UNL A   1      32.863  28.011  22.779  1.00  0.00    -0.356 N 
ATOM      4  C   UNL A   1      33.118  26.674  22.627  1.00  0.00     0.225 C 
ATOM      5  O   UNL A   1      33.877  26.309  21.736  1.00  0.00    -0.275 OA
ATOM      6  H   UNL A   1      33.279  28.607  22.117  1.00  0.00     0.163 HD
BRANCH   4   7
ATOM      7  C   UNL A   1      32.440  25.728  23.603  1.00  0.00     0.102 C 
ATOM      8  N   UNL A   1      33.696  23.710  23.719  1.00  0.00    -0.321 N 
ATOM      9  C   UNL A   1      32.711  23.574  22.645  1.00  0.00     0.122 C 
ATOM     10  C   UNL A   1      33.406  24.924  24.490  1.00  0.00     0.096 C 
ATOM     11  C   UNL A   1      31.655  24.636  22.886  1.00  0.00     0.037 C 
ATOM     12  C   UNL A   1      32.649  24.667  25.810  1.00  0.00     0.032 C 
BRANCH   8  13
ATOM     13  C   UNL A   1      34.872  23.008  23.542  1.00  0.00     0.320 C 
ATOM     14  O   UNL A   1      35.411  23.071  22.429  1.00  0.00    -0.248 OA
BRANCH  13  15
ATOM     15  N   UNL A   1      35.420  22.193  24.521  1.00  0.00    -0.322 N 
BRANCH  15  16
ATOM     16  C   UNL A   1      36.907  22.107  24.582  1.00  0.00     0.080 C 
ATOM     17  C   UNL A   1      37.542  23.185  25.481  1.00  0.00     0.031 C 
ATOM     18  C   UNL A   1      37.423  20.711  24.924  1.00  0.00     0.031 C 
ENDBRANCH  15  16
BRANCH  15  19
ATOM     19  C   UNL A   1      34.727  21.233  25.377  1.00  0.00     0.125 C 
BRANCH  19  20
ATOM     20  C   UNL A   1      33.790  20.310  24.646  1.00  0.00     0.009 C 
ATOM     21  C   UNL A   1      33.974  18.812  24.458  1.00  0.00     0.006 C 
ATOM     22  C   UNL A   1      33.004  19.311  25.476  1.00  0.00     0.006 C 
ENDBRANCH  19  20
ENDBRANCH  15  19
ENDBRANCH  13  15
ENDBRANCH   8  13
ENDBRANCH   4   7
ENDBRANCH   2   3
ENDBRANCH   1   2
BRANCH   1  23
ATOM     23  C   UNL A   1      33.703  28.314  25.728  1.00  0.00     0.023 C 
BRANCH  23  24
ATOM     24  C   UNL A   1      33.561  28.505  27.234  1.00  0.00     0.116 C 
BRANCH  24  25
ATOM     25  N   UNL A   1      33.506  29.907  27.624  1.00  0.00    -0.352 N 
ATOM     26  C   UNL A   1      34.472  30.677  28.230  1.00  0.00     0.251 C 
ATOM     27  H   UNL A   1      32.659  30.367  27.427  1.00  0.00     0.163 HD
ATOM     28  O   UNL A   1      34.202  31.802  28.620  1.00  0.00    -0.269 OA
BRANCH  26  29
ATOM     29  C   UNL A   1      35.824  30.111  28.433  1.00  0.00     0.039 A 
ATOM     30  C   UNL A   1      36.728  30.128  27.370  1.00  0.00     0.014 A 
ATOM     31  C   UNL A   1      36.205  29.602  29.677  1.00  0.00     0.014 A 
ATOM     32  C   UNL A   1      38.041  29.702  27.578  1.00  0.00     0.010 A 
ATOM     33  C   UNL A   1      37.533  29.258  29.903  1.00  0.00     0.010 A 
ATOM     34  C   UNL A   1      38.467  29.304  28.857  1.00  0.00    -0.014 A 
BRANCH  34  35
ATOM     35  C   UNL A   1      39.881  28.933  29.120  1.00  0.00     0.031 A 
ATOM     36  C   UNL A   1      40.823  29.941  29.724  1.00  0.00     0.074 A 
ATOM     37  C   UNL A   1      40.332  27.713  28.763  1.00  0.00     0.049 A 
ATOM     38  N   UNL A   1      42.106  29.837  29.955  1.00  0.00    -0.248 NA
ATOM     39  C   UNL A   1      40.253  31.246  30.096  1.00  0.00     0.031 C 
ATOM     40  C   UNL A   1      39.529  26.662  28.131  1.00  0.00     0.029 A 
ATOM     41  N   UNL A   1      41.579  27.150  28.872  1.00  0.00    -0.354 N 
ATOM     42  C   UNL A   1      42.495  31.057  30.494  1.00  0.00     0.074 A 
ATOM     43  C   UNL A   1      41.327  31.909  30.497  1.00  0.00     0.031 C 
ATOM     44  C   UNL A   1      40.295  25.578  27.933  1.00  0.00     0.029 A 
ATOM     45  C   UNL A   1      41.653  25.867  28.380  1.00  0.00     0.049 A 
ATOM     46  H   UNL A   1      42.349  27.621  29.264  1.00  0.00     0.167 HD
ATOM     47  C   UNL A   1      43.707  31.424  30.972  1.00  0.00     0.037 A 
ATOM     48  C   UNL A   1      42.701  25.023  28.291  1.00  0.00     0.037 A 
ATOM     49  C   UNL A   1      44.863  30.566  30.986  1.00  0.00     0.049 A 
ATOM     50  C   UNL A   1      44.047  25.471  28.801  1.00  0.00     0.074 A 
ATOM     51  C   UNL A   1      46.128  30.835  31.477  1.00  0.00     0.029 A 
ATOM     52  N   UNL A   1      44.894  29.271  30.490  1.00  0.00    -0.354 N 
ATOM     53  N   UNL A   1      44.383  26.612  29.355  1.00  0.00    -0.248 NA
ATOM     54  C   UNL A   1      45.156  24.514  28.679  1.00  0.00     0.031 C 
ATOM     55  C   UNL A   1      46.936  29.719  31.241  1.00  0.00     0.029 A 
ATOM     56  C   UNL A   1      46.161  28.734  30.652  1.00  0.00     0.049 A 
ATOM     57  H   UNL A   1      44.129  28.803  30.083  1.00  0.00     0.167 HD
ATOM     58  C   UNL A   1      45.730  26.494  29.681  1.00  0.00     0.074 A 
ATOM     59  C   UNL A   1      46.143  25.168  29.273  1.00  0.00     0.031 C 
ATOM     60  C   UNL A   1      46.551  27.402  30.263  1.00  0.00     0.037 A 
BRANCH  47  61
ATOM     61  C   UNL A   1      43.846  32.808  31.545  1.00  0.00     0.058 A 
ATOM     62  C   UNL A   1      44.042  33.926  30.717  1.00  0.00     0.135 A 
ATOM     63  C   UNL A   1      43.721  33.030  32.926  1.00  0.00     0.135 A 
ATOM     64  F   UNL A   1      44.189  33.769  29.392  1.00  0.00    -0.206 F 
ATOM     65  C   UNL A   1      44.122  35.212  31.239  1.00  0.00     0.059 A 
ATOM     66  C   UNL A   1      43.768  34.313  33.467  1.00  0.00     0.059 A 
ATOM     67  F   UNL A   1      43.536  31.997  33.763  1.00  0.00    -0.206 F 
ATOM     68  C   UNL A   1      43.977  35.396  32.614  1.00  0.00     0.060 A 
BRANCH  68  69
ATOM     69  S   UNL A   1      44.048  37.078  33.267  1.00  0.00     0.124 S 
ATOM     70  O   UNL A   1      44.319  37.849  32.057  1.00  0.00    -0.237 OA
ATOM     71  O   UNL A   1      42.716  37.244  33.840  1.00  0.00    -0.237 OA
ATOM     72  O   UNL A   1      45.141  37.023  34.232  1.00  0.00    -0.744 OA
ENDBRANCH  68  69
ENDBRANCH  47  61
BRANCH  48  73
ATOM     73  C   UNL A   1      42.531  23.665  27.704  1.00  0.00     0.058 A 
ATOM     74  C   UNL A   1      42.376  22.538  28.526  1.00  0.00     0.135 A 
ATOM     75  C   UNL A   1      42.558  23.460  26.316  1.00  0.00     0.135 A 
ATOM     76  F   UNL A   1      42.347  22.680  29.859  1.00  0.00    -0.206 F 
ATOM     77  C   UNL A   1      42.293  21.253  27.997  1.00  0.00     0.059 A 
ATOM     78  C   UNL A   1      42.446  22.188  25.761  1.00  0.00     0.059 A 
ATOM     79  F   UNL A   1      42.686  24.504  25.482  1.00  0.00    -0.206 F 
ATOM     80  C   UNL A   1      42.335  21.089  26.611  1.00  0.00     0.060 A 
BRANCH  80  81
ATOM     81  S   UNL A   1      42.226  19.418  25.934  1.00  0.00     0.124 S 
ATOM     82  O   UNL A   1      43.064  19.530  24.745  1.00  0.00    -0.237 OA
ATOM     83  O   UNL A   1      42.765  18.610  27.023  1.00  0.00    -0.237 OA
ATOM     84  O   UNL A   1      40.797  19.251  25.687  1.00  0.00    -0.744 OA
ENDBRANCH  80  81
ENDBRANCH  48  73
BRANCH  60  85
ATOM     85  C   UNL A   1      47.966  26.976  30.549  1.00  0.00     0.058 A 
ATOM     86  C   UNL A   1      49.034  27.347  29.718  1.00  0.00     0.135 A 
ATOM     87  C   UNL A   1      48.261  26.232  31.703  1.00  0.00     0.135 A 
ATOM     88  F   UNL A   1      48.805  28.054  28.598  1.00  0.00    -0.206 F 
ATOM     89  C   UNL A   1      50.342  26.972  30.005  1.00  0.00     0.059 A 
ATOM     90  C   UNL A   1      49.566  25.872  32.027  1.00  0.00     0.059 A 
ATOM     91  F   UNL A   1      47.278  25.861  32.539  1.00  0.00    -0.206 F 
ATOM     92  C   UNL A   1      50.598  26.237  31.164  1.00  0.00     0.060 A 
BRANCH  92  93
ATOM     93  S   UNL A   1      52.305  25.787  31.543  1.00  0.00     0.124 S 
ATOM     94  O   UNL A   1      52.144  24.433  32.061  1.00  0.00    -0.237 OA
ATOM     95  O   UNL A   1      52.952  25.894  30.240  1.00  0.00    -0.237 OA
ATOM     96  O   UNL A   1      52.711  26.790  32.523  1.00  0.00    -0.744 OA
ENDBRANCH  92  93
ENDBRANCH  60  85
ENDBRANCH  34  35
ENDBRANCH  26  29
ENDBRANCH  24  25
ENDBRANCH  23  24
ENDBRANCH   1  23
TORSDOF 19
ENDMDL
MODEL 2
REMARK VINA RESULT:     -10.5      4.810      9.875
REMARK SMILES CC(C)N(CC1CC1)C(=O)N1CC[C@H](C(=O)NCCCCNC(=O)c2ccc(-c3c4nc(c(-c5c(F)cc(S(=O)(=O)[O-])cc5F)c5ccc([nH]5)c(-c5c(F)cc(S(=O)(=O)[O-])cc5F)c5nc(c(-c6c(F)cc(S(=O)(=O)[O-])cc6F)c6ccc3[nH]6)C=C5)C=C4)cc2)[C@H]1C
REMARK SMILES IDX 19 1 18 2 17 3 15 4 16 5 14 7 11 8 12 9 91 10 13 11 92 12
REMARK SMILES IDX 9 13 10 14 4 15 2 16 1 17 3 18 5 19 6 20 7 21 8 22 20 23
REMARK SMILES IDX 21 24 22 25 23 26 24 28 25 29 26 30 90 31 27 32 89 33 28 34
REMARK SMILES IDX 29 35 30 36 83 37 31 38 88 39 82 40 84 41 32 42 87 43 81 44
REMARK SMILES IDX 80 45 33 47 67 48 46 49 66 50 47 51 50 52 65 53 85 54 48 55
REMARK SMILES IDX 49 56 64 58 86 59 51 60 34 61 35 62 44 63 36 64 37 65 43 66
REMARK SMILES IDX 45 67 38 68 39 69 40 70 41 71 42 72 68 73 69 74 78 75 70 76
REMARK SMILES IDX 71 77 77 78 79 79 72 80 73 81 74 82 75 83 76 84 52 85 53 86
REMARK SMILES IDX 62 87 54 88 55 89 61 90 63 91 56 92 57 93 58 94 59 95 60 96
REMARK H PARENT 17 6 22 27 84 46 50 57
REMARK Flexibility Score: inf
ROOT
ATOM      1  C   UNL A   1      37.784  21.989  25.352  1.00  0.00     0.023 C 
ENDROOT
BRANCH   1   2
ATOM      2  C   UNL A   1      36.655  21.159  24.756  1.00  0.00     0.116 C 
BRANCH   2   3
ATOM      3  N   UNL A   1      35.640  20.835  25.742  1.00  0.00    -0.356 N 
ATOM      4  C   UNL A   1      34.318  21.193  25.742  1.00  0.00     0.225 C 
ATOM      5  O   UNL A   1      33.614  20.877  26.695  1.00  0.00    -0.275 OA
ATOM      6  H   UNL A   1      35.939  20.292  26.506  1.00  0.00     0.163 HD
BRANCH   4   7
ATOM      7  C   UNL A   1      33.819  21.983  24.545  1.00  0.00     0.102 C 
ATOM      8  N   UNL A   1      32.271  23.626  25.298  1.00  0.00    -0.321 N 
ATOM      9  C   UNL A   1      31.528  22.398  25.008  1.00  0.00     0.122 C 
ATOM     10  C   UNL A   1      33.644  23.490  24.802  1.00  0.00     0.096 C 
ATOM     11  C   UNL A   1      32.421  21.550  24.120  1.00  0.00     0.037 C 
ATOM     12  C   UNL A   1      33.895  24.179  23.443  1.00  0.00     0.032 C 
BRANCH   8  13
ATOM     13  C   UNL A   1      31.742  24.419  26.297  1.00  0.00     0.320 C 
ATOM     14  O   UNL A   1      31.459  23.870  27.371  1.00  0.00    -0.248 OA
BRANCH  13  15
ATOM     15  N   UNL A   1      31.455  25.764  26.122  1.00  0.00    -0.322 N 
BRANCH  15  16
ATOM     16  C   UNL A   1      32.418  26.747  26.697  1.00  0.00     0.080 C 
ATOM     17  C   UNL A   1      33.528  27.158  25.713  1.00  0.00     0.031 C 
ATOM     18  C   UNL A   1      31.743  27.964  27.327  1.00  0.00     0.031 C 
ENDBRANCH  15  16
BRANCH  15  19
ATOM     19  C   UNL A   1      30.216  26.357  25.626  1.00  0.00     0.125 C 
BRANCH  19  20
ATOM     20  C   UNL A   1      30.224  26.677  24.156  1.00  0.00     0.009 C 
ATOM     21  C   UNL A   1      29.130  27.410  23.393  1.00  0.00     0.006 C 
ATOM     22  C   UNL A   1      30.382  28.134  23.759  1.00  0.00     0.006 C 
ENDBRANCH  19  20
ENDBRANCH  15  19
ENDBRANCH  13  15
ENDBRANCH   8  13
ENDBRANCH   4   7
ENDBRANCH   2   3
ENDBRANCH   1   2
BRANCH   1  23
ATOM     23  C   UNL A   1      37.441  23.462  25.552  1.00  0.00     0.023 C 
BRANCH  23  24
ATOM     24  C   UNL A   1      38.371  24.215  26.497  1.00  0.00     0.116 C 
BRANCH  24  25
ATOM     25  N   UNL A   1      39.775  24.081  26.136  1.00  0.00    -0.352 N 
ATOM     26  C   UNL A   1      40.849  24.845  26.531  1.00  0.00     0.251 C 
ATOM     27  H   UNL A   1      39.985  23.340  25.523  1.00  0.00     0.163 HD
ATOM     28  O   UNL A   1      41.942  24.680  26.012  1.00  0.00    -0.269 OA
BRANCH  26  29
ATOM     29  C   UNL A   1      40.652  25.888  27.561  1.00  0.00     0.039 A 
ATOM     30  C   UNL A   1      39.669  25.697  28.534  1.00  0.00     0.014 A 
ATOM     31  C   UNL A   1      41.460  27.028  27.587  1.00  0.00     0.014 A 
ATOM     32  C   UNL A   1      39.547  26.617  29.578  1.00  0.00     0.010 A 
ATOM     33  C   UNL A   1      41.393  27.896  28.671  1.00  0.00     0.010 A 
ATOM     34  C   UNL A   1      40.436  27.701  29.679  1.00  0.00    -0.014 A 
BRANCH  34  35
ATOM     35  C   UNL A   1      40.382  28.639  30.830  1.00  0.00     0.031 A 
ATOM     36  C   UNL A   1      39.403  29.784  30.822  1.00  0.00     0.074 A 
ATOM     37  C   UNL A   1      41.248  28.495  31.854  1.00  0.00     0.049 A 
ATOM     38  N   UNL A   1      39.258  30.751  31.690  1.00  0.00    -0.248 NA
ATOM     39  C   UNL A   1      38.484  29.866  29.675  1.00  0.00     0.031 C 
ATOM     40  C   UNL A   1      42.271  27.451  31.960  1.00  0.00     0.029 A 
ATOM     41  N   UNL A   1      41.415  29.233  32.998  1.00  0.00    -0.354 N 
ATOM     42  C   UNL A   1      38.237  31.554  31.195  1.00  0.00     0.074 A 
ATOM     43  C   UNL A   1      37.842  30.998  29.920  1.00  0.00     0.031 C 
ATOM     44  C   UNL A   1      42.939  27.602  33.114  1.00  0.00     0.029 A 
ATOM     45  C   UNL A   1      42.426  28.775  33.812  1.00  0.00     0.049 A 
ATOM     46  H   UNL A   1      40.863  30.019  33.217  1.00  0.00     0.167 HD
ATOM     47  C   UNL A   1      37.660  32.638  31.765  1.00  0.00     0.037 A 
ATOM     48  C   UNL A   1      42.893  29.255  34.982  1.00  0.00     0.037 A 
ATOM     49  C   UNL A   1      38.043  33.176  33.045  1.00  0.00     0.049 A 
ATOM     50  C   UNL A   1      42.253  30.483  35.578  1.00  0.00     0.074 A 
ATOM     51  C   UNL A   1      37.497  34.252  33.723  1.00  0.00     0.029 A 
ATOM     52  N   UNL A   1      39.062  32.677  33.842  1.00  0.00    -0.354 N 
ATOM     53  N   UNL A   1      41.254  31.198  35.119  1.00  0.00    -0.248 NA
ATOM     54  C   UNL A   1      42.800  30.964  36.854  1.00  0.00     0.031 C 
ATOM     55  C   UNL A   1      38.214  34.431  34.910  1.00  0.00     0.029 A 
ATOM     56  C   UNL A   1      39.170  33.432  34.998  1.00  0.00     0.049 A 
ATOM     57  H   UNL A   1      39.625  31.901  33.619  1.00  0.00     0.167 HD
ATOM     58  C   UNL A   1      41.030  32.190  36.068  1.00  0.00     0.074 A 
ATOM     59  C   UNL A   1      41.988  31.975  37.131  1.00  0.00     0.031 C 
ATOM     60  C   UNL A   1      40.114  33.190  36.060  1.00  0.00     0.037 A 
BRANCH  47  61
ATOM     61  C   UNL A   1      36.534  33.305  31.025  1.00  0.00     0.058 A 
ATOM     62  C   UNL A   1      35.202  33.177  31.450  1.00  0.00     0.135 A 
ATOM     63  C   UNL A   1      36.791  34.132  29.919  1.00  0.00     0.135 A 
ATOM     64  F   UNL A   1      34.896  32.384  32.489  1.00  0.00    -0.206 F 
ATOM     65  C   UNL A   1      34.163  33.832  30.797  1.00  0.00     0.059 A 
ATOM     66  C   UNL A   1      35.771  34.821  29.268  1.00  0.00     0.059 A 
ATOM     67  F   UNL A   1      38.046  34.287  29.468  1.00  0.00    -0.206 F 
ATOM     68  C   UNL A   1      34.458  34.657  29.712  1.00  0.00     0.060 A 
BRANCH  68  69
ATOM     69  S   UNL A   1      33.100  35.528  28.901  1.00  0.00     0.124 S 
ATOM     70  O   UNL A   1      33.823  36.478  28.060  1.00  0.00    -0.237 OA
ATOM     71  O   UNL A   1      32.419  34.448  28.194  1.00  0.00    -0.237 OA
ATOM     72  O   UNL A   1      32.359  36.113  30.013  1.00  0.00    -0.744 OA
ENDBRANCH  68  69
ENDBRANCH  47  61
BRANCH  48  73
ATOM     73  C   UNL A   1      44.020  28.578  35.681  1.00  0.00     0.058 A 
ATOM     74  C   UNL A   1      43.779  27.602  36.661  1.00  0.00     0.135 A 
ATOM     75  C   UNL A   1      45.356  28.917  35.415  1.00  0.00     0.135 A 
ATOM     76  F   UNL A   1      42.520  27.245  36.956  1.00  0.00    -0.206 F 
ATOM     77  C   UNL A   1      44.817  27.015  37.379  1.00  0.00     0.059 A 
ATOM     78  C   UNL A   1      46.413  28.322  36.097  1.00  0.00     0.059 A 
ATOM     79  F   UNL A   1      45.644  29.830  34.474  1.00  0.00    -0.206 F 
ATOM     80  C   UNL A   1      46.132  27.387  37.092  1.00  0.00     0.060 A 
BRANCH  80  81
ATOM     81  S   UNL A   1      47.472  26.619  38.028  1.00  0.00     0.124 S 
ATOM     82  O   UNL A   1      48.330  26.125  36.957  1.00  0.00    -0.237 OA
ATOM     83  O   UNL A   1      47.993  27.744  38.798  1.00  0.00    -0.237 OA
ATOM     84  O   UNL A   1      46.788  25.595  38.813  1.00  0.00    -0.744 OA
ENDBRANCH  80  81
ENDBRANCH  48  73
BRANCH  60  85
ATOM     85  C   UNL A   1      40.064  34.096  37.260  1.00  0.00     0.058 A 
ATOM     86  C   UNL A   1      40.866  35.243  37.359  1.00  0.00     0.135 A 
ATOM     87  C   UNL A   1      39.158  33.838  38.303  1.00  0.00     0.135 A 
ATOM     88  F   UNL A   1      41.753  35.532  36.392  1.00  0.00    -0.206 F 
ATOM     89  C   UNL A   1      40.792  36.089  38.460  1.00  0.00     0.059 A 
ATOM     90  C   UNL A   1      39.045  34.687  39.399  1.00  0.00     0.059 A 
ATOM     91  F   UNL A   1      38.359  32.761  38.254  1.00  0.00    -0.206 F 
ATOM     92  C   UNL A   1      39.876  35.804  39.474  1.00  0.00     0.060 A 
BRANCH  92  93
ATOM     93  S   UNL A   1      39.766  36.930  40.881  1.00  0.00     0.124 S 
ATOM     94  O   UNL A   1      38.608  37.740  40.519  1.00  0.00    -0.237 OA
ATOM     95  O   UNL A   1      39.571  36.012  41.999  1.00  0.00    -0.237 OA
ATOM     96  O   UNL A   1      41.050  37.624  40.863  1.00  0.00    -0.744 OA
ENDBRANCH  92  93
ENDBRANCH  60  85
ENDBRANCH  34  35
ENDBRANCH  26  29
ENDBRANCH  24  25
ENDBRANCH  23  24
ENDBRANCH   1  23
TORSDOF 19
ENDMDL
MODEL 3
REMARK VINA RESULT:     -10.2      4.531     10.388
REMARK SMILES CC(C)N(CC1CC1)C(=O)N1CC[C@H](C(=O)NCCCCNC(=O)c2ccc(-c3c4nc(c(-c5c(F)cc(S(=O)(=O)[O-])cc5F)c5ccc([nH]5)c(-c5c(F)cc(S(=O)(=O)[O-])cc5F)c5nc(c(-c6c(F)cc(S(=O)(=O)[O-])cc6F)c6ccc3[nH]6)C=C5)C=C4)cc2)[C@H]1C
REMARK SMILES IDX 19 1 18 2 17 3 15 4 16 5 14 7 11 8 12 9 91 10 13 11 92 12
REMARK SMILES IDX 9 13 10 14 4 15 2 16 1 17 3 18 5 19 6 20 7 21 8 22 20 23
REMARK SMILES IDX 21 24 22 25 23 26 24 28 25 29 26 30 90 31 27 32 89 33 28 34
REMARK SMILES IDX 29 35 30 36 83 37 31 38 88 39 82 40 84 41 32 42 87 43 81 44
REMARK SMILES IDX 80 45 33 47 67 48 46 49 66 50 47 51 50 52 65 53 85 54 48 55
REMARK SMILES IDX 49 56 64 58 86 59 51 60 34 61 35 62 44 63 36 64 37 65 43 66
REMARK SMILES IDX 45 67 38 68 39 69 40 70 41 71 42 72 68 73 69 74 78 75 70 76
REMARK SMILES IDX 71 77 77 78 79 79 72 80 73 81 74 82 75 83 76 84 52 85 53 86
REMARK SMILES IDX 62 87 54 88 55 89 61 90 63 91 56 92 57 93 58 94 59 95 60 96
REMARK H PARENT 17 6 22 27 84 46 50 57
REMARK Flexibility Score: inf
ROOT
ATOM      1  C   UNL A   1      38.234  23.585  26.159  1.00  0.00     0.023 C 
ENDROOT
BRANCH   1   2
ATOM      2  C   UNL A   1      36.962  23.032  25.531  1.00  0.00     0.116 C 
BRANCH   2   3
ATOM      3  N   UNL A   1      35.965  22.692  26.531  1.00  0.00    -0.356 N 
ATOM      4  C   UNL A   1      34.602  22.723  26.408  1.00  0.00     0.225 C 
ATOM      5  O   UNL A   1      33.909  22.456  27.385  1.00  0.00    -0.275 OA
ATOM      6  H   UNL A   1      36.313  22.404  27.405  1.00  0.00     0.163 HD
BRANCH   4   7
ATOM      7  C   UNL A   1      34.040  23.109  25.051  1.00  0.00     0.102 C 
ATOM      8  N   UNL A   1      32.467  24.871  25.341  1.00  0.00    -0.321 N 
ATOM      9  C   UNL A   1      31.754  23.597  25.459  1.00  0.00     0.122 C 
ATOM     10  C   UNL A   1      33.827  24.620  24.854  1.00  0.00     0.096 C 
ATOM     11  C   UNL A   1      32.644  22.541  24.830  1.00  0.00     0.037 C 
ATOM     12  C   UNL A   1      34.013  24.877  23.343  1.00  0.00     0.032 C 
BRANCH   8  13
ATOM     13  C   UNL A   1      31.945  25.915  26.079  1.00  0.00     0.320 C 
ATOM     14  O   UNL A   1      31.128  25.634  26.966  1.00  0.00    -0.248 OA
BRANCH  13  15
ATOM     15  N   UNL A   1      32.241  27.245  25.819  1.00  0.00    -0.322 N 
BRANCH  15  16
ATOM     16  C   UNL A   1      32.781  28.056  26.948  1.00  0.00     0.080 C 
ATOM     17  C   UNL A   1      34.253  28.463  26.755  1.00  0.00     0.031 C 
ATOM     18  C   UNL A   1      31.906  29.255  27.309  1.00  0.00     0.031 C 
ENDBRANCH  15  16
BRANCH  15  19
ATOM     19  C   UNL A   1      31.895  28.022  24.632  1.00  0.00     0.125 C 
BRANCH  19  20
ATOM     20  C   UNL A   1      30.605  27.614  23.974  1.00  0.00     0.009 C 
ATOM     21  C   UNL A   1      29.707  28.507  23.131  1.00  0.00     0.006 C 
ATOM     22  C   UNL A   1      30.594  27.513  22.459  1.00  0.00     0.006 C 
ENDBRANCH  19  20
ENDBRANCH  15  19
ENDBRANCH  13  15
ENDBRANCH   8  13
ENDBRANCH   4   7
ENDBRANCH   2   3
ENDBRANCH   1   2
BRANCH   1  23
ATOM     23  C   UNL A   1      39.283  22.527  26.486  1.00  0.00     0.023 C 
BRANCH  23  24
ATOM     24  C   UNL A   1      40.555  23.063  27.134  1.00  0.00     0.116 C 
BRANCH  24  25
ATOM     25  N   UNL A   1      41.509  23.581  26.163  1.00  0.00    -0.352 N 
ATOM     26  C   UNL A   1      41.998  24.860  26.026  1.00  0.00     0.251 C 
ATOM     27  H   UNL A   1      41.851  22.925  25.515  1.00  0.00     0.163 HD
ATOM     28  O   UNL A   1      42.684  25.153  25.059  1.00  0.00    -0.269 OA
BRANCH  26  29
ATOM     29  C   UNL A   1      41.651  25.878  27.041  1.00  0.00     0.039 A 
ATOM     30  C   UNL A   1      40.728  25.551  28.035  1.00  0.00     0.014 A 
ATOM     31  C   UNL A   1      42.264  27.134  27.032  1.00  0.00     0.014 A 
ATOM     32  C   UNL A   1      40.475  26.459  29.065  1.00  0.00     0.010 A 
ATOM     33  C   UNL A   1      42.074  28.002  28.102  1.00  0.00     0.010 A 
ATOM     34  C   UNL A   1      41.178  27.674  29.131  1.00  0.00    -0.014 A 
BRANCH  34  35
ATOM     35  C   UNL A   1      40.991  28.614  30.267  1.00  0.00     0.031 A 
ATOM     36  C   UNL A   1      41.854  28.493  31.494  1.00  0.00     0.074 A 
ATOM     37  C   UNL A   1      40.009  29.538  30.217  1.00  0.00     0.049 A 
ATOM     38  N   UNL A   1      41.793  29.162  32.616  1.00  0.00    -0.248 NA
ATOM     39  C   UNL A   1      42.911  27.467  31.467  1.00  0.00     0.031 C 
ATOM     40  C   UNL A   1      39.079  29.730  29.101  1.00  0.00     0.029 A 
ATOM     41  N   UNL A   1      39.623  30.486  31.131  1.00  0.00    -0.354 N 
ATOM     42  C   UNL A   1      42.795  28.639  33.425  1.00  0.00     0.074 A 
ATOM     43  C   UNL A   1      43.409  27.555  32.691  1.00  0.00     0.031 C 
ATOM     44  C   UNL A   1      38.249  30.746  29.386  1.00  0.00     0.029 A 
ATOM     45  C   UNL A   1      38.555  31.251  30.720  1.00  0.00     0.049 A 
ATOM     46  H   UNL A   1      40.067  30.607  32.002  1.00  0.00     0.167 HD
ATOM     47  C   UNL A   1      43.190  29.047  34.654  1.00  0.00     0.037 A 
ATOM     48  C   UNL A   1      37.892  32.240  31.352  1.00  0.00     0.037 A 
ATOM     49  C   UNL A   1      42.590  30.141  35.373  1.00  0.00     0.049 A 
ATOM     50  C   UNL A   1      38.332  32.651  32.734  1.00  0.00     0.074 A 
ATOM     51  C   UNL A   1      42.939  30.650  36.612  1.00  0.00     0.029 A 
ATOM     52  N   UNL A   1      41.521  30.896  34.918  1.00  0.00    -0.354 N 
ATOM     53  N   UNL A   1      39.316  32.178  33.461  1.00  0.00    -0.248 NA
ATOM     54  C   UNL A   1      37.575  33.733  33.378  1.00  0.00     0.031 C 
ATOM     55  C   UNL A   1      42.055  31.686  36.924  1.00  0.00     0.029 A 
ATOM     56  C   UNL A   1      41.189  31.859  35.857  1.00  0.00     0.049 A 
ATOM     57  H   UNL A   1      41.064  30.768  34.055  1.00  0.00     0.167 HD
ATOM     58  C   UNL A   1      39.319  32.931  34.631  1.00  0.00     0.074 A 
ATOM     59  C   UNL A   1      38.248  33.896  34.508  1.00  0.00     0.031 C 
ATOM     60  C   UNL A   1      40.134  32.830  35.710  1.00  0.00     0.037 A 
BRANCH  47  61
ATOM     61  C   UNL A   1      44.342  28.324  35.297  1.00  0.00     0.058 A 
ATOM     62  C   UNL A   1      44.136  27.206  36.121  1.00  0.00     0.135 A 
ATOM     63  C   UNL A   1      45.667  28.711  35.038  1.00  0.00     0.135 A 
ATOM     64  F   UNL A   1      42.890  26.805  36.417  1.00  0.00    -0.206 F 
ATOM     65  C   UNL A   1      45.201  26.506  36.677  1.00  0.00     0.059 A 
ATOM     66  C   UNL A   1      46.749  28.007  35.561  1.00  0.00     0.059 A 
ATOM     67  F   UNL A   1      45.922  29.775  34.260  1.00  0.00    -0.206 F 
ATOM     68  C   UNL A   1      46.504  26.909  36.386  1.00  0.00     0.060 A 
BRANCH  68  69
ATOM     69  S   UNL A   1      47.873  25.965  37.089  1.00  0.00     0.124 S 
ATOM     70  O   UNL A   1      48.976  26.913  36.965  1.00  0.00    -0.237 OA
ATOM     71  O   UNL A   1      47.407  25.709  38.448  1.00  0.00    -0.237 OA
ATOM     72  O   UNL A   1      47.956  24.791  36.225  1.00  0.00    -0.744 OA
ENDBRANCH  68  69
ENDBRANCH  47  61
BRANCH  48  73
ATOM     73  C   UNL A   1      36.745  32.924  30.692  1.00  0.00     0.058 A 
ATOM     74  C   UNL A   1      36.958  33.883  29.689  1.00  0.00     0.135 A 
ATOM     75  C   UNL A   1      35.420  32.664  31.074  1.00  0.00     0.135 A 
ATOM     76  F   UNL A   1      38.206  34.171  29.291  1.00  0.00    -0.206 F 
ATOM     77  C   UNL A   1      35.903  34.588  29.116  1.00  0.00     0.059 A 
ATOM     78  C   UNL A   1      34.346  33.332  30.494  1.00  0.00     0.059 A 
ATOM     79  F   UNL A   1      35.159  31.743  32.014  1.00  0.00    -0.206 F 
ATOM     80  C   UNL A   1      34.599  34.308  29.531  1.00  0.00     0.060 A 
BRANCH  80  81
ATOM     81  S   UNL A   1      33.236  35.226  28.781  1.00  0.00     0.124 S 
ATOM     82  O   UNL A   1      33.952  36.262  28.045  1.00  0.00    -0.237 OA
ATOM     83  O   UNL A   1      32.585  34.201  27.972  1.00  0.00    -0.237 OA
ATOM     84  O   UNL A   1      32.469  35.685  29.935  1.00  0.00    -0.744 OA
ENDBRANCH  80  81
ENDBRANCH  48  73
BRANCH  60  85
ATOM     85  C   UNL A   1      39.939  33.825  36.822  1.00  0.00     0.058 A 
ATOM     86  C   UNL A   1      40.482  35.117  36.765  1.00  0.00     0.135 A 
ATOM     87  C   UNL A   1      39.151  33.494  37.937  1.00  0.00     0.135 A 
ATOM     88  F   UNL A   1      41.248  35.483  35.723  1.00  0.00    -0.206 F 
ATOM     89  C   UNL A   1      40.273  36.039  37.786  1.00  0.00     0.059 A 
ATOM     90  C   UNL A   1      38.903  34.409  38.955  1.00  0.00     0.059 A 
ATOM     91  F   UNL A   1      38.599  32.274  38.036  1.00  0.00    -0.206 F 
ATOM     92  C   UNL A   1      39.480  35.676  38.875  1.00  0.00     0.060 A 
BRANCH  92  93
ATOM     93  S   UNL A   1      39.187  36.893  40.176  1.00  0.00     0.124 S 
ATOM     94  O   UNL A   1      38.224  36.196  41.021  1.00  0.00    -0.237 OA
ATOM     95  O   UNL A   1      40.520  37.067  40.745  1.00  0.00    -0.237 OA
ATOM     96  O   UNL A   1      38.666  38.048  39.450  1.00  0.00    -0.744 OA
ENDBRANCH  92  93
ENDBRANCH  60  85
ENDBRANCH  34  35
ENDBRANCH  26  29
ENDBRANCH  24  25
ENDBRANCH  23  24
ENDBRANCH   1  23
TORSDOF 19
ENDMDL
