MODEL 1
REMARK VINA RESULT:     -10.5      0.000      0.000
REMARK SMILES CC(C)CCN(C(=O)N[C@H](C(=O)NCCCCNC(=O)c1ccc(-c2c3nc(c(-c4c(F)cc(S(=O)(=O)[O-])cc4F)c4ccc([nH]4)c(-c4c(F)cc(S(=O)(=O)[O-])cc4F)c4nc(c(-c5c(F)cc(S(=O)(=O)[O-])cc5F)c5ccc2[nH]5)C=C4)C=C3)cc1)[C@H](C)O)C1CCCC1
REMARK SMILES IDX 14 1 13 2 11 3 12 4 10 6 9 7 7 8 8 9 6 11 5 12 4 13 2 14
REMARK SMILES IDX 1 15 3 16 90 17 91 18 94 19 92 20 93 21 87 22 88 23 89 24
REMARK SMILES IDX 15 26 16 27 17 28 18 29 19 30 20 32 21 33 22 34 86 35 23 36
REMARK SMILES IDX 85 37 24 38 25 39 26 40 79 41 27 42 84 43 78 44 80 45 28 46
REMARK SMILES IDX 83 47 77 48 76 49 29 51 63 52 42 53 62 54 43 55 46 56 61 57
REMARK SMILES IDX 81 58 44 59 45 60 60 62 82 63 47 64 30 65 31 66 40 67 32 68
REMARK SMILES IDX 33 69 39 70 41 71 34 72 35 73 36 74 37 75 38 76 64 77 65 78
REMARK SMILES IDX 74 79 66 80 67 81 73 82 75 83 68 84 69 85 70 86 71 87 72 88
REMARK SMILES IDX 48 89 49 90 58 91 50 92 51 93 57 94 59 95 52 96 53 97 54 98
REMARK SMILES IDX 55 99 56 100
REMARK H PARENT 13 5 9 10 89 25 18 31 80 50 46 61
REMARK Flexibility Score: inf
ROOT
ATOM      1  C   UNL A   1      34.026  26.476  25.492  1.00  0.00     0.116 C 
ENDROOT
BRANCH   1   2
ATOM      2  N   UNL A   1      33.849  25.684  24.298  1.00  0.00    -0.354 N 
ATOM      3  C   UNL A   1      34.497  24.567  23.871  1.00  0.00     0.245 C 
ATOM      4  O   UNL A   1      34.338  24.278  22.680  1.00  0.00    -0.273 OA
ATOM      5  H   UNL A   1      33.142  26.006  23.692  1.00  0.00     0.163 HD
BRANCH   3   6
ATOM      6  C   UNL A   1      35.505  23.778  24.760  1.00  0.00     0.201 C 
BRANCH   6   7
ATOM      7  N   UNL A   1      34.911  23.028  25.882  1.00  0.00    -0.324 N 
ATOM      8  C   UNL A   1      34.021  22.063  26.143  1.00  0.00     0.318 C 
ATOM      9  O   UNL A   1      34.053  21.749  27.338  1.00  0.00    -0.249 OA
ATOM     10  H   UNL A   1      35.304  23.344  26.728  1.00  0.00     0.166 HD
BRANCH   8  11
ATOM     11  N   UNL A   1      33.183  21.465  25.234  1.00  0.00    -0.322 N 
BRANCH  11  12
ATOM     12  C   UNL A   1      32.309  22.164  24.264  1.00  0.00     0.122 C 
BRANCH  12  13
ATOM     13  C   UNL A   1      31.073  22.832  24.896  1.00  0.00     0.024 C 
BRANCH  13  14
ATOM     14  C   UNL A   1      31.001  22.920  26.440  1.00  0.00    -0.016 C 
ATOM     15  C   UNL A   1      31.334  24.321  26.948  1.00  0.00     0.007 C 
ATOM     16  C   UNL A   1      29.616  22.517  26.963  1.00  0.00     0.007 C 
ENDBRANCH  13  14
ENDBRANCH  12  13
ENDBRANCH  11  12
BRANCH  11  17
ATOM     17  C   UNL A   1      33.264  19.984  25.063  1.00  0.00     0.087 C 
ATOM     18  C   UNL A   1      32.469  19.292  23.942  1.00  0.00     0.025 C 
ATOM     19  C   UNL A   1      34.673  19.449  24.743  1.00  0.00     0.025 C 
ATOM     20  C   UNL A   1      33.024  17.872  23.911  1.00  0.00     0.002 C 
ATOM     21  C   UNL A   1      34.477  17.990  24.348  1.00  0.00     0.002 C 
ENDBRANCH  11  17
ENDBRANCH   8  11
ENDBRANCH   6   7
BRANCH   6  22
ATOM     22  C   UNL A   1      36.251  22.770  23.835  1.00  0.00     0.143 C 
ATOM     23  C   UNL A   1      37.296  21.905  24.562  1.00  0.00     0.041 C 
BRANCH  22  24
ATOM     24  O   UNL A   1      36.920  23.477  22.779  1.00  0.00    -0.391 OA
ATOM     25  H   UNL A   1      36.623  23.136  21.921  1.00  0.00     0.211 HD
ENDBRANCH  22  24
ENDBRANCH   6  22
ENDBRANCH   3   6
ENDBRANCH   1   2
BRANCH   1  26
ATOM     26  C   UNL A   1      32.687  26.995  25.996  1.00  0.00     0.023 C 
BRANCH  26  27
ATOM     27  C   UNL A   1      32.767  28.153  26.971  1.00  0.00     0.023 C 
BRANCH  27  28
ATOM     28  C   UNL A   1      33.797  29.205  26.592  1.00  0.00     0.116 C 
BRANCH  28  29
ATOM     29  N   UNL A   1      33.811  30.375  27.471  1.00  0.00    -0.352 N 
ATOM     30  C   UNL A   1      34.801  30.791  28.333  1.00  0.00     0.251 C 
ATOM     31  H   UNL A   1      33.005  30.940  27.441  1.00  0.00     0.163 HD
ATOM     32  O   UNL A   1      34.628  31.755  29.071  1.00  0.00    -0.269 OA
BRANCH  30  33
ATOM     33  C   UNL A   1      36.053  30.014  28.382  1.00  0.00     0.039 A 
ATOM     34  C   UNL A   1      36.963  30.121  27.330  1.00  0.00     0.014 A 
ATOM     35  C   UNL A   1      36.384  29.320  29.546  1.00  0.00     0.014 A 
ATOM     36  C   UNL A   1      38.260  29.636  27.502  1.00  0.00     0.010 A 
ATOM     37  C   UNL A   1      37.703  28.948  29.757  1.00  0.00     0.010 A 
ATOM     38  C   UNL A   1      38.660  29.116  28.745  1.00  0.00    -0.014 A 
BRANCH  38  39
ATOM     39  C   UNL A   1      40.073  28.763  29.035  1.00  0.00     0.031 A 
ATOM     40  C   UNL A   1      40.989  29.801  29.624  1.00  0.00     0.074 A 
ATOM     41  C   UNL A   1      40.560  27.562  28.659  1.00  0.00     0.049 A 
ATOM     42  N   UNL A   1      42.287  29.762  29.784  1.00  0.00    -0.248 NA
ATOM     43  C   UNL A   1      40.371  31.071  30.037  1.00  0.00     0.031 C 
ATOM     44  C   UNL A   1      39.791  26.495  28.010  1.00  0.00     0.029 A 
ATOM     45  N   UNL A   1      41.826  27.041  28.752  1.00  0.00    -0.354 N 
ATOM     46  C   UNL A   1      42.640  31.014  30.274  1.00  0.00     0.074 A 
ATOM     47  C   UNL A   1      41.432  31.806  30.331  1.00  0.00     0.031 C 
ATOM     48  C   UNL A   1      40.593  25.439  27.797  1.00  0.00     0.029 A 
ATOM     49  C   UNL A   1      41.940  25.765  28.249  1.00  0.00     0.049 A 
ATOM     50  H   UNL A   1      42.583  27.534  29.144  1.00  0.00     0.167 HD
ATOM     51  C   UNL A   1      43.858  31.454  30.669  1.00  0.00     0.037 A 
ATOM     52  C   UNL A   1      43.012  24.955  28.156  1.00  0.00     0.037 A 
ATOM     53  C   UNL A   1      45.042  30.639  30.676  1.00  0.00     0.049 A 
ATOM     54  C   UNL A   1      44.344  25.446  28.654  1.00  0.00     0.074 A 
ATOM     55  C   UNL A   1      46.306  30.959  31.136  1.00  0.00     0.029 A 
ATOM     56  N   UNL A   1      45.101  29.332  30.213  1.00  0.00    -0.354 N 
ATOM     57  N   UNL A   1      44.650  26.615  29.164  1.00  0.00    -0.248 NA
ATOM     58  C   UNL A   1      45.474  24.510  28.564  1.00  0.00     0.031 C 
ATOM     59  C   UNL A   1      47.137  29.852  30.933  1.00  0.00     0.029 A 
ATOM     60  C   UNL A   1      46.382  28.833  30.374  1.00  0.00     0.049 A 
ATOM     61  H   UNL A   1      44.344  28.832  29.830  1.00  0.00     0.167 HD
ATOM     62  C   UNL A   1      46.004  26.550  29.473  1.00  0.00     0.074 A 
ATOM     63  C   UNL A   1      46.454  25.223  29.104  1.00  0.00     0.031 C 
ATOM     64  C   UNL A   1      46.802  27.503  30.010  1.00  0.00     0.037 A 
BRANCH  51  65
ATOM     65  C   UNL A   1      43.957  32.874  31.148  1.00  0.00     0.058 A 
ATOM     66  C   UNL A   1      43.851  33.198  32.512  1.00  0.00     0.135 A 
ATOM     67  C   UNL A   1      44.163  33.924  30.240  1.00  0.00     0.135 A 
ATOM     68  F   UNL A   1      43.634  32.233  33.420  1.00  0.00    -0.206 F 
ATOM     69  C   UNL A   1      43.907  34.514  32.953  1.00  0.00     0.059 A 
ATOM     70  C   UNL A   1      44.251  35.248  30.663  1.00  0.00     0.059 A 
ATOM     71  F   UNL A   1      44.268  33.672  28.926  1.00  0.00    -0.206 F 
ATOM     72  C   UNL A   1      44.103  35.533  32.020  1.00  0.00     0.060 A 
BRANCH  72  73
ATOM     73  S   UNL A   1      44.166  37.239  32.606  1.00  0.00     0.124 S 
ATOM     74  O   UNL A   1      43.010  37.282  33.497  1.00  0.00    -0.237 OA
ATOM     75  O   UNL A   1      45.469  37.300  33.259  1.00  0.00    -0.237 OA
ATOM     76  O   UNL A   1      44.045  38.023  31.381  1.00  0.00    -0.744 OA
ENDBRANCH  72  73
ENDBRANCH  51  65
BRANCH  52  77
ATOM     77  C   UNL A   1      42.864  23.583  27.601  1.00  0.00     0.058 A 
ATOM     78  C   UNL A   1      42.546  22.504  28.439  1.00  0.00     0.135 A 
ATOM     79  C   UNL A   1      43.019  23.324  26.231  1.00  0.00     0.135 A 
ATOM     80  F   UNL A   1      42.393  22.702  29.757  1.00  0.00    -0.206 F 
ATOM     81  C   UNL A   1      42.400  21.213  27.943  1.00  0.00     0.059 A 
ATOM     82  C   UNL A   1      42.858  22.045  25.708  1.00  0.00     0.059 A 
ATOM     83  F   UNL A   1      43.306  24.325  25.385  1.00  0.00    -0.206 F 
ATOM     84  C   UNL A   1      42.557  20.993  26.573  1.00  0.00     0.060 A 
BRANCH  84  85
ATOM     85  S   UNL A   1      42.312  19.323  25.930  1.00  0.00     0.124 S 
ATOM     86  O   UNL A   1      40.872  19.307  25.697  1.00  0.00    -0.237 OA
ATOM     87  O   UNL A   1      43.153  19.324  24.737  1.00  0.00    -0.237 OA
ATOM     88  O   UNL A   1      42.786  18.474  27.019  1.00  0.00    -0.744 OA
ENDBRANCH  84  85
ENDBRANCH  52  77
BRANCH  64  89
ATOM     89  C   UNL A   1      48.238  27.142  30.258  1.00  0.00     0.058 A 
ATOM     90  C   UNL A   1      49.239  27.441  29.323  1.00  0.00     0.135 A 
ATOM     91  C   UNL A   1      48.623  26.554  31.474  1.00  0.00     0.135 A 
ATOM     92  F   UNL A   1      48.919  27.996  28.144  1.00  0.00    -0.206 F 
ATOM     93  C   UNL A   1      50.577  27.161  29.581  1.00  0.00     0.059 A 
ATOM     94  C   UNL A   1      49.957  26.285  31.761  1.00  0.00     0.059 A 
ATOM     95  F   UNL A   1      47.700  26.258  32.403  1.00  0.00    -0.206 F 
ATOM     96  C   UNL A   1      50.926  26.586  30.804  1.00  0.00     0.060 A 
BRANCH  96  97
ATOM     97  S   UNL A   1      52.670  26.276  31.149  1.00  0.00     0.124 S 
ATOM     98  O   UNL A   1      53.020  27.440  31.958  1.00  0.00    -0.237 OA
ATOM     99  O   UNL A   1      52.629  25.001  31.857  1.00  0.00    -0.237 OA
ATOM    100  O   UNL A   1      53.275  26.229  29.821  1.00  0.00    -0.744 OA
ENDBRANCH  96  97
ENDBRANCH  64  89
ENDBRANCH  38  39
ENDBRANCH  30  33
ENDBRANCH  28  29
ENDBRANCH  27  28
ENDBRANCH  26  27
ENDBRANCH   1  26
TORSDOF 22
ENDMDL
MODEL 2
REMARK VINA RESULT:     -10.5      0.597      2.141
REMARK SMILES CC(C)CCN(C(=O)N[C@H](C(=O)NCCCCNC(=O)c1ccc(-c2c3nc(c(-c4c(F)cc(S(=O)(=O)[O-])cc4F)c4ccc([nH]4)c(-c4c(F)cc(S(=O)(=O)[O-])cc4F)c4nc(c(-c5c(F)cc(S(=O)(=O)[O-])cc5F)c5ccc2[nH]5)C=C4)C=C3)cc1)[C@H](C)O)C1CCCC1
REMARK SMILES IDX 14 1 13 2 11 3 12 4 10 6 9 7 7 8 8 9 6 11 5 12 4 13 2 14
REMARK SMILES IDX 1 15 3 16 90 17 91 18 94 19 92 20 93 21 87 22 88 23 89 24
REMARK SMILES IDX 15 26 16 27 17 28 18 29 19 30 20 32 21 33 22 34 86 35 23 36
REMARK SMILES IDX 85 37 24 38 25 39 26 40 79 41 27 42 84 43 78 44 80 45 28 46
REMARK SMILES IDX 83 47 77 48 76 49 29 51 63 52 42 53 62 54 43 55 46 56 61 57
REMARK SMILES IDX 81 58 44 59 45 60 60 62 82 63 47 64 30 65 31 66 40 67 32 68
REMARK SMILES IDX 33 69 39 70 41 71 34 72 35 73 36 74 37 75 38 76 64 77 65 78
REMARK SMILES IDX 74 79 66 80 67 81 73 82 75 83 68 84 69 85 70 86 71 87 72 88
REMARK SMILES IDX 48 89 49 90 58 91 50 92 51 93 57 94 59 95 52 96 53 97 54 98
REMARK SMILES IDX 55 99 56 100
REMARK H PARENT 13 5 9 10 89 25 18 31 80 50 46 61
REMARK Flexibility Score: inf
ROOT
ATOM      1  C   UNL A   1      34.301  26.619  25.761  1.00  0.00     0.116 C 
ENDROOT
BRANCH   1   2
ATOM      2  N   UNL A   1      34.283  25.638  24.702  1.00  0.00    -0.354 N 
ATOM      3  C   UNL A   1      34.960  24.466  24.568  1.00  0.00     0.245 C 
ATOM      4  O   UNL A   1      34.973  23.981  23.431  1.00  0.00    -0.273 OA
ATOM      5  H   UNL A   1      33.682  25.853  23.953  1.00  0.00     0.163 HD
BRANCH   3   6
ATOM      6  C   UNL A   1      35.807  23.838  25.716  1.00  0.00     0.201 C 
BRANCH   6   7
ATOM      7  N   UNL A   1      35.079  22.921  26.614  1.00  0.00    -0.324 N 
ATOM      8  C   UNL A   1      34.327  21.814  26.595  1.00  0.00     0.318 C 
ATOM      9  O   UNL A   1      34.104  21.416  27.743  1.00  0.00    -0.249 OA
ATOM     10  H   UNL A   1      35.183  23.227  27.544  1.00  0.00     0.166 HD
BRANCH   8  11
ATOM     11  N   UNL A   1      33.863  21.168  25.475  1.00  0.00    -0.322 N 
BRANCH  11  12
ATOM     12  C   UNL A   1      34.433  19.938  24.880  1.00  0.00     0.122 C 
BRANCH  12  13
ATOM     13  C   UNL A   1      33.514  18.705  24.982  1.00  0.00     0.024 C 
BRANCH  13  14
ATOM     14  C   UNL A   1      33.563  17.663  23.839  1.00  0.00    -0.016 C 
ATOM     15  C   UNL A   1      33.232  16.256  24.335  1.00  0.00     0.007 C 
ATOM     16  C   UNL A   1      32.598  18.028  22.702  1.00  0.00     0.007 C 
ENDBRANCH  13  14
ENDBRANCH  12  13
ENDBRANCH  11  12
BRANCH  11  17
ATOM     17  C   UNL A   1      32.569  21.620  24.881  1.00  0.00     0.087 C 
ATOM     18  C   UNL A   1      31.933  22.945  25.335  1.00  0.00     0.025 C 
ATOM     19  C   UNL A   1      32.610  21.865  23.361  1.00  0.00     0.025 C 
ATOM     20  C   UNL A   1      30.818  23.191  24.323  1.00  0.00     0.002 C 
ATOM     21  C   UNL A   1      31.299  22.564  23.023  1.00  0.00     0.002 C 
ENDBRANCH  11  17
ENDBRANCH   8  11
ENDBRANCH   6   7
BRANCH   6  22
ATOM     22  C   UNL A   1      36.978  23.052  25.055  1.00  0.00     0.143 C 
ATOM     23  C   UNL A   1      38.176  22.807  25.990  1.00  0.00     0.041 C 
BRANCH  22  24
ATOM     24  O   UNL A   1      37.456  23.764  23.902  1.00  0.00    -0.391 OA
ATOM     25  H   UNL A   1      37.938  24.556  24.188  1.00  0.00     0.211 HD
ENDBRANCH  22  24
ENDBRANCH   6  22
ENDBRANCH   3   6
ENDBRANCH   1   2
BRANCH   1  26
ATOM     26  C   UNL A   1      32.900  26.838  26.314  1.00  0.00     0.023 C 
BRANCH  26  27
ATOM     27  C   UNL A   1      32.655  28.197  26.939  1.00  0.00     0.023 C 
BRANCH  27  28
ATOM     28  C   UNL A   1      33.718  29.230  26.599  1.00  0.00     0.116 C 
BRANCH  28  29
ATOM     29  N   UNL A   1      33.728  30.394  27.485  1.00  0.00    -0.352 N 
ATOM     30  C   UNL A   1      34.714  30.802  28.358  1.00  0.00     0.251 C 
ATOM     31  H   UNL A   1      32.924  30.961  27.454  1.00  0.00     0.163 HD
ATOM     32  O   UNL A   1      34.538  31.761  29.101  1.00  0.00    -0.269 OA
BRANCH  30  33
ATOM     33  C   UNL A   1      35.963  30.021  28.410  1.00  0.00     0.039 A 
ATOM     34  C   UNL A   1      36.859  30.095  27.342  1.00  0.00     0.014 A 
ATOM     35  C   UNL A   1      36.308  29.358  29.588  1.00  0.00     0.014 A 
ATOM     36  C   UNL A   1      38.156  29.610  27.509  1.00  0.00     0.010 A 
ATOM     37  C   UNL A   1      37.628  28.987  29.790  1.00  0.00     0.010 A 
ATOM     38  C   UNL A   1      38.572  29.123  28.760  1.00  0.00    -0.014 A 
BRANCH  38  39
ATOM     39  C   UNL A   1      39.988  28.772  29.040  1.00  0.00     0.031 A 
ATOM     40  C   UNL A   1      40.909  29.814  29.614  1.00  0.00     0.074 A 
ATOM     41  C   UNL A   1      40.471  27.569  28.667  1.00  0.00     0.049 A 
ATOM     42  N   UNL A   1      42.207  29.777  29.762  1.00  0.00    -0.248 NA
ATOM     43  C   UNL A   1      40.293  31.087  30.024  1.00  0.00     0.031 C 
ATOM     44  C   UNL A   1      39.697  26.498  28.032  1.00  0.00     0.029 A 
ATOM     45  N   UNL A   1      41.738  27.049  28.752  1.00  0.00    -0.354 N 
ATOM     46  C   UNL A   1      42.565  31.032  30.241  1.00  0.00     0.074 A 
ATOM     47  C   UNL A   1      41.357  31.824  30.304  1.00  0.00     0.031 C 
ATOM     48  C   UNL A   1      40.498  25.440  27.818  1.00  0.00     0.029 A 
ATOM     49  C   UNL A   1      41.848  25.770  28.256  1.00  0.00     0.049 A 
ATOM     50  H   UNL A   1      42.498  27.545  29.133  1.00  0.00     0.167 HD
ATOM     51  C   UNL A   1      43.786  31.475  30.622  1.00  0.00     0.037 A 
ATOM     52  C   UNL A   1      42.920  24.960  28.158  1.00  0.00     0.037 A 
ATOM     53  C   UNL A   1      44.970  30.660  30.624  1.00  0.00     0.049 A 
ATOM     54  C   UNL A   1      44.256  25.454  28.641  1.00  0.00     0.074 A 
ATOM     55  C   UNL A   1      46.238  30.984  31.070  1.00  0.00     0.029 A 
ATOM     56  N   UNL A   1      45.026  29.351  30.169  1.00  0.00    -0.354 N 
ATOM     57  N   UNL A   1      44.567  26.627  29.140  1.00  0.00    -0.248 NA
ATOM     58  C   UNL A   1      45.386  24.519  28.547  1.00  0.00     0.031 C 
ATOM     59  C   UNL A   1      47.068  29.876  30.867  1.00  0.00     0.029 A 
ATOM     60  C   UNL A   1      46.308  28.853  30.321  1.00  0.00     0.049 A 
ATOM     61  H   UNL A   1      44.266  28.848  29.795  1.00  0.00     0.167 HD
ATOM     62  C   UNL A   1      45.924  26.564  29.438  1.00  0.00     0.074 A 
ATOM     63  C   UNL A   1      46.370  25.235  29.073  1.00  0.00     0.031 C 
ATOM     64  C   UNL A   1      46.726  27.521  29.962  1.00  0.00     0.037 A 
BRANCH  51  65
ATOM     65  C   UNL A   1      43.888  32.898  31.092  1.00  0.00     0.058 A 
ATOM     66  C   UNL A   1      43.844  33.226  32.458  1.00  0.00     0.135 A 
ATOM     67  C   UNL A   1      44.037  33.947  30.171  1.00  0.00     0.135 A 
ATOM     68  F   UNL A   1      43.683  32.262  33.378  1.00  0.00    -0.206 F 
ATOM     69  C   UNL A   1      43.903  34.544  32.891  1.00  0.00     0.059 A 
ATOM     70  C   UNL A   1      44.127  35.274  30.585  1.00  0.00     0.059 A 
ATOM     71  F   UNL A   1      44.083  33.691  28.855  1.00  0.00    -0.206 F 
ATOM     72  C   UNL A   1      44.040  35.562  31.947  1.00  0.00     0.060 A 
BRANCH  72  73
ATOM     73  S   UNL A   1      44.108  37.271  32.524  1.00  0.00     0.124 S 
ATOM     74  O   UNL A   1      45.471  37.348  33.042  1.00  0.00    -0.237 OA
ATOM     75  O   UNL A   1      43.854  38.026  31.301  1.00  0.00    -0.237 OA
ATOM     76  O   UNL A   1      43.050  37.332  33.527  1.00  0.00    -0.744 OA
ENDBRANCH  72  73
ENDBRANCH  51  65
BRANCH  52  77
ATOM     77  C   UNL A   1      42.767  23.584  27.613  1.00  0.00     0.058 A 
ATOM     78  C   UNL A   1      42.989  23.326  26.253  1.00  0.00     0.135 A 
ATOM     79  C   UNL A   1      42.417  22.503  28.435  1.00  0.00     0.135 A 
ATOM     80  F   UNL A   1      43.321  24.330  25.426  1.00  0.00    -0.206 F 
ATOM     81  C   UNL A   1      42.855  22.049  25.721  1.00  0.00     0.059 A 
ATOM     82  C   UNL A   1      42.297  21.211  27.931  1.00  0.00     0.059 A 
ATOM     83  F   UNL A   1      42.212  22.694  29.748  1.00  0.00    -0.206 F 
ATOM     84  C   UNL A   1      42.510  20.995  26.569  1.00  0.00     0.060 A 
BRANCH  84  85
ATOM     85  S   UNL A   1      42.391  19.330  25.880  1.00  0.00     0.124 S 
ATOM     86  O   UNL A   1      42.971  18.528  26.951  1.00  0.00    -0.237 OA
ATOM     87  O   UNL A   1      40.954  19.181  25.676  1.00  0.00    -0.237 OA
ATOM     88  O   UNL A   1      43.183  19.419  24.656  1.00  0.00    -0.744 OA
ENDBRANCH  84  85
ENDBRANCH  52  77
BRANCH  64  89
ATOM     89  C   UNL A   1      48.163  27.162  30.199  1.00  0.00     0.058 A 
ATOM     90  C   UNL A   1      49.157  27.460  29.255  1.00  0.00     0.135 A 
ATOM     91  C   UNL A   1      48.559  26.578  31.413  1.00  0.00     0.135 A 
ATOM     92  F   UNL A   1      48.826  28.012  28.077  1.00  0.00    -0.206 F 
ATOM     93  C   UNL A   1      50.497  27.182  29.503  1.00  0.00     0.059 A 
ATOM     94  C   UNL A   1      49.896  26.311  31.690  1.00  0.00     0.059 A 
ATOM     95  F   UNL A   1      47.645  26.282  32.351  1.00  0.00    -0.206 F 
ATOM     96  C   UNL A   1      50.856  26.610  30.724  1.00  0.00     0.060 A 
BRANCH  96  97
ATOM     97  S   UNL A   1      52.604  26.303  31.056  1.00  0.00     0.124 S 
ATOM     98  O   UNL A   1      52.542  25.075  31.842  1.00  0.00    -0.237 OA
ATOM     99  O   UNL A   1      53.161  26.170  29.714  1.00  0.00    -0.237 OA
ATOM    100  O   UNL A   1      53.025  27.496  31.786  1.00  0.00    -0.744 OA
ENDBRANCH  96  97
ENDBRANCH  64  89
ENDBRANCH  38  39
ENDBRANCH  30  33
ENDBRANCH  28  29
ENDBRANCH  27  28
ENDBRANCH  26  27
ENDBRANCH   1  26
TORSDOF 22
ENDMDL
MODEL 3
REMARK VINA RESULT:      -9.9      4.478      9.800
REMARK SMILES CC(C)CCN(C(=O)N[C@H](C(=O)NCCCCNC(=O)c1ccc(-c2c3nc(c(-c4c(F)cc(S(=O)(=O)[O-])cc4F)c4ccc([nH]4)c(-c4c(F)cc(S(=O)(=O)[O-])cc4F)c4nc(c(-c5c(F)cc(S(=O)(=O)[O-])cc5F)c5ccc2[nH]5)C=C4)C=C3)cc1)[C@H](C)O)C1CCCC1
REMARK SMILES IDX 14 1 13 2 11 3 12 4 10 6 9 7 7 8 8 9 6 11 5 12 4 13 2 14
REMARK SMILES IDX 1 15 3 16 90 17 91 18 94 19 92 20 93 21 87 22 88 23 89 24
REMARK SMILES IDX 15 26 16 27 17 28 18 29 19 30 20 32 21 33 22 34 86 35 23 36
REMARK SMILES IDX 85 37 24 38 25 39 26 40 79 41 27 42 84 43 78 44 80 45 28 46
REMARK SMILES IDX 83 47 77 48 76 49 29 51 63 52 42 53 62 54 43 55 46 56 61 57
REMARK SMILES IDX 81 58 44 59 45 60 60 62 82 63 47 64 30 65 31 66 40 67 32 68
REMARK SMILES IDX 33 69 39 70 41 71 34 72 35 73 36 74 37 75 38 76 64 77 65 78
REMARK SMILES IDX 74 79 66 80 67 81 73 82 75 83 68 84 69 85 70 86 71 87 72 88
REMARK SMILES IDX 48 89 49 90 58 91 50 92 51 93 57 94 59 95 52 96 53 97 54 98
REMARK SMILES IDX 55 99 56 100
REMARK H PARENT 13 5 9 10 89 25 18 31 80 50 46 61
REMARK Flexibility Score: inf
ROOT
ATOM      1  C   UNL A   1      32.567  28.141  27.064  1.00  0.00     0.116 C 
ENDROOT
BRANCH   1   2
ATOM      2  N   UNL A   1      31.599  27.402  26.288  1.00  0.00    -0.354 N 
ATOM      3  C   UNL A   1      31.622  27.011  24.986  1.00  0.00     0.245 C 
ATOM      4  O   UNL A   1      30.536  26.653  24.515  1.00  0.00    -0.273 OA
ATOM      5  H   UNL A   1      30.791  27.138  26.783  1.00  0.00     0.163 HD
BRANCH   3   6
ATOM      6  C   UNL A   1      32.882  27.147  24.079  1.00  0.00     0.201 C 
BRANCH   6   7
ATOM      7  N   UNL A   1      33.156  25.998  23.195  1.00  0.00    -0.324 N 
ATOM      8  C   UNL A   1      33.585  24.731  23.227  1.00  0.00     0.318 C 
ATOM      9  O   UNL A   1      33.467  24.201  22.116  1.00  0.00    -0.249 OA
ATOM     10  H   UNL A   1      32.954  26.250  22.265  1.00  0.00     0.166 HD
BRANCH   8  11
ATOM     11  N   UNL A   1      34.077  24.068  24.324  1.00  0.00    -0.322 N 
BRANCH  11  12
ATOM     12  C   UNL A   1      35.467  24.135  24.832  1.00  0.00     0.122 C 
BRANCH  12  13
ATOM     13  C   UNL A   1      35.920  22.875  25.594  1.00  0.00     0.024 C 
BRANCH  13  14
ATOM     14  C   UNL A   1      36.393  21.654  24.769  1.00  0.00    -0.016 C 
ATOM     15  C   UNL A   1      37.818  21.238  25.132  1.00  0.00     0.007 C 
ATOM     16  C   UNL A   1      35.460  20.450  24.957  1.00  0.00     0.007 C 
ENDBRANCH  13  14
ENDBRANCH  12  13
ENDBRANCH  11  12
BRANCH  11  17
ATOM     17  C   UNL A   1      33.113  23.345  25.206  1.00  0.00     0.087 C 
ATOM     18  C   UNL A   1      32.671  23.970  26.540  1.00  0.00     0.025 C 
ATOM     19  C   UNL A   1      31.732  23.089  24.575  1.00  0.00     0.025 C 
ATOM     20  C   UNL A   1      31.503  23.099  26.993  1.00  0.00     0.002 C 
ATOM     21  C   UNL A   1      30.845  22.600  25.715  1.00  0.00     0.002 C 
ENDBRANCH  11  17
ENDBRANCH   8  11
ENDBRANCH   6   7
BRANCH   6  22
ATOM     22  C   UNL A   1      32.684  28.414  23.193  1.00  0.00     0.143 C 
ATOM     23  C   UNL A   1      33.974  29.217  22.950  1.00  0.00     0.041 C 
BRANCH  22  24
ATOM     24  O   UNL A   1      31.724  29.291  23.801  1.00  0.00    -0.391 OA
ATOM     25  H   UNL A   1      31.821  30.183  23.431  1.00  0.00     0.211 HD
ENDBRANCH  22  24
ENDBRANCH   6  22
ENDBRANCH   3   6
ENDBRANCH   1   2
BRANCH   1  26
ATOM     26  C   UNL A   1      32.204  29.619  27.108  1.00  0.00     0.023 C 
BRANCH  26  27
ATOM     27  C   UNL A   1      33.283  30.566  26.621  1.00  0.00     0.023 C 
BRANCH  27  28
ATOM     28  C   UNL A   1      33.776  31.534  27.686  1.00  0.00     0.116 C 
BRANCH  28  29
ATOM     29  N   UNL A   1      33.119  32.841  27.657  1.00  0.00    -0.352 N 
ATOM     30  C   UNL A   1      33.380  33.952  28.429  1.00  0.00     0.251 C 
ATOM     31  H   UNL A   1      32.394  32.939  26.998  1.00  0.00     0.163 HD
ATOM     32  O   UNL A   1      32.681  34.956  28.344  1.00  0.00    -0.269 OA
BRANCH  30  33
ATOM     33  C   UNL A   1      34.490  33.881  29.397  1.00  0.00     0.039 A 
ATOM     34  C   UNL A   1      34.295  33.219  30.610  1.00  0.00     0.014 A 
ATOM     35  C   UNL A   1      35.758  34.325  29.020  1.00  0.00     0.014 A 
ATOM     36  C   UNL A   1      35.404  32.889  31.389  1.00  0.00     0.010 A 
ATOM     37  C   UNL A   1      36.863  33.891  29.736  1.00  0.00     0.010 A 
ATOM     38  C   UNL A   1      36.701  33.155  30.919  1.00  0.00    -0.014 A 
BRANCH  38  39
ATOM     39  C   UNL A   1      37.913  32.656  31.619  1.00  0.00     0.031 A 
ATOM     40  C   UNL A   1      38.659  31.477  31.059  1.00  0.00     0.074 A 
ATOM     41  C   UNL A   1      38.265  33.179  32.812  1.00  0.00     0.049 A 
ATOM     42  N   UNL A   1      39.621  30.775  31.599  1.00  0.00    -0.248 NA
ATOM     43  C   UNL A   1      38.229  30.990  29.737  1.00  0.00     0.031 C 
ATOM     44  C   UNL A   1      37.578  34.277  33.500  1.00  0.00     0.029 A 
ATOM     45  N   UNL A   1      39.283  32.844  33.670  1.00  0.00    -0.354 N 
ATOM     46  C   UNL A   1      39.878  29.743  30.705  1.00  0.00     0.074 A 
ATOM     47  C   UNL A   1      38.936  29.877  29.617  1.00  0.00     0.031 C 
ATOM     48  C   UNL A   1      38.214  34.544  34.652  1.00  0.00     0.029 A 
ATOM     49  C   UNL A   1      39.324  33.612  34.810  1.00  0.00     0.049 A 
ATOM     50  H   UNL A   1      39.925  32.121  33.485  1.00  0.00     0.167 HD
ATOM     51  C   UNL A   1      40.834  28.786  30.770  1.00  0.00     0.037 A 
ATOM     52  C   UNL A   1      40.157  33.564  35.867  1.00  0.00     0.037 A 
ATOM     53  C   UNL A   1      41.813  28.701  31.820  1.00  0.00     0.049 A 
ATOM     54  C   UNL A   1      41.247  32.528  35.891  1.00  0.00     0.074 A 
ATOM     55  C   UNL A   1      42.876  27.826  31.936  1.00  0.00     0.029 A 
ATOM     56  N   UNL A   1      41.856  29.536  32.926  1.00  0.00    -0.354 N 
ATOM     57  N   UNL A   1      41.510  31.592  35.011  1.00  0.00    -0.248 NA
ATOM     58  C   UNL A   1      42.153  32.540  37.049  1.00  0.00     0.031 C 
ATOM     59  C   UNL A   1      43.552  28.117  33.126  1.00  0.00     0.029 A 
ATOM     60  C   UNL A   1      42.925  29.194  33.735  1.00  0.00     0.049 A 
ATOM     61  H   UNL A   1      41.220  30.266  33.110  1.00  0.00     0.167 HD
ATOM     62  C   UNL A   1      42.623  30.915  35.498  1.00  0.00     0.074 A 
ATOM     63  C   UNL A   1      42.990  31.557  36.744  1.00  0.00     0.031 C 
ATOM     64  C   UNL A   1      43.278  29.856  34.965  1.00  0.00     0.037 A 
BRANCH  51  65
ATOM     65  C   UNL A   1      40.877  27.776  29.659  1.00  0.00     0.058 A 
ATOM     66  C   UNL A   1      39.924  26.747  29.566  1.00  0.00     0.135 A 
ATOM     67  C   UNL A   1      41.875  27.836  28.674  1.00  0.00     0.135 A 
ATOM     68  F   UNL A   1      38.960  26.633  30.493  1.00  0.00    -0.206 F 
ATOM     69  C   UNL A   1      39.982  25.791  28.559  1.00  0.00     0.059 A 
ATOM     70  C   UNL A   1      41.936  26.905  27.640  1.00  0.00     0.059 A 
ATOM     71  F   UNL A   1      42.811  28.796  28.717  1.00  0.00    -0.206 F 
ATOM     72  C   UNL A   1      40.995  25.876  27.603  1.00  0.00     0.060 A 
BRANCH  72  73
ATOM     73  S   UNL A   1      41.064  24.623  26.305  1.00  0.00     0.124 S 
ATOM     74  O   UNL A   1      41.596  25.395  25.186  1.00  0.00    -0.237 OA
ATOM     75  O   UNL A   1      41.969  23.630  26.875  1.00  0.00    -0.237 OA
ATOM     76  O   UNL A   1      39.674  24.198  26.171  1.00  0.00    -0.744 OA
ENDBRANCH  72  73
ENDBRANCH  51  65
BRANCH  52  77
ATOM     77  C   UNL A   1      40.016  34.548  36.974  1.00  0.00     0.058 A 
ATOM     78  C   UNL A   1      40.696  35.773  36.931  1.00  0.00     0.135 A 
ATOM     79  C   UNL A   1      39.193  34.295  38.082  1.00  0.00     0.135 A 
ATOM     80  F   UNL A   1      41.500  36.058  35.895  1.00  0.00    -0.206 F 
ATOM     81  C   UNL A   1      40.579  36.710  37.952  1.00  0.00     0.059 A 
ATOM     82  C   UNL A   1      39.042  35.224  39.106  1.00  0.00     0.059 A 
ATOM     83  F   UNL A   1      38.506  33.144  38.161  1.00  0.00    -0.206 F 
ATOM     84  C   UNL A   1      39.746  36.426  39.037  1.00  0.00     0.060 A 
BRANCH  84  85
ATOM     85  S   UNL A   1      39.557  37.671  40.332  1.00  0.00     0.124 S 
ATOM     86  O   UNL A   1      40.634  38.599  40.006  1.00  0.00    -0.237 OA
ATOM     87  O   UNL A   1      38.201  38.157  40.098  1.00  0.00    -0.237 OA
ATOM     88  O   UNL A   1      39.734  36.903  41.561  1.00  0.00    -0.744 OA
ENDBRANCH  84  85
ENDBRANCH  52  77
BRANCH  64  89
ATOM     89  C   UNL A   1      44.475  29.340  35.708  1.00  0.00     0.058 A 
ATOM     90  C   UNL A   1      44.362  28.303  36.645  1.00  0.00     0.135 A 
ATOM     91  C   UNL A   1      45.757  29.841  35.427  1.00  0.00     0.135 A 
ATOM     92  F   UNL A   1      43.158  27.797  36.952  1.00  0.00    -0.206 F 
ATOM     93  C   UNL A   1      45.481  27.784  37.288  1.00  0.00     0.059 A 
ATOM     94  C   UNL A   1      46.891  29.323  36.043  1.00  0.00     0.059 A 
ATOM     95  F   UNL A   1      45.915  30.829  34.531  1.00  0.00    -0.206 F 
ATOM     96  C   UNL A   1      46.741  28.298  36.977  1.00  0.00     0.060 A 
BRANCH  96  97
ATOM     97  S   UNL A   1      48.191  27.581  37.778  1.00  0.00     0.124 S 
ATOM     98  O   UNL A   1      49.078  28.736  37.868  1.00  0.00    -0.237 OA
ATOM     99  O   UNL A   1      47.646  27.099  39.042  1.00  0.00    -0.237 OA
ATOM    100  O   UNL A   1      48.611  26.538  36.846  1.00  0.00    -0.744 OA
ENDBRANCH  96  97
ENDBRANCH  64  89
ENDBRANCH  38  39
ENDBRANCH  30  33
ENDBRANCH  28  29
ENDBRANCH  27  28
ENDBRANCH  26  27
ENDBRANCH   1  26
TORSDOF 22
ENDMDL
