MODEL 1
REMARK VINA RESULT:     -12.0      0.000      0.000
REMARK SMILES O=C(NCCCCNC(=O)c1ccccc1C(=O)OC[C@@H]1C[C@H]2CC[C@@H]1C2)c1ccc(-c2c3nc(c(-c4c(F)cc(S(=O)(=O)[O-])cc4F)c4ccc([nH]4)c(-c4c(F)cc(S(=O)(=O)[O-])cc4F)c4nc(c(-c5c(F)cc(S(=O)(=O)[O-])cc5F)c5ccc2[nH]5)C=C4)C=C3)cc1
REMARK SMILES IDX 6 1 5 2 4 3 3 4 1 5 2 6 28 8 29 9 93 10 30 11 92 12 31 13
REMARK SMILES IDX 32 14 33 15 86 16 34 17 91 18 85 19 87 20 35 21 90 22 84 23
REMARK SMILES IDX 83 24 36 26 70 27 49 28 69 29 50 30 53 31 68 32 88 33 51 34
REMARK SMILES IDX 52 35 67 37 89 38 54 39 37 40 38 41 47 42 39 43 40 44 46 45
REMARK SMILES IDX 48 46 41 47 42 48 43 49 44 50 45 51 71 52 72 53 81 54 73 55
REMARK SMILES IDX 74 56 80 57 82 58 75 59 76 60 77 61 78 62 79 63 55 64 56 65
REMARK SMILES IDX 65 66 57 67 58 68 64 69 66 70 59 71 60 72 61 73 62 74 63 75
REMARK SMILES IDX 7 76 8 77 9 78 10 80 11 81 12 82 16 83 13 84 15 85 14 86
REMARK SMILES IDX 17 87 18 88 19 89 20 90 21 91 22 92 26 93 23 94 25 95 27 96
REMARK SMILES IDX 24 97
REMARK H PARENT 3 7 87 25 53 36 8 79
REMARK Flexibility Score: inf
ROOT
ATOM      1  C   UNL A   1      37.532  22.415  24.898  1.00  0.00     0.023 C 
ENDROOT
BRANCH   1   2
ATOM      2  C   UNL A   1      37.402  23.739  25.652  1.00  0.00     0.023 C 
BRANCH   2   3
ATOM      3  C   UNL A   1      38.463  24.010  26.712  1.00  0.00     0.116 C 
BRANCH   3   4
ATOM      4  N   UNL A   1      39.812  24.071  26.172  1.00  0.00    -0.352 N 
ATOM      5  O   UNL A   1      41.857  24.940  25.783  1.00  0.00    -0.269 OA
ATOM      6  C   UNL A   1      40.827  24.958  26.450  1.00  0.00     0.251 C 
ATOM      7  H   UNL A   1      40.033  23.374  25.512  1.00  0.00     0.163 HD
BRANCH   6   8
ATOM      8  C   UNL A   1      40.662  25.955  27.532  1.00  0.00     0.039 A 
ATOM      9  C   UNL A   1      41.475  27.089  27.586  1.00  0.00     0.014 A 
ATOM     10  C   UNL A   1      39.682  25.750  28.509  1.00  0.00     0.014 A 
ATOM     11  C   UNL A   1      41.420  27.925  28.696  1.00  0.00     0.010 A 
ATOM     12  C   UNL A   1      39.568  26.644  29.578  1.00  0.00     0.010 A 
ATOM     13  C   UNL A   1      40.460  27.720  29.702  1.00  0.00    -0.014 A 
BRANCH  13  14
ATOM     14  C   UNL A   1      40.372  28.678  30.836  1.00  0.00     0.031 A 
ATOM     15  C   UNL A   1      41.270  28.555  32.038  1.00  0.00     0.074 A 
ATOM     16  C   UNL A   1      39.476  29.683  30.763  1.00  0.00     0.049 A 
ATOM     17  N   UNL A   1      41.322  29.311  33.106  1.00  0.00    -0.248 NA
ATOM     18  C   UNL A   1      42.229  27.440  32.049  1.00  0.00     0.031 C 
ATOM     19  C   UNL A   1      38.541  29.897  29.655  1.00  0.00     0.029 A 
ATOM     20  N   UNL A   1      39.208  30.716  31.625  1.00  0.00    -0.354 N 
ATOM     21  C   UNL A   1      42.303  28.757  33.922  1.00  0.00     0.074 A 
ATOM     22  C   UNL A   1      42.801  27.584  33.237  1.00  0.00     0.031 C 
ATOM     23  C   UNL A   1      37.831  31.011  29.887  1.00  0.00     0.029 A 
ATOM     24  C   UNL A   1      38.210  31.553  31.185  1.00  0.00     0.049 A 
ATOM     25  H   UNL A   1      39.685  30.845  32.478  1.00  0.00     0.167 HD
ATOM     26  C   UNL A   1      42.747  29.192  35.127  1.00  0.00     0.037 A 
ATOM     27  C   UNL A   1      37.643  32.627  31.768  1.00  0.00     0.037 A 
ATOM     28  C   UNL A   1      42.249  30.369  35.797  1.00  0.00     0.049 A 
ATOM     29  C   UNL A   1      38.136  33.071  33.115  1.00  0.00     0.074 A 
ATOM     30  C   UNL A   1      42.664  30.914  37.001  1.00  0.00     0.029 A 
ATOM     31  N   UNL A   1      41.222  31.177  35.329  1.00  0.00    -0.354 N 
ATOM     32  N   UNL A   1      39.091  32.557  33.853  1.00  0.00    -0.248 NA
ATOM     33  C   UNL A   1      37.477  34.240  33.709  1.00  0.00     0.031 C 
ATOM     34  C   UNL A   1      41.853  32.018  37.286  1.00  0.00     0.029 A 
ATOM     35  C   UNL A   1      40.972  32.199  36.233  1.00  0.00     0.049 A 
ATOM     36  H   UNL A   1      40.743  31.045  34.480  1.00  0.00     0.167 HD
ATOM     37  C   UNL A   1      39.159  33.351  34.991  1.00  0.00     0.074 A 
ATOM     38  C   UNL A   1      38.162  34.389  34.835  1.00  0.00     0.031 C 
ATOM     39  C   UNL A   1      39.975  33.229  36.067  1.00  0.00     0.037 A 
BRANCH  26  40
ATOM     40  C   UNL A   1      43.816  28.386  35.819  1.00  0.00     0.058 A 
ATOM     41  C   UNL A   1      43.504  27.347  36.710  1.00  0.00     0.135 A 
ATOM     42  C   UNL A   1      45.174  28.620  35.541  1.00  0.00     0.135 A 
ATOM     43  F   UNL A   1      42.225  27.085  37.022  1.00  0.00    -0.206 F 
ATOM     44  C   UNL A   1      44.497  26.586  37.319  1.00  0.00     0.059 A 
ATOM     45  C   UNL A   1      46.184  27.853  36.118  1.00  0.00     0.059 A 
ATOM     46  F   UNL A   1      45.532  29.597  34.694  1.00  0.00    -0.206 F 
ATOM     47  C   UNL A   1      45.835  26.847  37.017  1.00  0.00     0.060 A 
BRANCH  47  48
ATOM     48  S   UNL A   1      47.111  25.848  37.813  1.00  0.00     0.124 S 
ATOM     49  O   UNL A   1      46.720  24.500  37.406  1.00  0.00    -0.237 OA
ATOM     50  O   UNL A   1      48.335  26.360  37.205  1.00  0.00    -0.237 OA
ATOM     51  O   UNL A   1      46.945  26.147  39.231  1.00  0.00    -0.744 OA
ENDBRANCH  47  48
ENDBRANCH  26  40
BRANCH  27  52
ATOM     52  C   UNL A   1      36.539  33.340  31.075  1.00  0.00     0.058 A 
ATOM     53  C   UNL A   1      36.787  34.143  29.953  1.00  0.00     0.135 A 
ATOM     54  C   UNL A   1      35.208  33.204  31.502  1.00  0.00     0.135 A 
ATOM     55  F   UNL A   1      38.042  34.309  29.509  1.00  0.00    -0.206 F 
ATOM     56  C   UNL A   1      35.756  34.796  29.284  1.00  0.00     0.059 A 
ATOM     57  C   UNL A   1      34.159  33.821  30.833  1.00  0.00     0.059 A 
ATOM     58  F   UNL A   1      34.918  32.431  32.560  1.00  0.00    -0.206 F 
ATOM     59  C   UNL A   1      34.443  34.623  29.729  1.00  0.00     0.060 A 
BRANCH  59  60
ATOM     60  S   UNL A   1      33.108  35.429  28.821  1.00  0.00     0.124 S 
ATOM     61  O   UNL A   1      32.303  35.978  29.908  1.00  0.00    -0.237 OA
ATOM     62  O   UNL A   1      33.833  36.401  28.010  1.00  0.00    -0.237 OA
ATOM     63  O   UNL A   1      32.499  34.332  28.076  1.00  0.00    -0.744 OA
ENDBRANCH  59  60
ENDBRANCH  27  52
BRANCH  39  64
ATOM     64  C   UNL A   1      39.845  34.263  37.152  1.00  0.00     0.058 A 
ATOM     65  C   UNL A   1      40.498  35.503  37.073  1.00  0.00     0.135 A 
ATOM     66  C   UNL A   1      39.024  34.024  38.266  1.00  0.00     0.135 A 
ATOM     67  F   UNL A   1      41.302  35.779  36.034  1.00  0.00    -0.206 F 
ATOM     68  C   UNL A   1      40.363  36.460  38.073  1.00  0.00     0.059 A 
ATOM     69  C   UNL A   1      38.851  34.978  39.264  1.00  0.00     0.059 A 
ATOM     70  F   UNL A   1      38.371  32.858  38.388  1.00  0.00    -0.206 F 
ATOM     71  C   UNL A   1      39.535  36.189  39.165  1.00  0.00     0.060 A 
BRANCH  71  72
ATOM     72  S   UNL A   1      39.344  37.451  40.442  1.00  0.00     0.124 S 
ATOM     73  O   UNL A   1      40.693  38.000  40.517  1.00  0.00    -0.237 OA
ATOM     74  O   UNL A   1      38.334  38.330  39.861  1.00  0.00    -0.237 OA
ATOM     75  O   UNL A   1      38.908  36.691  41.609  1.00  0.00    -0.744 OA
ENDBRANCH  71  72
ENDBRANCH  39  64
ENDBRANCH  13  14
ENDBRANCH   6   8
ENDBRANCH   3   4
ENDBRANCH   2   3
ENDBRANCH   1   2
BRANCH   1  76
ATOM     76  C   UNL A   1      36.635  21.283  25.389  1.00  0.00     0.116 C 
BRANCH  76  77
ATOM     77  N   UNL A   1      35.701  21.690  26.423  1.00  0.00    -0.352 N 
ATOM     78  C   UNL A   1      34.331  21.752  26.367  1.00  0.00     0.252 C 
ATOM     79  H   UNL A   1      36.104  21.956  27.281  1.00  0.00     0.163 HD
ATOM     80  O   UNL A   1      33.681  22.122  27.340  1.00  0.00    -0.269 OA
BRANCH  78  81
ATOM     81  C   UNL A   1      33.626  21.462  25.105  1.00  0.00     0.054 A 
ATOM     82  C   UNL A   1      33.254  20.120  24.915  1.00  0.00     0.015 A 
ATOM     83  C   UNL A   1      33.311  22.423  24.137  1.00  0.00     0.072 A 
ATOM     84  C   UNL A   1      32.519  19.744  23.791  1.00  0.00     0.001 A 
ATOM     85  C   UNL A   1      32.557  22.032  23.015  1.00  0.00     0.016 A 
ATOM     86  C   UNL A   1      32.161  20.703  22.847  1.00  0.00     0.001 A 
BRANCH  83  87
ATOM     87  C   UNL A   1      33.656  23.859  24.239  1.00  0.00     0.338 C 
ATOM     88  O   UNL A   1      34.655  24.328  23.700  1.00  0.00    -0.246 OA
BRANCH  87  89
ATOM     89  O   UNL A   1      32.740  24.554  24.947  1.00  0.00    -0.462 OA
BRANCH  89  90
ATOM     90  C   UNL A   1      33.275  25.423  25.964  1.00  0.00     0.237 C 
BRANCH  90  91
ATOM     91  C   UNL A   1      33.031  26.881  25.588  1.00  0.00     0.030 C 
ATOM     92  C   UNL A   1      33.838  27.868  26.465  1.00  0.00     0.011 C 
ATOM     93  C   UNL A   1      31.569  27.328  25.852  1.00  0.00    -0.004 C 
ATOM     94  C   UNL A   1      32.760  28.849  26.953  1.00  0.00    -0.010 C 
ATOM     95  C   UNL A   1      31.320  28.606  25.036  1.00  0.00     0.004 C 
ATOM     96  C   UNL A   1      31.615  27.890  27.272  1.00  0.00     0.007 C 
ATOM     97  C   UNL A   1      32.211  29.634  25.747  1.00  0.00     0.004 C 
ENDBRANCH  90  91
ENDBRANCH  89  90
ENDBRANCH  87  89
ENDBRANCH  83  87
ENDBRANCH  78  81
ENDBRANCH  76  77
ENDBRANCH   1  76
TORSDOF 18
ENDMDL
MODEL 2
REMARK VINA RESULT:     -11.9      6.780     11.973
REMARK SMILES O=C(NCCCCNC(=O)c1ccccc1C(=O)OC[C@@H]1C[C@H]2CC[C@@H]1C2)c1ccc(-c2c3nc(c(-c4c(F)cc(S(=O)(=O)[O-])cc4F)c4ccc([nH]4)c(-c4c(F)cc(S(=O)(=O)[O-])cc4F)c4nc(c(-c5c(F)cc(S(=O)(=O)[O-])cc5F)c5ccc2[nH]5)C=C4)C=C3)cc1
REMARK SMILES IDX 6 1 5 2 4 3 3 4 1 5 2 6 28 8 29 9 93 10 30 11 92 12 31 13
REMARK SMILES IDX 32 14 33 15 86 16 34 17 91 18 85 19 87 20 35 21 90 22 84 23
REMARK SMILES IDX 83 24 36 26 70 27 49 28 69 29 50 30 53 31 68 32 88 33 51 34
REMARK SMILES IDX 52 35 67 37 89 38 54 39 37 40 38 41 47 42 39 43 40 44 46 45
REMARK SMILES IDX 48 46 41 47 42 48 43 49 44 50 45 51 71 52 72 53 81 54 73 55
REMARK SMILES IDX 74 56 80 57 82 58 75 59 76 60 77 61 78 62 79 63 55 64 56 65
REMARK SMILES IDX 65 66 57 67 58 68 64 69 66 70 59 71 60 72 61 73 62 74 63 75
REMARK SMILES IDX 7 76 8 77 9 78 10 80 11 81 12 82 16 83 13 84 15 85 14 86
REMARK SMILES IDX 17 87 18 88 19 89 20 90 21 91 22 92 26 93 23 94 25 95 27 96
REMARK SMILES IDX 24 97
REMARK H PARENT 3 7 87 25 53 36 8 79
REMARK Flexibility Score: inf
ROOT
ATOM      1  C   UNL A   1      33.094  29.915  27.249  1.00  0.00     0.023 C 
ENDROOT
BRANCH   1   2
ATOM      2  C   UNL A   1      34.590  29.596  27.298  1.00  0.00     0.023 C 
BRANCH   2   3
ATOM      3  C   UNL A   1      35.491  30.710  27.816  1.00  0.00     0.116 C 
BRANCH   3   4
ATOM      4  N   UNL A   1      35.428  30.877  29.260  1.00  0.00    -0.352 N 
ATOM      5  O   UNL A   1      36.070  30.636  31.409  1.00  0.00    -0.269 OA
ATOM      6  C   UNL A   1      36.362  30.557  30.219  1.00  0.00     0.251 C 
ATOM      7  H   UNL A   1      34.596  31.278  29.601  1.00  0.00     0.163 HD
BRANCH   6   8
ATOM      8  C   UNL A   1      37.706  30.087  29.815  1.00  0.00     0.039 A 
ATOM      9  C   UNL A   1      38.610  29.612  30.767  1.00  0.00     0.014 A 
ATOM     10  C   UNL A   1      38.068  30.126  28.465  1.00  0.00     0.014 A 
ATOM     11  C   UNL A   1      39.921  29.333  30.395  1.00  0.00     0.010 A 
ATOM     12  C   UNL A   1      39.362  29.758  28.081  1.00  0.00     0.010 A 
ATOM     13  C   UNL A   1      40.312  29.393  29.047  1.00  0.00    -0.014 A 
BRANCH  13  14
ATOM     14  C   UNL A   1      41.699  29.010  28.669  1.00  0.00     0.031 A 
ATOM     15  C   UNL A   1      42.824  30.011  28.697  1.00  0.00     0.074 A 
ATOM     16  C   UNL A   1      41.942  27.733  28.313  1.00  0.00     0.049 A 
ATOM     17  N   UNL A   1      44.087  29.836  28.403  1.00  0.00    -0.248 NA
ATOM     18  C   UNL A   1      42.490  31.385  29.101  1.00  0.00     0.031 C 
ATOM     19  C   UNL A   1      40.930  26.675  28.234  1.00  0.00     0.029 A 
ATOM     20  N   UNL A   1      43.107  27.101  27.962  1.00  0.00    -0.354 N 
ATOM     21  C   UNL A   1      44.696  31.076  28.568  1.00  0.00     0.074 A 
ATOM     22  C   UNL A   1      43.656  32.002  28.963  1.00  0.00     0.031 C 
ATOM     23  C   UNL A   1      41.523  25.522  27.896  1.00  0.00     0.029 A 
ATOM     24  C   UNL A   1      42.943  25.768  27.670  1.00  0.00     0.049 A 
ATOM     25  H   UNL A   1      43.979  27.559  27.923  1.00  0.00     0.167 HD
ATOM     26  C   UNL A   1      46.002  31.406  28.409  1.00  0.00     0.037 A 
ATOM     27  C   UNL A   1      43.826  24.845  27.245  1.00  0.00     0.037 A 
ATOM     28  C   UNL A   1      47.032  30.472  28.024  1.00  0.00     0.049 A 
ATOM     29  C   UNL A   1      45.261  25.244  27.052  1.00  0.00     0.074 A 
ATOM     30  C   UNL A   1      48.390  30.702  27.877  1.00  0.00     0.029 A 
ATOM     31  N   UNL A   1      46.821  29.135  27.715  1.00  0.00    -0.354 N 
ATOM     32  N   UNL A   1      45.825  26.412  27.251  1.00  0.00    -0.248 NA
ATOM     33  C   UNL A   1      46.180  24.203  26.578  1.00  0.00     0.031 C 
ATOM     34  C   UNL A   1      48.990  29.520  27.429  1.00  0.00     0.029 A 
ATOM     35  C   UNL A   1      48.018  28.536  27.353  1.00  0.00     0.049 A 
ATOM     36  H   UNL A   1      45.949  28.680  27.750  1.00  0.00     0.167 HD
ATOM     37  C   UNL A   1      47.169  26.241  26.944  1.00  0.00     0.074 A 
ATOM     38  C   UNL A   1      47.336  24.854  26.563  1.00  0.00     0.031 C 
ATOM     39  C   UNL A   1      48.172  27.152  26.974  1.00  0.00     0.037 A 
BRANCH  26  40
ATOM     40  C   UNL A   1      46.399  32.842  28.633  1.00  0.00     0.058 A 
ATOM     41  C   UNL A   1      46.826  33.309  29.886  1.00  0.00     0.135 A 
ATOM     42  C   UNL A   1      46.409  33.752  27.562  1.00  0.00     0.135 A 
ATOM     43  F   UNL A   1      46.828  32.487  30.949  1.00  0.00    -0.206 F 
ATOM     44  C   UNL A   1      47.223  34.629  30.077  1.00  0.00     0.059 A 
ATOM     45  C   UNL A   1      46.827  35.072  27.724  1.00  0.00     0.059 A 
ATOM     46  F   UNL A   1      46.015  33.363  26.340  1.00  0.00    -0.206 F 
ATOM     47  C   UNL A   1      47.220  35.504  28.989  1.00  0.00     0.060 A 
BRANCH  47  48
ATOM     48  S   UNL A   1      47.742  37.212  29.253  1.00  0.00     0.124 S 
ATOM     49  O   UNL A   1      48.556  37.083  30.458  1.00  0.00    -0.237 OA
ATOM     50  O   UNL A   1      48.473  37.508  28.025  1.00  0.00    -0.237 OA
ATOM     51  O   UNL A   1      46.484  37.932  29.420  1.00  0.00    -0.744 OA
ENDBRANCH  47  48
ENDBRANCH  26  40
BRANCH  27  52
ATOM     52  C   UNL A   1      43.365  23.461  26.966  1.00  0.00     0.058 A 
ATOM     53  C   UNL A   1      43.182  23.009  25.652  1.00  0.00     0.135 A 
ATOM     54  C   UNL A   1      43.130  22.551  28.010  1.00  0.00     0.135 A 
ATOM     55  F   UNL A   1      43.389  23.842  24.620  1.00  0.00    -0.206 F 
ATOM     56  C   UNL A   1      42.773  21.707  25.380  1.00  0.00     0.059 A 
ATOM     57  C   UNL A   1      42.750  21.237  27.763  1.00  0.00     0.059 A 
ATOM     58  F   UNL A   1      43.308  22.930  29.285  1.00  0.00    -0.206 F 
ATOM     59  C   UNL A   1      42.565  20.827  26.444  1.00  0.00     0.060 A 
BRANCH  59  60
ATOM     60  S   UNL A   1      42.088  19.125  26.079  1.00  0.00     0.124 S 
ATOM     61  O   UNL A   1      42.459  18.444  27.315  1.00  0.00    -0.237 OA
ATOM     62  O   UNL A   1      40.657  19.255  25.827  1.00  0.00    -0.237 OA
ATOM     63  O   UNL A   1      42.895  18.794  24.908  1.00  0.00    -0.744 OA
ENDBRANCH  59  60
ENDBRANCH  27  52
BRANCH  39  64
ATOM     64  C   UNL A   1      49.552  26.671  26.613  1.00  0.00     0.058 A 
ATOM     65  C   UNL A   1      50.037  26.737  25.298  1.00  0.00     0.135 A 
ATOM     66  C   UNL A   1      50.412  26.173  27.606  1.00  0.00     0.135 A 
ATOM     67  F   UNL A   1      49.252  27.195  24.310  1.00  0.00    -0.206 F 
ATOM     68  C   UNL A   1      51.317  26.302  24.974  1.00  0.00     0.059 A 
ATOM     69  C   UNL A   1      51.707  25.760  27.309  1.00  0.00     0.059 A 
ATOM     70  F   UNL A   1      50.000  26.095  28.881  1.00  0.00    -0.206 F 
ATOM     71  C   UNL A   1      52.146  25.817  25.988  1.00  0.00     0.060 A 
BRANCH  71  72
ATOM     72  S   UNL A   1      53.817  25.283  25.559  1.00  0.00     0.124 S 
ATOM     73  O   UNL A   1      54.347  26.473  24.902  1.00  0.00    -0.237 OA
ATOM     74  O   UNL A   1      54.390  24.974  26.866  1.00  0.00    -0.237 OA
ATOM     75  O   UNL A   1      53.595  24.132  24.691  1.00  0.00    -0.744 OA
ENDBRANCH  71  72
ENDBRANCH  39  64
ENDBRANCH  13  14
ENDBRANCH   6   8
ENDBRANCH   3   4
ENDBRANCH   2   3
ENDBRANCH   1   2
BRANCH   1  76
ATOM     76  C   UNL A   1      32.379  29.535  25.957  1.00  0.00     0.116 C 
BRANCH  76  77
ATOM     77  N   UNL A   1      33.259  29.470  24.803  1.00  0.00    -0.352 N 
ATOM     78  C   UNL A   1      33.603  28.378  24.047  1.00  0.00     0.252 C 
ATOM     79  H   UNL A   1      33.662  30.324  24.526  1.00  0.00     0.163 HD
ATOM     80  O   UNL A   1      34.370  28.493  23.094  1.00  0.00    -0.269 OA
BRANCH  78  81
ATOM     81  C   UNL A   1      33.129  27.035  24.424  1.00  0.00     0.054 A 
ATOM     82  C   UNL A   1      33.978  26.312  25.281  1.00  0.00     0.015 A 
ATOM     83  C   UNL A   1      31.918  26.475  23.999  1.00  0.00     0.072 A 
ATOM     84  C   UNL A   1      33.596  25.059  25.760  1.00  0.00     0.001 A 
ATOM     85  C   UNL A   1      31.539  25.217  24.503  1.00  0.00     0.016 A 
ATOM     86  C   UNL A   1      32.372  24.517  25.380  1.00  0.00     0.001 A 
BRANCH  83  87
ATOM     87  C   UNL A   1      30.955  27.150  23.100  1.00  0.00     0.338 C 
ATOM     88  O   UNL A   1      31.028  27.052  21.878  1.00  0.00    -0.246 OA
BRANCH  87  89
ATOM     89  O   UNL A   1      30.007  27.826  23.783  1.00  0.00    -0.462 OA
BRANCH  89  90
ATOM     90  C   UNL A   1      28.881  28.270  23.001  1.00  0.00     0.237 C 
BRANCH  90  91
ATOM     91  C   UNL A   1      29.086  29.717  22.564  1.00  0.00     0.030 C 
ATOM     92  C   UNL A   1      29.728  30.591  23.670  1.00  0.00     0.011 C 
ATOM     93  C   UNL A   1      27.748  30.455  22.298  1.00  0.00    -0.004 C 
ATOM     94  C   UNL A   1      28.774  31.794  23.748  1.00  0.00    -0.010 C 
ATOM     95  C   UNL A   1      28.063  31.695  21.448  1.00  0.00     0.004 C 
ATOM     96  C   UNL A   1      27.418  31.098  23.645  1.00  0.00     0.007 C 
ATOM     97  C   UNL A   1      28.847  32.581  22.427  1.00  0.00     0.004 C 
ENDBRANCH  90  91
ENDBRANCH  89  90
ENDBRANCH  87  89
ENDBRANCH  83  87
ENDBRANCH  78  81
ENDBRANCH  76  77
ENDBRANCH   1  76
TORSDOF 18
ENDMDL
MODEL 3
REMARK VINA RESULT:     -11.7      1.449      3.034
REMARK SMILES O=C(NCCCCNC(=O)c1ccccc1C(=O)OC[C@@H]1C[C@H]2CC[C@@H]1C2)c1ccc(-c2c3nc(c(-c4c(F)cc(S(=O)(=O)[O-])cc4F)c4ccc([nH]4)c(-c4c(F)cc(S(=O)(=O)[O-])cc4F)c4nc(c(-c5c(F)cc(S(=O)(=O)[O-])cc5F)c5ccc2[nH]5)C=C4)C=C3)cc1
REMARK SMILES IDX 6 1 5 2 4 3 3 4 1 5 2 6 28 8 29 9 93 10 30 11 92 12 31 13
REMARK SMILES IDX 32 14 33 15 86 16 34 17 91 18 85 19 87 20 35 21 90 22 84 23
REMARK SMILES IDX 83 24 36 26 70 27 49 28 69 29 50 30 53 31 68 32 88 33 51 34
REMARK SMILES IDX 52 35 67 37 89 38 54 39 37 40 38 41 47 42 39 43 40 44 46 45
REMARK SMILES IDX 48 46 41 47 42 48 43 49 44 50 45 51 71 52 72 53 81 54 73 55
REMARK SMILES IDX 74 56 80 57 82 58 75 59 76 60 77 61 78 62 79 63 55 64 56 65
REMARK SMILES IDX 65 66 57 67 58 68 64 69 66 70 59 71 60 72 61 73 62 74 63 75
REMARK SMILES IDX 7 76 8 77 9 78 10 80 11 81 12 82 16 83 13 84 15 85 14 86
REMARK SMILES IDX 17 87 18 88 19 89 20 90 21 91 22 92 26 93 23 94 25 95 27 96
REMARK SMILES IDX 24 97
REMARK H PARENT 3 7 87 25 53 36 8 79
REMARK Flexibility Score: inf
ROOT
ATOM      1  C   UNL A   1      35.623  23.684  25.863  1.00  0.00     0.023 C 
ENDROOT
BRANCH   1   2
ATOM      2  C   UNL A   1      37.087  23.781  25.429  1.00  0.00     0.023 C 
BRANCH   2   3
ATOM      3  C   UNL A   1      38.044  24.391  26.446  1.00  0.00     0.116 C 
BRANCH   3   4
ATOM      4  N   UNL A   1      39.445  24.217  26.093  1.00  0.00    -0.352 N 
ATOM      5  O   UNL A   1      41.642  24.719  26.002  1.00  0.00    -0.269 OA
ATOM      6  C   UNL A   1      40.549  24.913  26.527  1.00  0.00     0.251 C 
ATOM      7  H   UNL A   1      39.630  23.495  25.449  1.00  0.00     0.163 HD
BRANCH   6   8
ATOM      8  C   UNL A   1      40.413  25.920  27.604  1.00  0.00     0.039 A 
ATOM      9  C   UNL A   1      41.199  27.074  27.604  1.00  0.00     0.014 A 
ATOM     10  C   UNL A   1      39.488  25.704  28.630  1.00  0.00     0.014 A 
ATOM     11  C   UNL A   1      41.179  27.924  28.705  1.00  0.00     0.010 A 
ATOM     12  C   UNL A   1      39.405  26.609  29.693  1.00  0.00     0.010 A 
ATOM     13  C   UNL A   1      40.275  27.708  29.759  1.00  0.00    -0.014 A 
BRANCH  13  14
ATOM     14  C   UNL A   1      40.219  28.679  30.885  1.00  0.00     0.031 A 
ATOM     15  C   UNL A   1      41.131  28.552  32.076  1.00  0.00     0.074 A 
ATOM     16  C   UNL A   1      39.339  29.699  30.815  1.00  0.00     0.049 A 
ATOM     17  N   UNL A   1      41.211  29.317  33.136  1.00  0.00    -0.248 NA
ATOM     18  C   UNL A   1      42.070  27.420  32.085  1.00  0.00     0.031 C 
ATOM     19  C   UNL A   1      38.393  29.919  29.717  1.00  0.00     0.029 A 
ATOM     20  N   UNL A   1      39.102  30.744  31.670  1.00  0.00    -0.354 N 
ATOM     21  C   UNL A   1      42.192  28.753  33.944  1.00  0.00     0.074 A 
ATOM     22  C   UNL A   1      42.661  27.565  33.264  1.00  0.00     0.031 C 
ATOM     23  C   UNL A   1      37.706  31.046  29.947  1.00  0.00     0.029 A 
ATOM     24  C   UNL A   1      38.113  31.595  31.235  1.00  0.00     0.049 A 
ATOM     25  H   UNL A   1      39.592  30.873  32.515  1.00  0.00     0.167 HD
ATOM     26  C   UNL A   1      42.660  29.192  35.139  1.00  0.00     0.037 A 
ATOM     27  C   UNL A   1      37.573  32.683  31.814  1.00  0.00     0.037 A 
ATOM     28  C   UNL A   1      42.192  30.384  35.804  1.00  0.00     0.049 A 
ATOM     29  C   UNL A   1      38.091  33.132  33.151  1.00  0.00     0.074 A 
ATOM     30  C   UNL A   1      42.633  30.932  36.996  1.00  0.00     0.029 A 
ATOM     31  N   UNL A   1      41.173  31.205  35.342  1.00  0.00    -0.354 N 
ATOM     32  N   UNL A   1      39.047  32.608  33.880  1.00  0.00    -0.248 NA
ATOM     33  C   UNL A   1      37.461  34.318  33.742  1.00  0.00     0.031 C 
ATOM     34  C   UNL A   1      41.846  32.053  37.282  1.00  0.00     0.029 A 
ATOM     35  C   UNL A   1      40.954  32.240  36.239  1.00  0.00     0.049 A 
ATOM     36  H   UNL A   1      40.681  31.074  34.500  1.00  0.00     0.167 HD
ATOM     37  C   UNL A   1      39.145  33.412  35.010  1.00  0.00     0.074 A 
ATOM     38  C   UNL A   1      38.164  34.466  34.857  1.00  0.00     0.031 C 
ATOM     39  C   UNL A   1      39.973  33.286  36.076  1.00  0.00     0.037 A 
BRANCH  26  40
ATOM     40  C   UNL A   1      43.724  28.374  35.824  1.00  0.00     0.058 A 
ATOM     41  C   UNL A   1      43.406  27.341  36.720  1.00  0.00     0.135 A 
ATOM     42  C   UNL A   1      45.083  28.589  35.535  1.00  0.00     0.135 A 
ATOM     43  F   UNL A   1      42.126  27.096  37.043  1.00  0.00    -0.206 F 
ATOM     44  C   UNL A   1      44.395  26.568  37.323  1.00  0.00     0.059 A 
ATOM     45  C   UNL A   1      46.088  27.811  36.107  1.00  0.00     0.059 A 
ATOM     46  F   UNL A   1      45.447  29.561  34.684  1.00  0.00    -0.206 F 
ATOM     47  C   UNL A   1      45.734  26.812  37.011  1.00  0.00     0.060 A 
BRANCH  47  48
ATOM     48  S   UNL A   1      47.003  25.798  37.799  1.00  0.00     0.124 S 
ATOM     49  O   UNL A   1      46.325  25.387  39.026  1.00  0.00    -0.237 OA
ATOM     50  O   UNL A   1      47.217  24.744  36.813  1.00  0.00    -0.237 OA
ATOM     51  O   UNL A   1      48.117  26.722  37.978  1.00  0.00    -0.744 OA
ENDBRANCH  47  48
ENDBRANCH  26  40
BRANCH  27  52
ATOM     52  C   UNL A   1      36.472  33.409  31.129  1.00  0.00     0.058 A 
ATOM     53  C   UNL A   1      36.717  34.188  29.990  1.00  0.00     0.135 A 
ATOM     54  C   UNL A   1      35.146  33.309  31.582  1.00  0.00     0.135 A 
ATOM     55  F   UNL A   1      37.967  34.319  29.521  1.00  0.00    -0.206 F 
ATOM     56  C   UNL A   1      35.688  34.853  29.329  1.00  0.00     0.059 A 
ATOM     57  C   UNL A   1      34.099  33.939  30.922  1.00  0.00     0.059 A 
ATOM     58  F   UNL A   1      34.859  32.561  32.659  1.00  0.00    -0.206 F 
ATOM     59  C   UNL A   1      34.381  34.717  29.800  1.00  0.00     0.060 A 
BRANCH  59  60
ATOM     60  S   UNL A   1      33.047  35.537  28.902  1.00  0.00     0.124 S 
ATOM     61  O   UNL A   1      32.465  34.424  28.160  1.00  0.00    -0.237 OA
ATOM     62  O   UNL A   1      32.234  36.076  29.987  1.00  0.00    -0.237 OA
ATOM     63  O   UNL A   1      33.747  36.534  28.099  1.00  0.00    -0.744 OA
ENDBRANCH  59  60
ENDBRANCH  27  52
BRANCH  39  64
ATOM     64  C   UNL A   1      39.875  34.333  37.152  1.00  0.00     0.058 A 
ATOM     65  C   UNL A   1      39.079  34.148  38.293  1.00  0.00     0.135 A 
ATOM     66  C   UNL A   1      40.619  35.520  37.056  1.00  0.00     0.135 A 
ATOM     67  F   UNL A   1      38.340  33.036  38.430  1.00  0.00    -0.206 F 
ATOM     68  C   UNL A   1      39.004  35.116  39.290  1.00  0.00     0.059 A 
ATOM     69  C   UNL A   1      40.582  36.488  38.055  1.00  0.00     0.059 A 
ATOM     70  F   UNL A   1      41.402  35.744  35.989  1.00  0.00    -0.206 F 
ATOM     71  C   UNL A   1      39.761  36.282  39.163  1.00  0.00     0.060 A 
BRANCH  71  72
ATOM     72  S   UNL A   1      39.678  37.517  40.478  1.00  0.00     0.124 S 
ATOM     73  O   UNL A   1      39.029  36.765  41.546  1.00  0.00    -0.237 OA
ATOM     74  O   UNL A   1      41.085  37.837  40.694  1.00  0.00    -0.237 OA
ATOM     75  O   UNL A   1      38.881  38.588  39.889  1.00  0.00    -0.744 OA
ENDBRANCH  71  72
ENDBRANCH  39  64
ENDBRANCH  13  14
ENDBRANCH   6   8
ENDBRANCH   3   4
ENDBRANCH   2   3
ENDBRANCH   1   2
BRANCH   1  76
ATOM     76  C   UNL A   1      34.774  24.926  25.610  1.00  0.00     0.116 C 
BRANCH  76  77
ATOM     77  N   UNL A   1      33.350  24.651  25.540  1.00  0.00    -0.352 N 
ATOM     78  C   UNL A   1      32.305  25.539  25.506  1.00  0.00     0.252 C 
ATOM     79  H   UNL A   1      33.101  23.699  25.514  1.00  0.00     0.163 HD
ATOM     80  O   UNL A   1      31.145  25.139  25.448  1.00  0.00    -0.269 OA
BRANCH  78  81
ATOM     81  C   UNL A   1      32.556  26.986  25.630  1.00  0.00     0.054 A 
ATOM     82  C   UNL A   1      32.647  27.474  26.945  1.00  0.00     0.015 A 
ATOM     83  C   UNL A   1      32.717  27.857  24.545  1.00  0.00     0.072 A 
ATOM     84  C   UNL A   1      32.954  28.813  27.182  1.00  0.00     0.001 A 
ATOM     85  C   UNL A   1      33.040  29.203  24.799  1.00  0.00     0.016 A 
ATOM     86  C   UNL A   1      33.162  29.674  26.108  1.00  0.00     0.001 A 
BRANCH  83  87
ATOM     87  C   UNL A   1      32.640  27.447  23.125  1.00  0.00     0.338 C 
ATOM     88  O   UNL A   1      33.300  26.511  22.682  1.00  0.00    -0.246 OA
BRANCH  87  89
ATOM     89  O   UNL A   1      31.756  28.191  22.427  1.00  0.00    -0.462 OA
BRANCH  89  90
ATOM     90  C   UNL A   1      30.383  27.762  22.514  1.00  0.00     0.237 C 
BRANCH  90  91
ATOM     91  C   UNL A   1      29.543  28.835  23.199  1.00  0.00     0.030 C 
ATOM     92  C   UNL A   1      28.029  28.513  23.177  1.00  0.00     0.011 C 
ATOM     93  C   UNL A   1      29.599  30.198  22.462  1.00  0.00    -0.004 C 
ATOM     94  C   UNL A   1      27.416  29.803  22.609  1.00  0.00    -0.010 C 
ATOM     95  C   UNL A   1      29.127  31.279  23.447  1.00  0.00     0.004 C 
ATOM     96  C   UNL A   1      28.412  30.137  21.501  1.00  0.00     0.007 C 
ATOM     97  C   UNL A   1      27.637  30.950  23.614  1.00  0.00     0.004 C 
ENDBRANCH  90  91
ENDBRANCH  89  90
ENDBRANCH  87  89
ENDBRANCH  83  87
ENDBRANCH  78  81
ENDBRANCH  76  77
ENDBRANCH   1  76
TORSDOF 18
ENDMDL
