MODEL 1
REMARK VINA RESULT:     -12.0      0.000      0.000
REMARK SMILES N#Cc1ccc2c(c1)C=C(C(=O)NCCCCNC(=O)c1ccc(-c3c4nc(c(-c5c(F)cc(S(=O)(=O)[O-])cc5F)c5ccc([nH]5)c(-c5c(F)cc(S(=O)(=O)[O-])cc5F)c5nc(c(-c6c(F)cc(S(=O)(=O)[O-])cc6F)c6ccc3[nH]6)C=C5)C=C4)cc1)[C@@H](C(F)(F)F)O2
REMARK SMILES IDX 16 1 15 2 14 3 13 4 11 5 12 6 10 8 3 9 4 10 8 11 5 12 7 13
REMARK SMILES IDX 6 14 9 15 92 16 87 17 2 18 1 19 88 20 89 21 90 22 91 23
REMARK SMILES IDX 17 24 18 25 19 26 20 28 21 29 22 30 86 31 23 32 85 33 24 34
REMARK SMILES IDX 25 35 26 36 79 37 27 38 84 39 78 40 80 41 28 42 83 43 77 44
REMARK SMILES IDX 76 45 29 47 63 48 42 49 62 50 43 51 46 52 61 53 81 54 44 55
REMARK SMILES IDX 45 56 60 58 82 59 47 60 30 61 31 62 40 63 32 64 33 65 39 66
REMARK SMILES IDX 41 67 34 68 35 69 36 70 37 71 38 72 64 73 65 74 74 75 66 76
REMARK SMILES IDX 67 77 73 78 75 79 68 80 69 81 70 82 71 83 72 84 48 85 49 86
REMARK SMILES IDX 58 87 50 88 51 89 57 90 59 91 52 92 53 93 54 94 55 95 56 96
REMARK H PARENT 13 7 18 27 80 46 46 57
REMARK Flexibility Score: inf
ROOT
ATOM      1  C   UNL A   1      33.152  28.899  25.776  1.00  0.00     0.023 C 
ENDROOT
BRANCH   1   2
ATOM      2  C   UNL A   1      33.970  28.028  24.833  1.00  0.00     0.023 C 
BRANCH   2   3
ATOM      3  C   UNL A   1      33.723  26.537  25.028  1.00  0.00     0.116 C 
BRANCH   3   4
ATOM      4  N   UNL A   1      33.397  25.863  23.780  1.00  0.00    -0.352 N 
ATOM      5  C   UNL A   1      32.350  25.830  22.921  1.00  0.00     0.251 C 
ATOM      6  O   UNL A   1      32.504  25.140  21.909  1.00  0.00    -0.270 OA
ATOM      7  H   UNL A   1      34.130  25.277  23.484  1.00  0.00     0.163 HD
BRANCH   5   8
ATOM      8  C   UNL A   1      31.058  26.553  23.127  1.00  0.00     0.067 C 
ATOM      9  C   UNL A   1      28.426  30.581  22.603  1.00  0.00     0.053 A 
ATOM     10  C   UNL A   1      27.292  29.891  23.047  1.00  0.00     0.023 A 
ATOM     11  C   UNL A   1      29.656  29.913  22.491  1.00  0.00     0.031 A 
ATOM     12  C   UNL A   1      27.385  28.544  23.379  1.00  0.00     0.048 A 
ATOM     13  C   UNL A   1      29.751  28.559  22.826  1.00  0.00     0.018 A 
ATOM     14  C   UNL A   1      28.611  27.892  23.276  1.00  0.00     0.128 A 
ATOM     15  C   UNL A   1      30.996  27.816  22.667  1.00  0.00     0.025 C 
ATOM     16  O   UNL A   1      28.598  26.570  23.597  1.00  0.00    -0.475 OA
ATOM     17  C   UNL A   1      29.882  25.941  23.829  1.00  0.00     0.314 C 
BRANCH   9  18
ATOM     18  C   UNL A   1      28.317  31.965  22.257  1.00  0.00     0.099 C 
ATOM     19  N   UNL A   1      28.210  33.084  21.960  1.00  0.00    -0.192 NA
ENDBRANCH   9  18
BRANCH  17  20
ATOM     20  C   UNL A   1      30.107  25.813  25.348  1.00  0.00     0.429 C 
ATOM     21  F   UNL A   1      30.622  26.965  25.846  1.00  0.00    -0.167 F 
ATOM     22  F   UNL A   1      28.966  25.575  26.036  1.00  0.00    -0.167 F 
ATOM     23  F   UNL A   1      30.966  24.816  25.659  1.00  0.00    -0.167 F 
ENDBRANCH  17  20
ENDBRANCH   5   8
ENDBRANCH   3   4
ENDBRANCH   2   3
ENDBRANCH   1   2
BRANCH   1  24
ATOM     24  C   UNL A   1      33.629  28.885  27.222  1.00  0.00     0.116 C 
BRANCH  24  25
ATOM     25  N   UNL A   1      33.636  30.200  27.859  1.00  0.00    -0.352 N 
ATOM     26  C   UNL A   1      34.680  30.800  28.531  1.00  0.00     0.251 C 
ATOM     27  H   UNL A   1      32.800  30.716  27.802  1.00  0.00     0.163 HD
ATOM     28  O   UNL A   1      34.530  31.868  29.112  1.00  0.00    -0.269 OA
BRANCH  26  29
ATOM     29  C   UNL A   1      35.970  30.084  28.567  1.00  0.00     0.039 A 
ATOM     30  C   UNL A   1      36.421  29.565  29.780  1.00  0.00     0.014 A 
ATOM     31  C   UNL A   1      36.799  30.107  27.445  1.00  0.00     0.014 A 
ATOM     32  C   UNL A   1      37.770  29.291  29.932  1.00  0.00     0.010 A 
ATOM     33  C   UNL A   1      38.128  29.699  27.572  1.00  0.00     0.010 A 
ATOM     34  C   UNL A   1      38.644  29.351  28.832  1.00  0.00    -0.014 A 
BRANCH  34  35
ATOM     35  C   UNL A   1      40.085  29.042  29.035  1.00  0.00     0.031 A 
ATOM     36  C   UNL A   1      40.659  27.700  28.655  1.00  0.00     0.074 A 
ATOM     37  C   UNL A   1      40.891  30.011  29.512  1.00  0.00     0.049 A 
ATOM     38  N   UNL A   1      41.893  27.276  28.765  1.00  0.00    -0.248 NA
ATOM     39  C   UNL A   1      39.738  26.705  28.084  1.00  0.00     0.031 C 
ATOM     40  C   UNL A   1      40.452  31.357  29.895  1.00  0.00     0.029 A 
ATOM     41  N   UNL A   1      42.244  30.032  29.731  1.00  0.00    -0.354 N 
ATOM     42  C   UNL A   1      41.894  25.966  28.294  1.00  0.00     0.074 A 
ATOM     43  C   UNL A   1      40.529  25.651  27.932  1.00  0.00     0.031 C 
ATOM     44  C   UNL A   1      41.520  32.088  30.240  1.00  0.00     0.029 A 
ATOM     45  C   UNL A   1      42.706  31.242  30.194  1.00  0.00     0.049 A 
ATOM     46  H   UNL A   1      42.829  29.256  29.574  1.00  0.00     0.167 HD
ATOM     47  C   UNL A   1      42.940  25.115  28.161  1.00  0.00     0.037 A 
ATOM     48  C   UNL A   1      43.939  31.628  30.569  1.00  0.00     0.037 A 
ATOM     49  C   UNL A   1      44.298  25.446  28.511  1.00  0.00     0.049 A 
ATOM     50  C   UNL A   1      45.065  30.639  30.481  1.00  0.00     0.074 A 
ATOM     51  C   UNL A   1      45.429  24.656  28.402  1.00  0.00     0.029 A 
ATOM     52  N   UNL A   1      44.712  26.662  29.038  1.00  0.00    -0.354 N 
ATOM     53  N   UNL A   1      45.047  29.409  30.027  1.00  0.00    -0.248 NA
ATOM     54  C   UNL A   1      46.379  31.085  30.961  1.00  0.00     0.031 C 
ATOM     55  C   UNL A   1      46.514  25.368  28.921  1.00  0.00     0.029 A 
ATOM     56  C   UNL A   1      46.075  26.631  29.287  1.00  0.00     0.049 A 
ATOM     57  H   UNL A   1      44.124  27.433  29.210  1.00  0.00     0.167 HD
ATOM     58  C   UNL A   1      46.350  28.941  30.146  1.00  0.00     0.074 A 
ATOM     59  C   UNL A   1      47.134  30.028  30.696  1.00  0.00     0.031 C 
ATOM     60  C   UNL A   1      46.849  27.721  29.829  1.00  0.00     0.037 A 
BRANCH  47  61
ATOM     61  C   UNL A   1      42.672  23.732  27.622  1.00  0.00     0.058 A 
ATOM     62  C   UNL A   1      42.698  23.457  26.245  1.00  0.00     0.135 A 
ATOM     63  C   UNL A   1      42.466  22.651  28.496  1.00  0.00     0.135 A 
ATOM     64  F   UNL A   1      42.876  24.451  25.360  1.00  0.00    -0.206 F 
ATOM     65  C   UNL A   1      42.514  22.168  25.755  1.00  0.00     0.059 A 
ATOM     66  C   UNL A   1      42.311  21.348  28.031  1.00  0.00     0.059 A 
ATOM     67  F   UNL A   1      42.432  22.854  29.823  1.00  0.00    -0.206 F 
ATOM     68  C   UNL A   1      42.327  21.118  26.657  1.00  0.00     0.060 A 
BRANCH  68  69
ATOM     69  S   UNL A   1      42.105  19.452  25.998  1.00  0.00     0.124 S 
ATOM     70  O   UNL A   1      40.658  19.406  25.803  1.00  0.00    -0.237 OA
ATOM     71  O   UNL A   1      42.908  19.492  24.781  1.00  0.00    -0.237 OA
ATOM     72  O   UNL A   1      42.619  18.593  27.061  1.00  0.00    -0.744 OA
ENDBRANCH  68  69
ENDBRANCH  47  61
BRANCH  48  73
ATOM     73  C   UNL A   1      44.158  33.012  31.065  1.00  0.00     0.058 A 
ATOM     74  C   UNL A   1      44.017  33.322  32.425  1.00  0.00     0.135 A 
ATOM     75  C   UNL A   1      44.552  34.044  30.198  1.00  0.00     0.135 A 
ATOM     76  F   UNL A   1      43.638  32.371  33.295  1.00  0.00    -0.206 F 
ATOM     77  C   UNL A   1      44.248  34.606  32.907  1.00  0.00     0.059 A 
ATOM     78  C   UNL A   1      44.823  35.327  30.660  1.00  0.00     0.059 A 
ATOM     79  F   UNL A   1      44.719  33.797  28.889  1.00  0.00    -0.206 F 
ATOM     80  C   UNL A   1      44.659  35.600  32.017  1.00  0.00     0.060 A 
BRANCH  80  81
ATOM     81  S   UNL A   1      45.003  37.248  32.665  1.00  0.00     0.124 S 
ATOM     82  O   UNL A   1      46.124  36.985  33.559  1.00  0.00    -0.237 OA
ATOM     83  O   UNL A   1      45.316  37.991  31.449  1.00  0.00    -0.237 OA
ATOM     84  O   UNL A   1      43.752  37.623  33.316  1.00  0.00    -0.744 OA
ENDBRANCH  80  81
ENDBRANCH  48  73
BRANCH  60  85
ATOM     85  C   UNL A   1      48.321  27.492  30.040  1.00  0.00     0.058 A 
ATOM     86  C   UNL A   1      48.810  26.828  31.175  1.00  0.00     0.135 A 
ATOM     87  C   UNL A   1      49.248  27.873  29.053  1.00  0.00     0.135 A 
ATOM     88  F   UNL A   1      47.970  26.451  32.152  1.00  0.00    -0.206 F 
ATOM     89  C   UNL A   1      50.166  26.562  31.333  1.00  0.00     0.059 A 
ATOM     90  C   UNL A   1      50.603  27.586  29.175  1.00  0.00     0.059 A 
ATOM     91  F   UNL A   1      48.833  28.503  27.943  1.00  0.00    -0.206 F 
ATOM     92  C   UNL A   1      51.054  26.938  30.322  1.00  0.00     0.060 A 
BRANCH  92  93
ATOM     93  S   UNL A   1      52.803  26.540  30.524  1.00  0.00     0.124 S 
ATOM     94  O   UNL A   1      53.181  26.171  29.164  1.00  0.00    -0.237 OA
ATOM     95  O   UNL A   1      53.350  27.801  31.015  1.00  0.00    -0.237 OA
ATOM     96  O   UNL A   1      52.795  25.447  31.491  1.00  0.00    -0.744 OA
ENDBRANCH  92  93
ENDBRANCH  60  85
ENDBRANCH  34  35
ENDBRANCH  26  29
ENDBRANCH  24  25
ENDBRANCH   1  24
TORSDOF 16
ENDMDL
MODEL 2
REMARK VINA RESULT:     -11.7      2.005      4.070
REMARK SMILES N#Cc1ccc2c(c1)C=C(C(=O)NCCCCNC(=O)c1ccc(-c3c4nc(c(-c5c(F)cc(S(=O)(=O)[O-])cc5F)c5ccc([nH]5)c(-c5c(F)cc(S(=O)(=O)[O-])cc5F)c5nc(c(-c6c(F)cc(S(=O)(=O)[O-])cc6F)c6ccc3[nH]6)C=C5)C=C4)cc1)[C@@H](C(F)(F)F)O2
REMARK SMILES IDX 16 1 15 2 14 3 13 4 11 5 12 6 10 8 3 9 4 10 8 11 5 12 7 13
REMARK SMILES IDX 6 14 9 15 92 16 87 17 2 18 1 19 88 20 89 21 90 22 91 23
REMARK SMILES IDX 17 24 18 25 19 26 20 28 21 29 22 30 86 31 23 32 85 33 24 34
REMARK SMILES IDX 25 35 26 36 79 37 27 38 84 39 78 40 80 41 28 42 83 43 77 44
REMARK SMILES IDX 76 45 29 47 63 48 42 49 62 50 43 51 46 52 61 53 81 54 44 55
REMARK SMILES IDX 45 56 60 58 82 59 47 60 30 61 31 62 40 63 32 64 33 65 39 66
REMARK SMILES IDX 41 67 34 68 35 69 36 70 37 71 38 72 64 73 65 74 74 75 66 76
REMARK SMILES IDX 67 77 73 78 75 79 68 80 69 81 70 82 71 83 72 84 48 85 49 86
REMARK SMILES IDX 58 87 50 88 51 89 57 90 59 91 52 92 53 93 54 94 55 95 56 96
REMARK H PARENT 13 7 18 27 80 46 46 57
REMARK Flexibility Score: inf
ROOT
ATOM      1  C   UNL A   1      32.862  28.705  26.206  1.00  0.00     0.023 C 
ENDROOT
BRANCH   1   2
ATOM      2  C   UNL A   1      33.309  27.961  24.956  1.00  0.00     0.023 C 
BRANCH   2   3
ATOM      3  C   UNL A   1      32.218  27.081  24.360  1.00  0.00     0.116 C 
BRANCH   3   4
ATOM      4  N   UNL A   1      31.429  26.408  25.380  1.00  0.00    -0.352 N 
ATOM      5  C   UNL A   1      31.413  25.190  25.973  1.00  0.00     0.251 C 
ATOM      6  O   UNL A   1      30.580  25.036  26.870  1.00  0.00    -0.270 OA
ATOM      7  H   UNL A   1      30.720  26.993  25.733  1.00  0.00     0.163 HD
BRANCH   5   8
ATOM      8  C   UNL A   1      32.317  24.056  25.607  1.00  0.00     0.067 C 
ATOM      9  C   UNL A   1      36.741  22.094  25.648  1.00  0.00     0.053 A 
ATOM     10  C   UNL A   1      36.210  20.900  25.146  1.00  0.00     0.023 A 
ATOM     11  C   UNL A   1      35.896  23.183  25.911  1.00  0.00     0.031 A 
ATOM     12  C   UNL A   1      34.844  20.795  24.905  1.00  0.00     0.048 A 
ATOM     13  C   UNL A   1      34.522  23.079  25.668  1.00  0.00     0.018 A 
ATOM     14  C   UNL A   1      34.014  21.884  25.158  1.00  0.00     0.128 A 
ATOM     15  C   UNL A   1      33.604  24.168  25.983  1.00  0.00     0.025 C 
ATOM     16  O   UNL A   1      32.692  21.678  24.917  1.00  0.00    -0.475 OA
ATOM     17  C   UNL A   1      31.850  22.854  24.840  1.00  0.00     0.314 C 
BRANCH   9  18
ATOM     18  C   UNL A   1      38.146  22.188  25.899  1.00  0.00     0.099 C 
ATOM     19  N   UNL A   1      39.284  22.258  26.126  1.00  0.00    -0.192 NA
ENDBRANCH   9  18
BRANCH  17  20
ATOM     20  C   UNL A   1      31.575  23.176  23.358  1.00  0.00     0.429 C 
ATOM     21  F   UNL A   1      31.679  22.052  22.606  1.00  0.00    -0.167 F 
ATOM     22  F   UNL A   1      30.332  23.666  23.143  1.00  0.00    -0.167 F 
ATOM     23  F   UNL A   1      32.446  24.081  22.857  1.00  0.00    -0.167 F 
ENDBRANCH  17  20
ENDBRANCH   5   8
ENDBRANCH   3   4
ENDBRANCH   2   3
ENDBRANCH   1   2
BRANCH   1  24
ATOM     24  C   UNL A   1      33.923  28.808  27.293  1.00  0.00     0.116 C 
BRANCH  24  25
ATOM     25  N   UNL A   1      33.959  30.101  27.971  1.00  0.00    -0.352 N 
ATOM     26  C   UNL A   1      35.028  30.676  28.624  1.00  0.00     0.251 C 
ATOM     27  H   UNL A   1      33.123  30.622  27.959  1.00  0.00     0.163 HD
ATOM     28  O   UNL A   1      34.903  31.726  29.243  1.00  0.00    -0.269 OA
BRANCH  26  29
ATOM     29  C   UNL A   1      36.315  29.956  28.592  1.00  0.00     0.039 A 
ATOM     30  C   UNL A   1      36.767  29.330  29.753  1.00  0.00     0.014 A 
ATOM     31  C   UNL A   1      37.141  30.075  27.473  1.00  0.00     0.014 A 
ATOM     32  C   UNL A   1      38.116  29.038  29.876  1.00  0.00     0.010 A 
ATOM     33  C   UNL A   1      38.469  29.652  27.560  1.00  0.00     0.010 A 
ATOM     34  C   UNL A   1      38.987  29.192  28.782  1.00  0.00    -0.014 A 
BRANCH  34  35
ATOM     35  C   UNL A   1      40.427  28.861  28.952  1.00  0.00     0.031 A 
ATOM     36  C   UNL A   1      40.970  27.508  28.566  1.00  0.00     0.074 A 
ATOM     37  C   UNL A   1      41.260  29.820  29.405  1.00  0.00     0.049 A 
ATOM     38  N   UNL A   1      42.200  27.064  28.648  1.00  0.00    -0.248 NA
ATOM     39  C   UNL A   1      40.020  26.525  28.023  1.00  0.00     0.031 C 
ATOM     40  C   UNL A   1      40.851  31.174  29.790  1.00  0.00     0.029 A 
ATOM     41  N   UNL A   1      42.618  29.820  29.591  1.00  0.00    -0.354 N 
ATOM     42  C   UNL A   1      42.168  25.753  28.185  1.00  0.00     0.074 A 
ATOM     43  C   UNL A   1      40.791  25.458  27.858  1.00  0.00     0.031 C 
ATOM     44  C   UNL A   1      41.939  31.889  30.106  1.00  0.00     0.029 A 
ATOM     45  C   UNL A   1      43.109  31.025  30.036  1.00  0.00     0.049 A 
ATOM     46  H   UNL A   1      43.186  29.034  29.424  1.00  0.00     0.167 HD
ATOM     47  C   UNL A   1      43.197  24.884  28.032  1.00  0.00     0.037 A 
ATOM     48  C   UNL A   1      44.358  31.392  30.379  1.00  0.00     0.037 A 
ATOM     49  C   UNL A   1      44.569  25.196  28.347  1.00  0.00     0.049 A 
ATOM     50  C   UNL A   1      45.466  30.385  30.270  1.00  0.00     0.074 A 
ATOM     51  C   UNL A   1      45.684  24.387  28.216  1.00  0.00     0.029 A 
ATOM     52  N   UNL A   1      45.015  26.408  28.858  1.00  0.00    -0.354 N 
ATOM     53  N   UNL A   1      45.417  29.154  29.823  1.00  0.00    -0.248 NA
ATOM     54  C   UNL A   1      46.797  30.813  30.716  1.00  0.00     0.031 C 
ATOM     55  C   UNL A   1      46.792  25.084  28.704  1.00  0.00     0.029 A 
ATOM     56  C   UNL A   1      46.383  26.356  29.074  1.00  0.00     0.049 A 
ATOM     57  H   UNL A   1      44.443  27.188  29.039  1.00  0.00     0.167 HD
ATOM     58  C   UNL A   1      46.715  28.666  29.913  1.00  0.00     0.074 A 
ATOM     59  C   UNL A   1      47.529  29.743  30.439  1.00  0.00     0.031 C 
ATOM     60  C   UNL A   1      47.187  27.436  29.591  1.00  0.00     0.037 A 
BRANCH  47  61
ATOM     61  C   UNL A   1      42.894  23.503  27.507  1.00  0.00     0.058 A 
ATOM     62  C   UNL A   1      43.073  23.170  26.155  1.00  0.00     0.135 A 
ATOM     63  C   UNL A   1      42.497  22.477  28.382  1.00  0.00     0.135 A 
ATOM     64  F   UNL A   1      43.438  24.111  25.269  1.00  0.00    -0.206 F 
ATOM     65  C   UNL A   1      42.855  21.878  25.687  1.00  0.00     0.059 A 
ATOM     66  C   UNL A   1      42.303  21.170  27.942  1.00  0.00     0.059 A 
ATOM     67  F   UNL A   1      42.312  22.737  29.686  1.00  0.00    -0.206 F 
ATOM     68  C   UNL A   1      42.475  20.883  26.590  1.00  0.00     0.060 A 
BRANCH  68  69
ATOM     69  S   UNL A   1      42.211  19.211  25.962  1.00  0.00     0.124 S 
ATOM     70  O   UNL A   1      40.767  19.206  25.743  1.00  0.00    -0.237 OA
ATOM     71  O   UNL A   1      43.034  19.201  24.757  1.00  0.00    -0.237 OA
ATOM     72  O   UNL A   1      42.681  18.358  27.049  1.00  0.00    -0.744 OA
ENDBRANCH  68  69
ENDBRANCH  47  61
BRANCH  48  73
ATOM     73  C   UNL A   1      44.611  32.776  30.863  1.00  0.00     0.058 A 
ATOM     74  C   UNL A   1      44.933  33.805  29.967  1.00  0.00     0.135 A 
ATOM     75  C   UNL A   1      44.495  33.106  32.223  1.00  0.00     0.135 A 
ATOM     76  F   UNL A   1      45.059  33.540  28.657  1.00  0.00    -0.206 F 
ATOM     77  C   UNL A   1      45.142  35.109  30.402  1.00  0.00     0.059 A 
ATOM     78  C   UNL A   1      44.665  34.408  32.678  1.00  0.00     0.059 A 
ATOM     79  F   UNL A   1      44.171  32.161  33.121  1.00  0.00    -0.206 F 
ATOM     80  C   UNL A   1      44.997  35.402  31.759  1.00  0.00     0.060 A 
BRANCH  80  81
ATOM     81  S   UNL A   1      45.223  37.109  32.301  1.00  0.00     0.124 S 
ATOM     82  O   UNL A   1      44.655  37.068  33.643  1.00  0.00    -0.237 OA
ATOM     83  O   UNL A   1      46.673  37.259  32.225  1.00  0.00    -0.237 OA
ATOM     84  O   UNL A   1      44.466  37.878  31.319  1.00  0.00    -0.744 OA
ENDBRANCH  80  81
ENDBRANCH  48  73
BRANCH  60  85
ATOM     85  C   UNL A   1      48.659  27.184  29.768  1.00  0.00     0.058 A 
ATOM     86  C   UNL A   1      49.599  27.588  28.808  1.00  0.00     0.135 A 
ATOM     87  C   UNL A   1      49.143  26.601  30.953  1.00  0.00     0.135 A 
ATOM     88  F   UNL A   1      49.191  28.143  27.654  1.00  0.00    -0.206 F 
ATOM     89  C   UNL A   1      50.964  27.411  29.007  1.00  0.00     0.059 A 
ATOM     90  C   UNL A   1      50.504  26.445  31.188  1.00  0.00     0.059 A 
ATOM     91  F   UNL A   1      48.288  26.204  31.909  1.00  0.00    -0.206 F 
ATOM     92  C   UNL A   1      51.407  26.846  30.205  1.00  0.00     0.060 A 
BRANCH  92  93
ATOM     93  S   UNL A   1      53.184  26.669  30.465  1.00  0.00     0.124 S 
ATOM     94  O   UNL A   1      53.234  25.587  31.443  1.00  0.00    -0.237 OA
ATOM     95  O   UNL A   1      53.660  26.336  29.126  1.00  0.00    -0.237 OA
ATOM     96  O   UNL A   1      53.590  27.981  30.960  1.00  0.00    -0.744 OA
ENDBRANCH  92  93
ENDBRANCH  60  85
ENDBRANCH  34  35
ENDBRANCH  26  29
ENDBRANCH  24  25
ENDBRANCH   1  24
TORSDOF 16
ENDMDL
MODEL 3
REMARK VINA RESULT:     -11.7      2.858      9.158
REMARK SMILES N#Cc1ccc2c(c1)C=C(C(=O)NCCCCNC(=O)c1ccc(-c3c4nc(c(-c5c(F)cc(S(=O)(=O)[O-])cc5F)c5ccc([nH]5)c(-c5c(F)cc(S(=O)(=O)[O-])cc5F)c5nc(c(-c6c(F)cc(S(=O)(=O)[O-])cc6F)c6ccc3[nH]6)C=C5)C=C4)cc1)[C@@H](C(F)(F)F)O2
REMARK SMILES IDX 16 1 15 2 14 3 13 4 11 5 12 6 10 8 3 9 4 10 8 11 5 12 7 13
REMARK SMILES IDX 6 14 9 15 92 16 87 17 2 18 1 19 88 20 89 21 90 22 91 23
REMARK SMILES IDX 17 24 18 25 19 26 20 28 21 29 22 30 86 31 23 32 85 33 24 34
REMARK SMILES IDX 25 35 26 36 79 37 27 38 84 39 78 40 80 41 28 42 83 43 77 44
REMARK SMILES IDX 76 45 29 47 63 48 42 49 62 50 43 51 46 52 61 53 81 54 44 55
REMARK SMILES IDX 45 56 60 58 82 59 47 60 30 61 31 62 40 63 32 64 33 65 39 66
REMARK SMILES IDX 41 67 34 68 35 69 36 70 37 71 38 72 64 73 65 74 74 75 66 76
REMARK SMILES IDX 67 77 73 78 75 79 68 80 69 81 70 82 71 83 72 84 48 85 49 86
REMARK SMILES IDX 58 87 50 88 51 89 57 90 59 91 52 92 53 93 54 94 55 95 56 96
REMARK H PARENT 13 7 18 27 80 46 46 57
REMARK Flexibility Score: inf
ROOT
ATOM      1  C   UNL A   1      35.201  32.082  27.649  1.00  0.00     0.023 C 
ENDROOT
BRANCH   1   2
ATOM      2  C   UNL A   1      33.767  31.572  27.649  1.00  0.00     0.023 C 
BRANCH   2   3
ATOM      3  C   UNL A   1      33.618  30.200  27.006  1.00  0.00     0.116 C 
BRANCH   3   4
ATOM      4  N   UNL A   1      32.543  29.422  27.604  1.00  0.00    -0.352 N 
ATOM      5  C   UNL A   1      31.862  28.288  27.308  1.00  0.00     0.251 C 
ATOM      6  O   UNL A   1      31.027  27.926  28.142  1.00  0.00    -0.270 OA
ATOM      7  H   UNL A   1      32.227  29.827  28.443  1.00  0.00     0.163 HD
BRANCH   5   8
ATOM      8  C   UNL A   1      32.057  27.481  26.065  1.00  0.00     0.067 C 
ATOM      9  C   UNL A   1      34.587  24.149  23.632  1.00  0.00     0.053 A 
ATOM     10  C   UNL A   1      33.608  24.143  22.632  1.00  0.00     0.023 A 
ATOM     11  C   UNL A   1      34.437  24.973  24.758  1.00  0.00     0.031 A 
ATOM     12  C   UNL A   1      32.487  24.958  22.754  1.00  0.00     0.048 A 
ATOM     13  C   UNL A   1      33.311  25.793  24.882  1.00  0.00     0.018 A 
ATOM     14  C   UNL A   1      32.351  25.780  23.869  1.00  0.00     0.128 A 
ATOM     15  C   UNL A   1      33.090  26.619  26.063  1.00  0.00     0.025 C 
ATOM     16  O   UNL A   1      31.210  26.520  23.913  1.00  0.00    -0.475 OA
ATOM     17  C   UNL A   1      31.179  27.618  24.856  1.00  0.00     0.314 C 
BRANCH   9  18
ATOM     18  C   UNL A   1      35.733  23.302  23.499  1.00  0.00     0.099 C 
ATOM     19  N   UNL A   1      36.649  22.594  23.395  1.00  0.00    -0.192 NA
ENDBRANCH   9  18
BRANCH  17  20
ATOM     20  C   UNL A   1      31.430  28.936  24.096  1.00  0.00     0.429 C 
ATOM     21  F   UNL A   1      30.911  28.863  22.845  1.00  0.00    -0.167 F 
ATOM     22  F   UNL A   1      30.853  30.008  24.688  1.00  0.00    -0.167 F 
ATOM     23  F   UNL A   1      32.747  29.217  23.975  1.00  0.00    -0.167 F 
ENDBRANCH  17  20
ENDBRANCH   5   8
ENDBRANCH   3   4
ENDBRANCH   2   3
ENDBRANCH   1   2
BRANCH   1  24
ATOM     24  C   UNL A   1      35.789  32.313  29.034  1.00  0.00     0.116 C 
BRANCH  24  25
ATOM     25  N   UNL A   1      35.528  31.232  29.981  1.00  0.00    -0.352 N 
ATOM     26  C   UNL A   1      36.400  30.245  30.388  1.00  0.00     0.251 C 
ATOM     27  H   UNL A   1      34.626  31.207  30.375  1.00  0.00     0.163 HD
ATOM     28  O   UNL A   1      36.029  29.330  31.114  1.00  0.00    -0.269 OA
BRANCH  26  29
ATOM     29  C   UNL A   1      37.782  30.301  29.875  1.00  0.00     0.039 A 
ATOM     30  C   UNL A   1      38.029  29.922  28.556  1.00  0.00     0.014 A 
ATOM     31  C   UNL A   1      38.833  30.542  30.760  1.00  0.00     0.014 A 
ATOM     32  C   UNL A   1      39.315  29.554  28.193  1.00  0.00     0.010 A 
ATOM     33  C   UNL A   1      40.144  30.298  30.343  1.00  0.00     0.010 A 
ATOM     34  C   UNL A   1      40.391  29.738  29.079  1.00  0.00    -0.014 A 
BRANCH  34  35
ATOM     35  C   UNL A   1      41.758  29.338  28.649  1.00  0.00     0.031 A 
ATOM     36  C   UNL A   1      42.906  30.315  28.680  1.00  0.00     0.074 A 
ATOM     37  C   UNL A   1      41.970  28.057  28.285  1.00  0.00     0.049 A 
ATOM     38  N   UNL A   1      44.157  30.122  28.342  1.00  0.00    -0.248 NA
ATOM     39  C   UNL A   1      42.621  31.682  29.143  1.00  0.00     0.031 C 
ATOM     40  C   UNL A   1      40.939  27.016  28.237  1.00  0.00     0.029 A 
ATOM     41  N   UNL A   1      43.117  27.403  27.917  1.00  0.00    -0.354 N 
ATOM     42  C   UNL A   1      44.801  31.339  28.535  1.00  0.00     0.074 A 
ATOM     43  C   UNL A   1      43.796  32.278  28.984  1.00  0.00     0.031 C 
ATOM     44  C   UNL A   1      41.509  25.845  27.923  1.00  0.00     0.029 A 
ATOM     45  C   UNL A   1      42.925  26.066  27.657  1.00  0.00     0.049 A 
ATOM     46  H   UNL A   1      43.992  27.846  27.844  1.00  0.00     0.167 HD
ATOM     47  C   UNL A   1      46.112  31.640  28.370  1.00  0.00     0.037 A 
ATOM     48  C   UNL A   1      43.782  25.122  27.224  1.00  0.00     0.037 A 
ATOM     49  C   UNL A   1      47.107  30.691  27.936  1.00  0.00     0.049 A 
ATOM     50  C   UNL A   1      45.213  25.502  26.977  1.00  0.00     0.074 A 
ATOM     51  C   UNL A   1      48.463  30.895  27.749  1.00  0.00     0.029 A 
ATOM     52  N   UNL A   1      46.858  29.362  27.620  1.00  0.00    -0.354 N 
ATOM     53  N   UNL A   1      45.804  26.656  27.173  1.00  0.00    -0.248 NA
ATOM     54  C   UNL A   1      46.094  24.455  26.446  1.00  0.00     0.031 C 
ATOM     55  C   UNL A   1      49.022  29.711  27.261  1.00  0.00     0.029 A 
ATOM     56  C   UNL A   1      48.030  28.745  27.211  1.00  0.00     0.049 A 
ATOM     57  H   UNL A   1      45.979  28.923  27.678  1.00  0.00     0.167 HD
ATOM     58  C   UNL A   1      47.132  26.469  26.810  1.00  0.00     0.074 A 
ATOM     59  C   UNL A   1      47.260  25.084  26.401  1.00  0.00     0.031 C 
ATOM     60  C   UNL A   1      48.150  27.364  26.813  1.00  0.00     0.037 A 
BRANCH  47  61
ATOM     61  C   UNL A   1      46.563  33.052  28.647  1.00  0.00     0.058 A 
ATOM     62  C   UNL A   1      47.033  33.443  29.910  1.00  0.00     0.135 A 
ATOM     63  C   UNL A   1      46.602  34.005  27.614  1.00  0.00     0.135 A 
ATOM     64  F   UNL A   1      47.008  32.581  30.939  1.00  0.00    -0.206 F 
ATOM     65  C   UNL A   1      47.509  34.730  30.144  1.00  0.00     0.059 A 
ATOM     66  C   UNL A   1      47.102  35.289  27.818  1.00  0.00     0.059 A 
ATOM     67  F   UNL A   1      46.166  33.687  26.385  1.00  0.00    -0.206 F 
ATOM     68  C   UNL A   1      47.545  35.644  29.089  1.00  0.00     0.060 A 
BRANCH  68  69
ATOM     69  S   UNL A   1      48.179  37.303  29.414  1.00  0.00     0.124 S 
ATOM     70  O   UNL A   1      48.942  37.568  28.198  1.00  0.00    -0.237 OA
ATOM     71  O   UNL A   1      46.951  38.076  29.573  1.00  0.00    -0.237 OA
ATOM     72  O   UNL A   1      48.974  37.134  30.627  1.00  0.00    -0.744 OA
ENDBRANCH  68  69
ENDBRANCH  47  61
BRANCH  48  73
ATOM     73  C   UNL A   1      43.295  23.736  26.995  1.00  0.00     0.058 A 
ATOM     74  C   UNL A   1      43.079  23.252  25.697  1.00  0.00     0.135 A 
ATOM     75  C   UNL A   1      43.074  22.854  28.066  1.00  0.00     0.135 A 
ATOM     76  F   UNL A   1      43.272  24.057  24.640  1.00  0.00    -0.206 F 
ATOM     77  C   UNL A   1      42.653  21.949  25.468  1.00  0.00     0.059 A 
ATOM     78  C   UNL A   1      42.682  21.537  27.861  1.00  0.00     0.059 A 
ATOM     79  F   UNL A   1      43.283  23.262  29.329  1.00  0.00    -0.206 F 
ATOM     80  C   UNL A   1      42.466  21.096  26.557  1.00  0.00     0.060 A 
BRANCH  80  81
ATOM     81  S   UNL A   1      41.960  19.392  26.241  1.00  0.00     0.124 S 
ATOM     82  O   UNL A   1      42.449  18.714  27.435  1.00  0.00    -0.237 OA
ATOM     83  O   UNL A   1      40.511  19.524  26.127  1.00  0.00    -0.237 OA
ATOM     84  O   UNL A   1      42.653  19.060  25.000  1.00  0.00    -0.744 OA
ENDBRANCH  80  81
ENDBRANCH  48  73
BRANCH  60  85
ATOM     85  C   UNL A   1      49.509  26.878  26.388  1.00  0.00     0.058 A 
ATOM     86  C   UNL A   1      50.394  26.274  27.293  1.00  0.00     0.135 A 
ATOM     87  C   UNL A   1      49.898  26.947  25.038  1.00  0.00     0.135 A 
ATOM     88  F   UNL A   1      50.077  26.189  28.595  1.00  0.00    -0.206 F 
ATOM     89  C   UNL A   1      51.622  25.768  26.880  1.00  0.00     0.059 A 
ATOM     90  C   UNL A   1      51.105  26.418  24.598  1.00  0.00     0.059 A 
ATOM     91  F   UNL A   1      49.085  27.507  24.128  1.00  0.00    -0.206 F 
ATOM     92  C   UNL A   1      51.965  25.837  25.528  1.00  0.00     0.060 A 
BRANCH  92  93
ATOM     93  S   UNL A   1      53.542  25.132  25.004  1.00  0.00     0.124 S 
ATOM     94  O   UNL A   1      54.471  25.756  25.941  1.00  0.00    -0.237 OA
ATOM     95  O   UNL A   1      53.317  23.702  25.193  1.00  0.00    -0.237 OA
ATOM     96  O   UNL A   1      53.666  25.564  23.616  1.00  0.00    -0.744 OA
ENDBRANCH  92  93
ENDBRANCH  60  85
ENDBRANCH  34  35
ENDBRANCH  26  29
ENDBRANCH  24  25
ENDBRANCH   1  24
TORSDOF 16
ENDMDL
