MODEL 1
REMARK VINA RESULT:     -12.1      0.000      0.000
REMARK SMILES C[C@@H](Sc1nc(C[NH+]2CCCC2)nc2ccccc12)C(=O)NCCCCNC(=O)c1ccc(-c2c3nc(c(-c4c(F)cc(S(=O)(=O)[O-])cc4F)c4ccc([nH]4)c(-c4c(F)cc(S(=O)(=O)[O-])cc4F)c4nc(c(-c5c(F)cc(S(=O)(=O)[O-])cc5F)c5ccc2[nH]5)C=C4)C=C3)cc1
REMARK SMILES IDX 24 1 23 2 22 3 20 4 21 5 2 7 1 8 3 9 4 10 5 11 19 12 6 13
REMARK SMILES IDX 14 14 18 15 13 16 15 17 17 18 16 19 7 20 8 21 9 22 12 23
REMARK SMILES IDX 10 25 11 26 25 27 26 28 27 29 28 30 29 32 30 33 31 34 95 35
REMARK SMILES IDX 32 36 94 37 33 38 34 39 35 40 88 41 36 42 93 43 87 44 89 45
REMARK SMILES IDX 37 46 92 47 86 48 85 49 38 51 72 52 51 53 71 54 52 55 55 56
REMARK SMILES IDX 70 57 90 58 53 59 54 60 69 62 91 63 56 64 39 65 40 66 49 67
REMARK SMILES IDX 41 68 42 69 48 70 50 71 43 72 44 73 45 74 46 75 47 76 73 77
REMARK SMILES IDX 74 78 83 79 75 80 76 81 82 82 84 83 77 84 78 85 79 86 80 87
REMARK SMILES IDX 81 88 57 89 58 90 67 91 59 92 60 93 66 94 68 95 61 96 62 97
REMARK SMILES IDX 63 98 64 99 65 100
REMARK H PARENT 22 6 8 24 27 31 89 50 55 61
REMARK Flexibility Score: inf
ROOT
ATOM      1  C   UNL A   1      31.228  27.678  26.508  1.00  0.00     0.023 C 
ENDROOT
BRANCH   1   2
ATOM      2  C   UNL A   1      30.606  26.539  25.703  1.00  0.00     0.116 C 
BRANCH   2   3
ATOM      3  N   UNL A   1      30.331  25.389  26.545  1.00  0.00    -0.355 N 
ATOM      4  C   UNL A   1      30.752  24.097  26.451  1.00  0.00     0.233 C 
ATOM      5  O   UNL A   1      30.371  23.306  27.321  1.00  0.00    -0.274 OA
ATOM      6  H   UNL A   1      29.741  25.573  27.311  1.00  0.00     0.163 HD
BRANCH   4   7
ATOM      7  C   UNL A   1      31.663  23.611  25.320  1.00  0.00     0.139 C 
ATOM      8  C   UNL A   1      31.027  23.775  23.945  1.00  0.00     0.030 C 
BRANCH   7   9
ATOM      9  S   UNL A   1      33.344  24.324  25.593  1.00  0.00    -0.093 SA
BRANCH   9  10
ATOM     10  C   UNL A   1      34.396  22.900  25.399  1.00  0.00     0.109 A 
ATOM     11  N   UNL A   1      33.701  21.793  25.075  1.00  0.00    -0.220 NA
ATOM     12  C   UNL A   1      35.786  22.912  25.571  1.00  0.00     0.033 A 
ATOM     13  C   UNL A   1      34.384  20.644  24.980  1.00  0.00     0.185 A 
ATOM     14  C   UNL A   1      36.390  21.655  25.462  1.00  0.00     0.075 A 
ATOM     15  C   UNL A   1      36.595  24.050  25.838  1.00  0.00     0.013 A 
ATOM     16  N   UNL A   1      35.710  20.539  25.183  1.00  0.00    -0.227 NA
ATOM     17  C   UNL A   1      37.763  21.557  25.658  1.00  0.00     0.029 A 
ATOM     18  C   UNL A   1      37.965  23.925  26.040  1.00  0.00     0.001 A 
ATOM     19  C   UNL A   1      38.551  22.672  25.954  1.00  0.00     0.002 A 
BRANCH  13  20
ATOM     20  C   UNL A   1      33.615  19.376  24.631  1.00  0.00     0.340 C 
BRANCH  20  21
ATOM     21  N   UNL A   1      34.074  18.085  25.190  1.00  0.00    -0.329 N 
ATOM     22  C   UNL A   1      34.933  17.314  24.290  1.00  0.00     0.262 C 
ATOM     23  C   UNL A   1      32.987  17.201  25.612  1.00  0.00     0.262 C 
ATOM     24  H   UNL A   1      34.613  18.382  26.003  1.00  0.00     0.348 HD
ATOM     25  C   UNL A   1      34.052  16.267  23.640  1.00  0.00     0.067 C 
ATOM     26  C   UNL A   1      32.897  16.065  24.602  1.00  0.00     0.067 C 
ENDBRANCH  20  21
ENDBRANCH  13  20
ENDBRANCH   9  10
ENDBRANCH   7   9
ENDBRANCH   4   7
ENDBRANCH   2   3
ENDBRANCH   1   2
BRANCH   1  27
ATOM     27  C   UNL A   1      32.653  28.046  26.085  1.00  0.00     0.023 C 
BRANCH  27  28
ATOM     28  C   UNL A   1      33.592  28.429  27.226  1.00  0.00     0.116 C 
BRANCH  28  29
ATOM     29  N   UNL A   1      33.504  29.837  27.584  1.00  0.00    -0.352 N 
ATOM     30  C   UNL A   1      34.461  30.639  28.160  1.00  0.00     0.251 C 
ATOM     31  H   UNL A   1      32.645  30.274  27.387  1.00  0.00     0.163 HD
ATOM     32  O   UNL A   1      34.173  31.778  28.517  1.00  0.00    -0.269 OA
BRANCH  30  33
ATOM     33  C   UNL A   1      35.823  30.110  28.377  1.00  0.00     0.039 A 
ATOM     34  C   UNL A   1      36.727  30.114  27.312  1.00  0.00     0.014 A 
ATOM     35  C   UNL A   1      36.216  29.637  29.633  1.00  0.00     0.014 A 
ATOM     36  C   UNL A   1      38.047  29.709  27.525  1.00  0.00     0.010 A 
ATOM     37  C   UNL A   1      37.548  29.300  29.859  1.00  0.00     0.010 A 
ATOM     38  C   UNL A   1      38.478  29.334  28.807  1.00  0.00    -0.014 A 
BRANCH  38  39
ATOM     39  C   UNL A   1      39.897  28.987  29.074  1.00  0.00     0.031 A 
ATOM     40  C   UNL A   1      40.833  30.019  29.643  1.00  0.00     0.074 A 
ATOM     41  C   UNL A   1      40.359  27.766  28.737  1.00  0.00     0.049 A 
ATOM     42  N   UNL A   1      42.117  29.928  29.876  1.00  0.00    -0.248 NA
ATOM     43  C   UNL A   1      40.255  31.333  29.968  1.00  0.00     0.031 C 
ATOM     44  C   UNL A   1      39.560  26.697  28.132  1.00  0.00     0.029 A 
ATOM     45  N   UNL A   1      41.613  27.220  28.846  1.00  0.00    -0.354 N 
ATOM     46  C   UNL A   1      42.504  31.174  30.355  1.00  0.00     0.074 A 
ATOM     47  C   UNL A   1      41.329  32.018  30.336  1.00  0.00     0.031 C 
ATOM     48  C   UNL A   1      40.339  25.619  27.944  1.00  0.00     0.029 A 
ATOM     49  C   UNL A   1      41.697  25.929  28.379  1.00  0.00     0.049 A 
ATOM     50  H   UNL A   1      42.381  27.707  29.223  1.00  0.00     0.167 HD
ATOM     51  C   UNL A   1      43.723  31.572  30.792  1.00  0.00     0.037 A 
ATOM     52  C   UNL A   1      42.750  25.092  28.303  1.00  0.00     0.037 A 
ATOM     53  C   UNL A   1      44.880  30.718  30.839  1.00  0.00     0.049 A 
ATOM     54  C   UNL A   1      44.092  25.556  28.802  1.00  0.00     0.074 A 
ATOM     55  C   UNL A   1      46.142  31.006  31.330  1.00  0.00     0.029 A 
ATOM     56  N   UNL A   1      44.920  29.410  30.379  1.00  0.00    -0.354 N 
ATOM     57  N   UNL A   1      44.424  26.716  29.316  1.00  0.00    -0.248 NA
ATOM     58  C   UNL A   1      45.201  24.596  28.715  1.00  0.00     0.031 C 
ATOM     59  C   UNL A   1      46.956  29.886  31.128  1.00  0.00     0.029 A 
ATOM     60  C   UNL A   1      46.189  28.884  30.556  1.00  0.00     0.049 A 
ATOM     61  H   UNL A   1      44.158  28.926  29.986  1.00  0.00     0.167 HD
ATOM     62  C   UNL A   1      45.772  26.616  29.641  1.00  0.00     0.074 A 
ATOM     63  C   UNL A   1      46.191  25.279  29.274  1.00  0.00     0.031 C 
ATOM     64  C   UNL A   1      46.588  27.547  30.195  1.00  0.00     0.037 A 
BRANCH  51  65
ATOM     65  C   UNL A   1      43.867  32.994  31.261  1.00  0.00     0.058 A 
ATOM     66  C   UNL A   1      43.798  33.332  32.622  1.00  0.00     0.135 A 
ATOM     67  C   UNL A   1      44.117  34.027  30.342  1.00  0.00     0.135 A 
ATOM     68  F   UNL A   1      43.546  32.387  33.541  1.00  0.00    -0.206 F 
ATOM     69  C   UNL A   1      43.943  34.647  33.054  1.00  0.00     0.059 A 
ATOM     70  C   UNL A   1      44.294  35.345  30.754  1.00  0.00     0.059 A 
ATOM     71  F   UNL A   1      44.192  33.760  29.028  1.00  0.00    -0.206 F 
ATOM     72  C   UNL A   1      44.191  35.646  32.111  1.00  0.00     0.060 A 
BRANCH  72  73
ATOM     73  S   UNL A   1      44.387  37.346  32.689  1.00  0.00     0.124 S 
ATOM     74  O   UNL A   1      45.618  37.248  33.465  1.00  0.00    -0.237 OA
ATOM     75  O   UNL A   1      44.483  38.092  31.439  1.00  0.00    -0.237 OA
ATOM     76  O   UNL A   1      43.173  37.583  33.466  1.00  0.00    -0.744 OA
ENDBRANCH  72  73
ENDBRANCH  51  65
BRANCH  52  77
ATOM     77  C   UNL A   1      42.574  23.720  27.757  1.00  0.00     0.058 A 
ATOM     78  C   UNL A   1      42.533  23.497  26.372  1.00  0.00     0.135 A 
ATOM     79  C   UNL A   1      42.446  22.607  28.603  1.00  0.00     0.135 A 
ATOM     80  F   UNL A   1      42.645  24.530  25.524  1.00  0.00    -0.206 F 
ATOM     81  C   UNL A   1      42.356  22.223  25.844  1.00  0.00     0.059 A 
ATOM     82  C   UNL A   1      42.294  21.319  28.097  1.00  0.00     0.059 A 
ATOM     83  F   UNL A   1      42.496  22.764  29.935  1.00  0.00    -0.206 F 
ATOM     84  C   UNL A   1      42.237  21.139  26.716  1.00  0.00     0.060 A 
BRANCH  84  85
ATOM     85  S   UNL A   1      42.050  19.483  26.019  1.00  0.00     0.124 S 
ATOM     86  O   UNL A   1      42.523  18.649  27.118  1.00  0.00    -0.237 OA
ATOM     87  O   UNL A   1      40.617  19.425  25.744  1.00  0.00    -0.237 OA
ATOM     88  O   UNL A   1      42.906  19.518  24.837  1.00  0.00    -0.744 OA
ENDBRANCH  84  85
ENDBRANCH  52  77
BRANCH  64  89
ATOM     89  C   UNL A   1      48.009  27.143  30.475  1.00  0.00     0.058 A 
ATOM     90  C   UNL A   1      49.022  27.292  29.514  1.00  0.00     0.135 A 
ATOM     91  C   UNL A   1      48.371  26.650  31.739  1.00  0.00     0.135 A 
ATOM     92  F   UNL A   1      48.728  27.752  28.288  1.00  0.00    -0.206 F 
ATOM     93  C   UNL A   1      50.341  26.946  29.791  1.00  0.00     0.059 A 
ATOM     94  C   UNL A   1      49.688  26.323  32.045  1.00  0.00     0.059 A 
ATOM     95  F   UNL A   1      47.442  26.498  32.696  1.00  0.00    -0.206 F 
ATOM     96  C   UNL A   1      50.664  26.464  31.060  1.00  0.00     0.060 A 
BRANCH  96  97
ATOM     97  S   UNL A   1      52.385  26.053  31.419  1.00  0.00     0.124 S 
ATOM     98  O   UNL A   1      52.255  24.714  31.986  1.00  0.00    -0.237 OA
ATOM     99  O   UNL A   1      53.006  26.125  30.100  1.00  0.00    -0.237 OA
ATOM    100  O   UNL A   1      52.796  27.095  32.355  1.00  0.00    -0.744 OA
ENDBRANCH  96  97
ENDBRANCH  64  89
ENDBRANCH  38  39
ENDBRANCH  30  33
ENDBRANCH  28  29
ENDBRANCH  27  28
ENDBRANCH   1  27
TORSDOF 18
ENDMDL
MODEL 2
REMARK VINA RESULT:     -11.7      5.044     11.008
REMARK SMILES C[C@@H](Sc1nc(C[NH+]2CCCC2)nc2ccccc12)C(=O)NCCCCNC(=O)c1ccc(-c2c3nc(c(-c4c(F)cc(S(=O)(=O)[O-])cc4F)c4ccc([nH]4)c(-c4c(F)cc(S(=O)(=O)[O-])cc4F)c4nc(c(-c5c(F)cc(S(=O)(=O)[O-])cc5F)c5ccc2[nH]5)C=C4)C=C3)cc1
REMARK SMILES IDX 24 1 23 2 22 3 20 4 21 5 2 7 1 8 3 9 4 10 5 11 19 12 6 13
REMARK SMILES IDX 14 14 18 15 13 16 15 17 17 18 16 19 7 20 8 21 9 22 12 23
REMARK SMILES IDX 10 25 11 26 25 27 26 28 27 29 28 30 29 32 30 33 31 34 95 35
REMARK SMILES IDX 32 36 94 37 33 38 34 39 35 40 88 41 36 42 93 43 87 44 89 45
REMARK SMILES IDX 37 46 92 47 86 48 85 49 38 51 72 52 51 53 71 54 52 55 55 56
REMARK SMILES IDX 70 57 90 58 53 59 54 60 69 62 91 63 56 64 39 65 40 66 49 67
REMARK SMILES IDX 41 68 42 69 48 70 50 71 43 72 44 73 45 74 46 75 47 76 73 77
REMARK SMILES IDX 74 78 83 79 75 80 76 81 82 82 84 83 77 84 78 85 79 86 80 87
REMARK SMILES IDX 81 88 57 89 58 90 67 91 59 92 60 93 66 94 68 95 61 96 62 97
REMARK SMILES IDX 63 98 64 99 65 100
REMARK H PARENT 22 6 8 24 27 31 89 50 55 61
REMARK Flexibility Score: inf
ROOT
ATOM      1  C   UNL A   1      35.745  23.526  25.926  1.00  0.00     0.023 C 
ENDROOT
BRANCH   1   2
ATOM      2  C   UNL A   1      34.673  24.253  25.117  1.00  0.00     0.116 C 
BRANCH   2   3
ATOM      3  N   UNL A   1      34.128  23.398  24.079  1.00  0.00    -0.355 N 
ATOM      4  C   UNL A   1      33.313  23.687  23.026  1.00  0.00     0.233 C 
ATOM      5  O   UNL A   1      33.000  22.758  22.273  1.00  0.00    -0.274 OA
ATOM      6  H   UNL A   1      34.390  22.451  24.146  1.00  0.00     0.163 HD
BRANCH   4   7
ATOM      7  C   UNL A   1      32.785  25.099  22.760  1.00  0.00     0.139 C 
ATOM      8  C   UNL A   1      32.937  25.517  21.302  1.00  0.00     0.030 C 
BRANCH   7   9
ATOM      9  S   UNL A   1      31.116  25.243  23.538  1.00  0.00    -0.093 SA
BRANCH   9  10
ATOM     10  C   UNL A   1      30.978  26.996  23.817  1.00  0.00     0.109 A 
ATOM     11  N   UNL A   1      30.453  27.642  22.758  1.00  0.00    -0.220 NA
ATOM     12  C   UNL A   1      31.374  27.644  24.994  1.00  0.00     0.033 A 
ATOM     13  C   UNL A   1      30.374  28.977  22.829  1.00  0.00     0.185 A 
ATOM     14  C   UNL A   1      31.260  29.038  24.949  1.00  0.00     0.075 A 
ATOM     15  C   UNL A   1      31.864  27.026  26.176  1.00  0.00     0.013 A 
ATOM     16  N   UNL A   1      30.781  29.698  23.890  1.00  0.00    -0.227 NA
ATOM     17  C   UNL A   1      31.667  29.775  26.054  1.00  0.00     0.029 A 
ATOM     18  C   UNL A   1      32.275  27.786  27.266  1.00  0.00     0.001 A 
ATOM     19  C   UNL A   1      32.180  29.168  27.203  1.00  0.00     0.002 A 
BRANCH  13  20
ATOM     20  C   UNL A   1      29.800  29.729  21.635  1.00  0.00     0.340 C 
BRANCH  20  21
ATOM     21  N   UNL A   1      28.390  30.174  21.682  1.00  0.00    -0.329 N 
ATOM     22  C   UNL A   1      28.202  31.600  21.404  1.00  0.00     0.262 C 
ATOM     23  C   UNL A   1      27.721  29.891  22.952  1.00  0.00     0.262 C 
ATOM     24  H   UNL A   1      27.965  29.624  20.937  1.00  0.00     0.348 HD
ATOM     25  C   UNL A   1      28.051  32.287  22.745  1.00  0.00     0.067 C 
ATOM     26  C   UNL A   1      27.553  31.211  23.692  1.00  0.00     0.067 C 
ENDBRANCH  20  21
ENDBRANCH  13  20
ENDBRANCH   9  10
ENDBRANCH   7   9
ENDBRANCH   4   7
ENDBRANCH   2   3
ENDBRANCH   1   2
BRANCH   1  27
ATOM     27  C   UNL A   1      37.182  23.862  25.517  1.00  0.00     0.023 C 
BRANCH  27  28
ATOM     28  C   UNL A   1      38.185  23.933  26.665  1.00  0.00     0.116 C 
BRANCH  28  29
ATOM     29  N   UNL A   1      39.568  23.854  26.216  1.00  0.00    -0.352 N 
ATOM     30  C   UNL A   1      40.617  24.690  26.513  1.00  0.00     0.251 C 
ATOM     31  H   UNL A   1      39.779  23.100  25.620  1.00  0.00     0.163 HD
ATOM     32  O   UNL A   1      41.694  24.550  25.939  1.00  0.00    -0.269 OA
BRANCH  30  33
ATOM     33  C   UNL A   1      40.431  25.775  27.499  1.00  0.00     0.039 A 
ATOM     34  C   UNL A   1      39.524  25.588  28.545  1.00  0.00     0.014 A 
ATOM     35  C   UNL A   1      41.167  26.959  27.407  1.00  0.00     0.014 A 
ATOM     36  C   UNL A   1      39.407  26.562  29.539  1.00  0.00     0.010 A 
ATOM     37  C   UNL A   1      41.099  27.896  28.434  1.00  0.00     0.010 A 
ATOM     38  C   UNL A   1      40.220  27.706  29.512  1.00  0.00    -0.014 A 
BRANCH  38  39
ATOM     39  C   UNL A   1      40.176  28.709  30.606  1.00  0.00     0.031 A 
ATOM     40  C   UNL A   1      41.068  28.556  31.810  1.00  0.00     0.074 A 
ATOM     41  C   UNL A   1      39.284  29.719  30.550  1.00  0.00     0.049 A 
ATOM     42  N   UNL A   1      41.122  29.284  32.894  1.00  0.00    -0.248 NA
ATOM     43  C   UNL A   1      42.002  27.419  31.803  1.00  0.00     0.031 C 
ATOM     44  C   UNL A   1      38.332  29.946  29.459  1.00  0.00     0.029 A 
ATOM     45  N   UNL A   1      39.025  30.738  31.432  1.00  0.00    -0.354 N 
ATOM     46  C   UNL A   1      42.079  28.685  33.706  1.00  0.00     0.074 A 
ATOM     47  C   UNL A   1      42.546  27.506  33.008  1.00  0.00     0.031 C 
ATOM     48  C   UNL A   1      37.609  31.045  29.728  1.00  0.00     0.029 A 
ATOM     49  C   UNL A   1      38.018  31.581  31.023  1.00  0.00     0.049 A 
ATOM     50  H   UNL A   1      39.513  30.854  32.279  1.00  0.00     0.167 HD
ATOM     51  C   UNL A   1      42.541  29.092  34.912  1.00  0.00     0.037 A 
ATOM     52  C   UNL A   1      37.481  32.659  31.626  1.00  0.00     0.037 A 
ATOM     53  C   UNL A   1      42.095  30.284  35.585  1.00  0.00     0.049 A 
ATOM     54  C   UNL A   1      38.017  33.095  32.962  1.00  0.00     0.074 A 
ATOM     55  C   UNL A   1      42.552  30.820  36.777  1.00  0.00     0.029 A 
ATOM     56  N   UNL A   1      41.091  31.125  35.128  1.00  0.00    -0.354 N 
ATOM     57  N   UNL A   1      38.970  32.555  33.683  1.00  0.00    -0.248 NA
ATOM     58  C   UNL A   1      37.409  34.289  33.565  1.00  0.00     0.031 C 
ATOM     59  C   UNL A   1      41.795  31.961  37.062  1.00  0.00     0.029 A 
ATOM     60  C   UNL A   1      40.899  32.164  36.024  1.00  0.00     0.049 A 
ATOM     61  H   UNL A   1      40.589  31.002  34.291  1.00  0.00     0.167 HD
ATOM     62  C   UNL A   1      39.096  33.360  34.811  1.00  0.00     0.074 A 
ATOM     63  C   UNL A   1      38.128  34.428  34.670  1.00  0.00     0.031 C 
ATOM     64  C   UNL A   1      39.939  33.226  35.865  1.00  0.00     0.037 A 
BRANCH  51  65
ATOM     65  C   UNL A   1      43.589  28.245  35.581  1.00  0.00     0.058 A 
ATOM     66  C   UNL A   1      43.248  27.234  36.493  1.00  0.00     0.135 A 
ATOM     67  C   UNL A   1      44.948  28.420  35.276  1.00  0.00     0.135 A 
ATOM     68  F   UNL A   1      41.964  27.035  36.833  1.00  0.00    -0.206 F 
ATOM     69  C   UNL A   1      44.219  26.445  37.102  1.00  0.00     0.059 A 
ATOM     70  C   UNL A   1      45.935  27.623  35.851  1.00  0.00     0.059 A 
ATOM     71  F   UNL A   1      45.331  29.372  34.410  1.00  0.00    -0.206 F 
ATOM     72  C   UNL A   1      45.560  26.648  36.773  1.00  0.00     0.060 A 
BRANCH  72  73
ATOM     73  S   UNL A   1      46.807  25.608  37.565  1.00  0.00     0.124 S 
ATOM     74  O   UNL A   1      48.025  26.366  37.303  1.00  0.00    -0.237 OA
ATOM     75  O   UNL A   1      46.360  25.586  38.954  1.00  0.00    -0.237 OA
ATOM     76  O   UNL A   1      46.692  24.339  36.853  1.00  0.00    -0.744 OA
ENDBRANCH  72  73
ENDBRANCH  51  65
BRANCH  52  77
ATOM     77  C   UNL A   1      36.389  33.419  30.959  1.00  0.00     0.058 A 
ATOM     78  C   UNL A   1      35.075  33.367  31.447  1.00  0.00     0.135 A 
ATOM     79  C   UNL A   1      36.636  34.212  29.828  1.00  0.00     0.135 A 
ATOM     80  F   UNL A   1      34.789  32.617  32.522  1.00  0.00    -0.206 F 
ATOM     81  C   UNL A   1      34.039  34.059  30.829  1.00  0.00     0.059 A 
ATOM     82  C   UNL A   1      35.621  34.935  29.207  1.00  0.00     0.059 A 
ATOM     83  F   UNL A   1      37.880  34.310  29.332  1.00  0.00    -0.206 F 
ATOM     84  C   UNL A   1      34.323  34.843  29.708  1.00  0.00     0.060 A 
BRANCH  84  85
ATOM     85  S   UNL A   1      32.981  35.772  28.938  1.00  0.00     0.124 S 
ATOM     86  O   UNL A   1      33.715  36.813  28.228  1.00  0.00    -0.237 OA
ATOM     87  O   UNL A   1      32.343  34.758  28.103  1.00  0.00    -0.237 OA
ATOM     88  O   UNL A   1      32.188  36.222  30.078  1.00  0.00    -0.744 OA
ENDBRANCH  84  85
ENDBRANCH  52  77
BRANCH  64  89
ATOM     89  C   UNL A   1      39.881  34.281  36.935  1.00  0.00     0.058 A 
ATOM     90  C   UNL A   1      40.588  35.488  36.822  1.00  0.00     0.135 A 
ATOM     91  C   UNL A   1      39.063  34.103  38.063  1.00  0.00     0.135 A 
ATOM     92  F   UNL A   1      41.389  35.706  35.766  1.00  0.00    -0.206 F 
ATOM     93  C   UNL A   1      40.503  36.473  37.800  1.00  0.00     0.059 A 
ATOM     94  C   UNL A   1      38.943  35.086  39.040  1.00  0.00     0.059 A 
ATOM     95  F   UNL A   1      38.358  32.971  38.214  1.00  0.00    -0.206 F 
ATOM     96  C   UNL A   1      39.677  36.263  38.905  1.00  0.00     0.060 A 
BRANCH  96  97
ATOM     97  S   UNL A   1      39.547  37.564  40.150  1.00  0.00     0.124 S 
ATOM     98  O   UNL A   1      40.897  38.119  40.137  1.00  0.00    -0.237 OA
ATOM     99  O   UNL A   1      38.504  38.423  39.599  1.00  0.00    -0.237 OA
ATOM    100  O   UNL A   1      39.176  36.839  41.362  1.00  0.00    -0.744 OA
ENDBRANCH  96  97
ENDBRANCH  64  89
ENDBRANCH  38  39
ENDBRANCH  30  33
ENDBRANCH  28  29
ENDBRANCH  27  28
ENDBRANCH   1  27
TORSDOF 18
ENDMDL
MODEL 3
REMARK VINA RESULT:     -11.6      0.723      8.107
REMARK SMILES C[C@@H](Sc1nc(C[NH+]2CCCC2)nc2ccccc12)C(=O)NCCCCNC(=O)c1ccc(-c2c3nc(c(-c4c(F)cc(S(=O)(=O)[O-])cc4F)c4ccc([nH]4)c(-c4c(F)cc(S(=O)(=O)[O-])cc4F)c4nc(c(-c5c(F)cc(S(=O)(=O)[O-])cc5F)c5ccc2[nH]5)C=C4)C=C3)cc1
REMARK SMILES IDX 24 1 23 2 22 3 20 4 21 5 2 7 1 8 3 9 4 10 5 11 19 12 6 13
REMARK SMILES IDX 14 14 18 15 13 16 15 17 17 18 16 19 7 20 8 21 9 22 12 23
REMARK SMILES IDX 10 25 11 26 25 27 26 28 27 29 28 30 29 32 30 33 31 34 95 35
REMARK SMILES IDX 32 36 94 37 33 38 34 39 35 40 88 41 36 42 93 43 87 44 89 45
REMARK SMILES IDX 37 46 92 47 86 48 85 49 38 51 72 52 51 53 71 54 52 55 55 56
REMARK SMILES IDX 70 57 90 58 53 59 54 60 69 62 91 63 56 64 39 65 40 66 49 67
REMARK SMILES IDX 41 68 42 69 48 70 50 71 43 72 44 73 45 74 46 75 47 76 73 77
REMARK SMILES IDX 74 78 83 79 75 80 76 81 82 82 84 83 77 84 78 85 79 86 80 87
REMARK SMILES IDX 81 88 57 89 58 90 67 91 59 92 60 93 66 94 68 95 61 96 62 97
REMARK SMILES IDX 63 98 64 99 65 100
REMARK H PARENT 22 6 8 24 27 31 89 50 55 61
REMARK Flexibility Score: inf
ROOT
ATOM      1  C   UNL A   1      31.808  27.908  26.544  1.00  0.00     0.023 C 
ENDROOT
BRANCH   1   2
ATOM      2  C   UNL A   1      31.011  26.901  25.718  1.00  0.00     0.116 C 
BRANCH   2   3
ATOM      3  N   UNL A   1      30.637  25.746  26.513  1.00  0.00    -0.355 N 
ATOM      4  C   UNL A   1      31.001  24.437  26.406  1.00  0.00     0.233 C 
ATOM      5  O   UNL A   1      30.537  23.645  27.233  1.00  0.00    -0.274 OA
ATOM      6  H   UNL A   1      30.018  25.939  27.253  1.00  0.00     0.163 HD
BRANCH   4   7
ATOM      7  C   UNL A   1      31.945  23.935  25.310  1.00  0.00     0.139 C 
ATOM      8  C   UNL A   1      31.407  24.199  23.908  1.00  0.00     0.030 C 
BRANCH   7   9
ATOM      9  S   UNL A   1      33.650  24.518  25.711  1.00  0.00    -0.093 SA
BRANCH   9  10
ATOM     10  C   UNL A   1      34.618  23.040  25.492  1.00  0.00     0.109 A 
ATOM     11  N   UNL A   1      33.860  21.979  25.155  1.00  0.00    -0.220 NA
ATOM     12  C   UNL A   1      36.007  22.970  25.658  1.00  0.00     0.033 A 
ATOM     13  C   UNL A   1      34.475  20.794  25.040  1.00  0.00     0.185 A 
ATOM     14  C   UNL A   1      36.538  21.682  25.528  1.00  0.00     0.075 A 
ATOM     15  C   UNL A   1      36.881  24.056  25.939  1.00  0.00     0.013 A 
ATOM     16  N   UNL A   1      35.794  20.611  25.235  1.00  0.00    -0.227 NA
ATOM     17  C   UNL A   1      37.904  21.503  25.716  1.00  0.00     0.029 A 
ATOM     18  C   UNL A   1      38.242  23.850  26.132  1.00  0.00     0.001 A 
ATOM     19  C   UNL A   1      38.755  22.566  26.025  1.00  0.00     0.002 A 
BRANCH  13  20
ATOM     20  C   UNL A   1      33.634  19.578  24.676  1.00  0.00     0.340 C 
BRANCH  20  21
ATOM     21  N   UNL A   1      34.022  18.254  25.213  1.00  0.00    -0.329 N 
ATOM     22  C   UNL A   1      34.888  17.478  24.323  1.00  0.00     0.262 C 
ATOM     23  C   UNL A   1      32.887  17.400  25.563  1.00  0.00     0.262 C 
ATOM     24  H   UNL A   1      34.538  18.506  26.055  1.00  0.00     0.348 HD
ATOM     25  C   UNL A   1      33.996  16.485  23.607  1.00  0.00     0.067 C 
ATOM     26  C   UNL A   1      32.795  16.300  24.516  1.00  0.00     0.067 C 
ENDBRANCH  20  21
ENDBRANCH  13  20
ENDBRANCH   9  10
ENDBRANCH   7   9
ENDBRANCH   4   7
ENDBRANCH   2   3
ENDBRANCH   1   2
BRANCH   1  27
ATOM     27  C   UNL A   1      33.202  28.218  25.991  1.00  0.00     0.023 C 
BRANCH  27  28
ATOM     28  C   UNL A   1      34.275  28.484  27.042  1.00  0.00     0.116 C 
BRANCH  28  29
ATOM     29  N   UNL A   1      34.088  29.749  27.737  1.00  0.00    -0.352 N 
ATOM     30  C   UNL A   1      34.986  30.447  28.510  1.00  0.00     0.251 C 
ATOM     31  H   UNL A   1      33.199  30.160  27.641  1.00  0.00     0.163 HD
ATOM     32  O   UNL A   1      34.617  31.439  29.133  1.00  0.00    -0.269 OA
BRANCH  30  33
ATOM     33  C   UNL A   1      36.383  29.977  28.611  1.00  0.00     0.039 A 
ATOM     34  C   UNL A   1      37.209  30.068  27.488  1.00  0.00     0.014 A 
ATOM     35  C   UNL A   1      36.884  29.474  29.815  1.00  0.00     0.014 A 
ATOM     36  C   UNL A   1      38.557  29.720  27.592  1.00  0.00     0.010 A 
ATOM     37  C   UNL A   1      38.242  29.194  29.935  1.00  0.00     0.010 A 
ATOM     38  C   UNL A   1      39.094  29.316  28.825  1.00  0.00    -0.014 A 
BRANCH  38  39
ATOM     39  C   UNL A   1      40.542  29.029  28.979  1.00  0.00     0.031 A 
ATOM     40  C   UNL A   1      41.089  27.677  28.604  1.00  0.00     0.074 A 
ATOM     41  C   UNL A   1      41.353  29.960  29.523  1.00  0.00     0.049 A 
ATOM     42  N   UNL A   1      42.305  27.215  28.733  1.00  0.00    -0.248 NA
ATOM     43  C   UNL A   1      40.137  26.711  28.033  1.00  0.00     0.031 C 
ATOM     44  C   UNL A   1      40.931  31.289  29.973  1.00  0.00     0.029 A 
ATOM     45  N   UNL A   1      42.696  29.929  29.799  1.00  0.00    -0.354 N 
ATOM     46  C   UNL A   1      42.262  25.902  28.280  1.00  0.00     0.074 A 
ATOM     47  C   UNL A   1      40.889  25.626  27.915  1.00  0.00     0.031 C 
ATOM     48  C   UNL A   1      41.998  31.951  30.447  1.00  0.00     0.029 A 
ATOM     49  C   UNL A   1      43.171  31.086  30.371  1.00  0.00     0.049 A 
ATOM     50  H   UNL A   1      43.268  29.150  29.606  1.00  0.00     0.167 HD
ATOM     51  C   UNL A   1      43.278  25.015  28.157  1.00  0.00     0.037 A 
ATOM     52  C   UNL A   1      44.408  31.410  30.793  1.00  0.00     0.037 A 
ATOM     53  C   UNL A   1      44.647  25.306  28.491  1.00  0.00     0.049 A 
ATOM     54  C   UNL A   1      45.521  30.408  30.639  1.00  0.00     0.074 A 
ATOM     55  C   UNL A   1      45.761  24.498  28.337  1.00  0.00     0.029 A 
ATOM     56  N   UNL A   1      45.092  26.497  29.045  1.00  0.00    -0.354 N 
ATOM     57  N   UNL A   1      45.474  29.195  30.145  1.00  0.00    -0.248 NA
ATOM     58  C   UNL A   1      46.855  30.822  31.097  1.00  0.00     0.031 C 
ATOM     59  C   UNL A   1      46.872  25.185  28.838  1.00  0.00     0.029 A 
ATOM     60  C   UNL A   1      46.460  26.439  29.259  1.00  0.00     0.049 A 
ATOM     61  H   UNL A   1      44.521  27.270  29.256  1.00  0.00     0.167 HD
ATOM     62  C   UNL A   1      46.777  28.711  30.203  1.00  0.00     0.074 A 
ATOM     63  C   UNL A   1      47.589  29.766  30.774  1.00  0.00     0.031 C 
ATOM     64  C   UNL A   1      47.256  27.502  29.818  1.00  0.00     0.037 A 
BRANCH  51  65
ATOM     65  C   UNL A   1      42.948  23.643  27.634  1.00  0.00     0.058 A 
ATOM     66  C   UNL A   1      43.056  23.329  26.270  1.00  0.00     0.135 A 
ATOM     67  C   UNL A   1      42.559  22.619  28.512  1.00  0.00     0.135 A 
ATOM     68  F   UNL A   1      43.408  24.274  25.384  1.00  0.00    -0.206 F 
ATOM     69  C   UNL A   1      42.761  22.057  25.790  1.00  0.00     0.059 A 
ATOM     70  C   UNL A   1      42.287  21.331  28.059  1.00  0.00     0.059 A 
ATOM     71  F   UNL A   1      42.440  22.864  29.827  1.00  0.00    -0.206 F 
ATOM     72  C   UNL A   1      42.378  21.064  26.694  1.00  0.00     0.060 A 
BRANCH  72  73
ATOM     73  S   UNL A   1      42.009  19.416  26.056  1.00  0.00     0.124 S 
ATOM     74  O   UNL A   1      42.823  19.383  24.847  1.00  0.00    -0.237 OA
ATOM     75  O   UNL A   1      42.455  18.552  27.145  1.00  0.00    -0.237 OA
ATOM     76  O   UNL A   1      40.565  19.450  25.840  1.00  0.00    -0.744 OA
ENDBRANCH  72  73
ENDBRANCH  51  65
BRANCH  52  77
ATOM     77  C   UNL A   1      44.668  32.753  31.378  1.00  0.00     0.058 A 
ATOM     78  C   UNL A   1      44.972  33.848  30.555  1.00  0.00     0.135 A 
ATOM     79  C   UNL A   1      44.614  32.970  32.763  1.00  0.00     0.135 A 
ATOM     80  F   UNL A   1      45.041  33.689  29.225  1.00  0.00    -0.206 F 
ATOM     81  C   UNL A   1      45.232  35.108  31.085  1.00  0.00     0.059 A 
ATOM     82  C   UNL A   1      44.845  34.227  33.315  1.00  0.00     0.059 A 
ATOM     83  F   UNL A   1      44.311  31.959  33.592  1.00  0.00    -0.206 F 
ATOM     84  C   UNL A   1      45.165  35.288  32.468  1.00  0.00     0.060 A 
BRANCH  84  85
ATOM     85  S   UNL A   1      45.460  36.936  33.143  1.00  0.00     0.124 S 
ATOM     86  O   UNL A   1      44.157  37.565  32.961  1.00  0.00    -0.237 OA
ATOM     87  O   UNL A   1      45.841  36.641  34.522  1.00  0.00    -0.237 OA
ATOM     88  O   UNL A   1      46.536  37.454  32.303  1.00  0.00    -0.744 OA
ENDBRANCH  84  85
ENDBRANCH  52  77
BRANCH  64  89
ATOM     89  C   UNL A   1      48.734  27.265  29.964  1.00  0.00     0.058 A 
ATOM     90  C   UNL A   1      49.640  27.603  28.947  1.00  0.00     0.135 A 
ATOM     91  C   UNL A   1      49.254  26.743  31.160  1.00  0.00     0.135 A 
ATOM     92  F   UNL A   1      49.194  28.099  27.782  1.00  0.00    -0.206 F 
ATOM     93  C   UNL A   1      51.009  27.411  29.102  1.00  0.00     0.059 A 
ATOM     94  C   UNL A   1      50.621  26.568  31.346  1.00  0.00     0.059 A 
ATOM     95  F   UNL A   1      48.430  26.413  32.167  1.00  0.00    -0.206 F 
ATOM     96  C   UNL A   1      51.490  26.895  30.307  1.00  0.00     0.060 A 
BRANCH  96  97
ATOM     97  S   UNL A   1      53.272  26.684  30.510  1.00  0.00     0.124 S 
ATOM     98  O   UNL A   1      53.330  25.591  31.475  1.00  0.00    -0.237 OA
ATOM     99  O   UNL A   1      53.705  26.356  29.154  1.00  0.00    -0.237 OA
ATOM    100  O   UNL A   1      53.714  27.984  31.004  1.00  0.00    -0.744 OA
ENDBRANCH  96  97
ENDBRANCH  64  89
ENDBRANCH  38  39
ENDBRANCH  30  33
ENDBRANCH  28  29
ENDBRANCH  27  28
ENDBRANCH   1  27
TORSDOF 18
ENDMDL
