MODEL 1
REMARK VINA RESULT:     -12.5      0.000      0.000
REMARK SMILES COc1cc(/C=C2/CCc3cc(OC(C)(C)C(=O)NCCCCNC(=O)c4ccc(-c5c6nc(c(-c7c(F)cc(S(=O)(=O)[O-])cc7F)c7ccc([nH]7)c(-c7c(F)cc(S(=O)(=O)[O-])cc7F)c7nc(c(-c8c(F)cc(S(=O)(=O)[O-])cc8F)c8ccc5[nH]8)C=C7)C=C6)cc4)ccc3C2=O)cc(OC)c1O
REMARK SMILES IDX 21 1 20 2 19 3 17 4 18 5 14 7 15 8 16 9 13 10 12 11 6 12
REMARK SMILES IDX 7 13 8 14 96 15 9 16 95 17 97 18 10 19 94 20 11 21 93 22
REMARK SMILES IDX 5 23 3 24 4 25 102 26 99 27 98 28 2 29 1 30 103 31 100 33
REMARK SMILES IDX 101 34 22 35 23 36 24 37 25 38 26 40 27 41 28 42 92 43 29 44
REMARK SMILES IDX 91 45 30 46 31 47 32 48 85 49 33 50 90 51 84 52 86 53 34 54
REMARK SMILES IDX 89 55 83 56 82 57 35 59 69 60 48 61 68 62 49 63 52 64 67 65
REMARK SMILES IDX 87 66 50 67 51 68 66 70 88 71 53 72 36 73 37 74 46 75 38 76
REMARK SMILES IDX 39 77 45 78 47 79 40 80 41 81 42 82 43 83 44 84 70 85 71 86
REMARK SMILES IDX 80 87 72 88 73 89 79 90 81 91 74 92 75 93 76 94 77 95 78 96
REMARK SMILES IDX 54 97 55 98 64 99 56 100 57 101 63 102 65 103 58 104 59 105
REMARK SMILES IDX 60 106 61 107 62 108
REMARK H PARENT 19 6 103 32 24 39 86 58 52 69
REMARK Flexibility Score: inf
ROOT
ATOM      1  C   UNL A   1      35.666  31.823  27.899  1.00  0.00     0.023 C 
ENDROOT
BRANCH   1   2
ATOM      2  C   UNL A   1      34.439  30.923  28.029  1.00  0.00     0.116 C 
BRANCH   2   3
ATOM      3  N   UNL A   1      33.252  31.494  27.410  1.00  0.00    -0.353 N 
ATOM      4  C   UNL A   1      32.237  30.913  26.691  1.00  0.00     0.263 C 
ATOM      5  O   UNL A   1      31.323  31.662  26.333  1.00  0.00    -0.270 OA
ATOM      6  H   UNL A   1      33.162  32.467  27.527  1.00  0.00     0.163 HD
BRANCH   4   7
ATOM      7  C   UNL A   1      32.233  29.382  26.366  1.00  0.00     0.181 C 
ATOM      8  C   UNL A   1      31.927  28.638  27.688  1.00  0.00     0.067 C 
ATOM      9  C   UNL A   1      33.573  29.021  25.703  1.00  0.00     0.067 C 
BRANCH   7  10
ATOM     10  O   UNL A   1      31.198  29.178  25.359  1.00  0.00    -0.478 OA
BRANCH  10  11
ATOM     11  C   UNL A   1      31.116  27.962  24.736  1.00  0.00     0.121 A 
ATOM     12  C   UNL A   1      33.522  22.838  22.699  1.00  0.00     0.016 C 
ATOM     13  C   UNL A   1      32.655  23.843  22.468  1.00  0.00     0.001 C 
ATOM     14  C   UNL A   1      32.999  24.951  21.502  1.00  0.00     0.044 C 
ATOM     15  C   UNL A   1      31.386  23.995  23.255  1.00  0.00     0.189 C 
ATOM     16  C   UNL A   1      32.020  26.130  21.516  1.00  0.00     0.041 C 
ATOM     17  C   UNL A   1      31.149  25.373  23.733  1.00  0.00     0.026 A 
ATOM     18  O   UNL A   1      30.624  23.076  23.510  1.00  0.00    -0.289 OA
ATOM     19  C   UNL A   1      31.557  26.431  22.914  1.00  0.00    -0.033 A 
ATOM     20  C   UNL A   1      30.637  25.602  25.011  1.00  0.00     0.016 A 
ATOM     21  C   UNL A   1      31.510  27.734  23.414  1.00  0.00     0.051 A 
ATOM     22  C   UNL A   1      30.625  26.907  25.510  1.00  0.00     0.047 A 
BRANCH  12  23
ATOM     23  C   UNL A   1      33.441  21.793  23.730  1.00  0.00    -0.018 A 
ATOM     24  C   UNL A   1      33.710  21.133  26.032  1.00  0.00     0.165 A 
ATOM     25  C   UNL A   1      33.827  22.100  25.036  1.00  0.00     0.058 A 
ATOM     26  C   UNL A   1      33.178  19.869  25.758  1.00  0.00     0.200 A 
ATOM     27  C   UNL A   1      32.801  19.544  24.456  1.00  0.00     0.165 A 
ATOM     28  C   UNL A   1      32.903  20.524  23.459  1.00  0.00     0.058 A 
BRANCH  24  29
ATOM     29  O   UNL A   1      34.065  21.446  27.320  1.00  0.00    -0.493 OA
ATOM     30  C   UNL A   1      33.129  22.377  27.877  1.00  0.00     0.278 C 
ENDBRANCH  24  29
BRANCH  26  31
ATOM     31  O   UNL A   1      33.008  18.995  26.798  1.00  0.00    -0.502 OA
ATOM     32  H   UNL A   1      33.546  18.230  26.860  1.00  0.00     0.293 HD
ENDBRANCH  26  31
BRANCH  27  33
ATOM     33  O   UNL A   1      32.270  18.355  24.033  1.00  0.00    -0.493 OA
ATOM     34  C   UNL A   1      32.223  18.183  22.620  1.00  0.00     0.278 C 
ENDBRANCH  27  33
ENDBRANCH  12  23
ENDBRANCH  10  11
ENDBRANCH   7  10
ENDBRANCH   4   7
ENDBRANCH   2   3
ENDBRANCH   1   2
BRANCH   1  35
ATOM     35  C   UNL A   1      35.887  32.791  29.061  1.00  0.00     0.023 C 
BRANCH  35  36
ATOM     36  C   UNL A   1      36.987  32.403  30.047  1.00  0.00     0.116 C 
BRANCH  36  37
ATOM     37  N   UNL A   1      36.521  31.568  31.146  1.00  0.00    -0.352 N 
ATOM     38  C   UNL A   1      37.025  30.356  31.563  1.00  0.00     0.251 C 
ATOM     39  H   UNL A   1      35.752  31.912  31.654  1.00  0.00     0.163 HD
ATOM     40  O   UNL A   1      36.483  29.734  32.469  1.00  0.00    -0.269 OA
BRANCH  38  41
ATOM     41  C   UNL A   1      38.199  29.797  30.866  1.00  0.00     0.039 A 
ATOM     42  C   UNL A   1      38.194  29.763  29.468  1.00  0.00     0.014 A 
ATOM     43  C   UNL A   1      39.320  29.381  31.589  1.00  0.00     0.014 A 
ATOM     44  C   UNL A   1      39.358  29.400  28.787  1.00  0.00     0.010 A 
ATOM     45  C   UNL A   1      40.486  29.046  30.908  1.00  0.00     0.010 A 
ATOM     46  C   UNL A   1      40.521  29.085  29.505  1.00  0.00    -0.014 A 
BRANCH  46  47
ATOM     47  C   UNL A   1      41.814  28.861  28.820  1.00  0.00     0.031 A 
ATOM     48  C   UNL A   1      42.139  27.519  28.242  1.00  0.00     0.074 A 
ATOM     49  C   UNL A   1      42.736  29.842  28.819  1.00  0.00     0.049 A 
ATOM     50  N   UNL A   1      43.290  27.062  27.827  1.00  0.00    -0.248 NA
ATOM     51  C   UNL A   1      41.030  26.561  28.143  1.00  0.00     0.031 C 
ATOM     52  C   UNL A   1      42.547  31.184  29.372  1.00  0.00     0.029 A 
ATOM     53  N   UNL A   1      44.026  29.850  28.354  1.00  0.00    -0.354 N 
ATOM     54  C   UNL A   1      43.063  25.740  27.475  1.00  0.00     0.074 A 
ATOM     55  C   UNL A   1      41.652  25.482  27.687  1.00  0.00     0.031 C 
ATOM     56  C   UNL A   1      43.680  31.887  29.213  1.00  0.00     0.029 A 
ATOM     57  C   UNL A   1      44.681  31.036  28.577  1.00  0.00     0.049 A 
ATOM     58  H   UNL A   1      44.442  29.080  27.905  1.00  0.00     0.167 HD
ATOM     59  C   UNL A   1      43.956  24.819  27.042  1.00  0.00     0.037 A 
ATOM     60  C   UNL A   1      45.953  31.390  28.316  1.00  0.00     0.037 A 
ATOM     61  C   UNL A   1      45.349  25.084  26.803  1.00  0.00     0.049 A 
ATOM     62  C   UNL A   1      46.890  30.392  27.708  1.00  0.00     0.074 A 
ATOM     63  C   UNL A   1      46.345  24.207  26.412  1.00  0.00     0.029 A 
ATOM     64  N   UNL A   1      45.937  26.335  26.909  1.00  0.00    -0.354 N 
ATOM     65  N   UNL A   1      46.676  29.127  27.439  1.00  0.00    -0.248 NA
ATOM     66  C   UNL A   1      48.238  30.865  27.368  1.00  0.00     0.031 C 
ATOM     67  C   UNL A   1      47.535  24.934  26.263  1.00  0.00     0.029 A 
ATOM     68  C   UNL A   1      47.275  26.263  26.560  1.00  0.00     0.049 A 
ATOM     69  H   UNL A   1      45.472  27.156  27.190  1.00  0.00     0.167 HD
ATOM     70  C   UNL A   1      47.868  28.646  26.914  1.00  0.00     0.074 A 
ATOM     71  C   UNL A   1      48.792  29.762  26.881  1.00  0.00     0.031 C 
ATOM     72  C   UNL A   1      48.172  27.388  26.514  1.00  0.00     0.037 A 
BRANCH  59  73
ATOM     73  C   UNL A   1      43.436  23.429  26.850  1.00  0.00     0.058 A 
ATOM     74  C   UNL A   1      43.110  22.613  27.945  1.00  0.00     0.135 A 
ATOM     75  C   UNL A   1      43.311  22.893  25.559  1.00  0.00     0.135 A 
ATOM     76  F   UNL A   1      43.239  23.079  29.197  1.00  0.00    -0.206 F 
ATOM     77  C   UNL A   1      42.703  21.295  27.765  1.00  0.00     0.059 A 
ATOM     78  C   UNL A   1      42.900  21.580  25.357  1.00  0.00     0.059 A 
ATOM     79  F   UNL A   1      43.625  23.635  24.485  1.00  0.00    -0.206 F 
ATOM     80  C   UNL A   1      42.619  20.783  26.468  1.00  0.00     0.060 A 
BRANCH  80  81
ATOM     81  S   UNL A   1      42.149  19.058  26.211  1.00  0.00     0.124 S 
ATOM     82  O   UNL A   1      40.741  19.196  25.849  1.00  0.00    -0.237 OA
ATOM     83  O   UNL A   1      43.037  18.630  25.135  1.00  0.00    -0.237 OA
ATOM     84  O   UNL A   1      42.411  18.453  27.513  1.00  0.00    -0.744 OA
ENDBRANCH  80  81
ENDBRANCH  59  73
BRANCH  60  85
ATOM     85  C   UNL A   1      46.401  32.763  28.642  1.00  0.00     0.058 A 
ATOM     86  C   UNL A   1      47.041  33.031  29.861  1.00  0.00     0.135 A 
ATOM     87  C   UNL A   1      46.265  33.808  27.719  1.00  0.00     0.135 A 
ATOM     88  F   UNL A   1      47.193  32.054  30.769  1.00  0.00    -0.206 F 
ATOM     89  C   UNL A   1      47.541  34.294  30.153  1.00  0.00     0.059 A 
ATOM     90  C   UNL A   1      46.763  35.079  27.987  1.00  0.00     0.059 A 
ATOM     91  F   UNL A   1      45.673  33.588  26.535  1.00  0.00    -0.206 F 
ATOM     92  C   UNL A   1      47.401  35.312  29.207  1.00  0.00     0.060 A 
BRANCH  92  93
ATOM     93  S   UNL A   1      48.135  36.932  29.527  1.00  0.00     0.124 S 
ATOM     94  O   UNL A   1      48.057  37.553  28.211  1.00  0.00    -0.237 OA
ATOM     95  O   UNL A   1      47.252  37.491  30.549  1.00  0.00    -0.237 OA
ATOM     96  O   UNL A   1      49.474  36.588  29.994  1.00  0.00    -0.744 OA
ENDBRANCH  92  93
ENDBRANCH  60  85
BRANCH  72  97
ATOM     97  C   UNL A   1      49.558  27.159  25.997  1.00  0.00     0.058 A 
ATOM     98  C   UNL A   1      49.838  27.244  24.625  1.00  0.00     0.135 A 
ATOM     99  C   UNL A   1      50.614  26.883  26.876  1.00  0.00     0.135 A 
ATOM    100  F   UNL A   1      48.854  27.502  23.750  1.00  0.00    -0.206 F 
ATOM    101  C   UNL A   1      51.128  27.058  24.139  1.00  0.00     0.059 A 
ATOM    102  C   UNL A   1      51.912  26.695  26.411  1.00  0.00     0.059 A 
ATOM    103  F   UNL A   1      50.388  26.786  28.196  1.00  0.00    -0.206 F 
ATOM    104  C   UNL A   1      52.157  26.778  25.039  1.00  0.00     0.060 A 
BRANCH 104 105
ATOM    105  S   UNL A   1      53.841  26.564  24.420  1.00  0.00     0.124 S 
ATOM    106  O   UNL A   1      54.597  27.425  25.323  1.00  0.00    -0.237 OA
ATOM    107  O   UNL A   1      54.064  25.129  24.577  1.00  0.00    -0.237 OA
ATOM    108  O   UNL A   1      53.745  27.026  23.038  1.00  0.00    -0.744 OA
ENDBRANCH 104 105
ENDBRANCH  72  97
ENDBRANCH  46  47
ENDBRANCH  38  41
ENDBRANCH  36  37
ENDBRANCH  35  36
ENDBRANCH   1  35
TORSDOF 20
ENDMDL
MODEL 2
REMARK VINA RESULT:     -12.3      6.018     11.937
REMARK SMILES COc1cc(/C=C2/CCc3cc(OC(C)(C)C(=O)NCCCCNC(=O)c4ccc(-c5c6nc(c(-c7c(F)cc(S(=O)(=O)[O-])cc7F)c7ccc([nH]7)c(-c7c(F)cc(S(=O)(=O)[O-])cc7F)c7nc(c(-c8c(F)cc(S(=O)(=O)[O-])cc8F)c8ccc5[nH]8)C=C7)C=C6)cc4)ccc3C2=O)cc(OC)c1O
REMARK SMILES IDX 21 1 20 2 19 3 17 4 18 5 14 7 15 8 16 9 13 10 12 11 6 12
REMARK SMILES IDX 7 13 8 14 96 15 9 16 95 17 97 18 10 19 94 20 11 21 93 22
REMARK SMILES IDX 5 23 3 24 4 25 102 26 99 27 98 28 2 29 1 30 103 31 100 33
REMARK SMILES IDX 101 34 22 35 23 36 24 37 25 38 26 40 27 41 28 42 92 43 29 44
REMARK SMILES IDX 91 45 30 46 31 47 32 48 85 49 33 50 90 51 84 52 86 53 34 54
REMARK SMILES IDX 89 55 83 56 82 57 35 59 69 60 48 61 68 62 49 63 52 64 67 65
REMARK SMILES IDX 87 66 50 67 51 68 66 70 88 71 53 72 36 73 37 74 46 75 38 76
REMARK SMILES IDX 39 77 45 78 47 79 40 80 41 81 42 82 43 83 44 84 70 85 71 86
REMARK SMILES IDX 80 87 72 88 73 89 79 90 81 91 74 92 75 93 76 94 77 95 78 96
REMARK SMILES IDX 54 97 55 98 64 99 56 100 57 101 63 102 65 103 58 104 59 105
REMARK SMILES IDX 60 106 61 107 62 108
REMARK H PARENT 19 6 103 32 24 39 86 58 52 69
REMARK Flexibility Score: inf
ROOT
ATOM      1  C   UNL A   1      40.433  22.319  27.191  1.00  0.00     0.023 C 
ENDROOT
BRANCH   1   2
ATOM      2  C   UNL A   1      39.219  22.439  26.273  1.00  0.00     0.116 C 
BRANCH   2   3
ATOM      3  N   UNL A   1      38.785  21.156  25.741  1.00  0.00    -0.353 N 
ATOM      4  C   UNL A   1      37.628  20.784  25.102  1.00  0.00     0.263 C 
ATOM      5  O   UNL A   1      37.571  19.613  24.714  1.00  0.00    -0.270 OA
ATOM      6  H   UNL A   1      39.435  20.426  25.863  1.00  0.00     0.163 HD
BRANCH   4   7
ATOM      7  C   UNL A   1      36.462  21.799  24.861  1.00  0.00     0.181 C 
ATOM      8  C   UNL A   1      36.835  22.632  23.612  1.00  0.00     0.067 C 
ATOM      9  C   UNL A   1      36.245  22.608  26.150  1.00  0.00     0.067 C 
BRANCH   7  10
ATOM     10  O   UNL A   1      35.258  21.000  24.658  1.00  0.00    -0.478 OA
BRANCH  10  11
ATOM     11  C   UNL A   1      34.058  21.643  24.517  1.00  0.00     0.121 A 
ATOM     12  C   UNL A   1      30.373  26.316  25.394  1.00  0.00     0.016 C 
ATOM     13  C   UNL A   1      30.499  24.976  25.354  1.00  0.00     0.001 C 
ATOM     14  C   UNL A   1      30.560  24.169  26.628  1.00  0.00     0.044 C 
ATOM     15  C   UNL A   1      30.730  24.238  24.068  1.00  0.00     0.189 C 
ATOM     16  C   UNL A   1      30.929  22.694  26.427  1.00  0.00     0.041 C 
ATOM     17  C   UNL A   1      31.811  23.232  24.150  1.00  0.00     0.026 A 
ATOM     18  O   UNL A   1      30.116  24.451  23.035  1.00  0.00    -0.289 OA
ATOM     19  C   UNL A   1      31.972  22.541  25.356  1.00  0.00    -0.033 A 
ATOM     20  C   UNL A   1      32.707  23.066  23.094  1.00  0.00     0.016 A 
ATOM     21  C   UNL A   1      33.090  21.720  25.522  1.00  0.00     0.051 A 
ATOM     22  C   UNL A   1      33.836  22.266  23.285  1.00  0.00     0.047 A 
BRANCH  12  23
ATOM     23  C   UNL A   1      30.485  27.270  24.280  1.00  0.00    -0.018 A 
ATOM     24  C   UNL A   1      29.410  28.646  22.620  1.00  0.00     0.165 A 
ATOM     25  C   UNL A   1      29.321  27.705  23.644  1.00  0.00     0.058 A 
ATOM     26  C   UNL A   1      30.640  29.193  22.240  1.00  0.00     0.200 A 
ATOM     27  C   UNL A   1      31.810  28.758  22.858  1.00  0.00     0.165 A 
ATOM     28  C   UNL A   1      31.718  27.824  23.900  1.00  0.00     0.058 A 
BRANCH  24  29
ATOM     29  O   UNL A   1      28.262  29.092  22.013  1.00  0.00    -0.493 OA
ATOM     30  C   UNL A   1      27.294  29.462  23.003  1.00  0.00     0.278 C 
ENDBRANCH  24  29
BRANCH  26  31
ATOM     31  O   UNL A   1      30.648  30.177  21.288  1.00  0.00    -0.502 OA
ATOM     32  H   UNL A   1      29.942  30.243  20.677  1.00  0.00     0.293 HD
ENDBRANCH  26  31
BRANCH  27  33
ATOM     33  O   UNL A   1      33.082  29.193  22.596  1.00  0.00    -0.493 OA
ATOM     34  C   UNL A   1      34.000  28.178  22.202  1.00  0.00     0.278 C 
ENDBRANCH  27  33
ENDBRANCH  12  23
ENDBRANCH  10  11
ENDBRANCH   7  10
ENDBRANCH   4   7
ENDBRANCH   2   3
ENDBRANCH   1   2
BRANCH   1  35
ATOM     35  C   UNL A   1      41.735  22.879  26.620  1.00  0.00     0.023 C 
BRANCH  35  36
ATOM     36  C   UNL A   1      41.711  24.360  26.243  1.00  0.00     0.116 C 
BRANCH  36  37
ATOM     37  N   UNL A   1      43.023  24.904  25.917  1.00  0.00    -0.352 N 
ATOM     38  C   UNL A   1      43.637  26.014  26.451  1.00  0.00     0.251 C 
ATOM     39  H   UNL A   1      43.533  24.417  25.231  1.00  0.00     0.163 HD
ATOM     40  O   UNL A   1      44.724  26.390  26.027  1.00  0.00    -0.269 OA
BRANCH  38  41
ATOM     41  C   UNL A   1      42.941  26.772  27.508  1.00  0.00     0.039 A 
ATOM     42  C   UNL A   1      42.236  26.064  28.486  1.00  0.00     0.014 A 
ATOM     43  C   UNL A   1      43.051  28.164  27.570  1.00  0.00     0.014 A 
ATOM     44  C   UNL A   1      41.717  26.747  29.587  1.00  0.00     0.010 A 
ATOM     45  C   UNL A   1      42.557  28.838  28.682  1.00  0.00     0.010 A 
ATOM     46  C   UNL A   1      41.916  28.131  29.711  1.00  0.00    -0.014 A 
BRANCH  46  47
ATOM     47  C   UNL A   1      41.531  28.858  30.941  1.00  0.00     0.031 A 
ATOM     48  C   UNL A   1      40.328  29.749  30.945  1.00  0.00     0.074 A 
ATOM     49  C   UNL A   1      42.333  28.796  32.021  1.00  0.00     0.049 A 
ATOM     50  N   UNL A   1      39.971  30.642  31.829  1.00  0.00    -0.248 NA
ATOM     51  C   UNL A   1      39.425  29.639  29.791  1.00  0.00     0.031 C 
ATOM     52  C   UNL A   1      43.546  27.984  32.131  1.00  0.00     0.029 A 
ATOM     53  N   UNL A   1      42.257  29.450  33.224  1.00  0.00    -0.354 N 
ATOM     54  C   UNL A   1      38.837  31.248  31.312  1.00  0.00     0.074 A 
ATOM     55  C   UNL A   1      38.541  30.591  30.054  1.00  0.00     0.031 C 
ATOM     56  C   UNL A   1      44.099  28.185  33.338  1.00  0.00     0.029 A 
ATOM     57  C   UNL A   1      43.300  29.162  34.070  1.00  0.00     0.049 A 
ATOM     58  H   UNL A   1      41.526  30.066  33.458  1.00  0.00     0.167 HD
ATOM     59  C   UNL A   1      38.124  32.279  31.827  1.00  0.00     0.037 A 
ATOM     60  C   UNL A   1      43.589  29.648  35.291  1.00  0.00     0.037 A 
ATOM     61  C   UNL A   1      38.399  32.910  33.089  1.00  0.00     0.049 A 
ATOM     62  C   UNL A   1      42.706  30.692  35.902  1.00  0.00     0.074 A 
ATOM     63  C   UNL A   1      37.767  33.992  33.674  1.00  0.00     0.029 A 
ATOM     64  N   UNL A   1      39.380  32.492  33.975  1.00  0.00    -0.354 N 
ATOM     65  N   UNL A   1      41.671  31.300  35.372  1.00  0.00    -0.248 NA
ATOM     66  C   UNL A   1      43.026  31.119  37.270  1.00  0.00     0.031 C 
ATOM     67  C   UNL A   1      38.357  34.218  34.928  1.00  0.00     0.029 A 
ATOM     68  C   UNL A   1      39.352  33.273  35.118  1.00  0.00     0.049 A 
ATOM     69  H   UNL A   1      40.006  31.749  33.816  1.00  0.00     0.167 HD
ATOM     70  C   UNL A   1      41.226  32.194  36.337  1.00  0.00     0.074 A 
ATOM     71  C   UNL A   1      42.088  32.032  37.491  1.00  0.00     0.031 C 
ATOM     72  C   UNL A   1      40.205  33.082  36.263  1.00  0.00     0.037 A 
BRANCH  59  73
ATOM     73  C   UNL A   1      37.006  32.801  30.980  1.00  0.00     0.058 A 
ATOM     74  C   UNL A   1      37.244  33.703  29.932  1.00  0.00     0.135 A 
ATOM     75  C   UNL A   1      35.680  32.433  31.255  1.00  0.00     0.135 A 
ATOM     76  F   UNL A   1      38.495  34.099  29.651  1.00  0.00    -0.206 F 
ATOM     77  C   UNL A   1      36.194  34.248  29.198  1.00  0.00     0.059 A 
ATOM     78  C   UNL A   1      34.617  32.961  30.531  1.00  0.00     0.059 A 
ATOM     79  F   UNL A   1      35.407  31.583  32.258  1.00  0.00    -0.206 F 
ATOM     80  C   UNL A   1      34.885  33.884  29.518  1.00  0.00     0.060 A 
BRANCH  80  81
ATOM     81  S   UNL A   1      33.501  34.622  28.619  1.00  0.00     0.124 S 
ATOM     82  O   UNL A   1      32.586  34.937  29.711  1.00  0.00    -0.237 OA
ATOM     83  O   UNL A   1      34.112  35.770  27.957  1.00  0.00    -0.237 OA
ATOM     84  O   UNL A   1      33.080  33.542  27.731  1.00  0.00    -0.744 OA
ENDBRANCH  80  81
ENDBRANCH  59  73
BRANCH  60  85
ATOM     85  C   UNL A   1      44.783  29.141  36.005  1.00  0.00     0.058 A 
ATOM     86  C   UNL A   1      46.012  29.808  35.899  1.00  0.00     0.135 A 
ATOM     87  C   UNL A   1      44.700  28.031  36.858  1.00  0.00     0.135 A 
ATOM     88  F   UNL A   1      46.129  30.876  35.095  1.00  0.00    -0.206 F 
ATOM     89  C   UNL A   1      47.124  29.396  36.624  1.00  0.00     0.059 A 
ATOM     90  C   UNL A   1      45.798  27.605  37.597  1.00  0.00     0.059 A 
ATOM     91  F   UNL A   1      43.537  27.376  36.999  1.00  0.00    -0.206 F 
ATOM     92  C   UNL A   1      47.006  28.295  37.474  1.00  0.00     0.060 A 
BRANCH  92  93
ATOM     93  S   UNL A   1      48.412  27.808  38.500  1.00  0.00     0.124 S 
ATOM     94  O   UNL A   1      49.059  26.812  37.656  1.00  0.00    -0.237 OA
ATOM     95  O   UNL A   1      49.136  29.065  38.674  1.00  0.00    -0.237 OA
ATOM     96  O   UNL A   1      47.765  27.301  39.706  1.00  0.00    -0.744 OA
ENDBRANCH  92  93
ENDBRANCH  60  85
BRANCH  72  97
ATOM     97  C   UNL A   1      39.962  33.936  37.468  1.00  0.00     0.058 A 
ATOM     98  C   UNL A   1      39.004  33.574  38.426  1.00  0.00     0.135 A 
ATOM     99  C   UNL A   1      40.709  35.104  37.681  1.00  0.00     0.135 A 
ATOM    100  F   UNL A   1      38.267  32.466  38.258  1.00  0.00    -0.206 F 
ATOM    101  C   UNL A   1      38.791  34.347  39.562  1.00  0.00     0.059 A 
ATOM    102  C   UNL A   1      40.512  35.891  38.811  1.00  0.00     0.059 A 
ATOM    103  F   UNL A   1      41.631  35.490  36.785  1.00  0.00    -0.206 F 
ATOM    104  C   UNL A   1      39.545  35.508  39.743  1.00  0.00     0.060 A 
BRANCH 104 105
ATOM    105  S   UNL A   1      39.296  36.504  41.229  1.00  0.00     0.124 S 
ATOM    106  O   UNL A   1      38.708  37.718  40.673  1.00  0.00    -0.237 OA
ATOM    107  O   UNL A   1      38.398  35.674  42.029  1.00  0.00    -0.237 OA
ATOM    108  O   UNL A   1      40.647  36.642  41.764  1.00  0.00    -0.744 OA
ENDBRANCH 104 105
ENDBRANCH  72  97
ENDBRANCH  46  47
ENDBRANCH  38  41
ENDBRANCH  36  37
ENDBRANCH  35  36
ENDBRANCH   1  35
TORSDOF 20
ENDMDL
MODEL 3
REMARK VINA RESULT:     -11.9      5.617     11.181
REMARK SMILES COc1cc(/C=C2/CCc3cc(OC(C)(C)C(=O)NCCCCNC(=O)c4ccc(-c5c6nc(c(-c7c(F)cc(S(=O)(=O)[O-])cc7F)c7ccc([nH]7)c(-c7c(F)cc(S(=O)(=O)[O-])cc7F)c7nc(c(-c8c(F)cc(S(=O)(=O)[O-])cc8F)c8ccc5[nH]8)C=C7)C=C6)cc4)ccc3C2=O)cc(OC)c1O
REMARK SMILES IDX 21 1 20 2 19 3 17 4 18 5 14 7 15 8 16 9 13 10 12 11 6 12
REMARK SMILES IDX 7 13 8 14 96 15 9 16 95 17 97 18 10 19 94 20 11 21 93 22
REMARK SMILES IDX 5 23 3 24 4 25 102 26 99 27 98 28 2 29 1 30 103 31 100 33
REMARK SMILES IDX 101 34 22 35 23 36 24 37 25 38 26 40 27 41 28 42 92 43 29 44
REMARK SMILES IDX 91 45 30 46 31 47 32 48 85 49 33 50 90 51 84 52 86 53 34 54
REMARK SMILES IDX 89 55 83 56 82 57 35 59 69 60 48 61 68 62 49 63 52 64 67 65
REMARK SMILES IDX 87 66 50 67 51 68 66 70 88 71 53 72 36 73 37 74 46 75 38 76
REMARK SMILES IDX 39 77 45 78 47 79 40 80 41 81 42 82 43 83 44 84 70 85 71 86
REMARK SMILES IDX 80 87 72 88 73 89 79 90 81 91 74 92 75 93 76 94 77 95 78 96
REMARK SMILES IDX 54 97 55 98 64 99 56 100 57 101 63 102 65 103 58 104 59 105
REMARK SMILES IDX 60 106 61 107 62 108
REMARK H PARENT 19 6 103 32 24 39 86 58 52 69
REMARK Flexibility Score: inf
ROOT
ATOM      1  C   UNL A   1      40.435  22.353  27.077  1.00  0.00     0.023 C 
ENDROOT
BRANCH   1   2
ATOM      2  C   UNL A   1      39.187  22.437  26.201  1.00  0.00     0.116 C 
BRANCH   2   3
ATOM      3  N   UNL A   1      38.739  21.135  25.731  1.00  0.00    -0.353 N 
ATOM      4  C   UNL A   1      37.571  20.743  25.123  1.00  0.00     0.263 C 
ATOM      5  O   UNL A   1      37.502  19.557  24.787  1.00  0.00    -0.270 OA
ATOM      6  H   UNL A   1      39.386  20.407  25.875  1.00  0.00     0.163 HD
BRANCH   4   7
ATOM      7  C   UNL A   1      36.408  21.754  24.854  1.00  0.00     0.181 C 
ATOM      8  C   UNL A   1      36.767  22.527  23.563  1.00  0.00     0.067 C 
ATOM      9  C   UNL A   1      36.216  22.622  26.109  1.00  0.00     0.067 C 
BRANCH   7  10
ATOM     10  O   UNL A   1      35.196  20.956  24.706  1.00  0.00    -0.478 OA
BRANCH  10  11
ATOM     11  C   UNL A   1      34.002  21.599  24.522  1.00  0.00     0.121 A 
ATOM     12  C   UNL A   1      30.245  26.220  25.370  1.00  0.00     0.016 C 
ATOM     13  C   UNL A   1      30.381  24.883  25.285  1.00  0.00     0.001 C 
ATOM     14  C   UNL A   1      30.375  24.026  26.527  1.00  0.00     0.044 C 
ATOM     15  C   UNL A   1      30.689  24.197  23.986  1.00  0.00     0.189 C 
ATOM     16  C   UNL A   1      30.763  22.562  26.290  1.00  0.00     0.041 C 
ATOM     17  C   UNL A   1      31.770  23.193  24.090  1.00  0.00     0.026 A 
ATOM     18  O   UNL A   1      30.134  24.449  22.929  1.00  0.00    -0.289 OA
ATOM     19  C   UNL A   1      31.867  22.455  25.276  1.00  0.00    -0.033 A 
ATOM     20  C   UNL A   1      32.725  23.072  23.081  1.00  0.00     0.016 A 
ATOM     21  C   UNL A   1      32.978  21.632  25.473  1.00  0.00     0.051 A 
ATOM     22  C   UNL A   1      33.847  22.269  23.305  1.00  0.00     0.047 A 
BRANCH  12  23
ATOM     23  C   UNL A   1      30.414  27.217  24.303  1.00  0.00    -0.018 A 
ATOM     24  C   UNL A   1      29.429  28.639  22.626  1.00  0.00     0.165 A 
ATOM     25  C   UNL A   1      29.289  27.658  23.606  1.00  0.00     0.058 A 
ATOM     26  C   UNL A   1      30.671  29.219  22.351  1.00  0.00     0.200 A 
ATOM     27  C   UNL A   1      31.805  28.779  23.031  1.00  0.00     0.165 A 
ATOM     28  C   UNL A   1      31.660  27.805  24.028  1.00  0.00     0.058 A 
BRANCH  24  29
ATOM     29  O   UNL A   1      28.317  29.089  21.959  1.00  0.00    -0.493 OA
ATOM     30  C   UNL A   1      27.729  30.187  22.669  1.00  0.00     0.278 C 
ENDBRANCH  24  29
BRANCH  26  31
ATOM     31  O   UNL A   1      30.726  30.239  21.439  1.00  0.00    -0.502 OA
ATOM     32  H   UNL A   1      30.442  30.095  20.558  1.00  0.00     0.293 HD
ENDBRANCH  26  31
BRANCH  27  33
ATOM     33  O   UNL A   1      33.084  29.244  22.872  1.00  0.00    -0.493 OA
ATOM     34  C   UNL A   1      33.979  28.345  22.223  1.00  0.00     0.278 C 
ENDBRANCH  27  33
ENDBRANCH  12  23
ENDBRANCH  10  11
ENDBRANCH   7  10
ENDBRANCH   4   7
ENDBRANCH   2   3
ENDBRANCH   1   2
BRANCH   1  35
ATOM     35  C   UNL A   1      41.649  21.704  26.413  1.00  0.00     0.023 C 
BRANCH  35  36
ATOM     36  C   UNL A   1      42.536  22.640  25.592  1.00  0.00     0.116 C 
BRANCH  36  37
ATOM     37  N   UNL A   1      43.962  22.439  25.813  1.00  0.00    -0.352 N 
ATOM     38  C   UNL A   1      44.801  23.155  26.635  1.00  0.00     0.251 C 
ATOM     39  H   UNL A   1      44.376  21.701  25.312  1.00  0.00     0.163 HD
ATOM     40  O   UNL A   1      46.002  22.910  26.668  1.00  0.00    -0.269 OA
BRANCH  38  41
ATOM     41  C   UNL A   1      44.238  24.257  27.440  1.00  0.00     0.039 A 
ATOM     42  C   UNL A   1      43.573  23.945  28.629  1.00  0.00     0.014 A 
ATOM     43  C   UNL A   1      44.436  25.586  27.057  1.00  0.00     0.014 A 
ATOM     44  C   UNL A   1      43.186  24.975  29.489  1.00  0.00     0.010 A 
ATOM     45  C   UNL A   1      44.073  26.609  27.928  1.00  0.00     0.010 A 
ATOM     46  C   UNL A   1      43.476  26.308  29.162  1.00  0.00    -0.014 A 
BRANCH  46  47
ATOM     47  C   UNL A   1      43.234  27.408  30.122  1.00  0.00     0.031 A 
ATOM     48  C   UNL A   1      44.126  27.581  31.312  1.00  0.00     0.074 A 
ATOM     49  C   UNL A   1      42.143  28.183  29.973  1.00  0.00     0.049 A 
ATOM     50  N   UNL A   1      43.941  28.316  32.375  1.00  0.00    -0.248 NA
ATOM     51  C   UNL A   1      45.374  26.805  31.315  1.00  0.00     0.031 C 
ATOM     52  C   UNL A   1      41.185  28.096  28.870  1.00  0.00     0.029 A 
ATOM     53  N   UNL A   1      41.646  29.181  30.771  1.00  0.00    -0.354 N 
ATOM     54  C   UNL A   1      45.016  28.046  33.208  1.00  0.00     0.074 A 
ATOM     55  C   UNL A   1      45.871  27.110  32.506  1.00  0.00     0.031 C 
ATOM     56  C   UNL A   1      40.216  29.006  29.058  1.00  0.00     0.029 A 
ATOM     57  C   UNL A   1      40.467  29.715  30.310  1.00  0.00     0.049 A 
ATOM     58  H   UNL A   1      42.090  29.485  31.594  1.00  0.00     0.167 HD
ATOM     59  C   UNL A   1      45.252  28.515  34.457  1.00  0.00     0.037 A 
ATOM     60  C   UNL A   1      39.669  30.656  30.845  1.00  0.00     0.037 A 
ATOM     61  C   UNL A   1      44.420  29.467  35.140  1.00  0.00     0.049 A 
ATOM     62  C   UNL A   1      40.025  31.263  32.168  1.00  0.00     0.074 A 
ATOM     63  C   UNL A   1      44.547  29.967  36.424  1.00  0.00     0.029 A 
ATOM     64  N   UNL A   1      43.313  30.086  34.578  1.00  0.00    -0.354 N 
ATOM     65  N   UNL A   1      41.012  30.951  32.972  1.00  0.00    -0.248 NA
ATOM     66  C   UNL A   1      39.161  32.345  32.659  1.00  0.00     0.031 C 
ATOM     67  C   UNL A   1      43.524  30.904  36.632  1.00  0.00     0.029 A 
ATOM     68  C   UNL A   1      42.765  30.986  35.475  1.00  0.00     0.049 A 
ATOM     69  H   UNL A   1      42.968  29.911  33.673  1.00  0.00     0.167 HD
ATOM     70  C   UNL A   1      40.880  31.787  34.073  1.00  0.00     0.074 A 
ATOM     71  C   UNL A   1      39.732  32.634  33.822  1.00  0.00     0.031 C 
ATOM     72  C   UNL A   1      41.634  31.834  35.198  1.00  0.00     0.037 A 
BRANCH  59  73
ATOM     73  C   UNL A   1      46.446  27.953  35.162  1.00  0.00     0.058 A 
ATOM     74  C   UNL A   1      47.706  28.562  35.066  1.00  0.00     0.135 A 
ATOM     75  C   UNL A   1      46.336  26.764  35.900  1.00  0.00     0.135 A 
ATOM     76  F   UNL A   1      47.860  29.687  34.350  1.00  0.00    -0.206 F 
ATOM     77  C   UNL A   1      48.830  27.993  35.657  1.00  0.00     0.059 A 
ATOM     78  C   UNL A   1      47.444  26.181  36.504  1.00  0.00     0.059 A 
ATOM     79  F   UNL A   1      45.151  26.141  36.006  1.00  0.00    -0.206 F 
ATOM     80  C   UNL A   1      48.690  26.793  36.358  1.00  0.00     0.060 A 
BRANCH  80  81
ATOM     81  S   UNL A   1      50.143  26.003  37.086  1.00  0.00     0.124 S 
ATOM     82  O   UNL A   1      51.204  26.490  36.209  1.00  0.00    -0.237 OA
ATOM     83  O   UNL A   1      50.159  26.531  38.446  1.00  0.00    -0.237 OA
ATOM     84  O   UNL A   1      49.831  24.582  36.972  1.00  0.00    -0.744 OA
ENDBRANCH  80  81
ENDBRANCH  59  73
BRANCH  60  85
ATOM     85  C   UNL A   1      38.450  31.070  30.115  1.00  0.00     0.058 A 
ATOM     86  C   UNL A   1      37.288  30.286  30.170  1.00  0.00     0.135 A 
ATOM     87  C   UNL A   1      38.401  32.283  29.415  1.00  0.00     0.135 A 
ATOM     88  F   UNL A   1      37.296  29.119  30.834  1.00  0.00    -0.206 F 
ATOM     89  C   UNL A   1      36.109  30.696  29.560  1.00  0.00     0.059 A 
ATOM     90  C   UNL A   1      37.231  32.716  28.802  1.00  0.00     0.059 A 
ATOM     91  F   UNL A   1      39.487  33.069  29.353  1.00  0.00    -0.206 F 
ATOM     92  C   UNL A   1      36.089  31.915  28.880  1.00  0.00     0.060 A 
BRANCH  92  93
ATOM     93  S   UNL A   1      34.539  32.512  28.167  1.00  0.00     0.124 S 
ATOM     94  O   UNL A   1      35.003  33.619  27.342  1.00  0.00    -0.237 OA
ATOM     95  O   UNL A   1      34.044  31.343  27.445  1.00  0.00    -0.237 OA
ATOM     96  O   UNL A   1      33.764  32.876  29.350  1.00  0.00    -0.744 OA
ENDBRANCH  92  93
ENDBRANCH  60  85
BRANCH  72  97
ATOM     97  C   UNL A   1      41.243  32.841  36.234  1.00  0.00     0.058 A 
ATOM     98  C   UNL A   1      41.979  34.022  36.404  1.00  0.00     0.135 A 
ATOM     99  C   UNL A   1      40.112  32.639  37.038  1.00  0.00     0.135 A 
ATOM    100  F   UNL A   1      43.070  34.251  35.657  1.00  0.00    -0.206 F 
ATOM    101  C   UNL A   1      41.607  34.976  37.346  1.00  0.00     0.059 A 
ATOM    102  C   UNL A   1      39.722  33.580  37.986  1.00  0.00     0.059 A 
ATOM    103  F   UNL A   1      39.384  31.519  36.912  1.00  0.00    -0.206 F 
ATOM    104  C   UNL A   1      40.481  34.743  38.137  1.00  0.00     0.060 A 
BRANCH 104 105
ATOM    105  S   UNL A   1      39.972  35.988  39.343  1.00  0.00     0.124 S 
ATOM    106  O   UNL A   1      41.248  36.341  39.956  1.00  0.00    -0.237 OA
ATOM    107  O   UNL A   1      39.364  37.020  38.506  1.00  0.00    -0.237 OA
ATOM    108  O   UNL A   1      39.040  35.258  40.197  1.00  0.00    -0.744 OA
ENDBRANCH 104 105
ENDBRANCH  72  97
ENDBRANCH  46  47
ENDBRANCH  38  41
ENDBRANCH  36  37
ENDBRANCH  35  36
ENDBRANCH   1  35
TORSDOF 20
ENDMDL
