MODEL 1
REMARK VINA RESULT:     -13.0      0.000      0.000
REMARK SMILES O=C(NCCCCNC(=O)c1ccc(-c2c3nc(c(-c4c(F)cc(S(=O)(=O)[O-])cc4F)c4ccc([nH]4)c(-c4c(F)cc(S(=O)(=O)[O-])cc4F)c4nc(c(-c5c(F)cc(S(=O)(=O)[O-])cc5F)c5ccc2[nH]5)C=C4)C=C3)cc1)C1=Cc2cc(S(F)(F)(F)(F)F)ccc2O[C@@H]1C(F)(F)F
REMARK SMILES IDX 6 1 5 2 4 3 3 4 1 5 2 6 77 8 78 9 92 10 79 11 91 12 80 13
REMARK SMILES IDX 90 14 81 15 89 16 88 17 93 18 94 19 95 20 96 21 82 22 83 23
REMARK SMILES IDX 84 24 85 25 86 26 87 27 7 28 8 29 9 30 10 32 11 33 12 34
REMARK SMILES IDX 76 35 13 36 75 37 14 38 15 39 16 40 69 41 17 42 74 43 68 44
REMARK SMILES IDX 70 45 18 46 73 47 67 48 66 49 19 51 53 52 32 53 52 54 33 55
REMARK SMILES IDX 36 56 51 57 71 58 34 59 35 60 50 62 72 63 37 64 20 65 21 66
REMARK SMILES IDX 30 67 22 68 23 69 29 70 31 71 24 72 25 73 26 74 27 75 28 76
REMARK SMILES IDX 54 77 55 78 64 79 56 80 57 81 63 82 65 83 58 84 59 85 60 86
REMARK SMILES IDX 61 87 62 88 38 89 39 90 48 91 40 92 41 93 47 94 49 95 42 96
REMARK SMILES IDX 43 97 44 98 45 99 46 100
REMARK H PARENT 3 7 8 31 70 50 36 61
REMARK Flexibility Score: inf
ROOT
ATOM      1  C   UNL A   1      34.298  28.132  25.469  1.00  0.00     0.023 C 
ENDROOT
BRANCH   1   2
ATOM      2  C   UNL A   1      33.405  27.122  24.765  1.00  0.00     0.023 C 
BRANCH   2   3
ATOM      3  C   UNL A   1      33.722  25.726  25.274  1.00  0.00     0.116 C 
BRANCH   3   4
ATOM      4  N   UNL A   1      34.118  24.871  24.146  1.00  0.00    -0.352 N 
ATOM      5  O   UNL A   1      33.629  22.979  22.793  1.00  0.00    -0.270 OA
ATOM      6  C   UNL A   1      33.286  23.719  23.769  1.00  0.00     0.251 C 
ATOM      7  H   UNL A   1      34.940  25.070  23.643  1.00  0.00     0.163 HD
BRANCH   6   8
ATOM      8  C   UNL A   1      32.016  23.411  24.546  1.00  0.00     0.067 C 
ATOM      9  C   UNL A   1      31.832  22.178  25.087  1.00  0.00     0.025 C 
ATOM     10  C   UNL A   1      30.953  24.483  24.717  1.00  0.00     0.314 C 
ATOM     11  C   UNL A   1      32.895  21.105  24.916  1.00  0.00     0.019 A 
ATOM     12  O   UNL A   1      34.440  22.837  25.427  1.00  0.00    -0.475 OA
ATOM     13  C   UNL A   1      32.590  19.833  24.461  1.00  0.00     0.036 A 
ATOM     14  C   UNL A   1      34.153  21.481  25.117  1.00  0.00     0.128 A 
ATOM     15  C   UNL A   1      33.675  18.926  24.522  1.00  0.00     0.107 A 
ATOM     16  C   UNL A   1      35.178  20.571  25.027  1.00  0.00     0.048 A 
ATOM     17  C   UNL A   1      34.942  19.281  24.641  1.00  0.00     0.028 A 
BRANCH  10  18
ATOM     18  C   UNL A   1      30.745  24.760  26.198  1.00  0.00     0.429 C 
ATOM     19  F   UNL A   1      29.661  24.116  26.620  1.00  0.00    -0.167 F 
ATOM     20  F   UNL A   1      31.806  24.338  26.880  1.00  0.00    -0.167 F 
ATOM     21  F   UNL A   1      30.587  26.067  26.386  1.00  0.00    -0.167 F 
ENDBRANCH  10  18
BRANCH  15  22
ATOM     22  S   UNL A   1      33.301  17.158  24.433  1.00  0.00     0.310 S 
ATOM     23  F   UNL A   1      34.828  16.748  24.570  1.00  0.00    -0.094 F 
ATOM     24  F   UNL A   1      33.524  17.205  22.875  1.00  0.00    -0.094 F 
ATOM     25  F   UNL A   1      32.964  15.641  24.368  1.00  0.00    -0.094 F 
ATOM     26  F   UNL A   1      33.219  17.099  26.010  1.00  0.00    -0.094 F 
ATOM     27  F   UNL A   1      33.751  18.670  24.528  1.00  0.00    -0.094 F 
ENDBRANCH  15  22
ENDBRANCH   6   8
ENDBRANCH   3   4
ENDBRANCH   2   3
ENDBRANCH   1   2
BRANCH   1  28
ATOM     28  C   UNL A   1      33.968  28.152  26.952  1.00  0.00     0.116 C 
BRANCH  28  29
ATOM     29  N   UNL A   1      33.481  29.486  27.329  1.00  0.00    -0.352 N 
ATOM     30  C   UNL A   1      34.374  30.426  28.024  1.00  0.00     0.251 C 
ATOM     31  H   UNL A   1      32.557  29.751  27.117  1.00  0.00     0.163 HD
ATOM     32  O   UNL A   1      33.952  31.580  28.350  1.00  0.00    -0.269 OA
BRANCH  30  33
ATOM     33  C   UNL A   1      35.800  30.017  28.352  1.00  0.00     0.039 A 
ATOM     34  C   UNL A   1      36.744  30.241  27.363  1.00  0.00     0.014 A 
ATOM     35  C   UNL A   1      36.152  29.570  29.552  1.00  0.00     0.014 A 
ATOM     36  C   UNL A   1      38.014  29.684  27.647  1.00  0.00     0.010 A 
ATOM     37  C   UNL A   1      37.444  29.171  29.798  1.00  0.00     0.010 A 
ATOM     38  C   UNL A   1      38.416  29.308  28.847  1.00  0.00    -0.014 A 
BRANCH  38  39
ATOM     39  C   UNL A   1      39.880  29.042  29.154  1.00  0.00     0.031 A 
ATOM     40  C   UNL A   1      40.666  30.059  29.698  1.00  0.00     0.074 A 
ATOM     41  C   UNL A   1      40.369  27.802  28.780  1.00  0.00     0.049 A 
ATOM     42  N   UNL A   1      41.970  30.019  29.977  1.00  0.00    -0.248 NA
ATOM     43  C   UNL A   1      40.156  31.389  30.065  1.00  0.00     0.031 C 
ATOM     44  C   UNL A   1      39.582  26.767  28.239  1.00  0.00     0.029 A 
ATOM     45  N   UNL A   1      41.667  27.348  28.854  1.00  0.00    -0.354 N 
ATOM     46  C   UNL A   1      42.364  31.180  30.505  1.00  0.00     0.074 A 
ATOM     47  C   UNL A   1      41.205  32.079  30.564  1.00  0.00     0.031 C 
ATOM     48  C   UNL A   1      40.394  25.709  27.980  1.00  0.00     0.029 A 
ATOM     49  C   UNL A   1      41.704  26.064  28.356  1.00  0.00     0.049 A 
ATOM     50  H   UNL A   1      42.438  27.854  29.203  1.00  0.00     0.167 HD
ATOM     51  C   UNL A   1      43.645  31.523  30.942  1.00  0.00     0.037 A 
ATOM     52  C   UNL A   1      42.807  25.235  28.226  1.00  0.00     0.037 A 
ATOM     53  C   UNL A   1      44.739  30.677  30.852  1.00  0.00     0.049 A 
ATOM     54  C   UNL A   1      44.100  25.599  28.609  1.00  0.00     0.074 A 
ATOM     55  C   UNL A   1      46.036  31.004  31.295  1.00  0.00     0.029 A 
ATOM     56  N   UNL A   1      44.780  29.403  30.331  1.00  0.00    -0.354 N 
ATOM     57  N   UNL A   1      44.486  26.745  29.174  1.00  0.00    -0.248 NA
ATOM     58  C   UNL A   1      45.281  24.742  28.447  1.00  0.00     0.031 C 
ATOM     59  C   UNL A   1      46.849  29.946  31.036  1.00  0.00     0.029 A 
ATOM     60  C   UNL A   1      46.074  28.940  30.427  1.00  0.00     0.049 A 
ATOM     61  H   UNL A   1      44.017  28.908  29.956  1.00  0.00     0.167 HD
ATOM     62  C   UNL A   1      45.798  26.719  29.415  1.00  0.00     0.074 A 
ATOM     63  C   UNL A   1      46.330  25.433  28.944  1.00  0.00     0.031 C 
ATOM     64  C   UNL A   1      46.573  27.715  30.012  1.00  0.00     0.037 A 
BRANCH  51  65
ATOM     65  C   UNL A   1      43.851  32.901  31.550  1.00  0.00     0.058 A 
ATOM     66  C   UNL A   1      43.704  33.076  32.916  1.00  0.00     0.135 A 
ATOM     67  C   UNL A   1      44.086  33.929  30.744  1.00  0.00     0.135 A 
ATOM     68  F   UNL A   1      43.722  32.068  33.784  1.00  0.00    -0.206 F 
ATOM     69  C   UNL A   1      43.533  34.426  33.306  1.00  0.00     0.059 A 
ATOM     70  C   UNL A   1      44.036  35.216  31.222  1.00  0.00     0.059 A 
ATOM     71  F   UNL A   1      44.371  33.712  29.464  1.00  0.00    -0.206 F 
ATOM     72  C   UNL A   1      43.836  35.467  32.551  1.00  0.00     0.060 A 
BRANCH  72  73
ATOM     73  S   UNL A   1      43.978  37.134  33.240  1.00  0.00     0.124 S 
ATOM     74  O   UNL A   1      42.742  37.443  34.089  1.00  0.00    -0.237 OA
ATOM     75  O   UNL A   1      45.231  37.221  34.114  1.00  0.00    -0.237 OA
ATOM     76  O   UNL A   1      44.091  38.270  31.966  1.00  0.00    -0.744 OA
ENDBRANCH  72  73
ENDBRANCH  51  65
BRANCH  52  77
ATOM     77  C   UNL A   1      42.598  23.852  27.634  1.00  0.00     0.058 A 
ATOM     78  C   UNL A   1      42.586  23.616  26.269  1.00  0.00     0.135 A 
ATOM     79  C   UNL A   1      42.470  22.857  28.505  1.00  0.00     0.135 A 
ATOM     80  F   UNL A   1      42.958  24.526  25.373  1.00  0.00    -0.206 F 
ATOM     81  C   UNL A   1      42.140  22.322  25.914  1.00  0.00     0.059 A 
ATOM     82  C   UNL A   1      42.167  21.587  28.076  1.00  0.00     0.059 A 
ATOM     83  F   UNL A   1      42.636  23.093  29.803  1.00  0.00    -0.206 F 
ATOM     84  C   UNL A   1      42.081  21.296  26.744  1.00  0.00     0.060 A 
BRANCH  84  85
ATOM     85  S   UNL A   1      41.896  19.597  26.149  1.00  0.00     0.124 S 
ATOM     86  O   UNL A   1      40.426  19.329  25.820  1.00  0.00    -0.237 OA
ATOM     87  O   UNL A   1      42.744  19.402  24.888  1.00  0.00    -0.237 OA
ATOM     88  O   UNL A   1      42.418  18.508  27.360  1.00  0.00    -0.744 OA
ENDBRANCH  84  85
ENDBRANCH  52  77
BRANCH  64  89
ATOM     89  C   UNL A   1      48.054  27.440  30.218  1.00  0.00     0.058 A 
ATOM     90  C   UNL A   1      48.928  27.845  29.222  1.00  0.00     0.135 A 
ATOM     91  C   UNL A   1      48.497  26.894  31.345  1.00  0.00     0.135 A 
ATOM     92  F   UNL A   1      48.561  28.614  28.203  1.00  0.00    -0.206 F 
ATOM     93  C   UNL A   1      50.249  27.364  29.390  1.00  0.00     0.059 A 
ATOM     94  C   UNL A   1      49.825  26.575  31.491  1.00  0.00     0.059 A 
ATOM     95  F   UNL A   1      47.648  26.656  32.340  1.00  0.00    -0.206 F 
ATOM     96  C   UNL A   1      50.736  26.892  30.522  1.00  0.00     0.060 A 
BRANCH  96  97
ATOM     97  S   UNL A   1      52.515  26.676  30.778  1.00  0.00     0.124 S 
ATOM     98  O   UNL A   1      52.753  25.529  31.762  1.00  0.00    -0.237 OA
ATOM     99  O   UNL A   1      53.186  26.350  29.442  1.00  0.00    -0.237 OA
ATOM    100  O   UNL A   1      53.178  28.119  31.412  1.00  0.00    -0.744 OA
ENDBRANCH  96  97
ENDBRANCH  64  89
ENDBRANCH  38  39
ENDBRANCH  30  33
ENDBRANCH  28  29
ENDBRANCH   1  28
TORSDOF 16
ENDMDL
MODEL 2
REMARK VINA RESULT:     -12.8      3.226      8.874
REMARK SMILES O=C(NCCCCNC(=O)c1ccc(-c2c3nc(c(-c4c(F)cc(S(=O)(=O)[O-])cc4F)c4ccc([nH]4)c(-c4c(F)cc(S(=O)(=O)[O-])cc4F)c4nc(c(-c5c(F)cc(S(=O)(=O)[O-])cc5F)c5ccc2[nH]5)C=C4)C=C3)cc1)C1=Cc2cc(S(F)(F)(F)(F)F)ccc2O[C@@H]1C(F)(F)F
REMARK SMILES IDX 6 1 5 2 4 3 3 4 1 5 2 6 77 8 78 9 92 10 79 11 91 12 80 13
REMARK SMILES IDX 90 14 81 15 89 16 88 17 93 18 94 19 95 20 96 21 82 22 83 23
REMARK SMILES IDX 84 24 85 25 86 26 87 27 7 28 8 29 9 30 10 32 11 33 12 34
REMARK SMILES IDX 76 35 13 36 75 37 14 38 15 39 16 40 69 41 17 42 74 43 68 44
REMARK SMILES IDX 70 45 18 46 73 47 67 48 66 49 19 51 53 52 32 53 52 54 33 55
REMARK SMILES IDX 36 56 51 57 71 58 34 59 35 60 50 62 72 63 37 64 20 65 21 66
REMARK SMILES IDX 30 67 22 68 23 69 29 70 31 71 24 72 25 73 26 74 27 75 28 76
REMARK SMILES IDX 54 77 55 78 64 79 56 80 57 81 63 82 65 83 58 84 59 85 60 86
REMARK SMILES IDX 61 87 62 88 38 89 39 90 48 91 40 92 41 93 47 94 49 95 42 96
REMARK SMILES IDX 43 97 44 98 45 99 46 100
REMARK H PARENT 3 7 8 31 70 50 36 61
REMARK Flexibility Score: inf
ROOT
ATOM      1  C   UNL A   1      34.670  30.700  27.648  1.00  0.00     0.023 C 
ENDROOT
BRANCH   1   2
ATOM      2  C   UNL A   1      35.126  29.291  27.299  1.00  0.00     0.023 C 
BRANCH   2   3
ATOM      3  C   UNL A   1      34.100  28.638  26.388  1.00  0.00     0.116 C 
BRANCH   3   4
ATOM      4  N   UNL A   1      32.974  28.144  27.194  1.00  0.00    -0.352 N 
ATOM      5  O   UNL A   1      30.786  27.217  27.227  1.00  0.00    -0.270 OA
ATOM      6  C   UNL A   1      31.760  27.644  26.531  1.00  0.00     0.251 C 
ATOM      7  H   UNL A   1      33.032  28.148  28.176  1.00  0.00     0.163 HD
BRANCH   6   8
ATOM      8  C   UNL A   1      31.670  27.638  25.014  1.00  0.00     0.067 C 
ATOM      9  C   UNL A   1      32.282  26.655  24.300  1.00  0.00     0.025 C 
ATOM     10  C   UNL A   1      30.897  28.731  24.294  1.00  0.00     0.314 C 
ATOM     11  C   UNL A   1      33.056  25.562  25.019  1.00  0.00     0.019 A 
ATOM     12  O   UNL A   1      31.206  25.511  26.511  1.00  0.00    -0.475 OA
ATOM     13  C   UNL A   1      34.350  25.222  24.664  1.00  0.00     0.036 A 
ATOM     14  C   UNL A   1      32.469  25.023  26.082  1.00  0.00     0.128 A 
ATOM     15  C   UNL A   1      34.847  24.077  25.332  1.00  0.00     0.107 A 
ATOM     16  C   UNL A   1      33.073  23.999  26.770  1.00  0.00     0.048 A 
ATOM     17  C   UNL A   1      34.328  23.571  26.436  1.00  0.00     0.028 A 
BRANCH  10  18
ATOM     18  C   UNL A   1      29.770  28.107  23.487  1.00  0.00     0.429 C 
ATOM     19  F   UNL A   1      28.780  28.985  23.358  1.00  0.00    -0.167 F 
ATOM     20  F   UNL A   1      30.221  27.767  22.284  1.00  0.00    -0.167 F 
ATOM     21  F   UNL A   1      29.322  27.023  24.116  1.00  0.00    -0.167 F 
ENDBRANCH  10  18
BRANCH  15  22
ATOM     22  S   UNL A   1      36.292  23.249  24.624  1.00  0.00     0.310 S 
ATOM     23  F   UNL A   1      36.181  22.027  25.630  1.00  0.00    -0.094 F 
ATOM     24  F   UNL A   1      37.204  23.960  25.695  1.00  0.00    -0.094 F 
ATOM     25  F   UNL A   1      37.528  22.543  23.998  1.00  0.00    -0.094 F 
ATOM     26  F   UNL A   1      35.348  22.440  23.651  1.00  0.00    -0.094 F 
ATOM     27  F   UNL A   1      35.016  23.871  25.321  1.00  0.00    -0.094 F 
ENDBRANCH  15  22
ENDBRANCH   6   8
ENDBRANCH   3   4
ENDBRANCH   2   3
ENDBRANCH   1   2
BRANCH   1  28
ATOM     28  C   UNL A   1      35.725  31.373  28.512  1.00  0.00     0.116 C 
BRANCH  28  29
ATOM     29  N   UNL A   1      35.431  31.119  29.929  1.00  0.00    -0.352 N 
ATOM     30  C   UNL A   1      36.463  30.537  30.801  1.00  0.00     0.251 C 
ATOM     31  H   UNL A   1      34.544  31.339  30.295  1.00  0.00     0.163 HD
ATOM     32  O   UNL A   1      36.209  30.318  32.027  1.00  0.00    -0.269 OA
BRANCH  30  33
ATOM     33  C   UNL A   1      37.832  30.198  30.235  1.00  0.00     0.039 A 
ATOM     34  C   UNL A   1      38.770  29.730  31.141  1.00  0.00     0.014 A 
ATOM     35  C   UNL A   1      38.093  30.239  28.934  1.00  0.00     0.014 A 
ATOM     36  C   UNL A   1      40.071  29.598  30.602  1.00  0.00     0.010 A 
ATOM     37  C   UNL A   1      39.355  29.965  28.465  1.00  0.00     0.010 A 
ATOM     38  C   UNL A   1      40.347  29.556  29.311  1.00  0.00    -0.014 A 
BRANCH  38  39
ATOM     39  C   UNL A   1      41.694  29.077  28.795  1.00  0.00     0.031 A 
ATOM     40  C   UNL A   1      41.861  27.736  28.445  1.00  0.00     0.074 A 
ATOM     41  C   UNL A   1      42.715  30.011  28.792  1.00  0.00     0.049 A 
ATOM     42  N   UNL A   1      42.978  27.137  28.030  1.00  0.00    -0.248 NA
ATOM     43  C   UNL A   1      40.785  26.734  28.481  1.00  0.00     0.031 C 
ATOM     44  C   UNL A   1      42.554  31.368  29.134  1.00  0.00     0.029 A 
ATOM     45  N   UNL A   1      44.040  29.813  28.470  1.00  0.00    -0.354 N 
ATOM     46  C   UNL A   1      42.741  25.848  27.773  1.00  0.00     0.074 A 
ATOM     47  C   UNL A   1      41.329  25.570  28.065  1.00  0.00     0.031 C 
ATOM     48  C   UNL A   1      43.764  31.977  29.031  1.00  0.00     0.029 A 
ATOM     49  C   UNL A   1      44.704  31.011  28.622  1.00  0.00     0.049 A 
ATOM     50  H   UNL A   1      44.444  28.963  28.180  1.00  0.00     0.167 HD
ATOM     51  C   UNL A   1      43.647  24.896  27.305  1.00  0.00     0.037 A 
ATOM     52  C   UNL A   1      46.051  31.266  28.422  1.00  0.00     0.037 A 
ATOM     53  C   UNL A   1      44.985  25.162  27.063  1.00  0.00     0.049 A 
ATOM     54  C   UNL A   1      46.971  30.299  28.009  1.00  0.00     0.074 A 
ATOM     55  C   UNL A   1      45.911  24.215  26.584  1.00  0.00     0.029 A 
ATOM     56  N   UNL A   1      45.654  26.353  27.239  1.00  0.00    -0.354 N 
ATOM     57  N   UNL A   1      46.725  29.021  27.714  1.00  0.00    -0.248 NA
ATOM     58  C   UNL A   1      48.406  30.550  27.826  1.00  0.00     0.031 C 
ATOM     59  C   UNL A   1      47.123  24.824  26.481  1.00  0.00     0.029 A 
ATOM     60  C   UNL A   1      46.974  26.161  26.895  1.00  0.00     0.049 A 
ATOM     61  H   UNL A   1      45.257  27.196  27.556  1.00  0.00     0.167 HD
ATOM     62  C   UNL A   1      47.851  28.412  27.338  1.00  0.00     0.074 A 
ATOM     63  C   UNL A   1      48.951  29.385  27.412  1.00  0.00     0.031 C 
ATOM     64  C   UNL A   1      48.006  27.085  26.933  1.00  0.00     0.037 A 
BRANCH  51  65
ATOM     65  C   UNL A   1      43.137  23.487  27.045  1.00  0.00     0.058 A 
ATOM     66  C   UNL A   1      43.009  22.598  28.100  1.00  0.00     0.135 A 
ATOM     67  C   UNL A   1      42.905  23.110  25.794  1.00  0.00     0.135 A 
ATOM     68  F   UNL A   1      42.981  22.982  29.373  1.00  0.00    -0.206 F 
ATOM     69  C   UNL A   1      42.910  21.245  27.700  1.00  0.00     0.059 A 
ATOM     70  C   UNL A   1      42.680  21.788  25.493  1.00  0.00     0.059 A 
ATOM     71  F   UNL A   1      42.889  24.018  24.823  1.00  0.00    -0.206 F 
ATOM     72  C   UNL A   1      42.600  20.846  26.479  1.00  0.00     0.060 A 
BRANCH  72  73
ATOM     73  S   UNL A   1      42.097  19.142  26.133  1.00  0.00     0.124 S 
ATOM     74  O   UNL A   1      42.905  18.601  24.952  1.00  0.00    -0.237 OA
ATOM     75  O   UNL A   1      42.352  18.272  27.366  1.00  0.00    -0.237 OA
ATOM     76  O   UNL A   1      40.430  19.108  25.746  1.00  0.00    -0.744 OA
ENDBRANCH  72  73
ENDBRANCH  51  65
BRANCH  52  77
ATOM     77  C   UNL A   1      46.557  32.678  28.666  1.00  0.00     0.058 A 
ATOM     78  C   UNL A   1      47.061  33.092  29.887  1.00  0.00     0.135 A 
ATOM     79  C   UNL A   1      46.532  33.496  27.619  1.00  0.00     0.135 A 
ATOM     80  F   UNL A   1      47.338  32.251  30.879  1.00  0.00    -0.206 F 
ATOM     81  C   UNL A   1      47.253  34.490  29.985  1.00  0.00     0.059 A 
ATOM     82  C   UNL A   1      46.863  34.821  27.759  1.00  0.00     0.059 A 
ATOM     83  F   UNL A   1      46.184  33.025  26.424  1.00  0.00    -0.206 F 
ATOM     84  C   UNL A   1      47.312  35.312  28.953  1.00  0.00     0.060 A 
BRANCH  84  85
ATOM     85  S   UNL A   1      47.956  36.996  29.111  1.00  0.00     0.124 S 
ATOM     86  O   UNL A   1      47.871  37.704  27.756  1.00  0.00    -0.237 OA
ATOM     87  O   UNL A   1      47.124  37.766  30.141  1.00  0.00    -0.237 OA
ATOM     88  O   UNL A   1      49.586  36.939  29.623  1.00  0.00    -0.744 OA
ENDBRANCH  84  85
ENDBRANCH  52  77
BRANCH  64  89
ATOM     89  C   UNL A   1      49.392  26.625  26.511  1.00  0.00     0.058 A 
ATOM     90  C   UNL A   1      50.200  26.045  27.475  1.00  0.00     0.135 A 
ATOM     91  C   UNL A   1      49.785  26.715  25.245  1.00  0.00     0.135 A 
ATOM     92  F   UNL A   1      49.759  25.707  28.682  1.00  0.00    -0.206 F 
ATOM     93  C   UNL A   1      51.537  25.844  27.057  1.00  0.00     0.059 A 
ATOM     94  C   UNL A   1      51.066  26.372  24.885  1.00  0.00     0.059 A 
ATOM     95  F   UNL A   1      48.930  27.137  24.318  1.00  0.00    -0.206 F 
ATOM     96  C   UNL A   1      51.937  25.847  25.799  1.00  0.00     0.060 A 
BRANCH  96  97
ATOM     97  S   UNL A   1      53.553  25.193  25.310  1.00  0.00     0.124 S 
ATOM     98  O   UNL A   1      53.504  23.664  25.309  1.00  0.00    -0.237 OA
ATOM     99  O   UNL A   1      53.903  25.694  23.907  1.00  0.00    -0.237 OA
ATOM    100  O   UNL A   1      54.741  25.725  26.418  1.00  0.00    -0.744 OA
ENDBRANCH  96  97
ENDBRANCH  64  89
ENDBRANCH  38  39
ENDBRANCH  30  33
ENDBRANCH  28  29
ENDBRANCH   1  28
TORSDOF 16
ENDMDL
MODEL 3
REMARK VINA RESULT:     -12.8      3.404      4.530
REMARK SMILES O=C(NCCCCNC(=O)c1ccc(-c2c3nc(c(-c4c(F)cc(S(=O)(=O)[O-])cc4F)c4ccc([nH]4)c(-c4c(F)cc(S(=O)(=O)[O-])cc4F)c4nc(c(-c5c(F)cc(S(=O)(=O)[O-])cc5F)c5ccc2[nH]5)C=C4)C=C3)cc1)C1=Cc2cc(S(F)(F)(F)(F)F)ccc2O[C@@H]1C(F)(F)F
REMARK SMILES IDX 6 1 5 2 4 3 3 4 1 5 2 6 77 8 78 9 92 10 79 11 91 12 80 13
REMARK SMILES IDX 90 14 81 15 89 16 88 17 93 18 94 19 95 20 96 21 82 22 83 23
REMARK SMILES IDX 84 24 85 25 86 26 87 27 7 28 8 29 9 30 10 32 11 33 12 34
REMARK SMILES IDX 76 35 13 36 75 37 14 38 15 39 16 40 69 41 17 42 74 43 68 44
REMARK SMILES IDX 70 45 18 46 73 47 67 48 66 49 19 51 53 52 32 53 52 54 33 55
REMARK SMILES IDX 36 56 51 57 71 58 34 59 35 60 50 62 72 63 37 64 20 65 21 66
REMARK SMILES IDX 30 67 22 68 23 69 29 70 31 71 24 72 25 73 26 74 27 75 28 76
REMARK SMILES IDX 54 77 55 78 64 79 56 80 57 81 63 82 65 83 58 84 59 85 60 86
REMARK SMILES IDX 61 87 62 88 38 89 39 90 48 91 40 92 41 93 47 94 49 95 42 96
REMARK SMILES IDX 43 97 44 98 45 99 46 100
REMARK H PARENT 3 7 8 31 70 50 36 61
REMARK Flexibility Score: inf
ROOT
ATOM      1  C   UNL A   1      34.826  30.666  27.697  1.00  0.00     0.023 C 
ENDROOT
BRANCH   1   2
ATOM      2  C   UNL A   1      35.192  29.252  27.274  1.00  0.00     0.023 C 
BRANCH   2   3
ATOM      3  C   UNL A   1      34.108  28.699  26.364  1.00  0.00     0.116 C 
BRANCH   3   4
ATOM      4  N   UNL A   1      32.992  28.198  27.179  1.00  0.00    -0.352 N 
ATOM      5  O   UNL A   1      30.821  27.234  27.231  1.00  0.00    -0.270 OA
ATOM      6  C   UNL A   1      31.786  27.668  26.526  1.00  0.00     0.251 C 
ATOM      7  H   UNL A   1      33.053  28.216  28.161  1.00  0.00     0.163 HD
BRANCH   6   8
ATOM      8  C   UNL A   1      31.693  27.639  25.010  1.00  0.00     0.067 C 
ATOM      9  C   UNL A   1      32.286  26.635  24.311  1.00  0.00     0.025 C 
ATOM     10  C   UNL A   1      30.936  28.733  24.275  1.00  0.00     0.314 C 
ATOM     11  C   UNL A   1      33.043  25.540  25.045  1.00  0.00     0.019 A 
ATOM     12  O   UNL A   1      31.196  25.544  26.542  1.00  0.00    -0.475 OA
ATOM     13  C   UNL A   1      34.330  25.173  24.693  1.00  0.00     0.036 A 
ATOM     14  C   UNL A   1      32.449  25.028  26.118  1.00  0.00     0.128 A 
ATOM     15  C   UNL A   1      34.809  24.030  25.378  1.00  0.00     0.107 A 
ATOM     16  C   UNL A   1      33.037  24.004  26.821  1.00  0.00     0.048 A 
ATOM     17  C   UNL A   1      34.285  23.550  26.491  1.00  0.00     0.028 A 
BRANCH  10  18
ATOM     18  C   UNL A   1      29.797  28.116  23.480  1.00  0.00     0.429 C 
ATOM     19  F   UNL A   1      29.352  27.034  24.112  1.00  0.00    -0.167 F 
ATOM     20  F   UNL A   1      28.809  28.999  23.363  1.00  0.00    -0.167 F 
ATOM     21  F   UNL A   1      30.233  27.775  22.271  1.00  0.00    -0.167 F 
ENDBRANCH  10  18
BRANCH  15  22
ATOM     22  S   UNL A   1      36.238  23.167  24.681  1.00  0.00     0.310 S 
ATOM     23  F   UNL A   1      36.307  22.142  25.890  1.00  0.00    -0.094 F 
ATOM     24  F   UNL A   1      37.191  24.106  25.511  1.00  0.00    -0.094 F 
ATOM     25  F   UNL A   1      37.459  22.427  24.063  1.00  0.00    -0.094 F 
ATOM     26  F   UNL A   1      35.269  22.146  23.965  1.00  0.00    -0.094 F 
ATOM     27  F   UNL A   1      34.991  23.834  25.385  1.00  0.00    -0.094 F 
ENDBRANCH  15  22
ENDBRANCH   6   8
ENDBRANCH   3   4
ENDBRANCH   2   3
ENDBRANCH   1   2
BRANCH   1  28
ATOM     28  C   UNL A   1      35.886  31.200  28.647  1.00  0.00     0.116 C 
BRANCH  28  29
ATOM     29  N   UNL A   1      35.559  30.798  30.023  1.00  0.00    -0.352 N 
ATOM     30  C   UNL A   1      36.590  30.187  30.875  1.00  0.00     0.251 C 
ATOM     31  H   UNL A   1      34.650  30.936  30.373  1.00  0.00     0.163 HD
ATOM     32  O   UNL A   1      36.307  29.839  32.064  1.00  0.00    -0.269 OA
BRANCH  30  33
ATOM     33  C   UNL A   1      37.994  29.973  30.334  1.00  0.00     0.039 A 
ATOM     34  C   UNL A   1      39.004  29.870  31.276  1.00  0.00     0.014 A 
ATOM     35  C   UNL A   1      38.236  29.785  29.042  1.00  0.00     0.014 A 
ATOM     36  C   UNL A   1      40.306  29.849  30.721  1.00  0.00     0.010 A 
ATOM     37  C   UNL A   1      39.523  29.636  28.586  1.00  0.00     0.010 A 
ATOM     38  C   UNL A   1      40.576  29.585  29.456  1.00  0.00    -0.014 A 
BRANCH  38  39
ATOM     39  C   UNL A   1      41.983  29.243  28.992  1.00  0.00     0.031 A 
ATOM     40  C   UNL A   1      42.957  30.242  28.951  1.00  0.00     0.074 A 
ATOM     41  C   UNL A   1      42.182  27.948  28.545  1.00  0.00     0.049 A 
ATOM     42  N   UNL A   1      44.216  30.134  28.523  1.00  0.00    -0.248 NA
ATOM     43  C   UNL A   1      42.737  31.627  29.394  1.00  0.00     0.031 C 
ATOM     44  C   UNL A   1      41.208  26.932  28.591  1.00  0.00     0.029 A 
ATOM     45  N   UNL A   1      43.322  27.413  27.987  1.00  0.00    -0.354 N 
ATOM     46  C   UNL A   1      44.849  31.301  28.656  1.00  0.00     0.074 A 
ATOM     47  C   UNL A   1      43.905  32.280  29.211  1.00  0.00     0.031 C 
ATOM     48  C   UNL A   1      41.748  25.804  28.058  1.00  0.00     0.029 A 
ATOM     49  C   UNL A   1      43.070  26.096  27.670  1.00  0.00     0.049 A 
ATOM     50  H   UNL A   1      44.172  27.890  27.838  1.00  0.00     0.167 HD
ATOM     51  C   UNL A   1      46.177  31.588  28.336  1.00  0.00     0.037 A 
ATOM     52  C   UNL A   1      43.931  25.187  27.076  1.00  0.00     0.037 A 
ATOM     53  C   UNL A   1      47.050  30.665  27.782  1.00  0.00     0.049 A 
ATOM     54  C   UNL A   1      45.242  25.489  26.702  1.00  0.00     0.074 A 
ATOM     55  C   UNL A   1      48.394  30.935  27.460  1.00  0.00     0.029 A 
ATOM     56  N   UNL A   1      46.790  29.355  27.443  1.00  0.00    -0.354 N 
ATOM     57  N   UNL A   1      45.886  26.645  26.872  1.00  0.00    -0.248 NA
ATOM     58  C   UNL A   1      46.151  24.543  26.042  1.00  0.00     0.031 C 
ATOM     59  C   UNL A   1      48.935  29.807  26.927  1.00  0.00     0.029 A 
ATOM     60  C   UNL A   1      47.937  28.814  26.906  1.00  0.00     0.049 A 
ATOM     61  H   UNL A   1      45.933  28.887  27.564  1.00  0.00     0.167 HD
ATOM     62  C   UNL A   1      47.133  26.548  26.406  1.00  0.00     0.074 A 
ATOM     63  C   UNL A   1      47.319  25.196  25.858  1.00  0.00     0.031 C 
ATOM     64  C   UNL A   1      48.125  27.530  26.418  1.00  0.00     0.037 A 
BRANCH  51  65
ATOM     65  C   UNL A   1      46.695  32.990  28.612  1.00  0.00     0.058 A 
ATOM     66  C   UNL A   1      46.605  33.961  27.628  1.00  0.00     0.135 A 
ATOM     67  C   UNL A   1      47.303  33.233  29.767  1.00  0.00     0.135 A 
ATOM     68  F   UNL A   1      45.800  33.854  26.575  1.00  0.00    -0.206 F 
ATOM     69  C   UNL A   1      47.448  35.076  27.845  1.00  0.00     0.059 A 
ATOM     70  C   UNL A   1      47.996  34.404  29.958  1.00  0.00     0.059 A 
ATOM     71  F   UNL A   1      47.243  32.336  30.746  1.00  0.00    -0.206 F 
ATOM     72  C   UNL A   1      48.000  35.384  29.004  1.00  0.00     0.060 A 
BRANCH  72  73
ATOM     73  S   UNL A   1      48.721  37.015  29.314  1.00  0.00     0.124 S 
ATOM     74  O   UNL A   1      49.704  37.359  28.193  1.00  0.00    -0.237 OA
ATOM     75  O   UNL A   1      47.610  38.065  29.358  1.00  0.00    -0.237 OA
ATOM     76  O   UNL A   1      49.549  36.997  30.811  1.00  0.00    -0.744 OA
ENDBRANCH  72  73
ENDBRANCH  51  65
BRANCH  52  77
ATOM     77  C   UNL A   1      43.417  23.780  26.816  1.00  0.00     0.058 A 
ATOM     78  C   UNL A   1      43.025  23.347  25.560  1.00  0.00     0.135 A 
ATOM     79  C   UNL A   1      43.405  22.961  27.861  1.00  0.00     0.135 A 
ATOM     80  F   UNL A   1      43.255  24.041  24.450  1.00  0.00    -0.206 F 
ATOM     81  C   UNL A   1      42.357  22.100  25.566  1.00  0.00     0.059 A 
ATOM     82  C   UNL A   1      42.858  21.705  27.759  1.00  0.00     0.059 A 
ATOM     83  F   UNL A   1      43.929  23.360  29.017  1.00  0.00    -0.206 F 
ATOM     84  C   UNL A   1      42.397  21.234  26.562  1.00  0.00     0.060 A 
BRANCH  84  85
ATOM     85  S   UNL A   1      41.871  19.514  26.352  1.00  0.00     0.124 S 
ATOM     86  O   UNL A   1      42.561  18.917  25.123  1.00  0.00    -0.237 OA
ATOM     87  O   UNL A   1      42.255  18.707  27.595  1.00  0.00    -0.237 OA
ATOM     88  O   UNL A   1      40.176  19.459  26.138  1.00  0.00    -0.744 OA
ENDBRANCH  84  85
ENDBRANCH  52  77
BRANCH  64  89
ATOM     89  C   UNL A   1      49.493  27.171  25.860  1.00  0.00     0.058 A 
ATOM     90  C   UNL A   1      50.441  26.684  26.744  1.00  0.00     0.135 A 
ATOM     91  C   UNL A   1      49.744  27.258  24.559  1.00  0.00     0.135 A 
ATOM     92  F   UNL A   1      50.157  26.344  27.998  1.00  0.00    -0.206 F 
ATOM     93  C   UNL A   1      51.740  26.580  26.192  1.00  0.00     0.059 A 
ATOM     94  C   UNL A   1      51.005  27.010  24.072  1.00  0.00     0.059 A 
ATOM     95  F   UNL A   1      48.766  27.586  23.719  1.00  0.00    -0.206 F 
ATOM     96  C   UNL A   1      52.006  26.582  24.899  1.00  0.00     0.060 A 
BRANCH  96  97
ATOM     97  S   UNL A   1      53.611  26.046  24.255  1.00  0.00     0.124 S 
ATOM     98  O   UNL A   1      53.598  26.120  22.727  1.00  0.00    -0.237 OA
ATOM     99  O   UNL A   1      54.710  26.961  24.801  1.00  0.00    -0.237 OA
ATOM    100  O   UNL A   1      53.913  24.437  24.746  1.00  0.00    -0.744 OA
ENDBRANCH  96  97
ENDBRANCH  64  89
ENDBRANCH  38  39
ENDBRANCH  30  33
ENDBRANCH  28  29
ENDBRANCH   1  28
TORSDOF 16
ENDMDL
