MODEL 1
REMARK VINA RESULT:     -12.6      0.000      0.000
REMARK SMILES CC[C@@H]1CCC[C@@H]([NH+]2CC(n3cc(C(=O)NCCCCNC(=O)c4ccc(-c5c6nc(c(-c7c(F)cc(S(=O)(=O)[O-])cc7F)c7ccc([nH]7)c(-c7c(F)cc(S(=O)(=O)[O-])cc7F)c7nc(c(-c8c(F)cc(S(=O)(=O)[O-])cc8F)c8ccc5[nH]8)C=C7)C=C6)cc4)nn3)C2)C1
REMARK SMILES IDX 18 1 17 2 16 3 14 4 15 5 13 7 11 8 12 9 91 10 90 11 10 12
REMARK SMILES IDX 8 13 9 14 92 15 7 17 3 18 4 19 93 20 5 21 6 22 2 23 1 24
REMARK SMILES IDX 19 25 20 26 21 27 22 28 23 30 24 31 25 32 89 33 26 34 88 35
REMARK SMILES IDX 27 36 28 37 29 38 82 39 30 40 87 41 81 42 83 43 31 44 86 45
REMARK SMILES IDX 80 46 79 47 32 49 66 50 45 51 65 52 46 53 49 54 64 55 84 56
REMARK SMILES IDX 47 57 48 58 63 60 85 61 50 62 33 63 34 64 43 65 35 66 36 67
REMARK SMILES IDX 42 68 44 69 37 70 38 71 39 72 40 73 41 74 67 75 68 76 77 77
REMARK SMILES IDX 69 78 70 79 76 80 78 81 71 82 72 83 73 84 74 85 75 86 51 87
REMARK SMILES IDX 52 88 61 89 53 90 54 91 60 92 62 93 55 94 56 95 57 96 58 97
REMARK SMILES IDX 59 98
REMARK H PARENT 16 6 8 16 21 29 83 48 49 59
REMARK Flexibility Score: inf
ROOT
ATOM      1  C   UNL A   1      35.687  21.838  24.347  1.00  0.00     0.023 C 
ENDROOT
BRANCH   1   2
ATOM      2  C   UNL A   1      35.499  20.758  25.420  1.00  0.00     0.116 C 
BRANCH   2   3
ATOM      3  N   UNL A   1      34.285  19.991  25.213  1.00  0.00    -0.351 N 
ATOM      4  C   UNL A   1      32.943  20.292  25.294  1.00  0.00     0.273 C 
ATOM      5  O   UNL A   1      32.167  19.362  25.069  1.00  0.00    -0.267 OA
ATOM      6  H   UNL A   1      34.457  19.055  24.961  1.00  0.00     0.163 HD
BRANCH   4   7
ATOM      7  C   UNL A   1      32.459  21.620  25.656  1.00  0.00     0.170 A 
ATOM      8  N   UNL A   1      31.624  23.635  25.732  1.00  0.00    -0.237 N 
ATOM      9  C   UNL A   1      31.663  22.504  24.967  1.00  0.00     0.145 A 
ATOM     10  N   UNL A   1      32.360  23.485  26.841  1.00  0.00    -0.066 NA
ATOM     11  N   UNL A   1      32.857  22.253  26.822  1.00  0.00    -0.125 NA
BRANCH   8  12
ATOM     12  C   UNL A   1      31.450  24.875  25.070  1.00  0.00     0.218 C 
ATOM     13  N   UNL A   1      30.125  26.373  24.449  1.00  0.00    -0.329 N 
ATOM     14  C   UNL A   1      30.679  25.977  25.774  1.00  0.00     0.296 C 
ATOM     15  C   UNL A   1      30.355  24.960  24.001  1.00  0.00     0.296 C 
ATOM     16  H   UNL A   1      29.221  26.845  24.405  1.00  0.00     0.348 HD
BRANCH  13  17
ATOM     17  C   UNL A   1      30.876  27.374  23.645  1.00  0.00     0.184 C 
ATOM     18  C   UNL A   1      29.124  29.191  23.060  1.00  0.00    -0.006 C 
ATOM     19  C   UNL A   1      29.990  30.257  23.752  1.00  0.00     0.004 C 
ATOM     20  C   UNL A   1      29.975  28.010  22.560  1.00  0.00     0.068 C 
ATOM     21  C   UNL A   1      30.944  29.690  24.796  1.00  0.00     0.006 C 
ATOM     22  C   UNL A   1      31.737  28.496  24.271  1.00  0.00     0.065 C 
BRANCH  18  23
ATOM     23  C   UNL A   1      28.299  29.851  21.943  1.00  0.00     0.000 C 
ATOM     24  C   UNL A   1      28.750  31.269  21.626  1.00  0.00     0.004 C 
ENDBRANCH  18  23
ENDBRANCH  13  17
ENDBRANCH   8  12
ENDBRANCH   4   7
ENDBRANCH   2   3
ENDBRANCH   1   2
BRANCH   1  25
ATOM     25  C   UNL A   1      36.063  23.220  24.904  1.00  0.00     0.023 C 
BRANCH  25  26
ATOM     26  C   UNL A   1      37.566  23.467  25.029  1.00  0.00     0.116 C 
BRANCH  26  27
ATOM     27  N   UNL A   1      38.255  22.435  25.805  1.00  0.00    -0.352 N 
ATOM     28  C   UNL A   1      39.439  22.560  26.519  1.00  0.00     0.251 C 
ATOM     29  H   UNL A   1      37.829  21.547  25.824  1.00  0.00     0.163 HD
ATOM     30  O   UNL A   1      40.130  21.591  26.772  1.00  0.00    -0.269 OA
BRANCH  28  31
ATOM     31  C   UNL A   1      39.817  23.904  26.992  1.00  0.00     0.039 A 
ATOM     32  C   UNL A   1      38.907  24.965  27.034  1.00  0.00     0.014 A 
ATOM     33  C   UNL A   1      41.123  24.058  27.446  1.00  0.00     0.014 A 
ATOM     34  C   UNL A   1      39.304  26.167  27.621  1.00  0.00     0.010 A 
ATOM     35  C   UNL A   1      41.456  25.175  28.161  1.00  0.00     0.010 A 
ATOM     36  C   UNL A   1      40.579  26.258  28.198  1.00  0.00    -0.014 A 
BRANCH  36  37
ATOM     37  C   UNL A   1      40.996  27.420  28.981  1.00  0.00     0.031 A 
ATOM     38  C   UNL A   1      42.129  28.191  28.386  1.00  0.00     0.074 A 
ATOM     39  C   UNL A   1      40.207  27.901  29.970  1.00  0.00     0.049 A 
ATOM     40  N   UNL A   1      43.290  28.429  28.901  1.00  0.00    -0.248 NA
ATOM     41  C   UNL A   1      42.015  28.625  26.980  1.00  0.00     0.031 C 
ATOM     42  C   UNL A   1      38.912  27.368  30.424  1.00  0.00     0.029 A 
ATOM     43  N   UNL A   1      40.304  29.055  30.683  1.00  0.00    -0.354 N 
ATOM     44  C   UNL A   1      43.948  29.259  27.993  1.00  0.00     0.074 A 
ATOM     45  C   UNL A   1      43.220  29.154  26.759  1.00  0.00     0.031 C 
ATOM     46  C   UNL A   1      38.245  28.314  31.118  1.00  0.00     0.029 A 
ATOM     47  C   UNL A   1      39.120  29.454  31.306  1.00  0.00     0.049 A 
ATOM     48  H   UNL A   1      41.142  29.567  30.754  1.00  0.00     0.167 HD
ATOM     49  C   UNL A   1      44.867  30.176  28.410  1.00  0.00     0.037 A 
ATOM     50  C   UNL A   1      38.870  30.653  31.897  1.00  0.00     0.037 A 
ATOM     51  C   UNL A   1      45.312  29.883  29.751  1.00  0.00     0.049 A 
ATOM     52  C   UNL A   1      40.193  31.271  32.178  1.00  0.00     0.074 A 
ATOM     53  C   UNL A   1      45.906  28.791  30.355  1.00  0.00     0.029 A 
ATOM     54  N   UNL A   1      44.796  30.642  30.774  1.00  0.00    -0.354 N 
ATOM     55  N   UNL A   1      41.051  30.774  33.028  1.00  0.00    -0.248 NA
ATOM     56  C   UNL A   1      40.760  32.137  31.156  1.00  0.00     0.031 C 
ATOM     57  C   UNL A   1      45.280  28.695  31.632  1.00  0.00     0.029 A 
ATOM     58  C   UNL A   1      44.416  29.781  31.773  1.00  0.00     0.049 A 
ATOM     59  H   UNL A   1      44.716  31.623  30.788  1.00  0.00     0.167 HD
ATOM     60  C   UNL A   1      42.284  30.899  32.403  1.00  0.00     0.074 A 
ATOM     61  C   UNL A   1      42.049  31.813  31.285  1.00  0.00     0.031 C 
ATOM     62  C   UNL A   1      43.300  30.022  32.662  1.00  0.00     0.037 A 
BRANCH  49  63
ATOM     63  C   UNL A   1      45.069  31.541  27.782  1.00  0.00     0.058 A 
ATOM     64  C   UNL A   1      46.328  31.864  27.232  1.00  0.00     0.135 A 
ATOM     65  C   UNL A   1      44.188  32.633  27.955  1.00  0.00     0.135 A 
ATOM     66  F   UNL A   1      47.247  30.908  27.018  1.00  0.00    -0.206 F 
ATOM     67  C   UNL A   1      46.714  33.179  26.963  1.00  0.00     0.059 A 
ATOM     68  C   UNL A   1      44.534  33.943  27.644  1.00  0.00     0.059 A 
ATOM     69  F   UNL A   1      42.986  32.507  28.526  1.00  0.00    -0.206 F 
ATOM     70  C   UNL A   1      45.814  34.214  27.192  1.00  0.00     0.060 A 
BRANCH  70  71
ATOM     71  S   UNL A   1      46.342  35.918  26.957  1.00  0.00     0.124 S 
ATOM     72  O   UNL A   1      47.215  36.112  28.108  1.00  0.00    -0.237 OA
ATOM     73  O   UNL A   1      47.001  35.853  25.656  1.00  0.00    -0.237 OA
ATOM     74  O   UNL A   1      45.088  36.664  26.981  1.00  0.00    -0.744 OA
ENDBRANCH  70  71
ENDBRANCH  49  63
BRANCH  50  75
ATOM     75  C   UNL A   1      37.592  31.423  31.922  1.00  0.00     0.058 A 
ATOM     76  C   UNL A   1      36.957  31.754  33.133  1.00  0.00     0.135 A 
ATOM     77  C   UNL A   1      37.112  32.089  30.775  1.00  0.00     0.135 A 
ATOM     78  F   UNL A   1      37.356  31.187  34.281  1.00  0.00    -0.206 F 
ATOM     79  C   UNL A   1      35.943  32.722  33.210  1.00  0.00     0.059 A 
ATOM     80  C   UNL A   1      36.100  33.048  30.825  1.00  0.00     0.059 A 
ATOM     81  F   UNL A   1      37.678  31.895  29.574  1.00  0.00    -0.206 F 
ATOM     82  C   UNL A   1      35.537  33.380  32.050  1.00  0.00     0.060 A 
BRANCH  82  83
ATOM     83  S   UNL A   1      34.365  34.755  32.165  1.00  0.00     0.124 S 
ATOM     84  O   UNL A   1      34.139  35.078  30.760  1.00  0.00    -0.237 OA
ATOM     85  O   UNL A   1      33.242  34.146  32.868  1.00  0.00    -0.237 OA
ATOM     86  O   UNL A   1      35.100  35.763  32.925  1.00  0.00    -0.744 OA
ENDBRANCH  82  83
ENDBRANCH  50  75
BRANCH  62  87
ATOM     87  C   UNL A   1      43.158  29.080  33.832  1.00  0.00     0.058 A 
ATOM     88  C   UNL A   1      43.369  29.435  35.178  1.00  0.00     0.135 A 
ATOM     89  C   UNL A   1      42.622  27.807  33.589  1.00  0.00     0.135 A 
ATOM     90  F   UNL A   1      43.776  30.666  35.511  1.00  0.00    -0.206 F 
ATOM     91  C   UNL A   1      43.100  28.553  36.227  1.00  0.00     0.059 A 
ATOM     92  C   UNL A   1      42.316  26.923  34.619  1.00  0.00     0.059 A 
ATOM     93  F   UNL A   1      42.334  27.429  32.333  1.00  0.00    -0.206 F 
ATOM     94  C   UNL A   1      42.571  27.296  35.937  1.00  0.00     0.060 A 
BRANCH  94  95
ATOM     95  S   UNL A   1      42.159  26.179  37.294  1.00  0.00     0.124 S 
ATOM     96  O   UNL A   1      42.308  24.870  36.667  1.00  0.00    -0.237 OA
ATOM     97  O   UNL A   1      43.160  26.517  38.300  1.00  0.00    -0.237 OA
ATOM     98  O   UNL A   1      40.789  26.552  37.639  1.00  0.00    -0.744 OA
ENDBRANCH  94  95
ENDBRANCH  62  87
ENDBRANCH  36  37
ENDBRANCH  28  31
ENDBRANCH  26  27
ENDBRANCH  25  26
ENDBRANCH   1  25
TORSDOF 17
ENDMDL
MODEL 2
REMARK VINA RESULT:     -12.5      3.030      9.696
REMARK SMILES CC[C@@H]1CCC[C@@H]([NH+]2CC(n3cc(C(=O)NCCCCNC(=O)c4ccc(-c5c6nc(c(-c7c(F)cc(S(=O)(=O)[O-])cc7F)c7ccc([nH]7)c(-c7c(F)cc(S(=O)(=O)[O-])cc7F)c7nc(c(-c8c(F)cc(S(=O)(=O)[O-])cc8F)c8ccc5[nH]8)C=C7)C=C6)cc4)nn3)C2)C1
REMARK SMILES IDX 18 1 17 2 16 3 14 4 15 5 13 7 11 8 12 9 91 10 90 11 10 12
REMARK SMILES IDX 8 13 9 14 92 15 7 17 3 18 4 19 93 20 5 21 6 22 2 23 1 24
REMARK SMILES IDX 19 25 20 26 21 27 22 28 23 30 24 31 25 32 89 33 26 34 88 35
REMARK SMILES IDX 27 36 28 37 29 38 82 39 30 40 87 41 81 42 83 43 31 44 86 45
REMARK SMILES IDX 80 46 79 47 32 49 66 50 45 51 65 52 46 53 49 54 64 55 84 56
REMARK SMILES IDX 47 57 48 58 63 60 85 61 50 62 33 63 34 64 43 65 35 66 36 67
REMARK SMILES IDX 42 68 44 69 37 70 38 71 39 72 40 73 41 74 67 75 68 76 77 77
REMARK SMILES IDX 69 78 70 79 76 80 78 81 71 82 72 83 73 84 74 85 75 86 51 87
REMARK SMILES IDX 52 88 61 89 53 90 54 91 60 92 62 93 55 94 56 95 57 96 58 97
REMARK SMILES IDX 59 98
REMARK H PARENT 16 6 8 16 21 29 83 48 49 59
REMARK Flexibility Score: inf
ROOT
ATOM      1  C   UNL A   1      31.852  29.170  25.577  1.00  0.00     0.023 C 
ENDROOT
BRANCH   1   2
ATOM      2  C   UNL A   1      31.632  28.823  24.100  1.00  0.00     0.116 C 
BRANCH   2   3
ATOM      3  N   UNL A   1      30.325  28.237  23.867  1.00  0.00    -0.351 N 
ATOM      4  C   UNL A   1      29.737  27.046  24.234  1.00  0.00     0.273 C 
ATOM      5  O   UNL A   1      28.588  26.864  23.830  1.00  0.00    -0.267 OA
ATOM      6  H   UNL A   1      29.732  28.812  23.332  1.00  0.00     0.163 HD
BRANCH   4   7
ATOM      7  C   UNL A   1      30.435  26.039  25.027  1.00  0.00     0.170 A 
ATOM      8  N   UNL A   1      31.664  24.405  25.791  1.00  0.00    -0.237 N 
ATOM      9  C   UNL A   1      31.500  25.229  24.714  1.00  0.00     0.145 A 
ATOM     10  N   UNL A   1      30.750  24.667  26.734  1.00  0.00    -0.066 NA
ATOM     11  N   UNL A   1      30.007  25.678  26.294  1.00  0.00    -0.125 NA
BRANCH   8  12
ATOM     12  C   UNL A   1      32.203  23.115  25.561  1.00  0.00     0.218 C 
ATOM     13  N   UNL A   1      32.257  21.099  26.123  1.00  0.00    -0.329 N 
ATOM     14  C   UNL A   1      31.252  21.942  25.416  1.00  0.00     0.296 C 
ATOM     15  C   UNL A   1      32.763  22.356  26.768  1.00  0.00     0.296 C 
ATOM     16  H   UNL A   1      31.945  20.277  26.643  1.00  0.00     0.348 HD
BRANCH  13  17
ATOM     17  C   UNL A   1      33.287  20.401  25.308  1.00  0.00     0.184 C 
ATOM     18  C   UNL A   1      32.402  17.978  25.071  1.00  0.00    -0.006 C 
ATOM     19  C   UNL A   1      32.411  18.118  23.540  1.00  0.00     0.004 C 
ATOM     20  C   UNL A   1      33.425  18.920  25.730  1.00  0.00     0.068 C 
ATOM     21  C   UNL A   1      32.333  19.560  23.055  1.00  0.00     0.006 C 
ATOM     22  C   UNL A   1      33.337  20.466  23.763  1.00  0.00     0.065 C 
BRANCH  18  23
ATOM     23  C   UNL A   1      32.614  16.503  25.450  1.00  0.00     0.000 C 
ATOM     24  C   UNL A   1      34.071  16.073  25.384  1.00  0.00     0.004 C 
ENDBRANCH  18  23
ENDBRANCH  13  17
ENDBRANCH   8  12
ENDBRANCH   4   7
ENDBRANCH   2   3
ENDBRANCH   1   2
BRANCH   1  25
ATOM     25  C   UNL A   1      32.965  28.356  26.256  1.00  0.00     0.023 C 
BRANCH  25  26
ATOM     26  C   UNL A   1      33.733  29.111  27.340  1.00  0.00     0.116 C 
BRANCH  26  27
ATOM     27  N   UNL A   1      33.937  30.524  27.022  1.00  0.00    -0.352 N 
ATOM     28  C   UNL A   1      34.893  31.382  27.548  1.00  0.00     0.251 C 
ATOM     29  H   UNL A   1      33.324  30.914  26.356  1.00  0.00     0.163 HD
ATOM     30  O   UNL A   1      34.730  32.588  27.545  1.00  0.00    -0.269 OA
BRANCH  28  31
ATOM     31  C   UNL A   1      36.131  30.787  28.082  1.00  0.00     0.039 A 
ATOM     32  C   UNL A   1      36.463  29.443  27.878  1.00  0.00     0.014 A 
ATOM     33  C   UNL A   1      36.990  31.643  28.763  1.00  0.00     0.014 A 
ATOM     34  C   UNL A   1      37.714  28.990  28.296  1.00  0.00     0.010 A 
ATOM     35  C   UNL A   1      38.269  31.241  29.026  1.00  0.00     0.010 A 
ATOM     36  C   UNL A   1      38.620  29.902  28.857  1.00  0.00    -0.014 A 
BRANCH  36  37
ATOM     37  C   UNL A   1      40.005  29.538  29.154  1.00  0.00     0.031 A 
ATOM     38  C   UNL A   1      40.316  29.437  30.612  1.00  0.00     0.074 A 
ATOM     39  C   UNL A   1      40.807  29.040  28.185  1.00  0.00     0.049 A 
ATOM     40  N   UNL A   1      41.188  30.109  31.291  1.00  0.00    -0.248 NA
ATOM     41  C   UNL A   1      39.448  28.592  31.454  1.00  0.00     0.031 C 
ATOM     42  C   UNL A   1      40.474  28.823  26.768  1.00  0.00     0.029 A 
ATOM     43  N   UNL A   1      42.039  28.472  28.277  1.00  0.00    -0.354 N 
ATOM     44  C   UNL A   1      41.154  29.584  32.582  1.00  0.00     0.074 A 
ATOM     45  C   UNL A   1      39.931  28.834  32.675  1.00  0.00     0.031 C 
ATOM     46  C   UNL A   1      41.350  27.955  26.219  1.00  0.00     0.029 A 
ATOM     47  C   UNL A   1      42.398  27.683  27.183  1.00  0.00     0.049 A 
ATOM     48  H   UNL A   1      42.630  28.606  29.053  1.00  0.00     0.167 HD
ATOM     49  C   UNL A   1      42.264  29.578  33.373  1.00  0.00     0.037 A 
ATOM     50  C   UNL A   1      43.460  26.839  27.095  1.00  0.00     0.037 A 
ATOM     51  C   UNL A   1      43.259  30.492  32.867  1.00  0.00     0.049 A 
ATOM     52  C   UNL A   1      44.415  27.247  28.159  1.00  0.00     0.074 A 
ATOM     53  C   UNL A   1      43.277  31.847  32.594  1.00  0.00     0.029 A 
ATOM     54  N   UNL A   1      44.326  29.958  32.185  1.00  0.00    -0.354 N 
ATOM     55  N   UNL A   1      45.038  28.395  28.163  1.00  0.00    -0.248 NA
ATOM     56  C   UNL A   1      44.287  26.605  29.459  1.00  0.00     0.031 C 
ATOM     57  C   UNL A   1      44.022  31.965  31.385  1.00  0.00     0.029 A 
ATOM     58  C   UNL A   1      44.494  30.698  31.041  1.00  0.00     0.049 A 
ATOM     59  H   UNL A   1      44.870  29.187  32.465  1.00  0.00     0.167 HD
ATOM     60  C   UNL A   1      44.990  28.823  29.482  1.00  0.00     0.074 A 
ATOM     61  C   UNL A   1      44.579  27.644  30.246  1.00  0.00     0.031 C 
ATOM     62  C   UNL A   1      44.988  30.153  29.795  1.00  0.00     0.037 A 
BRANCH  49  63
ATOM     63  C   UNL A   1      42.615  28.480  34.357  1.00  0.00     0.058 A 
ATOM     64  C   UNL A   1      42.814  28.812  35.715  1.00  0.00     0.135 A 
ATOM     65  C   UNL A   1      43.046  27.187  33.984  1.00  0.00     0.135 A 
ATOM     66  F   UNL A   1      42.440  30.013  36.187  1.00  0.00    -0.206 F 
ATOM     67  C   UNL A   1      43.473  27.963  36.606  1.00  0.00     0.059 A 
ATOM     68  C   UNL A   1      43.656  26.305  34.869  1.00  0.00     0.059 A 
ATOM     69  F   UNL A   1      42.992  26.743  32.723  1.00  0.00    -0.206 F 
ATOM     70  C   UNL A   1      43.908  26.718  36.166  1.00  0.00     0.060 A 
BRANCH  70  71
ATOM     71  S   UNL A   1      44.857  25.666  37.276  1.00  0.00     0.124 S 
ATOM     72  O   UNL A   1      46.177  26.280  37.198  1.00  0.00    -0.237 OA
ATOM     73  O   UNL A   1      44.143  25.836  38.537  1.00  0.00    -0.237 OA
ATOM     74  O   UNL A   1      44.738  24.344  36.668  1.00  0.00    -0.744 OA
ENDBRANCH  70  71
ENDBRANCH  49  63
BRANCH  50  75
ATOM     75  C   UNL A   1      43.543  25.526  26.392  1.00  0.00     0.058 A 
ATOM     76  C   UNL A   1      44.470  25.303  25.356  1.00  0.00     0.135 A 
ATOM     77  C   UNL A   1      42.906  24.375  26.902  1.00  0.00     0.135 A 
ATOM     78  F   UNL A   1      45.140  26.334  24.818  1.00  0.00    -0.206 F 
ATOM     79  C   UNL A   1      44.783  24.017  24.891  1.00  0.00     0.059 A 
ATOM     80  C   UNL A   1      43.194  23.087  26.450  1.00  0.00     0.059 A 
ATOM     81  F   UNL A   1      42.045  24.459  27.927  1.00  0.00    -0.206 F 
ATOM     82  C   UNL A   1      44.154  22.912  25.462  1.00  0.00     0.060 A 
BRANCH  82  83
ATOM     83  S   UNL A   1      44.684  21.243  25.001  1.00  0.00     0.124 S 
ATOM     84  O   UNL A   1      44.622  21.297  23.544  1.00  0.00    -0.237 OA
ATOM     85  O   UNL A   1      46.021  21.172  25.580  1.00  0.00    -0.237 OA
ATOM     86  O   UNL A   1      43.687  20.385  25.636  1.00  0.00    -0.744 OA
ENDBRANCH  82  83
ENDBRANCH  50  75
BRANCH  62  87
ATOM     87  C   UNL A   1      45.312  31.149  28.709  1.00  0.00     0.058 A 
ATOM     88  C   UNL A   1      44.368  31.710  27.827  1.00  0.00     0.135 A 
ATOM     89  C   UNL A   1      46.608  31.682  28.672  1.00  0.00     0.135 A 
ATOM     90  F   UNL A   1      43.082  31.340  27.867  1.00  0.00    -0.206 F 
ATOM     91  C   UNL A   1      44.708  32.722  26.926  1.00  0.00     0.059 A 
ATOM     92  C   UNL A   1      46.962  32.712  27.805  1.00  0.00     0.059 A 
ATOM     93  F   UNL A   1      47.541  31.239  29.531  1.00  0.00    -0.206 F 
ATOM     94  C   UNL A   1      46.010  33.218  26.923  1.00  0.00     0.060 A 
BRANCH  94  95
ATOM     95  S   UNL A   1      46.435  34.571  25.806  1.00  0.00     0.124 S 
ATOM     96  O   UNL A   1      47.847  34.317  25.542  1.00  0.00    -0.237 OA
ATOM     97  O   UNL A   1      45.530  34.352  24.682  1.00  0.00    -0.237 OA
ATOM     98  O   UNL A   1      46.154  35.767  26.597  1.00  0.00    -0.744 OA
ENDBRANCH  94  95
ENDBRANCH  62  87
ENDBRANCH  36  37
ENDBRANCH  28  31
ENDBRANCH  26  27
ENDBRANCH  25  26
ENDBRANCH   1  25
TORSDOF 17
ENDMDL
MODEL 3
REMARK VINA RESULT:     -12.5      3.033      9.693
REMARK SMILES CC[C@@H]1CCC[C@@H]([NH+]2CC(n3cc(C(=O)NCCCCNC(=O)c4ccc(-c5c6nc(c(-c7c(F)cc(S(=O)(=O)[O-])cc7F)c7ccc([nH]7)c(-c7c(F)cc(S(=O)(=O)[O-])cc7F)c7nc(c(-c8c(F)cc(S(=O)(=O)[O-])cc8F)c8ccc5[nH]8)C=C7)C=C6)cc4)nn3)C2)C1
REMARK SMILES IDX 18 1 17 2 16 3 14 4 15 5 13 7 11 8 12 9 91 10 90 11 10 12
REMARK SMILES IDX 8 13 9 14 92 15 7 17 3 18 4 19 93 20 5 21 6 22 2 23 1 24
REMARK SMILES IDX 19 25 20 26 21 27 22 28 23 30 24 31 25 32 89 33 26 34 88 35
REMARK SMILES IDX 27 36 28 37 29 38 82 39 30 40 87 41 81 42 83 43 31 44 86 45
REMARK SMILES IDX 80 46 79 47 32 49 66 50 45 51 65 52 46 53 49 54 64 55 84 56
REMARK SMILES IDX 47 57 48 58 63 60 85 61 50 62 33 63 34 64 43 65 35 66 36 67
REMARK SMILES IDX 42 68 44 69 37 70 38 71 39 72 40 73 41 74 67 75 68 76 77 77
REMARK SMILES IDX 69 78 70 79 76 80 78 81 71 82 72 83 73 84 74 85 75 86 51 87
REMARK SMILES IDX 52 88 61 89 53 90 54 91 60 92 62 93 55 94 56 95 57 96 58 97
REMARK SMILES IDX 59 98
REMARK H PARENT 16 6 8 16 21 29 83 48 49 59
REMARK Flexibility Score: inf
ROOT
ATOM      1  C   UNL A   1      31.586  29.203  26.003  1.00  0.00     0.023 C 
ENDROOT
BRANCH   1   2
ATOM      2  C   UNL A   1      32.098  29.320  24.562  1.00  0.00     0.116 C 
BRANCH   2   3
ATOM      3  N   UNL A   1      31.015  29.308  23.597  1.00  0.00    -0.351 N 
ATOM      4  C   UNL A   1      30.526  28.358  22.726  1.00  0.00     0.273 C 
ATOM      5  O   UNL A   1      29.583  28.711  22.017  1.00  0.00    -0.267 OA
ATOM      6  H   UNL A   1      30.525  30.161  23.555  1.00  0.00     0.163 HD
BRANCH   4   7
ATOM      7  C   UNL A   1      31.104  27.023  22.618  1.00  0.00     0.170 A 
ATOM      8  N   UNL A   1      32.025  25.069  22.929  1.00  0.00    -0.237 N 
ATOM      9  C   UNL A   1      31.399  26.091  23.584  1.00  0.00     0.145 A 
ATOM     10  N   UNL A   1      32.133  25.337  21.621  1.00  0.00    -0.066 NA
ATOM     11  N   UNL A   1      31.555  26.515  21.410  1.00  0.00    -0.125 NA
BRANCH   8  12
ATOM     12  C   UNL A   1      32.973  24.303  23.652  1.00  0.00     0.218 C 
ATOM     13  N   UNL A   1      34.547  22.924  23.585  1.00  0.00    -0.329 N 
ATOM     14  C   UNL A   1      34.432  24.369  23.239  1.00  0.00     0.296 C 
ATOM     15  C   UNL A   1      33.073  22.809  23.325  1.00  0.00     0.296 C 
ATOM     16  H   UNL A   1      35.254  22.352  23.120  1.00  0.00     0.348 HD
BRANCH  13  17
ATOM     17  C   UNL A   1      34.927  22.564  24.977  1.00  0.00     0.184 C 
ATOM     18  C   UNL A   1      37.040  21.087  24.716  1.00  0.00    -0.006 C 
ATOM     19  C   UNL A   1      37.842  22.070  25.585  1.00  0.00     0.004 C 
ATOM     20  C   UNL A   1      35.537  21.143  25.041  1.00  0.00     0.068 C 
ATOM     21  C   UNL A   1      37.263  23.479  25.611  1.00  0.00     0.006 C 
ATOM     22  C   UNL A   1      35.763  23.485  25.896  1.00  0.00     0.065 C 
BRANCH  18  23
ATOM     23  C   UNL A   1      37.633  19.675  24.863  1.00  0.00     0.000 C 
ATOM     24  C   UNL A   1      39.041  19.677  25.439  1.00  0.00     0.004 C 
ENDBRANCH  18  23
ENDBRANCH  13  17
ENDBRANCH   8  12
ENDBRANCH   4   7
ENDBRANCH   2   3
ENDBRANCH   1   2
BRANCH   1  25
ATOM     25  C   UNL A   1      32.608  28.614  26.988  1.00  0.00     0.023 C 
BRANCH  25  26
ATOM     26  C   UNL A   1      34.026  29.163  26.837  1.00  0.00     0.116 C 
BRANCH  26  27
ATOM     27  N   UNL A   1      34.084  30.625  26.881  1.00  0.00    -0.352 N 
ATOM     28  C   UNL A   1      34.885  31.417  27.692  1.00  0.00     0.251 C 
ATOM     29  H   UNL A   1      33.486  31.103  26.262  1.00  0.00     0.163 HD
ATOM     30  O   UNL A   1      34.579  32.566  27.953  1.00  0.00    -0.269 OA
BRANCH  28  31
ATOM     31  C   UNL A   1      36.138  30.833  28.202  1.00  0.00     0.039 A 
ATOM     32  C   UNL A   1      36.478  29.492  27.992  1.00  0.00     0.014 A 
ATOM     33  C   UNL A   1      37.001  31.697  28.867  1.00  0.00     0.014 A 
ATOM     34  C   UNL A   1      37.741  29.050  28.387  1.00  0.00     0.010 A 
ATOM     35  C   UNL A   1      38.289  31.306  29.106  1.00  0.00     0.010 A 
ATOM     36  C   UNL A   1      38.648  29.970  28.931  1.00  0.00    -0.014 A 
BRANCH  36  37
ATOM     37  C   UNL A   1      40.041  29.619  29.202  1.00  0.00     0.031 A 
ATOM     38  C   UNL A   1      40.384  29.533  30.654  1.00  0.00     0.074 A 
ATOM     39  C   UNL A   1      40.827  29.117  28.221  1.00  0.00     0.049 A 
ATOM     40  N   UNL A   1      41.265  30.216  31.308  1.00  0.00    -0.248 NA
ATOM     41  C   UNL A   1      39.539  28.689  31.522  1.00  0.00     0.031 C 
ATOM     42  C   UNL A   1      40.466  28.886  26.813  1.00  0.00     0.029 A 
ATOM     43  N   UNL A   1      42.065  28.558  28.292  1.00  0.00    -0.354 N 
ATOM     44  C   UNL A   1      41.261  29.703  32.605  1.00  0.00     0.074 A 
ATOM     45  C   UNL A   1      40.046  28.945  32.729  1.00  0.00     0.031 C 
ATOM     46  C   UNL A   1      41.337  28.019  26.253  1.00  0.00     0.029 A 
ATOM     47  C   UNL A   1      42.406  27.763  27.197  1.00  0.00     0.049 A 
ATOM     48  H   UNL A   1      42.671  28.704  29.054  1.00  0.00     0.167 HD
ATOM     49  C   UNL A   1      42.388  29.711  33.373  1.00  0.00     0.037 A 
ATOM     50  C   UNL A   1      43.472  26.925  27.094  1.00  0.00     0.037 A 
ATOM     51  C   UNL A   1      43.366  30.628  32.838  1.00  0.00     0.049 A 
ATOM     52  C   UNL A   1      44.446  27.349  28.135  1.00  0.00     0.074 A 
ATOM     53  C   UNL A   1      43.369  31.980  32.553  1.00  0.00     0.029 A 
ATOM     54  N   UNL A   1      44.422  30.095  32.138  1.00  0.00    -0.354 N 
ATOM     55  N   UNL A   1      45.061  28.502  28.115  1.00  0.00    -0.248 NA
ATOM     56  C   UNL A   1      44.350  26.718  29.442  1.00  0.00     0.031 C 
ATOM     57  C   UNL A   1      44.087  32.093  31.327  1.00  0.00     0.029 A 
ATOM     58  C   UNL A   1      44.561  30.826  30.985  1.00  0.00     0.049 A 
ATOM     59  H   UNL A   1      44.978  29.331  32.413  1.00  0.00     0.167 HD
ATOM     60  C   UNL A   1      45.037  28.940  29.432  1.00  0.00     0.074 A 
ATOM     61  C   UNL A   1      44.651  27.766  30.214  1.00  0.00     0.031 C 
ATOM     62  C   UNL A   1      45.033  30.273  29.733  1.00  0.00     0.037 A 
BRANCH  49  63
ATOM     63  C   UNL A   1      42.767  28.624  34.358  1.00  0.00     0.058 A 
ATOM     64  C   UNL A   1      43.014  28.973  35.704  1.00  0.00     0.135 A 
ATOM     65  C   UNL A   1      43.180  27.324  33.988  1.00  0.00     0.135 A 
ATOM     66  F   UNL A   1      42.662  30.181  36.173  1.00  0.00    -0.206 F 
ATOM     67  C   UNL A   1      43.699  28.132  36.584  1.00  0.00     0.059 A 
ATOM     68  C   UNL A   1      43.816  26.451  34.863  1.00  0.00     0.059 A 
ATOM     69  F   UNL A   1      43.081  26.865  32.736  1.00  0.00    -0.206 F 
ATOM     70  C   UNL A   1      44.113  26.879  36.145  1.00  0.00     0.060 A 
BRANCH  70  71
ATOM     71  S   UNL A   1      45.095  25.837  37.236  1.00  0.00     0.124 S 
ATOM     72  O   UNL A   1      45.320  26.732  38.365  1.00  0.00    -0.237 OA
ATOM     73  O   UNL A   1      44.192  24.716  37.475  1.00  0.00    -0.237 OA
ATOM     74  O   UNL A   1      46.272  25.526  36.431  1.00  0.00    -0.744 OA
ENDBRANCH  70  71
ENDBRANCH  49  63
BRANCH  50  75
ATOM     75  C   UNL A   1      43.550  25.606  26.401  1.00  0.00     0.058 A 
ATOM     76  C   UNL A   1      44.458  25.381  25.349  1.00  0.00     0.135 A 
ATOM     77  C   UNL A   1      42.929  24.457  26.933  1.00  0.00     0.135 A 
ATOM     78  F   UNL A   1      45.111  26.410  24.790  1.00  0.00    -0.206 F 
ATOM     79  C   UNL A   1      44.770  24.092  24.890  1.00  0.00     0.059 A 
ATOM     80  C   UNL A   1      43.217  23.167  26.487  1.00  0.00     0.059 A 
ATOM     81  F   UNL A   1      42.087  24.544  27.974  1.00  0.00    -0.206 F 
ATOM     82  C   UNL A   1      44.159  22.989  25.482  1.00  0.00     0.060 A 
BRANCH  82  83
ATOM     83  S   UNL A   1      44.690  21.319  25.026  1.00  0.00     0.124 S 
ATOM     84  O   UNL A   1      46.023  21.253  25.614  1.00  0.00    -0.237 OA
ATOM     85  O   UNL A   1      43.672  20.487  25.659  1.00  0.00    -0.237 OA
ATOM     86  O   UNL A   1      44.653  21.340  23.566  1.00  0.00    -0.744 OA
ENDBRANCH  82  83
ENDBRANCH  50  75
BRANCH  62  87
ATOM     87  C   UNL A   1      45.327  31.262  28.631  1.00  0.00     0.058 A 
ATOM     88  C   UNL A   1      44.356  31.836  27.788  1.00  0.00     0.135 A 
ATOM     89  C   UNL A   1      46.629  31.775  28.540  1.00  0.00     0.135 A 
ATOM     90  F   UNL A   1      43.067  31.486  27.882  1.00  0.00    -0.206 F 
ATOM     91  C   UNL A   1      44.674  32.840  26.871  1.00  0.00     0.059 A 
ATOM     92  C   UNL A   1      46.962  32.797  27.656  1.00  0.00     0.059 A 
ATOM     93  F   UNL A   1      47.589  31.319  29.361  1.00  0.00    -0.206 F 
ATOM     94  C   UNL A   1      45.982  33.316  26.813  1.00  0.00     0.060 A 
BRANCH  94  95
ATOM     95  S   UNL A   1      46.381  34.660  25.675  1.00  0.00     0.124 S 
ATOM     96  O   UNL A   1      47.794  34.419  25.401  1.00  0.00    -0.237 OA
ATOM     97  O   UNL A   1      45.468  34.418  24.563  1.00  0.00    -0.237 OA
ATOM     98  O   UNL A   1      46.095  35.862  26.455  1.00  0.00    -0.744 OA
ENDBRANCH  94  95
ENDBRANCH  62  87
ENDBRANCH  36  37
ENDBRANCH  28  31
ENDBRANCH  26  27
ENDBRANCH  25  26
ENDBRANCH   1  25
TORSDOF 17
ENDMDL
