MODEL 1
REMARK VINA RESULT:     -11.4      0.000      0.000
REMARK SMILES CCOc1cc(OCC)cc(-c2ccc([C@@H](C)C(=O)NCCCCNC(=O)c3ccc(-c4c5nc(c(-c6c(F)cc(S(=O)(=O)[O-])cc6F)c6ccc([nH]6)c(-c6c(F)cc(S(=O)(=O)[O-])cc6F)c6nc(c(-c7c(F)cc(S(=O)(=O)[O-])cc7F)c7ccc4[nH]7)C=C6)C=C5)cc3)cc2F)c1
REMARK SMILES IDX 22 1 21 2 20 3 18 4 19 5 16 7 17 8 15 9 12 10 13 11 95 12
REMARK SMILES IDX 14 13 94 14 96 15 11 16 4 17 5 18 97 19 6 20 10 21 3 22 2 23
REMARK SMILES IDX 1 24 7 25 8 26 9 27 23 28 24 29 25 30 26 31 27 33 28 34
REMARK SMILES IDX 29 35 93 36 30 37 92 38 31 39 32 40 33 41 86 42 34 43 91 44
REMARK SMILES IDX 85 45 87 46 35 47 90 48 84 49 83 50 36 52 70 53 49 54 69 55
REMARK SMILES IDX 50 56 53 57 68 58 88 59 51 60 52 61 67 63 89 64 54 65 37 66
REMARK SMILES IDX 38 67 47 68 39 69 40 70 46 71 48 72 41 73 42 74 43 75 44 76
REMARK SMILES IDX 45 77 71 78 72 79 81 80 73 81 74 82 80 83 82 84 75 85 76 86
REMARK SMILES IDX 77 87 78 88 79 89 55 90 56 91 65 92 57 93 58 94 64 95 66 96
REMARK SMILES IDX 59 97 60 98 61 99 62 100 63 101
REMARK H PARENT 20 6 25 32 87 51 53 62
REMARK Flexibility Score: inf
ROOT
ATOM      1  C   UNL A   1      34.588  22.687  27.295  1.00  0.00     0.023 C 
ENDROOT
BRANCH   1   2
ATOM      2  C   UNL A   1      33.842  21.361  27.135  1.00  0.00     0.116 C 
BRANCH   2   3
ATOM      3  N   UNL A   1      34.450  20.508  26.133  1.00  0.00    -0.356 N 
ATOM      4  C   UNL A   1      33.957  19.942  24.998  1.00  0.00     0.227 C 
ATOM      5  O   UNL A   1      34.725  19.199  24.375  1.00  0.00    -0.274 OA
ATOM      6  H   UNL A   1      35.396  20.298  26.307  1.00  0.00     0.163 HD
BRANCH   4   7
ATOM      7  C   UNL A   1      32.536  20.182  24.463  1.00  0.00     0.105 C 
ATOM      8  C   UNL A   1      32.152  19.294  23.279  1.00  0.00     0.023 C 
BRANCH   7   9
ATOM      9  C   UNL A   1      32.185  21.653  24.319  1.00  0.00    -0.033 A 
ATOM     10  C   UNL A   1      31.640  24.462  24.206  1.00  0.00     0.018 A 
ATOM     11  C   UNL A   1      32.455  23.818  23.255  1.00  0.00     0.012 A 
ATOM     12  C   UNL A   1      31.087  23.644  25.200  1.00  0.00     0.131 A 
ATOM     13  C   UNL A   1      32.679  22.440  23.280  1.00  0.00     0.005 A 
ATOM     14  C   UNL A   1      31.369  22.276  25.274  1.00  0.00     0.044 A 
ATOM     15  F   UNL A   1      30.256  24.153  26.123  1.00  0.00    -0.206 F 
BRANCH  10  16
ATOM     16  C   UNL A   1      31.427  25.927  24.125  1.00  0.00    -0.008 A 
ATOM     17  C   UNL A   1      30.469  27.906  23.077  1.00  0.00     0.123 A 
ATOM     18  C   UNL A   1      30.918  28.707  24.126  1.00  0.00     0.092 A 
ATOM     19  C   UNL A   1      30.729  26.534  23.073  1.00  0.00     0.055 A 
ATOM     20  C   UNL A   1      31.635  28.139  25.178  1.00  0.00     0.123 A 
ATOM     21  C   UNL A   1      31.899  26.770  25.150  1.00  0.00     0.055 A 
BRANCH  17  22
ATOM     22  O   UNL A   1      29.887  28.521  22.001  1.00  0.00    -0.494 OA
BRANCH  22  23
ATOM     23  C   UNL A   1      29.074  29.650  22.347  1.00  0.00     0.226 C 
ATOM     24  C   UNL A   1      27.667  29.236  22.752  1.00  0.00     0.049 C 
ENDBRANCH  22  23
ENDBRANCH  17  22
BRANCH  20  25
ATOM     25  O   UNL A   1      32.008  28.993  26.181  1.00  0.00    -0.494 OA
BRANCH  25  26
ATOM     26  C   UNL A   1      33.278  29.645  26.078  1.00  0.00     0.226 C 
ATOM     27  C   UNL A   1      34.318  29.022  27.000  1.00  0.00     0.049 C 
ENDBRANCH  25  26
ENDBRANCH  20  25
ENDBRANCH  10  16
ENDBRANCH   7   9
ENDBRANCH   4   7
ENDBRANCH   2   3
ENDBRANCH   1   2
BRANCH   1  28
ATOM     28  C   UNL A   1      34.831  23.457  25.997  1.00  0.00     0.023 C 
BRANCH  28  29
ATOM     29  C   UNL A   1      36.286  23.804  25.707  1.00  0.00     0.116 C 
BRANCH  29  30
ATOM     30  N   UNL A   1      37.215  22.710  25.943  1.00  0.00    -0.352 N 
ATOM     31  C   UNL A   1      38.500  22.768  26.437  1.00  0.00     0.251 C 
ATOM     32  H   UNL A   1      36.882  21.810  25.722  1.00  0.00     0.163 HD
ATOM     33  O   UNL A   1      39.179  21.752  26.497  1.00  0.00    -0.269 OA
BRANCH  31  34
ATOM     34  C   UNL A   1      39.062  24.075  26.849  1.00  0.00     0.039 A 
ATOM     35  C   UNL A   1      38.931  24.472  28.182  1.00  0.00     0.014 A 
ATOM     36  C   UNL A   1      39.741  24.887  25.938  1.00  0.00     0.014 A 
ATOM     37  C   UNL A   1      39.536  25.655  28.611  1.00  0.00     0.010 A 
ATOM     38  C   UNL A   1      40.412  26.021  26.384  1.00  0.00     0.010 A 
ATOM     39  C   UNL A   1      40.308  26.424  27.723  1.00  0.00    -0.014 A 
BRANCH  39  40
ATOM     40  C   UNL A   1      40.992  27.661  28.177  1.00  0.00     0.031 A 
ATOM     41  C   UNL A   1      42.488  27.782  28.060  1.00  0.00     0.074 A 
ATOM     42  C   UNL A   1      40.274  28.653  28.739  1.00  0.00     0.049 A 
ATOM     43  N   UNL A   1      43.267  28.772  28.410  1.00  0.00    -0.248 NA
ATOM     44  C   UNL A   1      43.208  26.622  27.506  1.00  0.00     0.031 C 
ATOM     45  C   UNL A   1      38.828  28.623  28.978  1.00  0.00     0.029 A 
ATOM     46  N   UNL A   1      40.661  29.881  29.212  1.00  0.00    -0.354 N 
ATOM     47  C   UNL A   1      44.563  28.353  28.132  1.00  0.00     0.074 A 
ATOM     48  C   UNL A   1      44.472  26.994  27.645  1.00  0.00     0.031 C 
ATOM     49  C   UNL A   1      38.447  29.791  29.521  1.00  0.00     0.029 A 
ATOM     50  C   UNL A   1      39.620  30.643  29.688  1.00  0.00     0.049 A 
ATOM     51  H   UNL A   1      41.597  30.188  29.211  1.00  0.00     0.167 HD
ATOM     52  C   UNL A   1      45.721  29.046  28.242  1.00  0.00     0.037 A 
ATOM     53  C   UNL A   1      39.612  31.893  30.189  1.00  0.00     0.037 A 
ATOM     54  C   UNL A   1      45.802  30.410  28.693  1.00  0.00     0.049 A 
ATOM     55  C   UNL A   1      40.903  32.663  30.250  1.00  0.00     0.074 A 
ATOM     56  C   UNL A   1      46.918  31.224  28.788  1.00  0.00     0.029 A 
ATOM     57  N   UNL A   1      44.718  31.166  29.118  1.00  0.00    -0.354 N 
ATOM     58  N   UNL A   1      42.112  32.275  29.918  1.00  0.00    -0.248 NA
ATOM     59  C   UNL A   1      40.827  34.048  30.732  1.00  0.00     0.031 C 
ATOM     60  C   UNL A   1      46.513  32.464  29.295  1.00  0.00     0.029 A 
ATOM     61  C   UNL A   1      45.140  32.436  29.479  1.00  0.00     0.049 A 
ATOM     62  H   UNL A   1      43.789  30.848  29.157  1.00  0.00     0.167 HD
ATOM     63  C   UNL A   1      42.935  33.377  30.125  1.00  0.00     0.074 A 
ATOM     64  C   UNL A   1      42.083  34.449  30.597  1.00  0.00     0.031 C 
ATOM     65  C   UNL A   1      44.275  33.492  29.940  1.00  0.00     0.037 A 
BRANCH  52  66
ATOM     66  C   UNL A   1      46.990  28.339  27.849  1.00  0.00     0.058 A 
ATOM     67  C   UNL A   1      47.496  28.412  26.540  1.00  0.00     0.135 A 
ATOM     68  C   UNL A   1      47.715  27.591  28.789  1.00  0.00     0.135 A 
ATOM     69  F   UNL A   1      46.833  29.098  25.597  1.00  0.00    -0.206 F 
ATOM     70  C   UNL A   1      48.654  27.739  26.170  1.00  0.00     0.059 A 
ATOM     71  C   UNL A   1      48.893  26.932  28.446  1.00  0.00     0.059 A 
ATOM     72  F   UNL A   1      47.277  27.487  30.054  1.00  0.00    -0.206 F 
ATOM     73  C   UNL A   1      49.344  26.998  27.129  1.00  0.00     0.060 A 
BRANCH  73  74
ATOM     74  S   UNL A   1      50.843  26.123  26.631  1.00  0.00     0.124 S 
ATOM     75  O   UNL A   1      50.652  24.829  27.279  1.00  0.00    -0.237 OA
ATOM     76  O   UNL A   1      50.738  26.125  25.176  1.00  0.00    -0.237 OA
ATOM     77  O   UNL A   1      51.915  26.948  27.180  1.00  0.00    -0.744 OA
ENDBRANCH  73  74
ENDBRANCH  52  66
BRANCH  53  78
ATOM     78  C   UNL A   1      38.332  32.515  30.619  1.00  0.00     0.058 A 
ATOM     79  C   UNL A   1      37.534  33.221  29.708  1.00  0.00     0.135 A 
ATOM     80  C   UNL A   1      37.876  32.407  31.942  1.00  0.00     0.135 A 
ATOM     81  F   UNL A   1      37.929  33.354  28.433  1.00  0.00    -0.206 F 
ATOM     82  C   UNL A   1      36.337  33.817  30.095  1.00  0.00     0.059 A 
ATOM     83  C   UNL A   1      36.672  32.974  32.348  1.00  0.00     0.059 A 
ATOM     84  F   UNL A   1      38.594  31.724  32.847  1.00  0.00    -0.206 F 
ATOM     85  C   UNL A   1      35.915  33.688  31.419  1.00  0.00     0.060 A 
BRANCH  85  86
ATOM     86  S   UNL A   1      34.338  34.426  31.902  1.00  0.00     0.124 S 
ATOM     87  O   UNL A   1      33.801  33.408  32.798  1.00  0.00    -0.237 OA
ATOM     88  O   UNL A   1      34.762  35.672  32.531  1.00  0.00    -0.237 OA
ATOM     89  O   UNL A   1      33.640  34.581  30.630  1.00  0.00    -0.744 OA
ENDBRANCH  85  86
ENDBRANCH  53  78
BRANCH  65  90
ATOM     90  C   UNL A   1      44.888  34.836  30.213  1.00  0.00     0.058 A 
ATOM     91  C   UNL A   1      44.997  35.815  29.214  1.00  0.00     0.135 A 
ATOM     92  C   UNL A   1      45.358  35.151  31.498  1.00  0.00     0.135 A 
ATOM     93  F   UNL A   1      44.564  35.561  27.969  1.00  0.00    -0.206 F 
ATOM     94  C   UNL A   1      45.590  37.047  29.468  1.00  0.00     0.059 A 
ATOM     95  C   UNL A   1      45.930  36.387  31.781  1.00  0.00     0.059 A 
ATOM     96  F   UNL A   1      45.264  34.256  32.492  1.00  0.00    -0.206 F 
ATOM     97  C   UNL A   1      46.061  37.321  30.754  1.00  0.00     0.060 A 
BRANCH  97  98
ATOM     98  S   UNL A   1      46.833  38.921  31.074  1.00  0.00     0.124 S 
ATOM     99  O   UNL A   1      47.488  38.677  32.354  1.00  0.00    -0.237 OA
ATOM    100  O   UNL A   1      47.721  39.078  29.927  1.00  0.00    -0.237 OA
ATOM    101  O   UNL A   1      45.700  39.841  31.112  1.00  0.00    -0.744 OA
ENDBRANCH  97  98
ENDBRANCH  65  90
ENDBRANCH  39  40
ENDBRANCH  31  34
ENDBRANCH  29  30
ENDBRANCH  28  29
ENDBRANCH   1  28
TORSDOF 20
ENDMDL
MODEL 2
REMARK VINA RESULT:     -11.0      2.484      3.107
REMARK SMILES CCOc1cc(OCC)cc(-c2ccc([C@@H](C)C(=O)NCCCCNC(=O)c3ccc(-c4c5nc(c(-c6c(F)cc(S(=O)(=O)[O-])cc6F)c6ccc([nH]6)c(-c6c(F)cc(S(=O)(=O)[O-])cc6F)c6nc(c(-c7c(F)cc(S(=O)(=O)[O-])cc7F)c7ccc4[nH]7)C=C6)C=C5)cc3)cc2F)c1
REMARK SMILES IDX 22 1 21 2 20 3 18 4 19 5 16 7 17 8 15 9 12 10 13 11 95 12
REMARK SMILES IDX 14 13 94 14 96 15 11 16 4 17 5 18 97 19 6 20 10 21 3 22 2 23
REMARK SMILES IDX 1 24 7 25 8 26 9 27 23 28 24 29 25 30 26 31 27 33 28 34
REMARK SMILES IDX 29 35 93 36 30 37 92 38 31 39 32 40 33 41 86 42 34 43 91 44
REMARK SMILES IDX 85 45 87 46 35 47 90 48 84 49 83 50 36 52 70 53 49 54 69 55
REMARK SMILES IDX 50 56 53 57 68 58 88 59 51 60 52 61 67 63 89 64 54 65 37 66
REMARK SMILES IDX 38 67 47 68 39 69 40 70 46 71 48 72 41 73 42 74 43 75 44 76
REMARK SMILES IDX 45 77 71 78 72 79 81 80 73 81 74 82 80 83 82 84 75 85 76 86
REMARK SMILES IDX 77 87 78 88 79 89 55 90 56 91 65 92 57 93 58 94 64 95 66 96
REMARK SMILES IDX 59 97 60 98 61 99 62 100 63 101
REMARK H PARENT 20 6 25 32 87 51 53 62
REMARK Flexibility Score: inf
ROOT
ATOM      1  C   UNL A   1      34.959  22.794  26.743  1.00  0.00     0.023 C 
ENDROOT
BRANCH   1   2
ATOM      2  C   UNL A   1      34.069  21.550  26.774  1.00  0.00     0.116 C 
BRANCH   2   3
ATOM      3  N   UNL A   1      34.584  20.487  25.936  1.00  0.00    -0.356 N 
ATOM      4  C   UNL A   1      34.022  19.770  24.925  1.00  0.00     0.227 C 
ATOM      5  O   UNL A   1      34.715  18.868  24.438  1.00  0.00    -0.274 OA
ATOM      6  H   UNL A   1      35.515  20.235  26.136  1.00  0.00     0.163 HD
BRANCH   4   7
ATOM      7  C   UNL A   1      32.613  20.026  24.369  1.00  0.00     0.105 C 
ATOM      8  C   UNL A   1      32.256  19.179  23.147  1.00  0.00     0.023 C 
BRANCH   7   9
ATOM      9  C   UNL A   1      32.261  21.501  24.269  1.00  0.00    -0.033 A 
ATOM     10  C   UNL A   1      31.704  24.310  24.247  1.00  0.00     0.018 A 
ATOM     11  C   UNL A   1      32.575  23.711  23.317  1.00  0.00     0.012 A 
ATOM     12  C   UNL A   1      31.101  23.447  25.173  1.00  0.00     0.131 A 
ATOM     13  C   UNL A   1      32.807  22.334  23.295  1.00  0.00     0.005 A 
ATOM     14  C   UNL A   1      31.388  22.077  25.203  1.00  0.00     0.044 A 
ATOM     15  F   UNL A   1      30.217  23.911  26.069  1.00  0.00    -0.206 F 
BRANCH  10  16
ATOM     16  C   UNL A   1      31.486  25.776  24.219  1.00  0.00    -0.008 A 
ATOM     17  C   UNL A   1      30.111  27.737  23.777  1.00  0.00     0.123 A 
ATOM     18  C   UNL A   1      31.073  28.568  24.350  1.00  0.00     0.092 A 
ATOM     19  C   UNL A   1      30.320  26.358  23.705  1.00  0.00     0.055 A 
ATOM     20  C   UNL A   1      32.255  28.024  24.850  1.00  0.00     0.123 A 
ATOM     21  C   UNL A   1      32.454  26.647  24.756  1.00  0.00     0.055 A 
BRANCH  17  22
ATOM     22  O   UNL A   1      29.028  28.323  23.178  1.00  0.00    -0.494 OA
BRANCH  22  23
ATOM     23  C   UNL A   1      29.318  29.580  22.556  1.00  0.00     0.226 C 
ATOM     24  C   UNL A   1      28.170  30.062  21.681  1.00  0.00     0.049 C 
ENDBRANCH  22  23
ENDBRANCH  17  22
BRANCH  20  25
ATOM     25  O   UNL A   1      33.128  28.909  25.424  1.00  0.00    -0.494 OA
BRANCH  25  26
ATOM     26  C   UNL A   1      32.792  29.460  26.701  1.00  0.00     0.226 C 
ATOM     27  C   UNL A   1      33.926  30.296  27.281  1.00  0.00     0.049 C 
ENDBRANCH  25  26
ENDBRANCH  20  25
ENDBRANCH  10  16
ENDBRANCH   7   9
ENDBRANCH   4   7
ENDBRANCH   2   3
ENDBRANCH   1   2
BRANCH   1  28
ATOM     28  C   UNL A   1      35.652  23.064  25.407  1.00  0.00     0.023 C 
BRANCH  28  29
ATOM     29  C   UNL A   1      37.000  23.769  25.501  1.00  0.00     0.116 C 
BRANCH  29  30
ATOM     30  N   UNL A   1      38.138  22.865  25.558  1.00  0.00    -0.352 N 
ATOM     31  C   UNL A   1      39.370  23.073  26.140  1.00  0.00     0.251 C 
ATOM     32  H   UNL A   1      38.013  21.990  25.124  1.00  0.00     0.163 HD
ATOM     33  O   UNL A   1      40.251  22.231  26.025  1.00  0.00    -0.269 OA
BRANCH  31  34
ATOM     34  C   UNL A   1      39.627  24.338  26.864  1.00  0.00     0.039 A 
ATOM     35  C   UNL A   1      39.122  24.487  28.158  1.00  0.00     0.014 A 
ATOM     36  C   UNL A   1      40.387  25.359  26.286  1.00  0.00     0.014 A 
ATOM     37  C   UNL A   1      39.434  25.633  28.893  1.00  0.00     0.010 A 
ATOM     38  C   UNL A   1      40.764  26.460  27.046  1.00  0.00     0.010 A 
ATOM     39  C   UNL A   1      40.283  26.615  28.355  1.00  0.00    -0.014 A 
BRANCH  39  40
ATOM     40  C   UNL A   1      40.657  27.817  29.141  1.00  0.00     0.031 A 
ATOM     41  C   UNL A   1      41.993  27.881  29.833  1.00  0.00     0.074 A 
ATOM     42  C   UNL A   1      39.777  28.829  29.272  1.00  0.00     0.049 A 
ATOM     43  N   UNL A   1      42.495  28.835  30.572  1.00  0.00    -0.248 NA
ATOM     44  C   UNL A   1      42.866  26.702  29.703  1.00  0.00     0.031 C 
ATOM     45  C   UNL A   1      38.422  28.853  28.713  1.00  0.00     0.029 A 
ATOM     46  N   UNL A   1      39.888  30.034  29.918  1.00  0.00    -0.354 N 
ATOM     47  C   UNL A   1      43.732  28.369  31.005  1.00  0.00     0.074 A 
ATOM     48  C   UNL A   1      43.875  27.022  30.499  1.00  0.00     0.031 C 
ATOM     49  C   UNL A   1      37.843  30.027  29.013  1.00  0.00     0.029 A 
ATOM     50  C   UNL A   1      38.774  30.830  29.800  1.00  0.00     0.049 A 
ATOM     51  H   UNL A   1      40.692  30.304  30.420  1.00  0.00     0.167 HD
ATOM     52  C   UNL A   1      44.676  29.014  31.731  1.00  0.00     0.037 A 
ATOM     53  C   UNL A   1      38.535  32.072  30.262  1.00  0.00     0.037 A 
ATOM     54  C   UNL A   1      44.542  30.367  32.201  1.00  0.00     0.049 A 
ATOM     55  C   UNL A   1      39.620  32.790  31.018  1.00  0.00     0.074 A 
ATOM     56  C   UNL A   1      45.462  31.135  32.896  1.00  0.00     0.029 A 
ATOM     57  N   UNL A   1      43.418  31.160  32.016  1.00  0.00    -0.354 N 
ATOM     58  N   UNL A   1      40.812  32.360  31.360  1.00  0.00    -0.248 NA
ATOM     59  C   UNL A   1      39.337  34.171  31.432  1.00  0.00     0.031 C 
ATOM     60  C   UNL A   1      44.882  32.383  33.154  1.00  0.00     0.029 A 
ATOM     61  C   UNL A   1      43.619  32.407  32.586  1.00  0.00     0.049 A 
ATOM     62  H   UNL A   1      42.600  30.878  31.549  1.00  0.00     0.167 HD
ATOM     63  C   UNL A   1      41.430  33.425  32.005  1.00  0.00     0.074 A 
ATOM     64  C   UNL A   1      40.486  34.524  31.992  1.00  0.00     0.031 C 
ATOM     65  C   UNL A   1      42.668  33.489  32.557  1.00  0.00     0.037 A 
BRANCH  52  66
ATOM     66  C   UNL A   1      45.942  28.263  32.042  1.00  0.00     0.058 A 
ATOM     67  C   UNL A   1      47.073  28.355  31.213  1.00  0.00     0.135 A 
ATOM     68  C   UNL A   1      46.032  27.452  33.184  1.00  0.00     0.135 A 
ATOM     69  F   UNL A   1      47.035  29.103  30.099  1.00  0.00    -0.206 F 
ATOM     70  C   UNL A   1      48.235  27.643  31.486  1.00  0.00     0.059 A 
ATOM     71  C   UNL A   1      47.196  26.751  33.491  1.00  0.00     0.059 A 
ATOM     72  F   UNL A   1      44.982  27.326  34.009  1.00  0.00    -0.206 F 
ATOM     73  C   UNL A   1      48.286  26.840  32.626  1.00  0.00     0.060 A 
BRANCH  73  74
ATOM     74  S   UNL A   1      49.799  25.914  32.963  1.00  0.00     0.124 S 
ATOM     75  O   UNL A   1      50.693  26.436  31.934  1.00  0.00    -0.237 OA
ATOM     76  O   UNL A   1      50.110  26.309  34.332  1.00  0.00    -0.237 OA
ATOM     77  O   UNL A   1      49.390  24.523  32.792  1.00  0.00    -0.744 OA
ENDBRANCH  73  74
ENDBRANCH  52  66
BRANCH  53  78
ATOM     78  C   UNL A   1      37.238  32.738  29.973  1.00  0.00     0.058 A 
ATOM     79  C   UNL A   1      37.144  33.737  28.993  1.00  0.00     0.135 A 
ATOM     80  C   UNL A   1      36.067  32.384  30.661  1.00  0.00     0.135 A 
ATOM     81  F   UNL A   1      38.237  34.112  28.312  1.00  0.00    -0.206 F 
ATOM     82  C   UNL A   1      35.940  34.377  28.717  1.00  0.00     0.059 A 
ATOM     83  C   UNL A   1      34.846  32.993  30.386  1.00  0.00     0.059 A 
ATOM     84  F   UNL A   1      36.101  31.420  31.594  1.00  0.00    -0.206 F 
ATOM     85  C   UNL A   1      34.796  33.998  29.419  1.00  0.00     0.060 A 
BRANCH  85  86
ATOM     86  S   UNL A   1      33.227  34.802  29.022  1.00  0.00     0.124 S 
ATOM     87  O   UNL A   1      33.682  36.045  28.411  1.00  0.00    -0.237 OA
ATOM     88  O   UNL A   1      32.607  33.835  28.121  1.00  0.00    -0.237 OA
ATOM     89  O   UNL A   1      32.582  34.935  30.324  1.00  0.00    -0.744 OA
ENDBRANCH  85  86
ENDBRANCH  53  78
BRANCH  65  90
ATOM     90  C   UNL A   1      43.081  34.804  33.155  1.00  0.00     0.058 A 
ATOM     91  C   UNL A   1      42.802  35.129  34.492  1.00  0.00     0.135 A 
ATOM     92  C   UNL A   1      43.778  35.746  32.381  1.00  0.00     0.135 A 
ATOM     93  F   UNL A   1      42.135  34.262  35.271  1.00  0.00    -0.206 F 
ATOM     94  C   UNL A   1      43.163  36.358  35.030  1.00  0.00     0.059 A 
ATOM     95  C   UNL A   1      44.173  36.972  32.908  1.00  0.00     0.059 A 
ATOM     96  F   UNL A   1      44.083  35.480  31.102  1.00  0.00    -0.206 F 
ATOM     97  C   UNL A   1      43.843  37.277  34.227  1.00  0.00     0.060 A 
BRANCH  97  98
ATOM     98  S   UNL A   1      44.304  38.873  34.933  1.00  0.00     0.124 S 
ATOM     99  O   UNL A   1      43.370  39.770  34.261  1.00  0.00    -0.237 OA
ATOM    100  O   UNL A   1      44.072  38.667  36.359  1.00  0.00    -0.237 OA
ATOM    101  O   UNL A   1      45.705  39.020  34.548  1.00  0.00    -0.744 OA
ENDBRANCH  97  98
ENDBRANCH  65  90
ENDBRANCH  39  40
ENDBRANCH  31  34
ENDBRANCH  29  30
ENDBRANCH  28  29
ENDBRANCH   1  28
TORSDOF 20
ENDMDL
MODEL 3
REMARK VINA RESULT:     -11.0      2.506      3.762
REMARK SMILES CCOc1cc(OCC)cc(-c2ccc([C@@H](C)C(=O)NCCCCNC(=O)c3ccc(-c4c5nc(c(-c6c(F)cc(S(=O)(=O)[O-])cc6F)c6ccc([nH]6)c(-c6c(F)cc(S(=O)(=O)[O-])cc6F)c6nc(c(-c7c(F)cc(S(=O)(=O)[O-])cc7F)c7ccc4[nH]7)C=C6)C=C5)cc3)cc2F)c1
REMARK SMILES IDX 22 1 21 2 20 3 18 4 19 5 16 7 17 8 15 9 12 10 13 11 95 12
REMARK SMILES IDX 14 13 94 14 96 15 11 16 4 17 5 18 97 19 6 20 10 21 3 22 2 23
REMARK SMILES IDX 1 24 7 25 8 26 9 27 23 28 24 29 25 30 26 31 27 33 28 34
REMARK SMILES IDX 29 35 93 36 30 37 92 38 31 39 32 40 33 41 86 42 34 43 91 44
REMARK SMILES IDX 85 45 87 46 35 47 90 48 84 49 83 50 36 52 70 53 49 54 69 55
REMARK SMILES IDX 50 56 53 57 68 58 88 59 51 60 52 61 67 63 89 64 54 65 37 66
REMARK SMILES IDX 38 67 47 68 39 69 40 70 46 71 48 72 41 73 42 74 43 75 44 76
REMARK SMILES IDX 45 77 71 78 72 79 81 80 73 81 74 82 80 83 82 84 75 85 76 86
REMARK SMILES IDX 77 87 78 88 79 89 55 90 56 91 65 92 57 93 58 94 64 95 66 96
REMARK SMILES IDX 59 97 60 98 61 99 62 100 63 101
REMARK H PARENT 20 6 25 32 87 51 53 62
REMARK Flexibility Score: inf
ROOT
ATOM      1  C   UNL A   1      37.386  21.943  25.069  1.00  0.00     0.023 C 
ENDROOT
BRANCH   1   2
ATOM      2  C   UNL A   1      35.884  21.727  24.876  1.00  0.00     0.116 C 
BRANCH   2   3
ATOM      3  N   UNL A   1      35.195  21.510  26.132  1.00  0.00    -0.356 N 
ATOM      4  C   UNL A   1      33.873  21.408  26.441  1.00  0.00     0.227 C 
ATOM      5  O   UNL A   1      33.596  21.281  27.640  1.00  0.00    -0.274 OA
ATOM      6  H   UNL A   1      35.796  21.418  26.907  1.00  0.00     0.163 HD
BRANCH   4   7
ATOM      7  C   UNL A   1      32.742  21.433  25.401  1.00  0.00     0.105 C 
ATOM      8  C   UNL A   1      32.945  20.475  24.228  1.00  0.00     0.023 C 
BRANCH   7   9
ATOM      9  C   UNL A   1      32.294  22.837  25.030  1.00  0.00    -0.033 A 
ATOM     10  C   UNL A   1      31.534  25.547  24.500  1.00  0.00     0.018 A 
ATOM     11  C   UNL A   1      32.556  24.901  23.779  1.00  0.00     0.012 A 
ATOM     12  C   UNL A   1      30.888  24.779  25.478  1.00  0.00     0.131 A 
ATOM     13  C   UNL A   1      32.892  23.564  24.002  1.00  0.00     0.005 A 
ATOM     14  C   UNL A   1      31.272  23.462  25.758  1.00  0.00     0.044 A 
ATOM     15  F   UNL A   1      29.867  25.286  26.186  1.00  0.00    -0.206 F 
BRANCH  10  16
ATOM     16  C   UNL A   1      31.211  26.966  24.214  1.00  0.00    -0.008 A 
ATOM     17  C   UNL A   1      30.049  28.694  22.952  1.00  0.00     0.123 A 
ATOM     18  C   UNL A   1      30.504  29.675  23.832  1.00  0.00     0.092 A 
ATOM     19  C   UNL A   1      30.406  27.356  23.136  1.00  0.00     0.055 A 
ATOM     20  C   UNL A   1      31.325  29.323  24.902  1.00  0.00     0.123 A 
ATOM     21  C   UNL A   1      31.685  27.985  25.063  1.00  0.00     0.055 A 
BRANCH  17  22
ATOM     22  O   UNL A   1      29.358  29.097  21.841  1.00  0.00    -0.494 OA
BRANCH  22  23
ATOM     23  C   UNL A   1      29.403  30.510  21.609  1.00  0.00     0.226 C 
ATOM     24  C   UNL A   1      28.023  31.086  21.323  1.00  0.00     0.049 C 
ENDBRANCH  22  23
ENDBRANCH  17  22
BRANCH  20  25
ATOM     25  O   UNL A   1      31.697  30.344  25.735  1.00  0.00    -0.494 OA
BRANCH  25  26
ATOM     26  C   UNL A   1      32.289  30.010  26.994  1.00  0.00     0.226 C 
ATOM     27  C   UNL A   1      33.755  30.416  27.065  1.00  0.00     0.049 C 
ENDBRANCH  25  26
ENDBRANCH  20  25
ENDBRANCH  10  16
ENDBRANCH   7   9
ENDBRANCH   4   7
ENDBRANCH   2   3
ENDBRANCH   1   2
BRANCH   1  28
ATOM     28  C   UNL A   1      38.218  20.665  25.176  1.00  0.00     0.023 C 
BRANCH  28  29
ATOM     29  C   UNL A   1      39.332  20.696  26.214  1.00  0.00     0.116 C 
BRANCH  29  30
ATOM     30  N   UNL A   1      40.309  19.628  26.067  1.00  0.00    -0.352 N 
ATOM     31  C   UNL A   1      41.684  19.709  26.127  1.00  0.00     0.251 C 
ATOM     32  H   UNL A   1      39.941  18.729  25.903  1.00  0.00     0.163 HD
ATOM     33  O   UNL A   1      42.365  18.719  25.899  1.00  0.00    -0.269 OA
BRANCH  31  34
ATOM     34  C   UNL A   1      42.322  21.011  26.425  1.00  0.00     0.039 A 
ATOM     35  C   UNL A   1      42.608  21.877  25.367  1.00  0.00     0.014 A 
ATOM     36  C   UNL A   1      42.609  21.390  27.739  1.00  0.00     0.014 A 
ATOM     37  C   UNL A   1      43.122  23.148  25.635  1.00  0.00     0.010 A 
ATOM     38  C   UNL A   1      43.043  22.684  28.009  1.00  0.00     0.010 A 
ATOM     39  C   UNL A   1      43.315  23.573  26.960  1.00  0.00    -0.014 A 
BRANCH  39  40
ATOM     40  C   UNL A   1      43.820  24.937  27.260  1.00  0.00     0.031 A 
ATOM     41  C   UNL A   1      45.270  25.271  27.036  1.00  0.00     0.074 A 
ATOM     42  C   UNL A   1      42.984  25.858  27.779  1.00  0.00     0.049 A 
ATOM     43  N   UNL A   1      45.901  26.397  27.249  1.00  0.00    -0.248 NA
ATOM     44  C   UNL A   1      46.134  24.186  26.539  1.00  0.00     0.031 C 
ATOM     45  C   UNL A   1      41.575  25.633  28.113  1.00  0.00     0.029 A 
ATOM     46  N   UNL A   1      43.198  27.170  28.119  1.00  0.00    -0.354 N 
ATOM     47  C   UNL A   1      47.231  26.154  26.925  1.00  0.00     0.074 A 
ATOM     48  C   UNL A   1      47.329  24.757  26.564  1.00  0.00     0.031 C 
ATOM     49  C   UNL A   1      41.044  26.776  28.576  1.00  0.00     0.029 A 
ATOM     50  C   UNL A   1      42.076  27.808  28.593  1.00  0.00     0.049 A 
ATOM     51  H   UNL A   1      44.073  27.613  28.031  1.00  0.00     0.167 HD
ATOM     52  C   UNL A   1      48.271  27.021  26.900  1.00  0.00     0.037 A 
ATOM     53  C   UNL A   1      41.898  29.084  28.984  1.00  0.00     0.037 A 
ATOM     54  C   UNL A   1      48.160  28.418  27.225  1.00  0.00     0.049 A 
ATOM     55  C   UNL A   1      43.054  30.043  28.894  1.00  0.00     0.074 A 
ATOM     56  C   UNL A   1      49.138  29.397  27.177  1.00  0.00     0.029 A 
ATOM     57  N   UNL A   1      46.994  29.039  27.652  1.00  0.00    -0.354 N 
ATOM     58  N   UNL A   1      44.290  29.812  28.520  1.00  0.00    -0.248 NA
ATOM     59  C   UNL A   1      42.786  31.440  29.259  1.00  0.00     0.031 C 
ATOM     60  C   UNL A   1      48.570  30.604  27.601  1.00  0.00     0.029 A 
ATOM     61  C   UNL A   1      47.230  30.386  27.874  1.00  0.00     0.049 A 
ATOM     62  H   UNL A   1      46.129  28.589  27.778  1.00  0.00     0.167 HD
ATOM     63  C   UNL A   1      44.940  31.040  28.577  1.00  0.00     0.074 A 
ATOM     64  C   UNL A   1      43.956  32.012  29.009  1.00  0.00     0.031 C 
ATOM     65  C   UNL A   1      46.234  31.338  28.297  1.00  0.00     0.037 A 
BRANCH  52  66
ATOM     66  C   UNL A   1      49.613  26.480  26.489  1.00  0.00     0.058 A 
ATOM     67  C   UNL A   1      50.520  25.970  27.434  1.00  0.00     0.135 A 
ATOM     68  C   UNL A   1      49.995  26.459  25.139  1.00  0.00     0.135 A 
ATOM     69  F   UNL A   1      50.213  25.982  28.740  1.00  0.00    -0.206 F 
ATOM     70  C   UNL A   1      51.770  25.491  27.058  1.00  0.00     0.059 A 
ATOM     71  C   UNL A   1      51.232  25.959  24.738  1.00  0.00     0.059 A 
ATOM     72  F   UNL A   1      49.169  26.935  24.194  1.00  0.00    -0.206 F 
ATOM     73  C   UNL A   1      52.119  25.494  25.707  1.00  0.00     0.060 A 
BRANCH  73  74
ATOM     74  S   UNL A   1      53.749  24.877  25.236  1.00  0.00     0.124 S 
ATOM     75  O   UNL A   1      54.031  25.680  24.050  1.00  0.00    -0.237 OA
ATOM     76  O   UNL A   1      54.553  25.183  26.414  1.00  0.00    -0.237 OA
ATOM     77  O   UNL A   1      53.516  23.457  24.992  1.00  0.00    -0.744 OA
ENDBRANCH  73  74
ENDBRANCH  52  66
BRANCH  53  78
ATOM     78  C   UNL A   1      40.559  29.544  29.440  1.00  0.00     0.058 A 
ATOM     79  C   UNL A   1      40.298  29.759  30.801  1.00  0.00     0.135 A 
ATOM     80  C   UNL A   1      39.521  29.786  28.528  1.00  0.00     0.135 A 
ATOM     81  F   UNL A   1      41.258  29.538  31.711  1.00  0.00    -0.206 F 
ATOM     82  C   UNL A   1      39.049  30.180  31.247  1.00  0.00     0.059 A 
ATOM     83  C   UNL A   1      38.270  30.230  28.946  1.00  0.00     0.059 A 
ATOM     84  F   UNL A   1      39.727  29.614  27.213  1.00  0.00    -0.206 F 
ATOM     85  C   UNL A   1      38.041  30.413  30.310  1.00  0.00     0.060 A 
BRANCH  85  86
ATOM     86  S   UNL A   1      36.436  31.004  30.893  1.00  0.00     0.124 S 
ATOM     87  O   UNL A   1      36.063  31.932  29.832  1.00  0.00    -0.237 OA
ATOM     88  O   UNL A   1      35.661  29.769  30.964  1.00  0.00    -0.237 OA
ATOM     89  O   UNL A   1      36.752  31.610  32.183  1.00  0.00    -0.744 OA
ENDBRANCH  85  86
ENDBRANCH  53  78
BRANCH  65  90
ATOM     90  C   UNL A   1      46.642  32.779  28.413  1.00  0.00     0.058 A 
ATOM     91  C   UNL A   1      47.166  33.307  29.603  1.00  0.00     0.135 A 
ATOM     92  C   UNL A   1      46.521  33.640  27.310  1.00  0.00     0.135 A 
ATOM     93  F   UNL A   1      47.300  32.524  30.687  1.00  0.00    -0.206 F 
ATOM     94  C   UNL A   1      47.517  34.648  29.710  1.00  0.00     0.059 A 
ATOM     95  C   UNL A   1      46.891  34.979  27.387  1.00  0.00     0.059 A 
ATOM     96  F   UNL A   1      46.040  33.182  26.144  1.00  0.00    -0.206 F 
ATOM     97  C   UNL A   1      47.368  35.479  28.597  1.00  0.00     0.060 A 
BRANCH  97  98
ATOM     98  S   UNL A   1      47.822  37.220  28.745  1.00  0.00     0.124 S 
ATOM     99  O   UNL A   1      48.153  37.553  27.364  1.00  0.00    -0.237 OA
ATOM    100  O   UNL A   1      46.598  37.821  29.267  1.00  0.00    -0.237 OA
ATOM    101  O   UNL A   1      48.947  37.197  29.675  1.00  0.00    -0.744 OA
ENDBRANCH  97  98
ENDBRANCH  65  90
ENDBRANCH  39  40
ENDBRANCH  31  34
ENDBRANCH  29  30
ENDBRANCH  28  29
ENDBRANCH   1  28
TORSDOF 20
ENDMDL
