MODEL 1
REMARK VINA RESULT:     -11.9      0.000      0.000
REMARK SMILES COc1cccc(N2/C(=[NH+]/C(=O)CCC(=O)NCCCCNC(=O)c3ccc(-c4c5nc(c(-c6c(F)cc(S(=O)(=O)[O-])cc6F)c6ccc([nH]6)c(-c6c(F)cc(S(=O)(=O)[O-])cc6F)c6nc(c(-c7c(F)cc(S(=O)(=O)[O-])cc7F)c7ccc4[nH]7)C=C6)C=C5)cc3)S[C@@H]3CS(=O)(=O)C[C@H]32)c1
REMARK SMILES IDX 19 1 18 2 17 3 15 4 16 5 14 7 13 8 11 9 8 10 9 11 98 12
REMARK SMILES IDX 10 13 91 14 92 15 97 16 93 18 94 19 12 20 95 21 96 22 7 23
REMARK SMILES IDX 3 24 4 25 99 26 5 27 6 28 2 29 1 30 20 31 21 32 22 33 23 34
REMARK SMILES IDX 24 36 25 37 26 38 90 39 27 40 89 41 28 42 29 43 30 44 83 45
REMARK SMILES IDX 31 46 88 47 82 48 84 49 32 50 87 51 81 52 80 53 33 55 67 56
REMARK SMILES IDX 46 57 66 58 47 59 50 60 65 61 85 62 48 63 49 64 64 66 86 67
REMARK SMILES IDX 51 68 34 69 35 70 44 71 36 72 37 73 43 74 45 75 38 76 39 77
REMARK SMILES IDX 40 78 41 79 42 80 68 81 69 82 78 83 70 84 71 85 77 86 79 87
REMARK SMILES IDX 72 88 73 89 74 90 75 91 76 92 52 93 53 94 62 95 54 96 55 97
REMARK SMILES IDX 61 98 63 99 56 100 57 101 58 102 59 103 60 104
REMARK H PARENT 17 6 10 17 22 35 84 54 50 65
REMARK Flexibility Score: inf
ROOT
ATOM      1  C   UNL A   1      41.324  23.455  27.313  1.00  0.00     0.023 C 
ENDROOT
BRANCH   1   2
ATOM      2  C   UNL A   1      40.642  22.095  27.481  1.00  0.00     0.116 C 
BRANCH   2   3
ATOM      3  N   UNL A   1      41.223  21.044  26.658  1.00  0.00    -0.356 N 
ATOM      4  C   UNL A   1      40.662  19.958  26.063  1.00  0.00     0.220 C 
ATOM      5  O   UNL A   1      41.395  19.199  25.430  1.00  0.00    -0.275 OA
ATOM      6  H   UNL A   1      42.192  21.136  26.504  1.00  0.00     0.163 HD
BRANCH   4   7
ATOM      7  C   UNL A   1      39.173  19.724  26.146  1.00  0.00     0.112 C 
BRANCH   7   8
ATOM      8  C   UNL A   1      38.501  20.032  24.812  1.00  0.00     0.138 C 
BRANCH   8   9
ATOM      9  C   UNL A   1      37.427  21.084  24.978  1.00  0.00     0.308 C 
ATOM     10  N   UNL A   1      33.747  20.912  25.145  1.00  0.00    -0.216 N 
ATOM     11  C   UNL A   1      35.106  21.271  25.279  1.00  0.00     0.319 C 
ATOM     12  C   UNL A   1      32.836  21.796  25.912  1.00  0.00     0.212 C 
ATOM     13  N   UNL A   1      36.139  20.612  24.857  1.00  0.00    -0.204 N 
ATOM     14  S   UNL A   1      35.206  22.817  26.204  1.00  0.00    -0.029 SA
ATOM     15  C   UNL A   1      33.501  23.176  25.833  1.00  0.00     0.120 C 
ATOM     16  C   UNL A   1      31.401  22.058  25.484  1.00  0.00     0.188 C 
ATOM     17  H   UNL A   1      35.996  19.736  24.431  1.00  0.00     0.316 HD
ATOM     18  C   UNL A   1      32.706  24.077  26.737  1.00  0.00     0.156 C 
ATOM     19  S   UNL A   1      31.059  23.725  26.129  1.00  0.00     0.155 S 
ATOM     20  O   UNL A   1      37.780  22.247  25.165  1.00  0.00    -0.247 OA
ATOM     21  O   UNL A   1      30.817  24.606  25.007  1.00  0.00    -0.229 OA
ATOM     22  O   UNL A   1      30.150  23.662  27.251  1.00  0.00    -0.229 OA
BRANCH  10  23
ATOM     23  C   UNL A   1      33.295  19.629  24.767  1.00  0.00     0.132 A 
ATOM     24  C   UNL A   1      32.790  17.271  25.290  1.00  0.00     0.123 A 
ATOM     25  C   UNL A   1      32.450  17.054  23.959  1.00  0.00     0.047 A 
ATOM     26  C   UNL A   1      33.222  18.547  25.673  1.00  0.00     0.098 A 
ATOM     27  C   UNL A   1      32.528  18.092  23.035  1.00  0.00     0.008 A 
ATOM     28  C   UNL A   1      32.940  19.367  23.439  1.00  0.00     0.052 A 
BRANCH  24  29
ATOM     29  O   UNL A   1      32.699  16.156  26.074  1.00  0.00    -0.497 OA
ATOM     30  C   UNL A   1      32.659  14.871  25.474  1.00  0.00     0.278 C 
ENDBRANCH  24  29
ENDBRANCH  10  23
ENDBRANCH   8   9
ENDBRANCH   7   8
ENDBRANCH   4   7
ENDBRANCH   2   3
ENDBRANCH   1   2
BRANCH   1  31
ATOM     31  C   UNL A   1      42.196  23.536  26.067  1.00  0.00     0.023 C 
BRANCH  31  32
ATOM     32  C   UNL A   1      43.342  24.526  26.013  1.00  0.00     0.116 C 
BRANCH  32  33
ATOM     33  N   UNL A   1      43.089  25.655  25.141  1.00  0.00    -0.352 N 
ATOM     34  C   UNL A   1      42.773  26.973  25.382  1.00  0.00     0.251 C 
ATOM     35  H   UNL A   1      43.157  25.435  24.183  1.00  0.00     0.163 HD
ATOM     36  O   UNL A   1      42.576  27.673  24.387  1.00  0.00    -0.269 OA
BRANCH  34  37
ATOM     37  C   UNL A   1      42.559  27.559  26.743  1.00  0.00     0.039 A 
ATOM     38  C   UNL A   1      41.536  27.005  27.531  1.00  0.00     0.014 A 
ATOM     39  C   UNL A   1      43.275  28.629  27.274  1.00  0.00     0.014 A 
ATOM     40  C   UNL A   1      41.296  27.438  28.842  1.00  0.00     0.010 A 
ATOM     41  C   UNL A   1      43.079  29.037  28.599  1.00  0.00     0.010 A 
ATOM     42  C   UNL A   1      42.075  28.458  29.390  1.00  0.00    -0.014 A 
BRANCH  42  43
ATOM     43  C   UNL A   1      41.726  29.090  30.687  1.00  0.00     0.031 A 
ATOM     44  C   UNL A   1      40.522  29.991  30.733  1.00  0.00     0.074 A 
ATOM     45  C   UNL A   1      42.472  28.904  31.791  1.00  0.00     0.049 A 
ATOM     46  N   UNL A   1      40.090  30.758  31.698  1.00  0.00    -0.248 NA
ATOM     47  C   UNL A   1      39.707  30.045  29.508  1.00  0.00     0.031 C 
ATOM     48  C   UNL A   1      43.634  28.024  31.893  1.00  0.00     0.029 A 
ATOM     49  N   UNL A   1      42.364  29.463  33.041  1.00  0.00    -0.354 N 
ATOM     50  C   UNL A   1      38.968  31.402  31.191  1.00  0.00     0.074 A 
ATOM     51  C   UNL A   1      38.814  30.969  29.819  1.00  0.00     0.031 C 
ATOM     52  C   UNL A   1      44.131  28.101  33.140  1.00  0.00     0.029 A 
ATOM     53  C   UNL A   1      43.351  29.069  33.911  1.00  0.00     0.049 A 
ATOM     54  H   UNL A   1      41.644  30.088  33.291  1.00  0.00     0.167 HD
ATOM     55  C   UNL A   1      38.132  32.269  31.813  1.00  0.00     0.037 A 
ATOM     56  C   UNL A   1      43.606  29.461  35.178  1.00  0.00     0.037 A 
ATOM     57  C   UNL A   1      38.290  32.694  33.177  1.00  0.00     0.049 A 
ATOM     58  C   UNL A   1      42.712  30.487  35.829  1.00  0.00     0.074 A 
ATOM     59  C   UNL A   1      37.492  33.556  33.909  1.00  0.00     0.029 A 
ATOM     60  N   UNL A   1      39.322  32.298  34.016  1.00  0.00    -0.354 N 
ATOM     61  N   UNL A   1      41.647  31.084  35.345  1.00  0.00    -0.248 NA
ATOM     62  C   UNL A   1      43.056  30.897  37.198  1.00  0.00     0.031 C 
ATOM     63  C   UNL A   1      38.076  33.728  35.168  1.00  0.00     0.029 A 
ATOM     64  C   UNL A   1      39.201  32.921  35.246  1.00  0.00     0.049 A 
ATOM     65  H   UNL A   1      40.037  31.665  33.772  1.00  0.00     0.167 HD
ATOM     66  C   UNL A   1      41.177  31.912  36.361  1.00  0.00     0.074 A 
ATOM     67  C   UNL A   1      42.071  31.736  37.487  1.00  0.00     0.031 C 
ATOM     68  C   UNL A   1      40.097  32.736  36.363  1.00  0.00     0.037 A 
BRANCH  55  69
ATOM     69  C   UNL A   1      37.007  32.840  30.992  1.00  0.00     0.058 A 
ATOM     70  C   UNL A   1      37.219  33.838  30.027  1.00  0.00     0.135 A 
ATOM     71  C   UNL A   1      35.687  32.408  31.205  1.00  0.00     0.135 A 
ATOM     72  F   UNL A   1      38.458  34.302  29.795  1.00  0.00    -0.206 F 
ATOM     73  C   UNL A   1      36.160  34.430  29.347  1.00  0.00     0.059 A 
ATOM     74  C   UNL A   1      34.617  32.960  30.510  1.00  0.00     0.059 A 
ATOM     75  F   UNL A   1      35.425  31.457  32.115  1.00  0.00    -0.206 F 
ATOM     76  C   UNL A   1      34.860  33.991  29.603  1.00  0.00     0.060 A 
BRANCH  76  77
ATOM     77  S   UNL A   1      33.491  34.806  28.757  1.00  0.00     0.124 S 
ATOM     78  O   UNL A   1      32.528  34.955  29.843  1.00  0.00    -0.237 OA
ATOM     79  O   UNL A   1      34.107  36.041  28.283  1.00  0.00    -0.237 OA
ATOM     80  O   UNL A   1      33.119  33.854  27.716  1.00  0.00    -0.744 OA
ENDBRANCH  76  77
ENDBRANCH  55  69
BRANCH  56  81
ATOM     81  C   UNL A   1      44.753  28.870  35.921  1.00  0.00     0.058 A 
ATOM     82  C   UNL A   1      44.615  27.656  36.610  1.00  0.00     0.135 A 
ATOM     83  C   UNL A   1      46.012  29.491  35.943  1.00  0.00     0.135 A 
ATOM     84  F   UNL A   1      43.426  27.033  36.638  1.00  0.00    -0.206 F 
ATOM     85  C   UNL A   1      45.681  27.074  37.289  1.00  0.00     0.059 A 
ATOM     86  C   UNL A   1      47.101  28.917  36.593  1.00  0.00     0.059 A 
ATOM     87  F   UNL A   1      46.200  30.653  35.298  1.00  0.00    -0.206 F 
ATOM     88  C   UNL A   1      46.925  27.707  37.264  1.00  0.00     0.060 A 
BRANCH  88  89
ATOM     89  S   UNL A   1      48.323  26.897  38.072  1.00  0.00     0.124 S 
ATOM     90  O   UNL A   1      49.425  27.785  37.719  1.00  0.00    -0.237 OA
ATOM     91  O   UNL A   1      47.913  26.913  39.473  1.00  0.00    -0.237 OA
ATOM     92  O   UNL A   1      48.351  25.577  37.450  1.00  0.00    -0.744 OA
ENDBRANCH  88  89
ENDBRANCH  56  81
BRANCH  68  93
ATOM     93  C   UNL A   1      39.790  33.486  37.633  1.00  0.00     0.058 A 
ATOM     94  C   UNL A   1      40.421  34.699  37.952  1.00  0.00     0.135 A 
ATOM     95  C   UNL A   1      38.800  33.015  38.511  1.00  0.00     0.135 A 
ATOM     96  F   UNL A   1      41.378  35.194  37.151  1.00  0.00    -0.206 F 
ATOM     97  C   UNL A   1      40.094  35.407  39.105  1.00  0.00     0.059 A 
ATOM     98  C   UNL A   1      38.435  33.721  39.652  1.00  0.00     0.059 A 
ATOM     99  F   UNL A   1      38.155  31.866  38.249  1.00  0.00    -0.206 F 
ATOM    100  C   UNL A   1      39.097  34.912  39.947  1.00  0.00     0.060 A 
BRANCH 100 101
ATOM    101  S   UNL A   1      38.656  35.862  41.418  1.00  0.00     0.124 S 
ATOM    102  O   UNL A   1      37.403  35.227  41.813  1.00  0.00    -0.237 OA
ATOM    103  O   UNL A   1      39.795  35.619  42.299  1.00  0.00    -0.237 OA
ATOM    104  O   UNL A   1      38.538  37.228  40.920  1.00  0.00    -0.744 OA
ENDBRANCH 100 101
ENDBRANCH  68  93
ENDBRANCH  42  43
ENDBRANCH  34  37
ENDBRANCH  32  33
ENDBRANCH  31  32
ENDBRANCH   1  31
TORSDOF 18
ENDMDL
MODEL 2
REMARK VINA RESULT:     -11.6      2.919      5.130
REMARK SMILES COc1cccc(N2/C(=[NH+]/C(=O)CCC(=O)NCCCCNC(=O)c3ccc(-c4c5nc(c(-c6c(F)cc(S(=O)(=O)[O-])cc6F)c6ccc([nH]6)c(-c6c(F)cc(S(=O)(=O)[O-])cc6F)c6nc(c(-c7c(F)cc(S(=O)(=O)[O-])cc7F)c7ccc4[nH]7)C=C6)C=C5)cc3)S[C@@H]3CS(=O)(=O)C[C@H]32)c1
REMARK SMILES IDX 19 1 18 2 17 3 15 4 16 5 14 7 13 8 11 9 8 10 9 11 98 12
REMARK SMILES IDX 10 13 91 14 92 15 97 16 93 18 94 19 12 20 95 21 96 22 7 23
REMARK SMILES IDX 3 24 4 25 99 26 5 27 6 28 2 29 1 30 20 31 21 32 22 33 23 34
REMARK SMILES IDX 24 36 25 37 26 38 90 39 27 40 89 41 28 42 29 43 30 44 83 45
REMARK SMILES IDX 31 46 88 47 82 48 84 49 32 50 87 51 81 52 80 53 33 55 67 56
REMARK SMILES IDX 46 57 66 58 47 59 50 60 65 61 85 62 48 63 49 64 64 66 86 67
REMARK SMILES IDX 51 68 34 69 35 70 44 71 36 72 37 73 43 74 45 75 38 76 39 77
REMARK SMILES IDX 40 78 41 79 42 80 68 81 69 82 78 83 70 84 71 85 77 86 79 87
REMARK SMILES IDX 72 88 73 89 74 90 75 91 76 92 52 93 53 94 62 95 54 96 55 97
REMARK SMILES IDX 61 98 63 99 56 100 57 101 58 102 59 103 60 104
REMARK H PARENT 17 6 10 17 22 35 84 54 50 65
REMARK Flexibility Score: inf
ROOT
ATOM      1  C   UNL A   1      38.025  24.074  26.410  1.00  0.00     0.023 C 
ENDROOT
BRANCH   1   2
ATOM      2  C   UNL A   1      36.591  23.694  26.035  1.00  0.00     0.116 C 
BRANCH   2   3
ATOM      3  N   UNL A   1      36.438  23.289  24.645  1.00  0.00    -0.356 N 
ATOM      4  C   UNL A   1      35.513  23.629  23.709  1.00  0.00     0.220 C 
ATOM      5  O   UNL A   1      35.600  23.115  22.594  1.00  0.00    -0.275 OA
ATOM      6  H   UNL A   1      37.125  22.658  24.327  1.00  0.00     0.163 HD
BRANCH   4   7
ATOM      7  C   UNL A   1      34.440  24.642  24.025  1.00  0.00     0.112 C 
BRANCH   7   8
ATOM      8  C   UNL A   1      33.063  23.986  24.037  1.00  0.00     0.138 C 
BRANCH   8   9
ATOM      9  C   UNL A   1      32.002  24.948  23.553  1.00  0.00     0.308 C 
ATOM     10  N   UNL A   1      31.162  28.425  24.454  1.00  0.00    -0.216 N 
ATOM     11  C   UNL A   1      31.341  27.188  23.795  1.00  0.00     0.319 C 
ATOM     12  C   UNL A   1      30.600  29.475  23.570  1.00  0.00     0.212 C 
ATOM     13  N   UNL A   1      31.941  26.134  24.251  1.00  0.00    -0.204 N 
ATOM     14  S   UNL A   1      30.627  27.306  22.142  1.00  0.00    -0.029 SA
ATOM     15  C   UNL A   1      29.651  28.711  22.640  1.00  0.00     0.120 C 
ATOM     16  C   UNL A   1      29.750  30.618  24.100  1.00  0.00     0.188 C 
ATOM     17  H   UNL A   1      32.372  26.183  25.134  1.00  0.00     0.316 HD
ATOM     18  C   UNL A   1      29.181  29.704  21.613  1.00  0.00     0.156 C 
ATOM     19  S   UNL A   1      28.663  31.030  22.700  1.00  0.00     0.155 S 
ATOM     20  O   UNL A   1      31.276  24.591  22.626  1.00  0.00    -0.247 OA
ATOM     21  O   UNL A   1      27.296  30.758  23.088  1.00  0.00    -0.229 OA
ATOM     22  O   UNL A   1      29.045  32.293  22.112  1.00  0.00    -0.229 OA
BRANCH  10  23
ATOM     23  C   UNL A   1      31.854  28.812  25.622  1.00  0.00     0.132 A 
ATOM     24  C   UNL A   1      33.343  30.353  26.845  1.00  0.00     0.123 A 
ATOM     25  C   UNL A   1      33.281  29.522  27.958  1.00  0.00     0.047 A 
ATOM     26  C   UNL A   1      32.644  29.982  25.689  1.00  0.00     0.098 A 
ATOM     27  C   UNL A   1      32.528  28.352  27.920  1.00  0.00     0.008 A 
ATOM     28  C   UNL A   1      31.817  28.007  26.766  1.00  0.00     0.052 A 
BRANCH  24  29
ATOM     29  O   UNL A   1      34.146  31.446  27.013  1.00  0.00    -0.497 OA
ATOM     30  C   UNL A   1      35.401  31.308  27.660  1.00  0.00     0.278 C 
ENDBRANCH  24  29
ENDBRANCH  10  23
ENDBRANCH   8   9
ENDBRANCH   7   8
ENDBRANCH   4   7
ENDBRANCH   2   3
ENDBRANCH   1   2
BRANCH   1  31
ATOM     31  C   UNL A   1      38.969  22.880  26.449  1.00  0.00     0.023 C 
BRANCH  31  32
ATOM     32  C   UNL A   1      40.383  23.056  26.966  1.00  0.00     0.116 C 
BRANCH  32  33
ATOM     33  N   UNL A   1      41.196  23.926  26.139  1.00  0.00    -0.352 N 
ATOM     34  C   UNL A   1      41.665  25.208  26.309  1.00  0.00     0.251 C 
ATOM     35  H   UNL A   1      41.466  23.517  25.285  1.00  0.00     0.163 HD
ATOM     36  O   UNL A   1      42.308  25.679  25.368  1.00  0.00    -0.269 OA
BRANCH  34  37
ATOM     37  C   UNL A   1      41.360  26.075  27.491  1.00  0.00     0.039 A 
ATOM     38  C   UNL A   1      42.216  27.162  27.734  1.00  0.00     0.014 A 
ATOM     39  C   UNL A   1      40.310  25.869  28.384  1.00  0.00     0.014 A 
ATOM     40  C   UNL A   1      41.982  28.070  28.776  1.00  0.00     0.010 A 
ATOM     41  C   UNL A   1      40.036  26.796  29.397  1.00  0.00     0.010 A 
ATOM     42  C   UNL A   1      40.880  27.895  29.614  1.00  0.00    -0.014 A 
BRANCH  42  43
ATOM     43  C   UNL A   1      40.708  28.702  30.848  1.00  0.00     0.031 A 
ATOM     44  C   UNL A   1      39.648  29.770  30.853  1.00  0.00     0.074 A 
ATOM     45  C   UNL A   1      41.491  28.524  31.927  1.00  0.00     0.049 A 
ATOM     46  N   UNL A   1      39.392  30.688  31.747  1.00  0.00    -0.248 NA
ATOM     47  C   UNL A   1      38.771  29.815  29.671  1.00  0.00     0.031 C 
ATOM     48  C   UNL A   1      42.523  27.499  32.068  1.00  0.00     0.029 A 
ATOM     49  N   UNL A   1      41.544  29.219  33.111  1.00  0.00    -0.354 N 
ATOM     50  C   UNL A   1      38.340  31.434  31.228  1.00  0.00     0.074 A 
ATOM     51  C   UNL A   1      38.039  30.888  29.922  1.00  0.00     0.031 C 
ATOM     52  C   UNL A   1      43.106  27.630  33.273  1.00  0.00     0.029 A 
ATOM     53  C   UNL A   1      42.522  28.777  33.970  1.00  0.00     0.049 A 
ATOM     54  H   UNL A   1      40.937  29.965  33.325  1.00  0.00     0.167 HD
ATOM     55  C   UNL A   1      37.677  32.472  31.789  1.00  0.00     0.037 A 
ATOM     56  C   UNL A   1      42.911  29.256  35.170  1.00  0.00     0.037 A 
ATOM     57  C   UNL A   1      37.981  33.009  33.088  1.00  0.00     0.049 A 
ATOM     58  C   UNL A   1      42.214  30.463  35.746  1.00  0.00     0.074 A 
ATOM     59  C   UNL A   1      37.362  34.049  33.757  1.00  0.00     0.029 A 
ATOM     60  N   UNL A   1      39.000  32.554  33.914  1.00  0.00    -0.354 N 
ATOM     61  N   UNL A   1      41.214  31.157  35.252  1.00  0.00    -0.248 NA
ATOM     62  C   UNL A   1      42.701  30.958  37.042  1.00  0.00     0.031 C 
ATOM     63  C   UNL A   1      38.045  34.263  34.959  1.00  0.00     0.029 A 
ATOM     64  C   UNL A   1      39.048  33.313  35.071  1.00  0.00     0.049 A 
ATOM     65  H   UNL A   1      39.602  31.802  33.706  1.00  0.00     0.167 HD
ATOM     66  C   UNL A   1      40.931  32.145  36.192  1.00  0.00     0.074 A 
ATOM     67  C   UNL A   1      41.864  31.958  37.284  1.00  0.00     0.031 C 
ATOM     68  C   UNL A   1      39.981  33.114  36.155  1.00  0.00     0.037 A 
BRANCH  55  69
ATOM     69  C   UNL A   1      36.592  33.114  30.967  1.00  0.00     0.058 A 
ATOM     70  C   UNL A   1      36.878  33.992  29.907  1.00  0.00     0.135 A 
ATOM     71  C   UNL A   1      35.241  32.878  31.271  1.00  0.00     0.135 A 
ATOM     72  F   UNL A   1      38.152  34.269  29.585  1.00  0.00    -0.206 F 
ATOM     73  C   UNL A   1      35.868  34.657  29.221  1.00  0.00     0.059 A 
ATOM     74  C   UNL A   1      34.214  33.504  30.573  1.00  0.00     0.059 A 
ATOM     75  F   UNL A   1      34.908  32.049  32.273  1.00  0.00    -0.206 F 
ATOM     76  C   UNL A   1      34.539  34.415  29.568  1.00  0.00     0.060 A 
BRANCH  76  77
ATOM     77  S   UNL A   1      33.241  35.327  28.708  1.00  0.00     0.124 S 
ATOM     78  O   UNL A   1      32.580  34.258  27.966  1.00  0.00    -0.237 OA
ATOM     79  O   UNL A   1      32.475  35.897  29.813  1.00  0.00    -0.237 OA
ATOM     80  O   UNL A   1      33.980  36.289  27.899  1.00  0.00    -0.744 OA
ENDBRANCH  76  77
ENDBRANCH  55  69
BRANCH  56  81
ATOM     81  C   UNL A   1      44.010  28.583  35.917  1.00  0.00     0.058 A 
ATOM     82  C   UNL A   1      45.343  28.991  35.755  1.00  0.00     0.135 A 
ATOM     83  C   UNL A   1      43.753  27.539  36.820  1.00  0.00     0.135 A 
ATOM     84  F   UNL A   1      45.643  29.970  34.888  1.00  0.00    -0.206 F 
ATOM     85  C   UNL A   1      46.381  28.393  36.463  1.00  0.00     0.059 A 
ATOM     86  C   UNL A   1      44.771  26.943  37.558  1.00  0.00     0.059 A 
ATOM     87  F   UNL A   1      42.495  27.113  37.014  1.00  0.00    -0.206 F 
ATOM     88  C   UNL A   1      46.083  27.377  37.373  1.00  0.00     0.060 A 
BRANCH  88  89
ATOM     89  S   UNL A   1      47.427  26.672  38.352  1.00  0.00     0.124 S 
ATOM     90  O   UNL A   1      48.421  26.381  37.325  1.00  0.00    -0.237 OA
ATOM     91  O   UNL A   1      47.748  27.770  39.259  1.00  0.00    -0.237 OA
ATOM     92  O   UNL A   1      46.810  25.509  38.981  1.00  0.00    -0.744 OA
ENDBRANCH  88  89
ENDBRANCH  56  81
BRANCH  68  93
ATOM     93  C   UNL A   1      39.866  34.028  37.347  1.00  0.00     0.058 A 
ATOM     94  C   UNL A   1      40.524  35.267  37.401  1.00  0.00     0.135 A 
ATOM     95  C   UNL A   1      39.028  33.686  38.423  1.00  0.00     0.135 A 
ATOM     96  F   UNL A   1      41.339  35.644  36.404  1.00  0.00    -0.206 F 
ATOM     97  C   UNL A   1      40.372  36.124  38.488  1.00  0.00     0.059 A 
ATOM     98  C   UNL A   1      38.838  34.541  39.504  1.00  0.00     0.059 A 
ATOM     99  F   UNL A   1      38.365  32.518  38.418  1.00  0.00    -0.206 F 
ATOM    100  C   UNL A   1      39.523  35.754  39.533  1.00  0.00     0.060 A 
BRANCH 100 101
ATOM    101  S   UNL A   1      39.304  36.893  40.916  1.00  0.00     0.124 S 
ATOM    102  O   UNL A   1      38.469  37.928  40.316  1.00  0.00    -0.237 OA
ATOM    103  O   UNL A   1      38.651  36.051  41.914  1.00  0.00    -0.237 OA
ATOM    104  O   UNL A   1      40.668  37.298  41.243  1.00  0.00    -0.744 OA
ENDBRANCH 100 101
ENDBRANCH  68  93
ENDBRANCH  42  43
ENDBRANCH  34  37
ENDBRANCH  32  33
ENDBRANCH  31  32
ENDBRANCH   1  31
TORSDOF 18
ENDMDL
MODEL 3
REMARK VINA RESULT:     -11.4      5.209     10.370
REMARK SMILES COc1cccc(N2/C(=[NH+]/C(=O)CCC(=O)NCCCCNC(=O)c3ccc(-c4c5nc(c(-c6c(F)cc(S(=O)(=O)[O-])cc6F)c6ccc([nH]6)c(-c6c(F)cc(S(=O)(=O)[O-])cc6F)c6nc(c(-c7c(F)cc(S(=O)(=O)[O-])cc7F)c7ccc4[nH]7)C=C6)C=C5)cc3)S[C@@H]3CS(=O)(=O)C[C@H]32)c1
REMARK SMILES IDX 19 1 18 2 17 3 15 4 16 5 14 7 13 8 11 9 8 10 9 11 98 12
REMARK SMILES IDX 10 13 91 14 92 15 97 16 93 18 94 19 12 20 95 21 96 22 7 23
REMARK SMILES IDX 3 24 4 25 99 26 5 27 6 28 2 29 1 30 20 31 21 32 22 33 23 34
REMARK SMILES IDX 24 36 25 37 26 38 90 39 27 40 89 41 28 42 29 43 30 44 83 45
REMARK SMILES IDX 31 46 88 47 82 48 84 49 32 50 87 51 81 52 80 53 33 55 67 56
REMARK SMILES IDX 46 57 66 58 47 59 50 60 65 61 85 62 48 63 49 64 64 66 86 67
REMARK SMILES IDX 51 68 34 69 35 70 44 71 36 72 37 73 43 74 45 75 38 76 39 77
REMARK SMILES IDX 40 78 41 79 42 80 68 81 69 82 78 83 70 84 71 85 77 86 79 87
REMARK SMILES IDX 72 88 73 89 74 90 75 91 76 92 52 93 53 94 62 95 54 96 55 97
REMARK SMILES IDX 61 98 63 99 56 100 57 101 58 102 59 103 60 104
REMARK H PARENT 17 6 10 17 22 35 84 54 50 65
REMARK Flexibility Score: inf
ROOT
ATOM      1  C   UNL A   1      35.556  23.314  23.619  1.00  0.00     0.023 C 
ENDROOT
BRANCH   1   2
ATOM      2  C   UNL A   1      34.224  22.566  23.706  1.00  0.00     0.116 C 
BRANCH   2   3
ATOM      3  N   UNL A   1      34.119  21.693  24.867  1.00  0.00    -0.356 N 
ATOM      4  C   UNL A   1      33.855  21.965  26.172  1.00  0.00     0.220 C 
ATOM      5  O   UNL A   1      33.849  21.028  26.971  1.00  0.00    -0.275 OA
ATOM      6  H   UNL A   1      34.265  20.738  24.672  1.00  0.00     0.163 HD
BRANCH   4   7
ATOM      7  C   UNL A   1      33.537  23.374  26.612  1.00  0.00     0.112 C 
BRANCH   7   8
ATOM      8  C   UNL A   1      32.166  23.437  27.275  1.00  0.00     0.138 C 
BRANCH   8   9
ATOM      9  C   UNL A   1      31.222  24.314  26.483  1.00  0.00     0.308 C 
ATOM     10  N   UNL A   1      31.389  27.831  25.383  1.00  0.00    -0.216 N 
ATOM     11  C   UNL A   1      31.119  26.451  25.514  1.00  0.00     0.319 C 
ATOM     12  C   UNL A   1      30.815  28.418  24.148  1.00  0.00     0.212 C 
ATOM     13  N   UNL A   1      31.604  25.635  26.396  1.00  0.00    -0.204 N 
ATOM     14  S   UNL A   1      29.993  25.955  24.194  1.00  0.00    -0.029 SA
ATOM     15  C   UNL A   1      29.503  27.650  23.944  1.00  0.00     0.120 C 
ATOM     16  C   UNL A   1      30.400  29.878  24.055  1.00  0.00     0.188 C 
ATOM     17  H   UNL A   1      32.274  25.974  27.032  1.00  0.00     0.316 HD
ATOM     18  C   UNL A   1      28.963  28.089  22.612  1.00  0.00     0.156 C 
ATOM     19  S   UNL A   1      29.057  29.864  22.827  1.00  0.00     0.155 S 
ATOM     20  O   UNL A   1      30.202  23.802  26.025  1.00  0.00    -0.247 OA
ATOM     21  O   UNL A   1      27.837  30.284  23.481  1.00  0.00    -0.229 OA
ATOM     22  O   UNL A   1      29.494  30.463  21.586  1.00  0.00    -0.229 OA
BRANCH  10  23
ATOM     23  C   UNL A   1      32.454  28.499  26.026  1.00  0.00     0.132 A 
ATOM     24  C   UNL A   1      33.369  30.433  27.253  1.00  0.00     0.123 A 
ATOM     25  C   UNL A   1      34.625  29.837  27.247  1.00  0.00     0.047 A 
ATOM     26  C   UNL A   1      32.306  29.767  26.630  1.00  0.00     0.098 A 
ATOM     27  C   UNL A   1      34.812  28.596  26.643  1.00  0.00     0.008 A 
ATOM     28  C   UNL A   1      33.734  27.933  26.047  1.00  0.00     0.052 A 
BRANCH  24  29
ATOM     29  O   UNL A   1      33.342  31.663  27.848  1.00  0.00    -0.497 OA
ATOM     30  C   UNL A   1      34.539  32.414  27.974  1.00  0.00     0.278 C 
ENDBRANCH  24  29
ENDBRANCH  10  23
ENDBRANCH   8   9
ENDBRANCH   7   8
ENDBRANCH   4   7
ENDBRANCH   2   3
ENDBRANCH   1   2
BRANCH   1  31
ATOM     31  C   UNL A   1      36.724  22.523  24.192  1.00  0.00     0.023 C 
BRANCH  31  32
ATOM     32  C   UNL A   1      37.384  22.980  25.478  1.00  0.00     0.116 C 
BRANCH  32  33
ATOM     33  N   UNL A   1      38.432  22.090  25.937  1.00  0.00    -0.352 N 
ATOM     34  C   UNL A   1      39.585  22.295  26.659  1.00  0.00     0.251 C 
ATOM     35  H   UNL A   1      38.291  21.149  25.679  1.00  0.00     0.163 HD
ATOM     36  O   UNL A   1      40.293  21.303  26.842  1.00  0.00    -0.269 OA
BRANCH  34  37
ATOM     37  C   UNL A   1      40.065  23.633  27.130  1.00  0.00     0.039 A 
ATOM     38  C   UNL A   1      39.700  24.756  26.368  1.00  0.00     0.014 A 
ATOM     39  C   UNL A   1      40.869  23.846  28.248  1.00  0.00     0.014 A 
ATOM     40  C   UNL A   1      40.044  26.057  26.757  1.00  0.00     0.010 A 
ATOM     41  C   UNL A   1      41.176  25.144  28.674  1.00  0.00     0.010 A 
ATOM     42  C   UNL A   1      40.782  26.261  27.923  1.00  0.00    -0.014 A 
BRANCH  42  43
ATOM     43  C   UNL A   1      41.345  27.592  28.262  1.00  0.00     0.031 A 
ATOM     44  C   UNL A   1      42.823  27.804  28.072  1.00  0.00     0.074 A 
ATOM     45  C   UNL A   1      40.580  28.580  28.761  1.00  0.00     0.049 A 
ATOM     46  N   UNL A   1      43.572  28.818  28.416  1.00  0.00    -0.248 NA
ATOM     47  C   UNL A   1      43.554  26.706  27.418  1.00  0.00     0.031 C 
ATOM     48  C   UNL A   1      39.134  28.520  28.954  1.00  0.00     0.029 A 
ATOM     49  N   UNL A   1      40.928  29.831  29.212  1.00  0.00    -0.354 N 
ATOM     50  C   UNL A   1      44.865  28.472  28.042  1.00  0.00     0.074 A 
ATOM     51  C   UNL A   1      44.803  27.137  27.487  1.00  0.00     0.031 C 
ATOM     52  C   UNL A   1      38.715  29.685  29.481  1.00  0.00     0.029 A 
ATOM     53  C   UNL A   1      39.870  30.554  29.707  1.00  0.00     0.049 A 
ATOM     54  H   UNL A   1      41.850  30.177  29.182  1.00  0.00     0.167 HD
ATOM     55  C   UNL A   1      46.002  29.201  28.142  1.00  0.00     0.037 A 
ATOM     56  C   UNL A   1      39.841  31.771  30.292  1.00  0.00     0.037 A 
ATOM     57  C   UNL A   1      46.056  30.528  28.693  1.00  0.00     0.049 A 
ATOM     58  C   UNL A   1      41.129  32.537  30.467  1.00  0.00     0.074 A 
ATOM     59  C   UNL A   1      47.153  31.361  28.827  1.00  0.00     0.029 A 
ATOM     60  N   UNL A   1      44.968  31.214  29.214  1.00  0.00    -0.354 N 
ATOM     61  N   UNL A   1      42.346  32.206  30.102  1.00  0.00    -0.248 NA
ATOM     62  C   UNL A   1      41.041  33.842  31.138  1.00  0.00     0.031 C 
ATOM     63  C   UNL A   1      46.739  32.525  29.483  1.00  0.00     0.029 A 
ATOM     64  C   UNL A   1      45.372  32.447  29.699  1.00  0.00     0.049 A 
ATOM     65  H   UNL A   1      44.044  30.874  29.236  1.00  0.00     0.167 HD
ATOM     66  C   UNL A   1      43.161  33.275  30.468  1.00  0.00     0.074 A 
ATOM     67  C   UNL A   1      42.297  34.264  31.080  1.00  0.00     0.031 C 
ATOM     68  C   UNL A   1      44.500  33.426  30.304  1.00  0.00     0.037 A 
BRANCH  55  69
ATOM     69  C   UNL A   1      47.276  28.546  27.682  1.00  0.00     0.058 A 
ATOM     70  C   UNL A   1      47.648  28.504  26.328  1.00  0.00     0.135 A 
ATOM     71  C   UNL A   1      48.120  27.913  28.610  1.00  0.00     0.135 A 
ATOM     72  F   UNL A   1      46.869  29.075  25.395  1.00  0.00    -0.206 F 
ATOM     73  C   UNL A   1      48.776  27.808  25.904  1.00  0.00     0.059 A 
ATOM     74  C   UNL A   1      49.272  27.243  28.212  1.00  0.00     0.059 A 
ATOM     75  F   UNL A   1      47.815  27.920  29.917  1.00  0.00    -0.206 F 
ATOM     76  C   UNL A   1      49.576  27.171  26.853  1.00  0.00     0.060 A 
BRANCH  76  77
ATOM     77  S   UNL A   1      51.003  26.225  26.286  1.00  0.00     0.124 S 
ATOM     78  O   UNL A   1      50.822  26.269  24.838  1.00  0.00    -0.237 OA
ATOM     79  O   UNL A   1      52.122  27.004  26.807  1.00  0.00    -0.237 OA
ATOM     80  O   UNL A   1      50.812  24.917  26.902  1.00  0.00    -0.744 OA
ENDBRANCH  76  77
ENDBRANCH  55  69
BRANCH  56  81
ATOM     81  C   UNL A   1      38.545  32.347  30.745  1.00  0.00     0.058 A 
ATOM     82  C   UNL A   1      37.832  33.239  29.930  1.00  0.00     0.135 A 
ATOM     83  C   UNL A   1      37.983  32.005  31.985  1.00  0.00     0.135 A 
ATOM     84  F   UNL A   1      38.337  33.614  28.745  1.00  0.00    -0.206 F 
ATOM     85  C   UNL A   1      36.606  33.768  30.324  1.00  0.00     0.059 A 
ATOM     86  C   UNL A   1      36.748  32.501  32.390  1.00  0.00     0.059 A 
ATOM     87  F   UNL A   1      38.623  31.153  32.802  1.00  0.00    -0.206 F 
ATOM     88  C   UNL A   1      36.066  33.383  31.552  1.00  0.00     0.060 A 
BRANCH  88  89
ATOM     89  S   UNL A   1      34.433  34.005  32.011  1.00  0.00     0.124 S 
ATOM     90  O   UNL A   1      33.873  34.357  30.711  1.00  0.00    -0.237 OA
ATOM     91  O   UNL A   1      33.841  32.844  32.668  1.00  0.00    -0.237 OA
ATOM     92  O   UNL A   1      34.738  35.127  32.893  1.00  0.00    -0.744 OA
ENDBRANCH  88  89
ENDBRANCH  56  81
BRANCH  68  93
ATOM     93  C   UNL A   1      45.119  34.724  30.755  1.00  0.00     0.058 A 
ATOM     94  C   UNL A   1      45.629  34.895  32.051  1.00  0.00     0.135 A 
ATOM     95  C   UNL A   1      45.264  35.790  29.850  1.00  0.00     0.135 A 
ATOM     96  F   UNL A   1      45.515  33.911  32.958  1.00  0.00    -0.206 F 
ATOM     97  C   UNL A   1      46.242  36.082  32.441  1.00  0.00     0.059 A 
ATOM     98  C   UNL A   1      45.900  36.974  30.209  1.00  0.00     0.059 A 
ATOM     99  F   UNL A   1      44.805  35.677  28.593  1.00  0.00    -0.206 F 
ATOM    100  C   UNL A   1      46.377  37.115  31.511  1.00  0.00     0.060 A 
BRANCH 100 101
ATOM    101  S   UNL A   1      47.209  38.634  32.019  1.00  0.00     0.124 S 
ATOM    102  O   UNL A   1      46.420  39.648  31.327  1.00  0.00    -0.237 OA
ATOM    103  O   UNL A   1      47.065  38.598  33.471  1.00  0.00    -0.237 OA
ATOM    104  O   UNL A   1      48.572  38.458  31.527  1.00  0.00    -0.744 OA
ENDBRANCH 100 101
ENDBRANCH  68  93
ENDBRANCH  42  43
ENDBRANCH  34  37
ENDBRANCH  32  33
ENDBRANCH  31  32
ENDBRANCH   1  31
TORSDOF 18
ENDMDL
