MODEL 1
REMARK VINA RESULT:     -10.1      0.000      0.000
REMARK SMILES CC(=O)Nc1ccc(/C(=C\c2ccc(S(C)(=O)=O)cc2)C(=O)NCCCCNC(=O)c2ccc(-c3c4nc(c(-c5c(F)cc(S(=O)(=O)[O-])cc5F)c5ccc([nH]5)c(-c5c(F)cc(S(=O)(=O)[O-])cc5F)c5nc(c(-c6c(F)cc(S(=O)(=O)[O-])cc6F)c6ccc3[nH]6)C=C5)C=C4)cc2)cc1
REMARK SMILES IDX 26 1 25 2 24 3 23 4 21 5 22 6 9 8 10 9 8 10 5 11 6 12 98 13
REMARK SMILES IDX 7 14 97 15 4 16 1 17 2 18 3 19 11 21 12 22 20 23 13 24 19 25
REMARK SMILES IDX 14 26 15 27 16 28 17 29 18 30 27 31 28 32 29 33 30 35 31 36
REMARK SMILES IDX 32 37 96 38 33 39 95 40 34 41 35 42 36 43 89 44 37 45 94 46
REMARK SMILES IDX 88 47 90 48 38 49 93 50 87 51 86 52 39 54 73 55 52 56 72 57
REMARK SMILES IDX 53 58 56 59 71 60 91 61 54 62 55 63 70 65 92 66 57 67 40 68
REMARK SMILES IDX 41 69 50 70 42 71 43 72 49 73 51 74 44 75 45 76 46 77 47 78
REMARK SMILES IDX 48 79 74 80 75 81 84 82 76 83 77 84 83 85 85 86 78 87 79 88
REMARK SMILES IDX 80 89 81 90 82 91 58 92 59 93 68 94 60 95 61 96 67 97 69 98
REMARK SMILES IDX 62 99 63 100 64 101 65 102 66 103
REMARK H PARENT 23 7 4 20 28 34 90 53 56 64
REMARK Flexibility Score: inf
ROOT
ATOM      1  C   UNL A   1      34.788  32.575  30.254  1.00  0.00     0.023 C 
ENDROOT
BRANCH   1   2
ATOM      2  C   UNL A   1      34.247  33.857  30.897  1.00  0.00     0.023 C 
BRANCH   2   3
ATOM      3  C   UNL A   1      35.252  34.592  31.789  1.00  0.00     0.116 C 
BRANCH   3   4
ATOM      4  N   UNL A   1      36.572  34.580  31.194  1.00  0.00    -0.352 N 
ATOM      5  C   UNL A   1      37.822  34.252  31.608  1.00  0.00     0.251 C 
ATOM      6  O   UNL A   1      38.668  34.335  30.712  1.00  0.00    -0.269 OA
ATOM      7  H   UNL A   1      36.560  34.886  30.259  1.00  0.00     0.163 HD
BRANCH   5   8
ATOM      8  C   UNL A   1      38.200  33.764  33.010  1.00  0.00     0.047 C 
ATOM      9  C   UNL A   1      38.070  34.604  34.065  1.00  0.00     0.022 C 
BRANCH   8  10
ATOM     10  C   UNL A   1      38.894  32.426  33.163  1.00  0.00    -0.013 A 
ATOM     11  C   UNL A   1      40.121  29.992  34.014  1.00  0.00     0.041 A 
ATOM     12  C   UNL A   1      38.855  29.986  33.428  1.00  0.00     0.027 A 
ATOM     13  C   UNL A   1      40.835  31.179  34.001  1.00  0.00     0.027 A 
ATOM     14  C   UNL A   1      38.269  31.184  32.976  1.00  0.00     0.011 A 
ATOM     15  C   UNL A   1      40.218  32.375  33.625  1.00  0.00     0.011 A 
BRANCH  11  16
ATOM     16  N   UNL A   1      40.597  28.801  34.586  1.00  0.00    -0.326 N 
ATOM     17  C   UNL A   1      42.129  28.001  32.772  1.00  0.00     0.114 C 
ATOM     18  C   UNL A   1      41.423  27.829  34.092  1.00  0.00     0.221 C 
ATOM     19  O   UNL A   1      41.624  26.820  34.775  1.00  0.00    -0.275 OA
ATOM     20  H   UNL A   1      40.280  28.636  35.504  1.00  0.00     0.169 HD
ENDBRANCH  11  16
ENDBRANCH   8  10
BRANCH   9  21
ATOM     21  C   UNL A   1      38.222  34.331  35.501  1.00  0.00    -0.025 A 
ATOM     22  C   UNL A   1      37.229  33.559  36.128  1.00  0.00     0.009 A 
ATOM     23  C   UNL A   1      39.344  34.741  36.225  1.00  0.00     0.009 A 
ATOM     24  C   UNL A   1      37.392  33.132  37.446  1.00  0.00     0.021 A 
ATOM     25  C   UNL A   1      39.513  34.316  37.547  1.00  0.00     0.021 A 
ATOM     26  C   UNL A   1      38.544  33.502  38.144  1.00  0.00     0.067 A 
BRANCH  26  27
ATOM     27  S   UNL A   1      38.832  32.807  39.754  1.00  0.00     0.175 S 
ATOM     28  C   UNL A   1      38.382  34.107  40.871  1.00  0.00     0.163 C 
ATOM     29  O   UNL A   1      37.889  31.718  39.924  1.00  0.00    -0.224 OA
ATOM     30  O   UNL A   1      40.259  32.578  39.888  1.00  0.00    -0.224 OA
ENDBRANCH  26  27
ENDBRANCH   9  21
ENDBRANCH   5   8
ENDBRANCH   3   4
ENDBRANCH   2   3
ENDBRANCH   1   2
BRANCH   1  31
ATOM     31  C   UNL A   1      34.650  32.500  28.738  1.00  0.00     0.116 C 
BRANCH  31  32
ATOM     32  N   UNL A   1      34.003  31.279  28.282  1.00  0.00    -0.352 N 
ATOM     33  C   UNL A   1      34.573  30.055  28.030  1.00  0.00     0.251 C 
ATOM     34  H   UNL A   1      33.032  31.338  28.133  1.00  0.00     0.163 HD
ATOM     35  O   UNL A   1      33.902  29.153  27.538  1.00  0.00    -0.269 OA
BRANCH  33  36
ATOM     36  C   UNL A   1      36.007  29.856  28.320  1.00  0.00     0.039 A 
ATOM     37  C   UNL A   1      36.381  29.396  29.584  1.00  0.00     0.014 A 
ATOM     38  C   UNL A   1      36.971  30.087  27.335  1.00  0.00     0.014 A 
ATOM     39  C   UNL A   1      37.724  29.112  29.842  1.00  0.00     0.010 A 
ATOM     40  C   UNL A   1      38.295  29.734  27.570  1.00  0.00     0.010 A 
ATOM     41  C   UNL A   1      38.686  29.248  28.826  1.00  0.00    -0.014 A 
BRANCH  41  42
ATOM     42  C   UNL A   1      40.110  28.904  29.065  1.00  0.00     0.031 A 
ATOM     43  C   UNL A   1      41.042  29.935  29.642  1.00  0.00     0.074 A 
ATOM     44  C   UNL A   1      40.572  27.688  28.714  1.00  0.00     0.049 A 
ATOM     45  N   UNL A   1      42.329  29.855  29.858  1.00  0.00    -0.248 NA
ATOM     46  C   UNL A   1      40.454  31.237  29.996  1.00  0.00     0.031 C 
ATOM     47  C   UNL A   1      39.774  26.620  28.106  1.00  0.00     0.029 A 
ATOM     48  N   UNL A   1      41.829  27.145  28.809  1.00  0.00    -0.354 N 
ATOM     49  C   UNL A   1      42.704  31.093  30.366  1.00  0.00     0.074 A 
ATOM     50  C   UNL A   1      41.522  31.927  30.364  1.00  0.00     0.031 C 
ATOM     51  C   UNL A   1      40.554  25.543  27.911  1.00  0.00     0.029 A 
ATOM     52  C   UNL A   1      41.912  25.855  28.341  1.00  0.00     0.049 A 
ATOM     53  H   UNL A   1      42.599  27.635  29.178  1.00  0.00     0.167 HD
ATOM     54  C   UNL A   1      43.916  31.489  30.823  1.00  0.00     0.037 A 
ATOM     55  C   UNL A   1      42.967  25.020  28.265  1.00  0.00     0.037 A 
ATOM     56  C   UNL A   1      45.083  30.647  30.843  1.00  0.00     0.049 A 
ATOM     57  C   UNL A   1      44.308  25.491  28.767  1.00  0.00     0.074 A 
ATOM     58  C   UNL A   1      46.350  30.942  31.313  1.00  0.00     0.029 A 
ATOM     59  N   UNL A   1      45.122  29.341  30.378  1.00  0.00    -0.354 N 
ATOM     60  N   UNL A   1      44.633  26.651  29.287  1.00  0.00    -0.248 NA
ATOM     61  C   UNL A   1      45.422  24.536  28.677  1.00  0.00     0.031 C 
ATOM     62  C   UNL A   1      47.165  29.825  31.099  1.00  0.00     0.029 A 
ATOM     63  C   UNL A   1      46.394  28.819  30.540  1.00  0.00     0.049 A 
ATOM     64  H   UNL A   1      44.359  28.856  29.988  1.00  0.00     0.167 HD
ATOM     65  C   UNL A   1      45.980  26.551  29.622  1.00  0.00     0.074 A 
ATOM     66  C   UNL A   1      46.405  25.217  29.252  1.00  0.00     0.031 C 
ATOM     67  C   UNL A   1      46.791  27.479  30.186  1.00  0.00     0.037 A 
BRANCH  54  68
ATOM     68  C   UNL A   1      44.033  32.891  31.357  1.00  0.00     0.058 A 
ATOM     69  C   UNL A   1      43.993  33.156  32.735  1.00  0.00     0.135 A 
ATOM     70  C   UNL A   1      44.217  33.978  30.488  1.00  0.00     0.135 A 
ATOM     71  F   UNL A   1      43.800  32.156  33.610  1.00  0.00    -0.206 F 
ATOM     72  C   UNL A   1      44.103  34.450  33.232  1.00  0.00     0.059 A 
ATOM     73  C   UNL A   1      44.359  35.279  30.964  1.00  0.00     0.059 A 
ATOM     74  F   UNL A   1      44.261  33.784  29.160  1.00  0.00    -0.206 F 
ATOM     75  C   UNL A   1      44.286  35.506  32.338  1.00  0.00     0.060 A 
BRANCH  75  76
ATOM     76  S   UNL A   1      44.432  37.178  33.001  1.00  0.00     0.124 S 
ATOM     77  O   UNL A   1      43.105  37.382  33.572  1.00  0.00    -0.237 OA
ATOM     78  O   UNL A   1      45.520  37.038  33.964  1.00  0.00    -0.237 OA
ATOM     79  O   UNL A   1      44.741  37.985  31.825  1.00  0.00    -0.744 OA
ENDBRANCH  75  76
ENDBRANCH  54  68
BRANCH  55  80
ATOM     80  C   UNL A   1      42.800  23.644  27.723  1.00  0.00     0.058 A 
ATOM     81  C   UNL A   1      42.872  23.403  26.343  1.00  0.00     0.135 A 
ATOM     82  C   UNL A   1      42.553  22.550  28.564  1.00  0.00     0.135 A 
ATOM     83  F   UNL A   1      43.103  24.417  25.496  1.00  0.00    -0.206 F 
ATOM     84  C   UNL A   1      42.676  22.132  25.812  1.00  0.00     0.059 A 
ATOM     85  C   UNL A   1      42.381  21.264  28.060  1.00  0.00     0.059 A 
ATOM     86  F   UNL A   1      42.494  22.724  29.894  1.00  0.00    -0.206 F 
ATOM     87  C   UNL A   1      42.428  21.069  26.681  1.00  0.00     0.060 A 
BRANCH  87  88
ATOM     88  S   UNL A   1      42.197  19.418  25.985  1.00  0.00     0.124 S 
ATOM     89  O   UNL A   1      40.763  19.409  25.722  1.00  0.00    -0.237 OA
ATOM     90  O   UNL A   1      43.062  19.457  24.810  1.00  0.00    -0.237 OA
ATOM     91  O   UNL A   1      42.649  18.536  27.058  1.00  0.00    -0.744 OA
ENDBRANCH  87  88
ENDBRANCH  55  80
BRANCH  67  92
ATOM     92  C   UNL A   1      48.206  27.069  30.489  1.00  0.00     0.058 A 
ATOM     93  C   UNL A   1      49.254  27.299  29.587  1.00  0.00     0.135 A 
ATOM     94  C   UNL A   1      48.522  26.485  31.727  1.00  0.00     0.135 A 
ATOM     95  F   UNL A   1      49.006  27.850  28.388  1.00  0.00    -0.206 F 
ATOM     96  C   UNL A   1      50.564  26.939  29.889  1.00  0.00     0.059 A 
ATOM     97  C   UNL A   1      49.827  26.143  32.063  1.00  0.00     0.059 A 
ATOM     98  F   UNL A   1      47.556  26.254  32.632  1.00  0.00    -0.206 F 
ATOM     99  C   UNL A   1      50.841  26.363  31.131  1.00  0.00     0.060 A 
BRANCH  99 100
ATOM    100  S   UNL A   1      52.549  25.932  31.524  1.00  0.00     0.124 S 
ATOM    101  O   UNL A   1      52.897  26.966  32.493  1.00  0.00    -0.237 OA
ATOM    102  O   UNL A   1      52.415  24.580  32.058  1.00  0.00    -0.237 OA
ATOM    103  O   UNL A   1      53.226  26.024  30.235  1.00  0.00    -0.744 OA
ENDBRANCH  99 100
ENDBRANCH  67  92
ENDBRANCH  41  42
ENDBRANCH  33  36
ENDBRANCH  31  32
ENDBRANCH   1  31
TORSDOF 18
ENDMDL
MODEL 2
REMARK VINA RESULT:      -9.7      1.658      8.467
REMARK SMILES CC(=O)Nc1ccc(/C(=C\c2ccc(S(C)(=O)=O)cc2)C(=O)NCCCCNC(=O)c2ccc(-c3c4nc(c(-c5c(F)cc(S(=O)(=O)[O-])cc5F)c5ccc([nH]5)c(-c5c(F)cc(S(=O)(=O)[O-])cc5F)c5nc(c(-c6c(F)cc(S(=O)(=O)[O-])cc6F)c6ccc3[nH]6)C=C5)C=C4)cc2)cc1
REMARK SMILES IDX 26 1 25 2 24 3 23 4 21 5 22 6 9 8 10 9 8 10 5 11 6 12 98 13
REMARK SMILES IDX 7 14 97 15 4 16 1 17 2 18 3 19 11 21 12 22 20 23 13 24 19 25
REMARK SMILES IDX 14 26 15 27 16 28 17 29 18 30 27 31 28 32 29 33 30 35 31 36
REMARK SMILES IDX 32 37 96 38 33 39 95 40 34 41 35 42 36 43 89 44 37 45 94 46
REMARK SMILES IDX 88 47 90 48 38 49 93 50 87 51 86 52 39 54 73 55 52 56 72 57
REMARK SMILES IDX 53 58 56 59 71 60 91 61 54 62 55 63 70 65 92 66 57 67 40 68
REMARK SMILES IDX 41 69 50 70 42 71 43 72 49 73 51 74 44 75 45 76 46 77 47 78
REMARK SMILES IDX 48 79 74 80 75 81 84 82 76 83 77 84 83 85 85 86 78 87 79 88
REMARK SMILES IDX 80 89 81 90 82 91 58 92 59 93 68 94 60 95 61 96 67 97 69 98
REMARK SMILES IDX 62 99 63 100 64 101 65 102 66 103
REMARK H PARENT 23 7 4 20 28 34 90 53 56 64
REMARK Flexibility Score: inf
ROOT
ATOM      1  C   UNL A   1      36.030  33.102  28.491  1.00  0.00     0.023 C 
ENDROOT
BRANCH   1   2
ATOM      2  C   UNL A   1      37.535  33.106  28.783  1.00  0.00     0.023 C 
BRANCH   2   3
ATOM      3  C   UNL A   1      38.015  34.294  29.622  1.00  0.00     0.116 C 
BRANCH   3   4
ATOM      4  N   UNL A   1      37.055  34.614  30.657  1.00  0.00    -0.352 N 
ATOM      5  C   UNL A   1      36.955  34.392  31.993  1.00  0.00     0.251 C 
ATOM      6  O   UNL A   1      35.962  34.924  32.500  1.00  0.00    -0.269 OA
ATOM      7  H   UNL A   1      36.284  35.114  30.306  1.00  0.00     0.163 HD
BRANCH   5   8
ATOM      8  C   UNL A   1      37.967  33.626  32.850  1.00  0.00     0.047 C 
ATOM      9  C   UNL A   1      37.732  32.326  33.153  1.00  0.00     0.022 C 
BRANCH   8  10
ATOM     10  C   UNL A   1      39.102  34.384  33.505  1.00  0.00    -0.013 A 
ATOM     11  C   UNL A   1      41.301  35.336  35.059  1.00  0.00     0.041 A 
ATOM     12  C   UNL A   1      41.481  34.947  33.731  1.00  0.00     0.027 A 
ATOM     13  C   UNL A   1      40.005  35.422  35.538  1.00  0.00     0.027 A 
ATOM     14  C   UNL A   1      40.388  34.513  32.957  1.00  0.00     0.011 A 
ATOM     15  C   UNL A   1      38.937  34.916  34.793  1.00  0.00     0.011 A 
BRANCH  11  16
ATOM     16  N   UNL A   1      42.440  35.613  35.832  1.00  0.00    -0.326 N 
ATOM     17  C   UNL A   1      42.960  33.329  36.721  1.00  0.00     0.114 C 
ATOM     18  C   UNL A   1      43.194  34.816  36.650  1.00  0.00     0.221 C 
ATOM     19  O   UNL A   1      44.111  35.330  37.296  1.00  0.00    -0.275 OA
ATOM     20  H   UNL A   1      42.752  36.546  35.777  1.00  0.00     0.169 HD
ENDBRANCH  11  16
ENDBRANCH   8  10
BRANCH   9  21
ATOM     21  C   UNL A   1      38.606  31.350  33.821  1.00  0.00    -0.025 A 
ATOM     22  C   UNL A   1      39.294  30.429  33.013  1.00  0.00     0.009 A 
ATOM     23  C   UNL A   1      38.828  31.368  35.200  1.00  0.00     0.009 A 
ATOM     24  C   UNL A   1      40.255  29.583  33.567  1.00  0.00     0.021 A 
ATOM     25  C   UNL A   1      39.790  30.522  35.761  1.00  0.00     0.021 A 
ATOM     26  C   UNL A   1      40.509  29.647  34.939  1.00  0.00     0.067 A 
BRANCH  26  27
ATOM     27  S   UNL A   1      41.857  28.701  35.607  1.00  0.00     0.175 S 
ATOM     28  C   UNL A   1      43.161  28.917  34.427  1.00  0.00     0.163 C 
ATOM     29  O   UNL A   1      42.256  29.343  36.845  1.00  0.00    -0.224 OA
ATOM     30  O   UNL A   1      41.467  27.303  35.590  1.00  0.00    -0.224 OA
ENDBRANCH  26  27
ENDBRANCH   9  21
ENDBRANCH   5   8
ENDBRANCH   3   4
ENDBRANCH   2   3
ENDBRANCH   1   2
BRANCH   1  31
ATOM     31  C   UNL A   1      35.185  32.268  29.447  1.00  0.00     0.116 C 
BRANCH  31  32
ATOM     32  N   UNL A   1      34.408  31.239  28.774  1.00  0.00    -0.352 N 
ATOM     33  C   UNL A   1      34.845  30.052  28.237  1.00  0.00     0.251 C 
ATOM     34  H   UNL A   1      33.443  31.416  28.691  1.00  0.00     0.163 HD
ATOM     35  O   UNL A   1      34.074  29.343  27.600  1.00  0.00    -0.269 OA
BRANCH  33  36
ATOM     36  C   UNL A   1      36.260  29.666  28.405  1.00  0.00     0.039 A 
ATOM     37  C   UNL A   1      37.120  29.760  27.308  1.00  0.00     0.014 A 
ATOM     38  C   UNL A   1      36.741  29.249  29.649  1.00  0.00     0.014 A 
ATOM     39  C   UNL A   1      38.479  29.491  27.476  1.00  0.00     0.010 A 
ATOM     40  C   UNL A   1      38.105  29.052  29.830  1.00  0.00     0.010 A 
ATOM     41  C   UNL A   1      38.987  29.167  28.745  1.00  0.00    -0.014 A 
BRANCH  41  42
ATOM     42  C   UNL A   1      40.437  28.925  28.954  1.00  0.00     0.031 A 
ATOM     43  C   UNL A   1      41.028  27.583  28.619  1.00  0.00     0.074 A 
ATOM     44  C   UNL A   1      41.205  29.892  29.495  1.00  0.00     0.049 A 
ATOM     45  N   UNL A   1      42.250  27.151  28.794  1.00  0.00    -0.248 NA
ATOM     46  C   UNL A   1      40.118  26.585  28.034  1.00  0.00     0.031 C 
ATOM     47  C   UNL A   1      40.737  31.219  29.902  1.00  0.00     0.029 A 
ATOM     48  N   UNL A   1      42.542  29.906  29.803  1.00  0.00    -0.354 N 
ATOM     49  C   UNL A   1      42.254  25.835  28.348  1.00  0.00     0.074 A 
ATOM     50  C   UNL A   1      40.898  25.517  27.956  1.00  0.00     0.031 C 
ATOM     51  C   UNL A   1      41.775  31.926  30.378  1.00  0.00     0.029 A 
ATOM     52  C   UNL A   1      42.972  31.094  30.348  1.00  0.00     0.049 A 
ATOM     53  H   UNL A   1      43.138  29.138  29.648  1.00  0.00     0.167 HD
ATOM     54  C   UNL A   1      43.297  24.978  28.244  1.00  0.00     0.037 A 
ATOM     55  C   UNL A   1      44.195  31.465  30.777  1.00  0.00     0.037 A 
ATOM     56  C   UNL A   1      44.648  25.308  28.616  1.00  0.00     0.049 A 
ATOM     57  C   UNL A   1      45.335  30.488  30.665  1.00  0.00     0.074 A 
ATOM     58  C   UNL A   1      45.783  24.524  28.522  1.00  0.00     0.029 A 
ATOM     59  N   UNL A   1      45.046  26.527  29.146  1.00  0.00    -0.354 N 
ATOM     60  N   UNL A   1      45.329  29.262  30.197  1.00  0.00    -0.248 NA
ATOM     61  C   UNL A   1      46.651  30.948  31.131  1.00  0.00     0.031 C 
ATOM     62  C   UNL A   1      46.863  25.255  29.028  1.00  0.00     0.029 A 
ATOM     63  C   UNL A   1      46.408  26.512  29.393  1.00  0.00     0.049 A 
ATOM     64  H   UNL A   1      44.449  27.289  29.322  1.00  0.00     0.167 HD
ATOM     65  C   UNL A   1      46.645  28.818  30.278  1.00  0.00     0.074 A 
ATOM     66  C   UNL A   1      47.420  29.909  30.832  1.00  0.00     0.031 C 
ATOM     67  C   UNL A   1      47.166  27.618  29.924  1.00  0.00     0.037 A 
BRANCH  54  68
ATOM     68  C   UNL A   1      43.019  23.608  27.690  1.00  0.00     0.058 A 
ATOM     69  C   UNL A   1      42.604  22.552  28.518  1.00  0.00     0.135 A 
ATOM     70  C   UNL A   1      43.139  23.351  26.315  1.00  0.00     0.135 A 
ATOM     71  F   UNL A   1      42.491  22.737  29.843  1.00  0.00    -0.206 F 
ATOM     72  C   UNL A   1      42.345  21.285  28.009  1.00  0.00     0.059 A 
ATOM     73  C   UNL A   1      42.856  22.097  25.778  1.00  0.00     0.059 A 
ATOM     74  F   UNL A   1      43.534  24.322  25.476  1.00  0.00    -0.206 F 
ATOM     75  C   UNL A   1      42.475  21.067  26.636  1.00  0.00     0.060 A 
BRANCH  75  76
ATOM     76  S   UNL A   1      42.129  19.417  25.993  1.00  0.00     0.124 S 
ATOM     77  O   UNL A   1      42.939  19.402  24.779  1.00  0.00    -0.237 OA
ATOM     78  O   UNL A   1      42.593  18.555  27.075  1.00  0.00    -0.237 OA
ATOM     79  O   UNL A   1      40.684  19.430  25.781  1.00  0.00    -0.744 OA
ENDBRANCH  75  76
ENDBRANCH  54  68
BRANCH  55  80
ATOM     80  C   UNL A   1      44.416  32.831  31.324  1.00  0.00     0.058 A 
ATOM     81  C   UNL A   1      44.589  33.929  30.468  1.00  0.00     0.135 A 
ATOM     82  C   UNL A   1      44.471  33.067  32.706  1.00  0.00     0.135 A 
ATOM     83  F   UNL A   1      44.548  33.755  29.139  1.00  0.00    -0.206 F 
ATOM     84  C   UNL A   1      44.840  35.206  30.959  1.00  0.00     0.059 A 
ATOM     85  C   UNL A   1      44.693  34.340  33.222  1.00  0.00     0.059 A 
ATOM     86  F   UNL A   1      44.292  32.054  33.569  1.00  0.00    -0.206 F 
ATOM     87  C   UNL A   1      44.892  35.400  32.340  1.00  0.00     0.060 A 
BRANCH  87  88
ATOM     88  S   UNL A   1      45.195  37.066  32.969  1.00  0.00     0.124 S 
ATOM     89  O   UNL A   1      46.638  37.042  33.180  1.00  0.00    -0.237 OA
ATOM     90  O   UNL A   1      44.724  37.900  31.868  1.00  0.00    -0.237 OA
ATOM     91  O   UNL A   1      44.380  37.120  34.180  1.00  0.00    -0.744 OA
ENDBRANCH  87  88
ENDBRANCH  55  80
BRANCH  67  92
ATOM     92  C   UNL A   1      48.652  27.437  30.073  1.00  0.00     0.058 A 
ATOM     93  C   UNL A   1      49.226  26.974  31.265  1.00  0.00     0.135 A 
ATOM     94  C   UNL A   1      49.505  27.682  28.984  1.00  0.00     0.135 A 
ATOM     95  F   UNL A   1      48.456  26.730  32.337  1.00  0.00    -0.206 F 
ATOM     96  C   UNL A   1      50.600  26.785  31.383  1.00  0.00     0.059 A 
ATOM     97  C   UNL A   1      50.877  27.473  29.070  1.00  0.00     0.059 A 
ATOM     98  F   UNL A   1      49.004  28.115  27.816  1.00  0.00    -0.206 F 
ATOM     99  C   UNL A   1      51.417  27.036  30.278  1.00  0.00     0.060 A 
BRANCH  99 100
ATOM    100  S   UNL A   1      53.193  26.754  30.434  1.00  0.00     0.124 S 
ATOM    101  O   UNL A   1      53.231  25.609  31.338  1.00  0.00    -0.237 OA
ATOM    102  O   UNL A   1      53.589  26.487  29.054  1.00  0.00    -0.237 OA
ATOM    103  O   UNL A   1      53.688  28.010  30.989  1.00  0.00    -0.744 OA
ENDBRANCH  99 100
ENDBRANCH  67  92
ENDBRANCH  41  42
ENDBRANCH  33  36
ENDBRANCH  31  32
ENDBRANCH   1  31
TORSDOF 18
ENDMDL
MODEL 3
REMARK VINA RESULT:      -9.5      3.594     11.022
REMARK SMILES CC(=O)Nc1ccc(/C(=C\c2ccc(S(C)(=O)=O)cc2)C(=O)NCCCCNC(=O)c2ccc(-c3c4nc(c(-c5c(F)cc(S(=O)(=O)[O-])cc5F)c5ccc([nH]5)c(-c5c(F)cc(S(=O)(=O)[O-])cc5F)c5nc(c(-c6c(F)cc(S(=O)(=O)[O-])cc6F)c6ccc3[nH]6)C=C5)C=C4)cc2)cc1
REMARK SMILES IDX 26 1 25 2 24 3 23 4 21 5 22 6 9 8 10 9 8 10 5 11 6 12 98 13
REMARK SMILES IDX 7 14 97 15 4 16 1 17 2 18 3 19 11 21 12 22 20 23 13 24 19 25
REMARK SMILES IDX 14 26 15 27 16 28 17 29 18 30 27 31 28 32 29 33 30 35 31 36
REMARK SMILES IDX 32 37 96 38 33 39 95 40 34 41 35 42 36 43 89 44 37 45 94 46
REMARK SMILES IDX 88 47 90 48 38 49 93 50 87 51 86 52 39 54 73 55 52 56 72 57
REMARK SMILES IDX 53 58 56 59 71 60 91 61 54 62 55 63 70 65 92 66 57 67 40 68
REMARK SMILES IDX 41 69 50 70 42 71 43 72 49 73 51 74 44 75 45 76 46 77 47 78
REMARK SMILES IDX 48 79 74 80 75 81 84 82 76 83 77 84 83 85 85 86 78 87 79 88
REMARK SMILES IDX 80 89 81 90 82 91 58 92 59 93 68 94 60 95 61 96 67 97 69 98
REMARK SMILES IDX 62 99 63 100 64 101 65 102 66 103
REMARK H PARENT 23 7 4 20 28 34 90 53 56 64
REMARK Flexibility Score: inf
ROOT
ATOM      1  C   UNL A   1      40.906  21.518  27.636  1.00  0.00     0.023 C 
ENDROOT
BRANCH   1   2
ATOM      2  C   UNL A   1      42.151  22.044  28.361  1.00  0.00     0.023 C 
BRANCH   2   3
ATOM      3  C   UNL A   1      42.656  23.397  27.852  1.00  0.00     0.116 C 
BRANCH   3   4
ATOM      4  N   UNL A   1      43.056  23.307  26.464  1.00  0.00    -0.352 N 
ATOM      5  C   UNL A   1      43.870  24.014  25.638  1.00  0.00     0.251 C 
ATOM      6  O   UNL A   1      43.968  23.517  24.511  1.00  0.00    -0.269 OA
ATOM      7  H   UNL A   1      42.634  22.545  26.004  1.00  0.00     0.163 HD
BRANCH   5   8
ATOM      8  C   UNL A   1      44.660  25.268  26.022  1.00  0.00     0.047 C 
ATOM      9  C   UNL A   1      44.230  26.481  25.598  1.00  0.00     0.022 C 
BRANCH   8  10
ATOM     10  C   UNL A   1      46.009  25.114  26.694  1.00  0.00    -0.013 A 
ATOM     11  C   UNL A   1      48.615  25.379  27.830  1.00  0.00     0.041 A 
ATOM     12  C   UNL A   1      47.486  25.297  28.646  1.00  0.00     0.027 A 
ATOM     13  C   UNL A   1      48.453  25.143  26.476  1.00  0.00     0.027 A 
ATOM     14  C   UNL A   1      46.206  25.129  28.084  1.00  0.00     0.011 A 
ATOM     15  C   UNL A   1      47.175  25.057  25.917  1.00  0.00     0.011 A 
BRANCH  11  16
ATOM     16  N   UNL A   1      49.846  25.699  28.426  1.00  0.00    -0.326 N 
ATOM     17  C   UNL A   1      50.005  28.138  27.872  1.00  0.00     0.114 C 
ATOM     18  C   UNL A   1      50.569  26.860  28.438  1.00  0.00     0.221 C 
ATOM     19  O   UNL A   1      51.682  26.858  28.972  1.00  0.00    -0.275 OA
ATOM     20  H   UNL A   1      50.262  24.957  28.922  1.00  0.00     0.169 HD
ENDBRANCH  11  16
ENDBRANCH   8  10
BRANCH   9  21
ATOM     21  C   UNL A   1      44.720  27.822  25.950  1.00  0.00    -0.025 A 
ATOM     22  C   UNL A   1      43.923  28.607  26.801  1.00  0.00     0.009 A 
ATOM     23  C   UNL A   1      45.968  28.293  25.535  1.00  0.00     0.009 A 
ATOM     24  C   UNL A   1      44.401  29.819  27.298  1.00  0.00     0.021 A 
ATOM     25  C   UNL A   1      46.453  29.508  26.030  1.00  0.00     0.021 A 
ATOM     26  C   UNL A   1      45.673  30.255  26.920  1.00  0.00     0.067 A 
BRANCH  26  27
ATOM     27  S   UNL A   1      46.349  31.704  27.697  1.00  0.00     0.175 S 
ATOM     28  C   UNL A   1      45.962  33.016  26.572  1.00  0.00     0.163 C 
ATOM     29  O   UNL A   1      45.600  31.922  28.920  1.00  0.00    -0.224 OA
ATOM     30  O   UNL A   1      47.792  31.556  27.729  1.00  0.00    -0.224 OA
ENDBRANCH  26  27
ENDBRANCH   9  21
ENDBRANCH   5   8
ENDBRANCH   3   4
ENDBRANCH   2   3
ENDBRANCH   1   2
BRANCH   1  31
ATOM     31  C   UNL A   1      40.825  21.861  26.153  1.00  0.00     0.116 C 
BRANCH  31  32
ATOM     32  N   UNL A   1      39.467  22.117  25.698  1.00  0.00    -0.352 N 
ATOM     33  C   UNL A   1      38.660  23.192  25.983  1.00  0.00     0.251 C 
ATOM     34  H   UNL A   1      39.075  21.431  25.111  1.00  0.00     0.163 HD
ATOM     35  O   UNL A   1      37.491  23.200  25.609  1.00  0.00    -0.269 OA
BRANCH  33  36
ATOM     36  C   UNL A   1      39.206  24.310  26.777  1.00  0.00     0.039 A 
ATOM     37  C   UNL A   1      39.999  25.266  26.139  1.00  0.00     0.014 A 
ATOM     38  C   UNL A   1      38.904  24.432  28.136  1.00  0.00     0.014 A 
ATOM     39  C   UNL A   1      40.442  26.379  26.855  1.00  0.00     0.010 A 
ATOM     40  C   UNL A   1      39.284  25.577  28.826  1.00  0.00     0.010 A 
ATOM     41  C   UNL A   1      40.061  26.560  28.195  1.00  0.00    -0.014 A 
BRANCH  41  42
ATOM     42  C   UNL A   1      40.480  27.762  28.959  1.00  0.00     0.031 A 
ATOM     43  C   UNL A   1      41.830  27.793  29.622  1.00  0.00     0.074 A 
ATOM     44  C   UNL A   1      39.628  28.796  29.100  1.00  0.00     0.049 A 
ATOM     45  N   UNL A   1      42.353  28.713  30.389  1.00  0.00    -0.248 NA
ATOM     46  C   UNL A   1      42.697  26.620  29.418  1.00  0.00     0.031 C 
ATOM     47  C   UNL A   1      38.276  28.863  28.539  1.00  0.00     0.029 A 
ATOM     48  N   UNL A   1      39.768  29.988  29.764  1.00  0.00    -0.354 N 
ATOM     49  C   UNL A   1      43.601  28.231  30.763  1.00  0.00     0.074 A 
ATOM     50  C   UNL A   1      43.732  26.909  30.193  1.00  0.00     0.031 C 
ATOM     51  C   UNL A   1      37.724  30.046  28.859  1.00  0.00     0.029 A 
ATOM     52  C   UNL A   1      38.664  30.803  29.678  1.00  0.00     0.049 A 
ATOM     53  H   UNL A   1      40.584  30.236  30.257  1.00  0.00     0.167 HD
ATOM     54  C   UNL A   1      44.565  28.847  31.488  1.00  0.00     0.037 A 
ATOM     55  C   UNL A   1      38.436  32.023  30.204  1.00  0.00     0.037 A 
ATOM     56  C   UNL A   1      44.437  30.173  32.035  1.00  0.00     0.049 A 
ATOM     57  C   UNL A   1      39.519  32.679  31.020  1.00  0.00     0.074 A 
ATOM     58  C   UNL A   1      45.365  30.899  32.758  1.00  0.00     0.029 A 
ATOM     59  N   UNL A   1      43.311  30.973  31.910  1.00  0.00    -0.354 N 
ATOM     60  N   UNL A   1      40.712  32.227  31.325  1.00  0.00    -0.248 NA
ATOM     61  C   UNL A   1      39.227  34.016  31.558  1.00  0.00     0.031 C 
ATOM     62  C   UNL A   1      44.787  32.126  33.102  1.00  0.00     0.029 A 
ATOM     63  C   UNL A   1      43.517  32.182  32.551  1.00  0.00     0.049 A 
ATOM     64  H   UNL A   1      42.486  30.719  31.437  1.00  0.00     0.167 HD
ATOM     65  C   UNL A   1      41.327  33.238  32.056  1.00  0.00     0.074 A 
ATOM     66  C   UNL A   1      40.376  34.328  32.141  1.00  0.00     0.031 C 
ATOM     67  C   UNL A   1      42.566  33.264  32.606  1.00  0.00     0.037 A 
BRANCH  54  68
ATOM     68  C   UNL A   1      45.849  28.098  31.716  1.00  0.00     0.058 A 
ATOM     69  C   UNL A   1      45.978  27.164  32.757  1.00  0.00     0.135 A 
ATOM     70  C   UNL A   1      46.953  28.289  30.870  1.00  0.00     0.135 A 
ATOM     71  F   UNL A   1      44.961  26.954  33.607  1.00  0.00    -0.206 F 
ATOM     72  C   UNL A   1      47.163  26.469  32.969  1.00  0.00     0.059 A 
ATOM     73  C   UNL A   1      48.141  27.583  31.046  1.00  0.00     0.059 A 
ATOM     74  F   UNL A   1      46.887  29.172  29.860  1.00  0.00    -0.206 F 
ATOM     75  C   UNL A   1      48.240  26.685  32.108  1.00  0.00     0.060 A 
BRANCH  75  76
ATOM     76  S   UNL A   1      49.768  25.769  32.396  1.00  0.00     0.124 S 
ATOM     77  O   UNL A   1      50.754  26.845  32.407  1.00  0.00    -0.237 OA
ATOM     78  O   UNL A   1      49.512  25.131  33.683  1.00  0.00    -0.237 OA
ATOM     79  O   UNL A   1      49.842  24.863  31.254  1.00  0.00    -0.744 OA
ENDBRANCH  75  76
ENDBRANCH  54  68
BRANCH  55  80
ATOM     80  C   UNL A   1      37.145  32.720  29.955  1.00  0.00     0.058 A 
ATOM     81  C   UNL A   1      37.037  33.695  28.952  1.00  0.00     0.135 A 
ATOM     82  C   UNL A   1      36.002  32.438  30.717  1.00  0.00     0.135 A 
ATOM     83  F   UNL A   1      38.103  34.002  28.198  1.00  0.00    -0.206 F 
ATOM     84  C   UNL A   1      35.851  34.388  28.732  1.00  0.00     0.059 A 
ATOM     85  C   UNL A   1      34.796  33.098  30.498  1.00  0.00     0.059 A 
ATOM     86  F   UNL A   1      36.047  31.500  31.676  1.00  0.00    -0.206 F 
ATOM     87  C   UNL A   1      34.736  34.083  29.514  1.00  0.00     0.060 A 
BRANCH  87  88
ATOM     88  S   UNL A   1      33.193  34.971  29.206  1.00  0.00     0.124 S 
ATOM     89  O   UNL A   1      33.687  36.259  28.733  1.00  0.00    -0.237 OA
ATOM     90  O   UNL A   1      32.548  34.127  28.206  1.00  0.00    -0.237 OA
ATOM     91  O   UNL A   1      32.547  34.984  30.516  1.00  0.00    -0.744 OA
ENDBRANCH  87  88
ENDBRANCH  55  80
BRANCH  67  92
ATOM     92  C   UNL A   1      42.988  34.529  33.302  1.00  0.00     0.058 A 
ATOM     93  C   UNL A   1      42.923  34.664  34.696  1.00  0.00     0.135 A 
ATOM     94  C   UNL A   1      43.514  35.600  32.561  1.00  0.00     0.135 A 
ATOM     95  F   UNL A   1      42.424  33.672  35.449  1.00  0.00    -0.206 F 
ATOM     96  C   UNL A   1      43.342  35.830  35.332  1.00  0.00     0.059 A 
ATOM     97  C   UNL A   1      43.964  36.763  33.176  1.00  0.00     0.059 A 
ATOM     98  F   UNL A   1      43.608  35.516  31.224  1.00  0.00    -0.206 F 
ATOM     99  C   UNL A   1      43.863  36.873  34.562  1.00  0.00     0.060 A 
BRANCH  99 100
ATOM    100  S   UNL A   1      44.433  38.365  35.402  1.00  0.00     0.124 S 
ATOM    101  O   UNL A   1      43.828  38.210  36.721  1.00  0.00    -0.237 OA
ATOM    102  O   UNL A   1      45.884  38.219  35.348  1.00  0.00    -0.237 OA
ATOM    103  O   UNL A   1      43.888  39.444  34.584  1.00  0.00    -0.744 OA
ENDBRANCH  99 100
ENDBRANCH  67  92
ENDBRANCH  41  42
ENDBRANCH  33  36
ENDBRANCH  31  32
ENDBRANCH   1  31
TORSDOF 18
ENDMDL
