MODEL 1
REMARK VINA RESULT:     -11.9      0.000      0.000
REMARK SMILES Cc1cnc(S[C@H]2CC[C@@]([NH2+]C(C)C)(C(=O)NCCCCNC(=O)c3ccc(-c4c5nc(c(-c6c(F)cc(S(=O)(=O)[O-])cc6F)c6ccc([nH]6)c(-c6c(F)cc(S(=O)(=O)[O-])cc6F)c6nc(c(-c7c(F)cc(S(=O)(=O)[O-])cc7F)c7ccc4[nH]7)C=C6)C=C5)cc3)C2)nc1
REMARK SMILES IDX 20 1 19 2 18 3 17 4 15 5 16 6 10 8 7 9 8 10 91 11 9 12 6 13
REMARK SMILES IDX 5 14 1 15 2 16 3 17 93 18 4 19 92 20 11 21 12 24 13 25 14 26
REMARK SMILES IDX 21 27 22 28 23 29 24 31 25 32 26 33 90 34 27 35 89 36 28 37
REMARK SMILES IDX 29 38 30 39 83 40 31 41 88 42 82 43 84 44 32 45 87 46 81 47
REMARK SMILES IDX 80 48 33 50 67 51 46 52 66 53 47 54 50 55 65 56 85 57 48 58
REMARK SMILES IDX 49 59 64 61 86 62 51 63 34 64 35 65 44 66 36 67 37 68 43 69
REMARK SMILES IDX 45 70 38 71 39 72 40 73 41 74 42 75 68 76 69 77 78 78 70 79
REMARK SMILES IDX 71 80 77 81 79 82 72 83 73 84 74 85 75 86 76 87 52 88 53 89
REMARK SMILES IDX 62 90 54 91 55 92 61 93 63 94 56 95 57 96 58 97 59 98 60 99
REMARK H PARENT 17 7 11 22 11 23 22 30 84 49 50 60
REMARK Flexibility Score: inf
ROOT
ATOM      1  C   UNL A   1      38.391  23.144  26.102  1.00  0.00     0.023 C 
ENDROOT
BRANCH   1   2
ATOM      2  C   UNL A   1      38.182  21.802  25.399  1.00  0.00     0.023 C 
BRANCH   2   3
ATOM      3  C   UNL A   1      36.732  21.321  25.338  1.00  0.00     0.116 C 
BRANCH   3   4
ATOM      4  N   UNL A   1      35.904  21.928  26.364  1.00  0.00    -0.351 N 
ATOM      5  C   UNL A   1      34.558  21.817  26.586  1.00  0.00     0.281 C 
ATOM      6  O   UNL A   1      34.144  22.223  27.676  1.00  0.00    -0.268 OA
ATOM      7  H   UNL A   1      36.385  22.507  26.998  1.00  0.00     0.163 HD
BRANCH   5   8
ATOM      8  C   UNL A   1      33.618  21.093  25.556  1.00  0.00     0.176 C 
ATOM      9  C   UNL A   1      31.972  22.740  24.710  1.00  0.00     0.062 C 
ATOM     10  C   UNL A   1      32.794  22.272  23.519  1.00  0.00     0.022 C 
ATOM     11  C   UNL A   1      32.138  21.552  25.673  1.00  0.00     0.094 C 
ATOM     12  C   UNL A   1      33.979  21.503  24.101  1.00  0.00     0.080 C 
BRANCH   9  13
ATOM     13  S   UNL A   1      32.588  24.255  25.524  1.00  0.00    -0.083 SA
BRANCH  13  14
ATOM     14  C   UNL A   1      31.590  25.552  24.864  1.00  0.00     0.187 A 
ATOM     15  C   UNL A   1      29.422  28.517  22.832  1.00  0.00     0.048 C 
ATOM     16  C   UNL A   1      30.191  27.486  23.578  1.00  0.00    -0.014 A 
ATOM     17  C   UNL A   1      29.585  26.479  24.304  1.00  0.00     0.119 A 
ATOM     18  C   UNL A   1      31.565  27.448  23.577  1.00  0.00     0.119 A 
ATOM     19  N   UNL A   1      30.253  25.506  24.959  1.00  0.00    -0.231 NA
ATOM     20  N   UNL A   1      32.278  26.503  24.209  1.00  0.00    -0.231 NA
ENDBRANCH  13  14
ENDBRANCH   9  13
BRANCH   8  21
ATOM     21  N   UNL A   1      33.759  19.619  25.737  1.00  0.00    -0.332 N 
ATOM     22  H   UNL A   1      32.967  19.298  26.295  1.00  0.00     0.347 HD
ATOM     23  H   UNL A   1      34.669  19.486  26.177  1.00  0.00     0.347 HD
BRANCH  21  24
ATOM     24  C   UNL A   1      33.797  18.805  24.507  1.00  0.00     0.176 C 
ATOM     25  C   UNL A   1      34.994  17.855  24.438  1.00  0.00     0.075 C 
ATOM     26  C   UNL A   1      32.501  17.990  24.454  1.00  0.00     0.075 C 
ENDBRANCH  21  24
ENDBRANCH   8  21
ENDBRANCH   5   8
ENDBRANCH   3   4
ENDBRANCH   2   3
ENDBRANCH   1   2
BRANCH   1  27
ATOM     27  C   UNL A   1      39.613  23.219  27.007  1.00  0.00     0.116 C 
BRANCH  27  28
ATOM     28  N   UNL A   1      40.844  23.481  26.278  1.00  0.00    -0.352 N 
ATOM     29  C   UNL A   1      41.663  24.584  26.327  1.00  0.00     0.251 C 
ATOM     30  H   UNL A   1      41.132  22.768  25.663  1.00  0.00     0.163 HD
ATOM     31  O   UNL A   1      42.595  24.692  25.534  1.00  0.00    -0.269 OA
BRANCH  29  32
ATOM     32  C   UNL A   1      41.400  25.653  27.315  1.00  0.00     0.039 A 
ATOM     33  C   UNL A   1      40.365  25.480  28.237  1.00  0.00     0.014 A 
ATOM     34  C   UNL A   1      42.182  26.811  27.345  1.00  0.00     0.014 A 
ATOM     35  C   UNL A   1      40.159  26.437  29.234  1.00  0.00     0.010 A 
ATOM     36  C   UNL A   1      42.025  27.724  28.383  1.00  0.00     0.010 A 
ATOM     37  C   UNL A   1      41.012  27.548  29.337  1.00  0.00    -0.014 A 
BRANCH  37  38
ATOM     38  C   UNL A   1      40.870  28.529  30.444  1.00  0.00     0.031 A 
ATOM     39  C   UNL A   1      41.725  28.413  31.675  1.00  0.00     0.074 A 
ATOM     40  C   UNL A   1      39.912  29.475  30.376  1.00  0.00     0.049 A 
ATOM     41  N   UNL A   1      41.702  29.130  32.769  1.00  0.00    -0.248 NA
ATOM     42  C   UNL A   1      42.715  27.326  31.691  1.00  0.00     0.031 C 
ATOM     43  C   UNL A   1      38.973  29.646  29.267  1.00  0.00     0.029 A 
ATOM     44  N   UNL A   1      39.558  30.456  31.268  1.00  0.00    -0.354 N 
ATOM     45  C   UNL A   1      42.657  28.571  33.610  1.00  0.00     0.074 A 
ATOM     46  C   UNL A   1      43.202  27.422  32.919  1.00  0.00     0.031 C 
ATOM     47  C   UNL A   1      38.156  30.677  29.539  1.00  0.00     0.029 A 
ATOM     48  C   UNL A   1      38.491  31.216  30.854  1.00  0.00     0.049 A 
ATOM     49  H   UNL A   1      40.022  30.600  32.123  1.00  0.00     0.167 HD
ATOM     50  C   UNL A   1      43.059  28.989  34.834  1.00  0.00     0.037 A 
ATOM     51  C   UNL A   1      37.845  32.229  31.465  1.00  0.00     0.037 A 
ATOM     52  C   UNL A   1      42.522  30.142  35.508  1.00  0.00     0.049 A 
ATOM     53  C   UNL A   1      38.320  32.697  32.812  1.00  0.00     0.074 A 
ATOM     54  C   UNL A   1      42.912  30.694  36.716  1.00  0.00     0.029 A 
ATOM     55  N   UNL A   1      41.470  30.916  35.037  1.00  0.00    -0.354 N 
ATOM     56  N   UNL A   1      39.285  32.212  33.557  1.00  0.00    -0.248 NA
ATOM     57  C   UNL A   1      37.630  33.853  33.397  1.00  0.00     0.031 C 
ATOM     58  C   UNL A   1      42.067  31.774  36.996  1.00  0.00     0.029 A 
ATOM     59  C   UNL A   1      41.181  31.927  35.940  1.00  0.00     0.049 A 
ATOM     60  H   UNL A   1      40.999  30.769  34.185  1.00  0.00     0.167 HD
ATOM     61  C   UNL A   1      39.330  33.013  34.692  1.00  0.00     0.074 A 
ATOM     62  C   UNL A   1      38.302  34.022  34.528  1.00  0.00     0.031 C 
ATOM     63  C   UNL A   1      40.148  32.920  35.770  1.00  0.00     0.037 A 
BRANCH  50  64
ATOM     64  C   UNL A   1      44.126  28.177  35.519  1.00  0.00     0.058 A 
ATOM     65  C   UNL A   1      45.493  28.416  35.296  1.00  0.00     0.135 A 
ATOM     66  C   UNL A   1      43.781  27.134  36.394  1.00  0.00     0.135 A 
ATOM     67  F   UNL A   1      45.882  29.393  34.461  1.00  0.00    -0.206 F 
ATOM     68  C   UNL A   1      46.475  27.613  35.868  1.00  0.00     0.059 A 
ATOM     69  C   UNL A   1      44.747  26.339  37.003  1.00  0.00     0.059 A 
ATOM     70  F   UNL A   1      42.490  26.866  36.650  1.00  0.00    -0.206 F 
ATOM     71  C   UNL A   1      46.091  26.569  36.711  1.00  0.00     0.060 A 
BRANCH  71  72
ATOM     72  S   UNL A   1      47.373  25.506  37.407  1.00  0.00     0.124 S 
ATOM     73  O   UNL A   1      48.585  26.151  36.911  1.00  0.00    -0.237 OA
ATOM     74  O   UNL A   1      47.136  25.624  38.842  1.00  0.00    -0.237 OA
ATOM     75  O   UNL A   1      47.078  24.197  36.832  1.00  0.00    -0.744 OA
ENDBRANCH  71  72
ENDBRANCH  50  64
BRANCH  51  76
ATOM     76  C   UNL A   1      36.698  32.876  30.778  1.00  0.00     0.058 A 
ATOM     77  C   UNL A   1      35.377  32.598  31.156  1.00  0.00     0.135 A 
ATOM     78  C   UNL A   1      36.903  33.848  29.784  1.00  0.00     0.135 A 
ATOM     79  F   UNL A   1      35.131  31.673  32.097  1.00  0.00    -0.206 F 
ATOM     80  C   UNL A   1      34.300  33.264  30.583  1.00  0.00     0.059 A 
ATOM     81  C   UNL A   1      35.843  34.542  29.211  1.00  0.00     0.059 A 
ATOM     82  F   UNL A   1      38.150  34.160  29.399  1.00  0.00    -0.206 F 
ATOM     83  C   UNL A   1      34.543  34.244  29.618  1.00  0.00     0.060 A 
BRANCH  83  84
ATOM     84  S   UNL A   1      33.143  35.177  28.959  1.00  0.00     0.124 S 
ATOM     85  O   UNL A   1      32.348  35.404  30.159  1.00  0.00    -0.237 OA
ATOM     86  O   UNL A   1      33.799  36.354  28.395  1.00  0.00    -0.237 OA
ATOM     87  O   UNL A   1      32.564  34.264  27.978  1.00  0.00    -0.744 OA
ENDBRANCH  83  84
ENDBRANCH  51  76
BRANCH  63  88
ATOM     88  C   UNL A   1      39.980  33.947  36.856  1.00  0.00     0.058 A 
ATOM     89  C   UNL A   1      40.611  35.198  36.794  1.00  0.00     0.135 A 
ATOM     90  C   UNL A   1      39.133  33.694  37.949  1.00  0.00     0.135 A 
ATOM     91  F   UNL A   1      41.437  35.488  35.775  1.00  0.00    -0.206 F 
ATOM     92  C   UNL A   1      40.425  36.157  37.784  1.00  0.00     0.059 A 
ATOM     93  C   UNL A   1      38.912  34.647  38.937  1.00  0.00     0.059 A 
ATOM     94  F   UNL A   1      38.497  32.517  38.053  1.00  0.00    -0.206 F 
ATOM     95  C   UNL A   1      39.572  35.873  38.852  1.00  0.00     0.060 A 
BRANCH  95  96
ATOM     96  S   UNL A   1      39.311  37.138  40.114  1.00  0.00     0.124 S 
ATOM     97  O   UNL A   1      40.682  37.501  40.455  1.00  0.00    -0.237 OA
ATOM     98  O   UNL A   1      38.548  38.150  39.389  1.00  0.00    -0.237 OA
ATOM     99  O   UNL A   1      38.570  36.432  41.155  1.00  0.00    -0.744 OA
ENDBRANCH  95  96
ENDBRANCH  63  88
ENDBRANCH  37  38
ENDBRANCH  29  32
ENDBRANCH  27  28
ENDBRANCH   1  27
TORSDOF 18
ENDMDL
MODEL 2
REMARK VINA RESULT:     -11.9      1.175      2.003
REMARK SMILES Cc1cnc(S[C@H]2CC[C@@]([NH2+]C(C)C)(C(=O)NCCCCNC(=O)c3ccc(-c4c5nc(c(-c6c(F)cc(S(=O)(=O)[O-])cc6F)c6ccc([nH]6)c(-c6c(F)cc(S(=O)(=O)[O-])cc6F)c6nc(c(-c7c(F)cc(S(=O)(=O)[O-])cc7F)c7ccc4[nH]7)C=C6)C=C5)cc3)C2)nc1
REMARK SMILES IDX 20 1 19 2 18 3 17 4 15 5 16 6 10 8 7 9 8 10 91 11 9 12 6 13
REMARK SMILES IDX 5 14 1 15 2 16 3 17 93 18 4 19 92 20 11 21 12 24 13 25 14 26
REMARK SMILES IDX 21 27 22 28 23 29 24 31 25 32 26 33 90 34 27 35 89 36 28 37
REMARK SMILES IDX 29 38 30 39 83 40 31 41 88 42 82 43 84 44 32 45 87 46 81 47
REMARK SMILES IDX 80 48 33 50 67 51 46 52 66 53 47 54 50 55 65 56 85 57 48 58
REMARK SMILES IDX 49 59 64 61 86 62 51 63 34 64 35 65 44 66 36 67 37 68 43 69
REMARK SMILES IDX 45 70 38 71 39 72 40 73 41 74 42 75 68 76 69 77 78 78 70 79
REMARK SMILES IDX 71 80 77 81 79 82 72 83 73 84 74 85 75 86 76 87 52 88 53 89
REMARK SMILES IDX 62 90 54 91 55 92 61 93 63 94 56 95 57 96 58 97 59 98 60 99
REMARK H PARENT 17 7 11 22 11 23 22 30 84 49 50 60
REMARK Flexibility Score: inf
ROOT
ATOM      1  C   UNL A   1      38.198  24.059  25.916  1.00  0.00     0.023 C 
ENDROOT
BRANCH   1   2
ATOM      2  C   UNL A   1      36.875  23.297  26.008  1.00  0.00     0.023 C 
BRANCH   2   3
ATOM      3  C   UNL A   1      35.650  24.063  25.506  1.00  0.00     0.116 C 
BRANCH   3   4
ATOM      4  N   UNL A   1      35.384  23.821  24.101  1.00  0.00    -0.351 N 
ATOM      5  C   UNL A   1      34.218  23.473  23.474  1.00  0.00     0.281 C 
ATOM      6  O   UNL A   1      34.199  23.582  22.244  1.00  0.00    -0.268 OA
ATOM      7  H   UNL A   1      36.162  23.923  23.505  1.00  0.00     0.163 HD
BRANCH   5   8
ATOM      8  C   UNL A   1      32.937  23.081  24.294  1.00  0.00     0.176 C 
ATOM      9  C   UNL A   1      31.367  24.998  24.254  1.00  0.00     0.062 C 
ATOM     10  C   UNL A   1      30.670  23.831  23.573  1.00  0.00     0.022 C 
ATOM     11  C   UNL A   1      32.385  24.262  25.141  1.00  0.00     0.094 C 
ATOM     12  C   UNL A   1      31.748  22.772  23.341  1.00  0.00     0.080 C 
BRANCH   9  13
ATOM     13  S   UNL A   1      32.265  26.123  23.129  1.00  0.00    -0.083 SA
BRANCH  13  14
ATOM     14  C   UNL A   1      31.382  27.648  23.226  1.00  0.00     0.187 A 
ATOM     15  C   UNL A   1      28.857  30.988  23.525  1.00  0.00     0.048 C 
ATOM     16  C   UNL A   1      29.771  29.821  23.398  1.00  0.00    -0.014 A 
ATOM     17  C   UNL A   1      30.837  29.610  24.250  1.00  0.00     0.119 A 
ATOM     18  C   UNL A   1      29.602  28.854  22.436  1.00  0.00     0.119 A 
ATOM     19  N   UNL A   1      31.661  28.542  24.187  1.00  0.00    -0.231 NA
ATOM     20  N   UNL A   1      30.389  27.772  22.330  1.00  0.00    -0.231 NA
ENDBRANCH  13  14
ENDBRANCH   9  13
BRANCH   8  21
ATOM     21  N   UNL A   1      33.255  21.892  25.138  1.00  0.00    -0.332 N 
ATOM     22  H   UNL A   1      32.415  21.655  25.667  1.00  0.00     0.347 HD
ATOM     23  H   UNL A   1      34.051  22.173  25.710  1.00  0.00     0.347 HD
BRANCH  21  24
ATOM     24  C   UNL A   1      33.694  20.678  24.426  1.00  0.00     0.176 C 
ATOM     25  C   UNL A   1      35.065  20.167  24.874  1.00  0.00     0.075 C 
ATOM     26  C   UNL A   1      32.643  19.592  24.678  1.00  0.00     0.075 C 
ENDBRANCH  21  24
ENDBRANCH   8  21
ENDBRANCH   5   8
ENDBRANCH   3   4
ENDBRANCH   2   3
ENDBRANCH   1   2
BRANCH   1  27
ATOM     27  C   UNL A   1      39.278  23.600  26.886  1.00  0.00     0.116 C 
BRANCH  27  28
ATOM     28  N   UNL A   1      40.621  23.721  26.339  1.00  0.00    -0.352 N 
ATOM     29  C   UNL A   1      41.547  24.719  26.527  1.00  0.00     0.251 C 
ATOM     30  H   UNL A   1      40.906  22.984  25.751  1.00  0.00     0.163 HD
ATOM     31  O   UNL A   1      42.587  24.722  25.871  1.00  0.00    -0.269 OA
BRANCH  29  32
ATOM     32  C   UNL A   1      41.275  25.803  27.496  1.00  0.00     0.039 A 
ATOM     33  C   UNL A   1      40.216  25.655  28.394  1.00  0.00     0.014 A 
ATOM     34  C   UNL A   1      42.072  26.951  27.531  1.00  0.00     0.014 A 
ATOM     35  C   UNL A   1      40.000  26.627  29.375  1.00  0.00     0.010 A 
ATOM     36  C   UNL A   1      41.903  27.879  28.554  1.00  0.00     0.010 A 
ATOM     37  C   UNL A   1      40.865  27.728  29.486  1.00  0.00    -0.014 A 
BRANCH  37  38
ATOM     38  C   UNL A   1      40.711  28.723  30.577  1.00  0.00     0.031 A 
ATOM     39  C   UNL A   1      41.539  28.614  31.826  1.00  0.00     0.074 A 
ATOM     40  C   UNL A   1      39.764  29.678  30.478  1.00  0.00     0.049 A 
ATOM     41  N   UNL A   1      41.500  29.346  32.911  1.00  0.00    -0.248 NA
ATOM     42  C   UNL A   1      42.518  27.518  31.876  1.00  0.00     0.031 C 
ATOM     43  C   UNL A   1      38.849  29.844  29.347  1.00  0.00     0.029 A 
ATOM     44  N   UNL A   1      39.401  30.673  31.351  1.00  0.00    -0.354 N 
ATOM     45  C   UNL A   1      42.432  28.788  33.778  1.00  0.00     0.074 A 
ATOM     46  C   UNL A   1      42.981  27.625  33.112  1.00  0.00     0.031 C 
ATOM     47  C   UNL A   1      38.037  30.886  29.590  1.00  0.00     0.029 A 
ATOM     48  C   UNL A   1      38.350  31.439  30.905  1.00  0.00     0.049 A 
ATOM     49  H   UNL A   1      39.849  30.824  32.213  1.00  0.00     0.167 HD
ATOM     50  C   UNL A   1      42.814  29.217  35.005  1.00  0.00     0.037 A 
ATOM     51  C   UNL A   1      37.702  32.465  31.490  1.00  0.00     0.037 A 
ATOM     52  C   UNL A   1      42.274  30.384  35.653  1.00  0.00     0.049 A 
ATOM     53  C   UNL A   1      38.154  32.945  32.841  1.00  0.00     0.074 A 
ATOM     54  C   UNL A   1      42.645  30.947  36.862  1.00  0.00     0.029 A 
ATOM     55  N   UNL A   1      41.240  31.162  35.152  1.00  0.00    -0.354 N 
ATOM     56  N   UNL A   1      39.099  32.460  33.611  1.00  0.00    -0.248 NA
ATOM     57  C   UNL A   1      37.464  34.115  33.397  1.00  0.00     0.031 C 
ATOM     58  C   UNL A   1      41.805  32.039  37.112  1.00  0.00     0.029 A 
ATOM     59  C   UNL A   1      40.943  32.186  36.036  1.00  0.00     0.049 A 
ATOM     60  H   UNL A   1      40.785  31.009  34.292  1.00  0.00     0.167 HD
ATOM     61  C   UNL A   1      39.128  33.275  34.737  1.00  0.00     0.074 A 
ATOM     62  C   UNL A   1      38.114  34.292  34.540  1.00  0.00     0.031 C 
ATOM     63  C   UNL A   1      39.924  33.188  35.832  1.00  0.00     0.037 A 
BRANCH  50  64
ATOM     64  C   UNL A   1      43.859  28.403  35.722  1.00  0.00     0.058 A 
ATOM     65  C   UNL A   1      43.511  27.380  36.621  1.00  0.00     0.135 A 
ATOM     66  C   UNL A   1      45.225  28.662  35.525  1.00  0.00     0.135 A 
ATOM     67  F   UNL A   1      42.219  27.097  36.856  1.00  0.00    -0.206 F 
ATOM     68  C   UNL A   1      44.476  26.684  37.341  1.00  0.00     0.059 A 
ATOM     69  C   UNL A   1      46.209  27.955  36.211  1.00  0.00     0.059 A 
ATOM     70  F   UNL A   1      45.616  29.623  34.673  1.00  0.00    -0.206 F 
ATOM     71  C   UNL A   1      45.823  26.988  37.138  1.00  0.00     0.060 A 
BRANCH  71  72
ATOM     72  S   UNL A   1      47.062  26.111  38.114  1.00  0.00     0.124 S 
ATOM     73  O   UNL A   1      47.868  27.218  38.620  1.00  0.00    -0.237 OA
ATOM     74  O   UNL A   1      46.249  25.416  39.106  1.00  0.00    -0.237 OA
ATOM     75  O   UNL A   1      47.719  25.251  37.135  1.00  0.00    -0.744 OA
ENDBRANCH  71  72
ENDBRANCH  50  64
BRANCH  51  76
ATOM     76  C   UNL A   1      36.576  33.115  30.772  1.00  0.00     0.058 A 
ATOM     77  C   UNL A   1      35.249  32.921  31.181  1.00  0.00     0.135 A 
ATOM     78  C   UNL A   1      36.811  34.007  29.712  1.00  0.00     0.135 A 
ATOM     79  F   UNL A   1      34.975  32.074  32.184  1.00  0.00    -0.206 F 
ATOM     80  C   UNL A   1      34.194  33.594  30.574  1.00  0.00     0.059 A 
ATOM     81  C   UNL A   1      35.774  34.708  29.104  1.00  0.00     0.059 A 
ATOM     82  F   UNL A   1      38.065  34.238  29.295  1.00  0.00    -0.206 F 
ATOM     83  C   UNL A   1      34.468  34.496  29.542  1.00  0.00     0.060 A 
BRANCH  83  84
ATOM     84  S   UNL A   1      33.102  35.443  28.835  1.00  0.00     0.124 S 
ATOM     85  O   UNL A   1      32.412  34.426  28.052  1.00  0.00    -0.237 OA
ATOM     86  O   UNL A   1      32.406  35.914  30.029  1.00  0.00    -0.237 OA
ATOM     87  O   UNL A   1      33.779  36.483  28.066  1.00  0.00    -0.744 OA
ENDBRANCH  83  84
ENDBRANCH  51  76
BRANCH  63  88
ATOM     88  C   UNL A   1      39.744  34.229  36.902  1.00  0.00     0.058 A 
ATOM     89  C   UNL A   1      38.992  33.976  38.060  1.00  0.00     0.135 A 
ATOM     90  C   UNL A   1      40.375  35.480  36.792  1.00  0.00     0.135 A 
ATOM     91  F   UNL A   1      38.361  32.800  38.212  1.00  0.00    -0.206 F 
ATOM     92  C   UNL A   1      38.856  34.931  39.063  1.00  0.00     0.059 A 
ATOM     93  C   UNL A   1      40.275  36.440  37.794  1.00  0.00     0.059 A 
ATOM     94  F   UNL A   1      41.114  35.771  35.710  1.00  0.00    -0.206 F 
ATOM     95  C   UNL A   1      39.503  36.160  38.922  1.00  0.00     0.060 A 
BRANCH  95  96
ATOM     96  S   UNL A   1      39.349  37.379  40.245  1.00  0.00     0.124 S 
ATOM     97  O   UNL A   1      38.685  36.600  41.285  1.00  0.00    -0.237 OA
ATOM     98  O   UNL A   1      40.741  37.732  40.508  1.00  0.00    -0.237 OA
ATOM     99  O   UNL A   1      38.544  38.436  39.641  1.00  0.00    -0.744 OA
ENDBRANCH  95  96
ENDBRANCH  63  88
ENDBRANCH  37  38
ENDBRANCH  29  32
ENDBRANCH  27  28
ENDBRANCH   1  27
TORSDOF 18
ENDMDL
MODEL 3
REMARK VINA RESULT:     -11.7      0.863      8.223
REMARK SMILES Cc1cnc(S[C@H]2CC[C@@]([NH2+]C(C)C)(C(=O)NCCCCNC(=O)c3ccc(-c4c5nc(c(-c6c(F)cc(S(=O)(=O)[O-])cc6F)c6ccc([nH]6)c(-c6c(F)cc(S(=O)(=O)[O-])cc6F)c6nc(c(-c7c(F)cc(S(=O)(=O)[O-])cc7F)c7ccc4[nH]7)C=C6)C=C5)cc3)C2)nc1
REMARK SMILES IDX 20 1 19 2 18 3 17 4 15 5 16 6 10 8 7 9 8 10 91 11 9 12 6 13
REMARK SMILES IDX 5 14 1 15 2 16 3 17 93 18 4 19 92 20 11 21 12 24 13 25 14 26
REMARK SMILES IDX 21 27 22 28 23 29 24 31 25 32 26 33 90 34 27 35 89 36 28 37
REMARK SMILES IDX 29 38 30 39 83 40 31 41 88 42 82 43 84 44 32 45 87 46 81 47
REMARK SMILES IDX 80 48 33 50 67 51 46 52 66 53 47 54 50 55 65 56 85 57 48 58
REMARK SMILES IDX 49 59 64 61 86 62 51 63 34 64 35 65 44 66 36 67 37 68 43 69
REMARK SMILES IDX 45 70 38 71 39 72 40 73 41 74 42 75 68 76 69 77 78 78 70 79
REMARK SMILES IDX 71 80 77 81 79 82 72 83 73 84 74 85 75 86 76 87 52 88 53 89
REMARK SMILES IDX 62 90 54 91 55 92 61 93 63 94 56 95 57 96 58 97 59 98 60 99
REMARK H PARENT 17 7 11 22 11 23 22 30 84 49 50 60
REMARK Flexibility Score: inf
ROOT
ATOM      1  C   UNL A   1      37.480  23.508  25.527  1.00  0.00     0.023 C 
ENDROOT
BRANCH   1   2
ATOM      2  C   UNL A   1      37.819  22.026  25.357  1.00  0.00     0.023 C 
BRANCH   2   3
ATOM      3  C   UNL A   1      36.617  21.082  25.368  1.00  0.00     0.116 C 
BRANCH   3   4
ATOM      4  N   UNL A   1      35.642  21.438  26.381  1.00  0.00    -0.351 N 
ATOM      5  C   UNL A   1      34.278  21.321  26.369  1.00  0.00     0.281 C 
ATOM      6  O   UNL A   1      33.703  21.454  27.454  1.00  0.00    -0.268 OA
ATOM      7  H   UNL A   1      36.020  21.821  27.206  1.00  0.00     0.163 HD
BRANCH   5   8
ATOM      8  C   UNL A   1      33.506  20.914  25.063  1.00  0.00     0.176 C 
ATOM      9  C   UNL A   1      31.775  22.629  24.613  1.00  0.00     0.062 C 
ATOM     10  C   UNL A   1      32.736  22.640  23.434  1.00  0.00     0.022 C 
ATOM     11  C   UNL A   1      31.982  21.204  25.154  1.00  0.00     0.094 C 
ATOM     12  C   UNL A   1      33.942  21.806  23.867  1.00  0.00     0.080 C 
BRANCH   9  13
ATOM     13  S   UNL A   1      32.161  23.829  25.934  1.00  0.00    -0.083 SA
BRANCH  13  14
ATOM     14  C   UNL A   1      31.805  25.405  25.224  1.00  0.00     0.187 A 
ATOM     15  C   UNL A   1      30.656  29.235  23.948  1.00  0.00     0.048 C 
ATOM     16  C   UNL A   1      31.065  27.868  24.369  1.00  0.00    -0.014 A 
ATOM     17  C   UNL A   1      32.383  27.515  24.587  1.00  0.00     0.119 A 
ATOM     18  C   UNL A   1      30.155  26.864  24.596  1.00  0.00     0.119 A 
ATOM     19  N   UNL A   1      32.784  26.296  25.007  1.00  0.00    -0.231 NA
ATOM     20  N   UNL A   1      30.498  25.636  25.016  1.00  0.00    -0.231 NA
ENDBRANCH  13  14
ENDBRANCH   9  13
BRANCH   8  21
ATOM     21  N   UNL A   1      33.782  19.477  24.773  1.00  0.00    -0.332 N 
ATOM     22  H   UNL A   1      34.254  19.083  25.588  1.00  0.00     0.347 HD
ATOM     23  H   UNL A   1      34.339  19.476  23.920  1.00  0.00     0.347 HD
BRANCH  21  24
ATOM     24  C   UNL A   1      32.613  18.628  24.478  1.00  0.00     0.176 C 
ATOM     25  C   UNL A   1      32.604  18.072  23.054  1.00  0.00     0.075 C 
ATOM     26  C   UNL A   1      32.627  17.464  25.475  1.00  0.00     0.075 C 
ENDBRANCH  21  24
ENDBRANCH   8  21
ENDBRANCH   5   8
ENDBRANCH   3   4
ENDBRANCH   2   3
ENDBRANCH   1   2
BRANCH   1  27
ATOM     27  C   UNL A   1      38.380  24.272  26.488  1.00  0.00     0.116 C 
BRANCH  27  28
ATOM     28  N   UNL A   1      39.789  24.185  26.138  1.00  0.00    -0.352 N 
ATOM     29  C   UNL A   1      40.840  24.958  26.570  1.00  0.00     0.251 C 
ATOM     30  H   UNL A   1      40.024  23.470  25.502  1.00  0.00     0.163 HD
ATOM     31  O   UNL A   1      41.950  24.827  26.059  1.00  0.00    -0.269 OA
BRANCH  29  32
ATOM     32  C   UNL A   1      40.623  25.970  27.627  1.00  0.00     0.039 A 
ATOM     33  C   UNL A   1      39.635  25.742  28.588  1.00  0.00     0.014 A 
ATOM     34  C   UNL A   1      41.403  27.129  27.682  1.00  0.00     0.014 A 
ATOM     35  C   UNL A   1      39.477  26.641  29.645  1.00  0.00     0.010 A 
ATOM     36  C   UNL A   1      41.294  27.983  28.775  1.00  0.00     0.010 A 
ATOM     37  C   UNL A   1      40.330  27.750  29.767  1.00  0.00    -0.014 A 
BRANCH  37  38
ATOM     38  C   UNL A   1      40.241  28.667  30.932  1.00  0.00     0.031 A 
ATOM     39  C   UNL A   1      39.238  29.787  30.941  1.00  0.00     0.074 A 
ATOM     40  C   UNL A   1      41.120  28.544  31.946  1.00  0.00     0.049 A 
ATOM     41  N   UNL A   1      39.055  30.726  31.833  1.00  0.00    -0.248 NA
ATOM     42  C   UNL A   1      38.345  29.882  29.776  1.00  0.00     0.031 C 
ATOM     43  C   UNL A   1      42.186  27.542  32.021  1.00  0.00     0.029 A 
ATOM     44  N   UNL A   1      41.271  29.277  33.096  1.00  0.00    -0.354 N 
ATOM     45  C   UNL A   1      38.042  31.534  31.330  1.00  0.00     0.074 A 
ATOM     46  C   UNL A   1      37.689  31.004  30.031  1.00  0.00     0.031 C 
ATOM     47  C   UNL A   1      42.873  27.718  33.161  1.00  0.00     0.029 A 
ATOM     48  C   UNL A   1      42.320  28.862  33.880  1.00  0.00     0.049 A 
ATOM     49  H   UNL A   1      40.684  30.029  33.336  1.00  0.00     0.167 HD
ATOM     50  C   UNL A   1      37.444  32.605  31.908  1.00  0.00     0.037 A 
ATOM     51  C   UNL A   1      42.793  29.351  35.043  1.00  0.00     0.037 A 
ATOM     52  C   UNL A   1      37.790  33.115  33.209  1.00  0.00     0.049 A 
ATOM     53  C   UNL A   1      42.103  30.522  35.683  1.00  0.00     0.074 A 
ATOM     54  C   UNL A   1      37.196  34.146  33.916  1.00  0.00     0.029 A 
ATOM     55  N   UNL A   1      38.831  32.641  33.995  1.00  0.00    -0.354 N 
ATOM     56  N   UNL A   1      41.087  31.222  35.236  1.00  0.00    -0.248 NA
ATOM     57  C   UNL A   1      42.612  30.965  36.987  1.00  0.00     0.031 C 
ATOM     58  C   UNL A   1      37.906  34.324  35.109  1.00  0.00     0.029 A 
ATOM     59  C   UNL A   1      38.913  33.372  35.169  1.00  0.00     0.049 A 
ATOM     60  H   UNL A   1      39.425  31.893  33.753  1.00  0.00     0.167 HD
ATOM     61  C   UNL A   1      40.824  32.178  36.211  1.00  0.00     0.074 A 
ATOM     62  C   UNL A   1      41.781  31.957  37.277  1.00  0.00     0.031 C 
ATOM     63  C   UNL A   1      39.876  33.148  36.220  1.00  0.00     0.037 A 
BRANCH  50  64
ATOM     64  C   UNL A   1      36.361  33.293  31.120  1.00  0.00     0.058 A 
ATOM     65  C   UNL A   1      36.655  34.085  29.997  1.00  0.00     0.135 A 
ATOM     66  C   UNL A   1      35.015  33.178  31.502  1.00  0.00     0.135 A 
ATOM     67  F   UNL A   1      37.926  34.240  29.592  1.00  0.00    -0.206 F 
ATOM     68  C   UNL A   1      35.662  34.784  29.318  1.00  0.00     0.059 A 
ATOM     69  C   UNL A   1      34.001  33.842  30.818  1.00  0.00     0.059 A 
ATOM     70  F   UNL A   1      34.675  32.428  32.562  1.00  0.00    -0.206 F 
ATOM     71  C   UNL A   1      34.338  34.666  29.745  1.00  0.00     0.060 A 
BRANCH  71  72
ATOM     72  S   UNL A   1      33.066  35.616  28.886  1.00  0.00     0.124 S 
ATOM     73  O   UNL A   1      32.434  34.582  28.072  1.00  0.00    -0.237 OA
ATOM     74  O   UNL A   1      32.262  36.134  29.987  1.00  0.00    -0.237 OA
ATOM     75  O   UNL A   1      33.831  36.616  28.148  1.00  0.00    -0.744 OA
ENDBRANCH  71  72
ENDBRANCH  50  64
BRANCH  51  76
ATOM     76  C   UNL A   1      43.968  28.700  35.678  1.00  0.00     0.058 A 
ATOM     77  C   UNL A   1      45.271  29.142  35.413  1.00  0.00     0.135 A 
ATOM     78  C   UNL A   1      43.804  27.675  36.626  1.00  0.00     0.135 A 
ATOM     79  F   UNL A   1      45.478  30.113  34.511  1.00  0.00    -0.206 F 
ATOM     80  C   UNL A   1      46.372  28.601  36.069  1.00  0.00     0.059 A 
ATOM     81  C   UNL A   1      44.888  27.133  37.310  1.00  0.00     0.059 A 
ATOM     82  F   UNL A   1      42.575  27.229  36.925  1.00  0.00    -0.206 F 
ATOM     83  C   UNL A   1      46.169  27.604  37.026  1.00  0.00     0.060 A 
BRANCH  83  84
ATOM     84  S   UNL A   1      47.594  26.985  37.948  1.00  0.00     0.124 S 
ATOM     85  O   UNL A   1      48.518  26.649  36.872  1.00  0.00    -0.237 OA
ATOM     86  O   UNL A   1      47.955  28.140  38.764  1.00  0.00    -0.237 OA
ATOM     87  O   UNL A   1      47.047  25.852  38.689  1.00  0.00    -0.744 OA
ENDBRANCH  83  84
ENDBRANCH  51  76
BRANCH  63  88
ATOM     88  C   UNL A   1      39.812  34.041  37.428  1.00  0.00     0.058 A 
ATOM     89  C   UNL A   1      40.499  35.264  37.480  1.00  0.00     0.135 A 
ATOM     90  C   UNL A   1      39.011  33.693  38.529  1.00  0.00     0.135 A 
ATOM     91  F   UNL A   1      41.284  35.641  36.458  1.00  0.00    -0.206 F 
ATOM     92  C   UNL A   1      40.409  36.103  38.586  1.00  0.00     0.059 A 
ATOM     93  C   UNL A   1      38.886  34.527  39.635  1.00  0.00     0.059 A 
ATOM     94  F   UNL A   1      38.326  32.539  38.527  1.00  0.00    -0.206 F 
ATOM     95  C   UNL A   1      39.599  35.726  39.659  1.00  0.00     0.060 A 
BRANCH  95  96
ATOM     96  S   UNL A   1      39.462  36.838  41.076  1.00  0.00     0.124 S 
ATOM     97  O   UNL A   1      38.648  36.047  41.992  1.00  0.00    -0.237 OA
ATOM     98  O   UNL A   1      40.857  37.022  41.464  1.00  0.00    -0.237 OA
ATOM     99  O   UNL A   1      38.812  38.020  40.518  1.00  0.00    -0.744 OA
ENDBRANCH  95  96
ENDBRANCH  63  88
ENDBRANCH  37  38
ENDBRANCH  29  32
ENDBRANCH  27  28
ENDBRANCH   1  27
TORSDOF 18
ENDMDL
