MODEL 1
REMARK VINA RESULT:     -12.2      0.000      0.000
REMARK SMILES CC[NH+]1CCN(c2ccc(NS(=O)(=O)c3cccc(F)c3)cc2C(=O)NCCCCNC(=O)c2ccc(-c3c4nc(c(-c5c(F)cc(S(=O)(=O)[O-])cc5F)c5ccc([nH]5)c(-c5c(F)cc(S(=O)(=O)[O-])cc5F)c5nc(c(-c6c(F)cc(S(=O)(=O)[O-])cc6F)c6ccc3[nH]6)C=C5)C=C4)cc2)CC1
REMARK SMILES IDX 28 1 27 2 26 3 24 4 25 5 23 7 7 8 8 9 9 10 22 11 10 12 6 13
REMARK SMILES IDX 3 14 4 15 101 16 5 18 100 19 2 20 1 21 11 22 12 24 13 25
REMARK SMILES IDX 14 26 15 27 16 28 21 29 17 30 19 31 18 32 20 33 29 34 30 35
REMARK SMILES IDX 31 36 32 37 33 39 34 40 35 41 99 42 36 43 98 44 37 45 38 46
REMARK SMILES IDX 39 47 92 48 40 49 97 50 91 51 93 52 41 53 96 54 90 55 89 56
REMARK SMILES IDX 42 58 76 59 55 60 75 61 56 62 59 63 74 64 94 65 57 66 58 67
REMARK SMILES IDX 73 69 95 70 60 71 43 72 44 73 53 74 45 75 46 76 52 77 54 78
REMARK SMILES IDX 47 79 48 80 49 81 50 82 51 83 77 84 78 85 87 86 79 87 80 88
REMARK SMILES IDX 86 89 88 90 81 91 82 92 83 93 84 94 85 95 61 96 62 97 71 98
REMARK SMILES IDX 63 99 64 100 70 101 72 102 65 103 66 104 67 105 68 106
REMARK SMILES IDX 69 107
REMARK H PARENT 26 6 3 17 11 23 31 38 93 57 59 68
REMARK Flexibility Score: inf
ROOT
ATOM      1  C   UNL A   1      37.430  22.608  24.726  1.00  0.00     0.023 C 
ENDROOT
BRANCH   1   2
ATOM      2  C   UNL A   1      37.045  23.598  25.814  1.00  0.00     0.116 C 
BRANCH   2   3
ATOM      3  N   UNL A   1      35.893  23.135  26.565  1.00  0.00    -0.352 N 
ATOM      4  C   UNL A   1      34.605  22.749  26.354  1.00  0.00     0.253 C 
ATOM      5  O   UNL A   1      34.081  22.323  27.398  1.00  0.00    -0.269 OA
ATOM      6  H   UNL A   1      36.111  23.086  27.524  1.00  0.00     0.163 HD
BRANCH   4   7
ATOM      7  C   UNL A   1      33.717  22.782  25.130  1.00  0.00     0.065 A 
ATOM      8  C   UNL A   1      33.416  21.786  24.175  1.00  0.00     0.050 A 
ATOM      9  C   UNL A   1      32.947  22.231  22.910  1.00  0.00     0.029 A 
ATOM     10  C   UNL A   1      32.764  23.565  22.586  1.00  0.00     0.029 A 
ATOM     11  C   UNL A   1      33.324  24.130  24.818  1.00  0.00     0.042 A 
ATOM     12  C   UNL A   1      32.813  24.514  23.576  1.00  0.00     0.050 A 
BRANCH   8  13
ATOM     13  N   UNL A   1      33.531  20.398  24.342  1.00  0.00    -0.360 N 
ATOM     14  N   UNL A   1      33.776  17.583  24.867  1.00  0.00    -0.332 N 
ATOM     15  C   UNL A   1      32.511  18.266  25.131  1.00  0.00     0.283 C 
ATOM     16  C   UNL A   1      34.982  18.390  24.621  1.00  0.00     0.283 C 
ATOM     17  H   UNL A   1      33.673  17.292  23.896  1.00  0.00     0.348 HD
ATOM     18  C   UNL A   1      32.588  19.780  25.303  1.00  0.00     0.178 C 
ATOM     19  C   UNL A   1      34.903  19.938  24.631  1.00  0.00     0.178 C 
BRANCH  14  20
ATOM     20  C   UNL A   1      33.922  16.319  25.586  1.00  0.00     0.258 C 
ATOM     21  C   UNL A   1      35.311  15.709  25.355  1.00  0.00     0.071 C 
ENDBRANCH  14  20
ENDBRANCH   8  13
BRANCH  12  22
ATOM     22  N   UNL A   1      32.544  25.891  23.271  1.00  0.00    -0.280 N 
ATOM     23  H   UNL A   1      33.201  26.408  22.751  1.00  0.00     0.180 HD
BRANCH  22  24
ATOM     24  S   UNL A   1      31.104  26.651  23.796  1.00  0.00     0.261 S 
ATOM     25  O   UNL A   1      30.638  27.462  22.694  1.00  0.00    -0.201 OA
ATOM     26  O   UNL A   1      30.264  25.591  24.325  1.00  0.00    -0.201 OA
BRANCH  24  27
ATOM     27  C   UNL A   1      31.467  27.761  25.137  1.00  0.00     0.090 A 
ATOM     28  C   UNL A   1      31.790  27.240  26.400  1.00  0.00     0.022 A 
ATOM     29  C   UNL A   1      31.432  29.143  24.931  1.00  0.00     0.061 A 
ATOM     30  C   UNL A   1      31.946  28.104  27.486  1.00  0.00     0.004 A 
ATOM     31  C   UNL A   1      31.633  29.989  26.017  1.00  0.00     0.124 A 
ATOM     32  C   UNL A   1      31.859  29.483  27.294  1.00  0.00     0.039 A 
ATOM     33  F   UNL A   1      31.588  31.315  25.837  1.00  0.00    -0.207 F 
ENDBRANCH  24  27
ENDBRANCH  22  24
ENDBRANCH  12  22
ENDBRANCH   4   7
ENDBRANCH   2   3
ENDBRANCH   1   2
BRANCH   1  34
ATOM     34  C   UNL A   1      38.075  21.265  25.113  1.00  0.00     0.023 C 
BRANCH  34  35
ATOM     35  C   UNL A   1      39.232  21.210  26.108  1.00  0.00     0.116 C 
BRANCH  35  36
ATOM     36  N   UNL A   1      40.099  20.046  25.961  1.00  0.00    -0.352 N 
ATOM     37  C   UNL A   1      41.452  19.889  26.137  1.00  0.00     0.251 C 
ATOM     38  H   UNL A   1      39.628  19.225  25.688  1.00  0.00     0.163 HD
ATOM     39  O   UNL A   1      42.015  18.811  25.983  1.00  0.00    -0.269 OA
BRANCH  37  40
ATOM     40  C   UNL A   1      42.247  21.074  26.426  1.00  0.00     0.039 A 
ATOM     41  C   UNL A   1      42.592  21.929  25.374  1.00  0.00     0.014 A 
ATOM     42  C   UNL A   1      42.517  21.381  27.754  1.00  0.00     0.014 A 
ATOM     43  C   UNL A   1      43.173  23.153  25.671  1.00  0.00     0.010 A 
ATOM     44  C   UNL A   1      42.975  22.643  28.050  1.00  0.00     0.010 A 
ATOM     45  C   UNL A   1      43.333  23.521  27.014  1.00  0.00    -0.014 A 
BRANCH  45  46
ATOM     46  C   UNL A   1      43.963  24.790  27.411  1.00  0.00     0.031 A 
ATOM     47  C   UNL A   1      43.053  25.901  27.847  1.00  0.00     0.074 A 
ATOM     48  C   UNL A   1      45.284  24.962  27.232  1.00  0.00     0.049 A 
ATOM     49  N   UNL A   1      43.310  27.169  27.990  1.00  0.00    -0.248 NA
ATOM     50  C   UNL A   1      41.638  25.542  28.080  1.00  0.00     0.031 C 
ATOM     51  C   UNL A   1      46.222  23.940  26.758  1.00  0.00     0.029 A 
ATOM     52  N   UNL A   1      46.061  26.076  27.395  1.00  0.00    -0.354 N 
ATOM     53  C   UNL A   1      42.088  27.763  28.280  1.00  0.00     0.074 A 
ATOM     54  C   UNL A   1      41.079  26.733  28.222  1.00  0.00     0.031 C 
ATOM     55  C   UNL A   1      47.452  24.474  26.679  1.00  0.00     0.029 A 
ATOM     56  C   UNL A   1      47.377  25.883  27.048  1.00  0.00     0.049 A 
ATOM     57  H   UNL A   1      45.711  26.934  27.728  1.00  0.00     0.167 HD
ATOM     58  C   UNL A   1      41.845  29.053  28.595  1.00  0.00     0.037 A 
ATOM     59  C   UNL A   1      48.394  26.763  27.020  1.00  0.00     0.037 A 
ATOM     60  C   UNL A   1      42.889  30.033  28.703  1.00  0.00     0.049 A 
ATOM     61  C   UNL A   1      48.104  28.185  27.422  1.00  0.00     0.074 A 
ATOM     62  C   UNL A   1      42.794  31.353  29.096  1.00  0.00     0.029 A 
ATOM     63  N   UNL A   1      44.228  29.786  28.428  1.00  0.00    -0.354 N 
ATOM     64  N   UNL A   1      46.954  28.730  27.755  1.00  0.00    -0.248 NA
ATOM     65  C   UNL A   1      49.241  29.111  27.459  1.00  0.00     0.031 C 
ATOM     66  C   UNL A   1      44.071  31.916  29.017  1.00  0.00     0.029 A 
ATOM     67  C   UNL A   1      44.970  30.932  28.632  1.00  0.00     0.049 A 
ATOM     68  H   UNL A   1      44.593  28.921  28.131  1.00  0.00     0.167 HD
ATOM     69  C   UNL A   1      47.237  30.051  28.075  1.00  0.00     0.074 A 
ATOM     70  C   UNL A   1      48.668  30.218  27.908  1.00  0.00     0.031 C 
ATOM     71  C   UNL A   1      46.398  31.042  28.471  1.00  0.00     0.037 A 
BRANCH  58  72
ATOM     72  C   UNL A   1      40.423  29.459  28.866  1.00  0.00     0.058 A 
ATOM     73  C   UNL A   1      39.966  29.738  30.164  1.00  0.00     0.135 A 
ATOM     74  C   UNL A   1      39.512  29.607  27.808  1.00  0.00     0.135 A 
ATOM     75  F   UNL A   1      40.785  29.586  31.218  1.00  0.00    -0.206 F 
ATOM     76  C   UNL A   1      38.656  30.134  30.407  1.00  0.00     0.059 A 
ATOM     77  C   UNL A   1      38.205  30.035  28.023  1.00  0.00     0.059 A 
ATOM     78  F   UNL A   1      39.889  29.338  26.548  1.00  0.00    -0.206 F 
ATOM     79  C   UNL A   1      37.785  30.290  29.328  1.00  0.00     0.060 A 
BRANCH  79  80
ATOM     80  S   UNL A   1      36.104  30.856  29.658  1.00  0.00     0.124 S 
ATOM     81  O   UNL A   1      35.329  30.019  28.748  1.00  0.00    -0.237 OA
ATOM     82  O   UNL A   1      35.951  30.558  31.078  1.00  0.00    -0.237 OA
ATOM     83  O   UNL A   1      36.150  32.275  29.320  1.00  0.00    -0.744 OA
ENDBRANCH  79  80
ENDBRANCH  58  72
BRANCH  59  84
ATOM     84  C   UNL A   1      49.761  26.326  26.632  1.00  0.00     0.058 A 
ATOM     85  C   UNL A   1      50.165  26.341  25.288  1.00  0.00     0.135 A 
ATOM     86  C   UNL A   1      50.697  25.896  27.586  1.00  0.00     0.135 A 
ATOM     87  F   UNL A   1      49.311  26.750  24.337  1.00  0.00    -0.206 F 
ATOM     88  C   UNL A   1      51.430  25.912  24.899  1.00  0.00     0.059 A 
ATOM     89  C   UNL A   1      51.978  25.490  27.225  1.00  0.00     0.059 A 
ATOM     90  F   UNL A   1      50.373  25.888  28.889  1.00  0.00    -0.206 F 
ATOM     91  C   UNL A   1      52.329  25.485  25.876  1.00  0.00     0.060 A 
BRANCH  91  92
ATOM     92  S   UNL A   1      53.973  24.945  25.358  1.00  0.00     0.124 S 
ATOM     93  O   UNL A   1      54.711  25.012  26.614  1.00  0.00    -0.237 OA
ATOM     94  O   UNL A   1      53.707  23.606  24.843  1.00  0.00    -0.237 OA
ATOM     95  O   UNL A   1      54.349  25.933  24.352  1.00  0.00    -0.744 OA
ENDBRANCH  91  92
ENDBRANCH  59  84
BRANCH  71  96
ATOM     96  C   UNL A   1      47.017  32.369  28.801  1.00  0.00     0.058 A 
ATOM     97  C   UNL A   1      47.157  33.378  27.837  1.00  0.00     0.135 A 
ATOM     98  C   UNL A   1      47.413  32.651  30.119  1.00  0.00     0.135 A 
ATOM     99  F   UNL A   1      46.797  33.151  26.564  1.00  0.00    -0.206 F 
ATOM    100  C   UNL A   1      47.697  34.615  28.162  1.00  0.00     0.059 A 
ATOM    101  C   UNL A   1      47.921  33.894  30.474  1.00  0.00     0.059 A 
ATOM    102  F   UNL A   1      47.283  31.722  31.079  1.00  0.00    -0.206 F 
ATOM    103  C   UNL A   1      48.071  34.865  29.485  1.00  0.00     0.060 A 
BRANCH 103 104
ATOM    104  S   UNL A   1      48.736  36.489  29.898  1.00  0.00     0.124 S 
ATOM    105  O   UNL A   1      47.835  37.371  29.163  1.00  0.00    -0.237 OA
ATOM    106  O   UNL A   1      48.605  36.518  31.352  1.00  0.00    -0.237 OA
ATOM    107  O   UNL A   1      50.106  36.433  29.398  1.00  0.00    -0.744 OA
ENDBRANCH 103 104
ENDBRANCH  71  96
ENDBRANCH  45  46
ENDBRANCH  37  40
ENDBRANCH  35  36
ENDBRANCH  34  35
ENDBRANCH   1  34
TORSDOF 19
ENDMDL
MODEL 2
REMARK VINA RESULT:     -12.1      3.041      9.750
REMARK SMILES CC[NH+]1CCN(c2ccc(NS(=O)(=O)c3cccc(F)c3)cc2C(=O)NCCCCNC(=O)c2ccc(-c3c4nc(c(-c5c(F)cc(S(=O)(=O)[O-])cc5F)c5ccc([nH]5)c(-c5c(F)cc(S(=O)(=O)[O-])cc5F)c5nc(c(-c6c(F)cc(S(=O)(=O)[O-])cc6F)c6ccc3[nH]6)C=C5)C=C4)cc2)CC1
REMARK SMILES IDX 28 1 27 2 26 3 24 4 25 5 23 7 7 8 8 9 9 10 22 11 10 12 6 13
REMARK SMILES IDX 3 14 4 15 101 16 5 18 100 19 2 20 1 21 11 22 12 24 13 25
REMARK SMILES IDX 14 26 15 27 16 28 21 29 17 30 19 31 18 32 20 33 29 34 30 35
REMARK SMILES IDX 31 36 32 37 33 39 34 40 35 41 99 42 36 43 98 44 37 45 38 46
REMARK SMILES IDX 39 47 92 48 40 49 97 50 91 51 93 52 41 53 96 54 90 55 89 56
REMARK SMILES IDX 42 58 76 59 55 60 75 61 56 62 59 63 74 64 94 65 57 66 58 67
REMARK SMILES IDX 73 69 95 70 60 71 43 72 44 73 53 74 45 75 46 76 52 77 54 78
REMARK SMILES IDX 47 79 48 80 49 81 50 82 51 83 77 84 78 85 87 86 79 87 80 88
REMARK SMILES IDX 86 89 88 90 81 91 82 92 83 93 84 94 85 95 61 96 62 97 71 98
REMARK SMILES IDX 63 99 64 100 70 101 72 102 65 103 66 104 67 105 68 106
REMARK SMILES IDX 69 107
REMARK H PARENT 26 6 3 17 11 23 31 38 93 57 59 68
REMARK Flexibility Score: inf
ROOT
ATOM      1  C   UNL A   1      34.987  23.508  23.232  1.00  0.00     0.023 C 
ENDROOT
BRANCH   1   2
ATOM      2  C   UNL A   1      34.519  24.952  23.318  1.00  0.00     0.116 C 
BRANCH   2   3
ATOM      3  N   UNL A   1      33.433  25.212  22.392  1.00  0.00    -0.352 N 
ATOM      4  C   UNL A   1      32.099  25.481  22.409  1.00  0.00     0.253 C 
ATOM      5  O   UNL A   1      31.673  25.740  21.269  1.00  0.00    -0.269 OA
ATOM      6  H   UNL A   1      33.764  25.184  21.465  1.00  0.00     0.163 HD
BRANCH   4   7
ATOM      7  C   UNL A   1      31.072  25.482  23.519  1.00  0.00     0.065 A 
ATOM      8  C   UNL A   1      30.156  26.473  23.934  1.00  0.00     0.050 A 
ATOM      9  C   UNL A   1      29.666  26.377  25.264  1.00  0.00     0.029 A 
ATOM     10  C   UNL A   1      30.030  25.371  26.145  1.00  0.00     0.029 A 
ATOM     11  C   UNL A   1      31.262  24.356  24.394  1.00  0.00     0.042 A 
ATOM     12  C   UNL A   1      30.713  24.278  25.677  1.00  0.00     0.050 A 
BRANCH   8  13
ATOM     13  N   UNL A   1      29.675  27.548  23.171  1.00  0.00    -0.360 N 
ATOM     14  N   UNL A   1      28.713  29.858  21.758  1.00  0.00    -0.332 N 
ATOM     15  C   UNL A   1      30.146  29.696  22.001  1.00  0.00     0.283 C 
ATOM     16  C   UNL A   1      27.767  29.000  22.488  1.00  0.00     0.283 C 
ATOM     17  H   UNL A   1      28.584  29.382  20.866  1.00  0.00     0.348 HD
ATOM     18  C   UNL A   1      30.532  28.755  23.138  1.00  0.00     0.178 C 
ATOM     19  C   UNL A   1      28.286  27.937  23.488  1.00  0.00     0.178 C 
BRANCH  14  20
ATOM     20  C   UNL A   1      28.320  31.234  21.466  1.00  0.00     0.258 C 
ATOM     21  C   UNL A   1      27.915  31.977  22.746  1.00  0.00     0.071 C 
ENDBRANCH  14  20
ENDBRANCH   8  13
BRANCH  12  22
ATOM     22  N   UNL A   1      31.025  23.189  26.557  1.00  0.00    -0.280 N 
ATOM     23  H   UNL A   1      30.293  22.669  26.961  1.00  0.00     0.180 HD
BRANCH  22  24
ATOM     24  S   UNL A   1      32.647  22.776  26.919  1.00  0.00     0.261 S 
ATOM     25  O   UNL A   1      33.451  23.928  26.584  1.00  0.00    -0.201 OA
ATOM     26  O   UNL A   1      32.634  22.268  28.279  1.00  0.00    -0.201 OA
BRANCH  24  27
ATOM     27  C   UNL A   1      33.177  21.449  25.860  1.00  0.00     0.090 A 
ATOM     28  C   UNL A   1      32.232  20.766  25.080  1.00  0.00     0.022 A 
ATOM     29  C   UNL A   1      34.527  21.094  25.807  1.00  0.00     0.061 A 
ATOM     30  C   UNL A   1      32.621  19.640  24.350  1.00  0.00     0.004 A 
ATOM     31  C   UNL A   1      34.903  19.996  25.039  1.00  0.00     0.124 A 
ATOM     32  C   UNL A   1      33.960  19.250  24.336  1.00  0.00     0.039 A 
ATOM     33  F   UNL A   1      36.191  19.635  24.990  1.00  0.00    -0.207 F 
ENDBRANCH  24  27
ENDBRANCH  22  24
ENDBRANCH  12  22
ENDBRANCH   4   7
ENDBRANCH   2   3
ENDBRANCH   1   2
BRANCH   1  34
ATOM     34  C   UNL A   1      36.436  23.154  23.607  1.00  0.00     0.023 C 
BRANCH  34  35
ATOM     35  C   UNL A   1      36.998  23.508  24.983  1.00  0.00     0.116 C 
BRANCH  35  36
ATOM     36  N   UNL A   1      37.945  22.535  25.517  1.00  0.00    -0.352 N 
ATOM     37  C   UNL A   1      39.019  22.677  26.362  1.00  0.00     0.251 C 
ATOM     38  H   UNL A   1      37.786  21.611  25.218  1.00  0.00     0.163 HD
ATOM     39  O   UNL A   1      39.703  21.726  26.723  1.00  0.00    -0.269 OA
BRANCH  37  40
ATOM     40  C   UNL A   1      39.402  24.024  26.761  1.00  0.00     0.039 A 
ATOM     41  C   UNL A   1      39.164  24.432  28.078  1.00  0.00     0.014 A 
ATOM     42  C   UNL A   1      40.113  24.805  25.857  1.00  0.00     0.014 A 
ATOM     43  C   UNL A   1      39.705  25.633  28.514  1.00  0.00     0.010 A 
ATOM     44  C   UNL A   1      40.751  25.928  26.328  1.00  0.00     0.010 A 
ATOM     45  C   UNL A   1      40.526  26.363  27.645  1.00  0.00    -0.014 A 
BRANCH  45  46
ATOM     46  C   UNL A   1      41.117  27.657  28.023  1.00  0.00     0.031 A 
ATOM     47  C   UNL A   1      42.613  27.763  27.993  1.00  0.00     0.074 A 
ATOM     48  C   UNL A   1      40.330  28.629  28.516  1.00  0.00     0.049 A 
ATOM     49  N   UNL A   1      43.386  28.670  28.517  1.00  0.00    -0.248 NA
ATOM     50  C   UNL A   1      43.341  26.650  27.348  1.00  0.00     0.031 C 
ATOM     51  C   UNL A   1      38.869  28.572  28.625  1.00  0.00     0.029 A 
ATOM     52  N   UNL A   1      40.656  29.844  29.051  1.00  0.00    -0.354 N 
ATOM     53  C   UNL A   1      44.682  28.216  28.309  1.00  0.00     0.074 A 
ATOM     54  C   UNL A   1      44.593  26.921  27.678  1.00  0.00     0.031 C 
ATOM     55  C   UNL A   1      38.425  29.709  29.185  1.00  0.00     0.029 A 
ATOM     56  C   UNL A   1      39.571  30.549  29.515  1.00  0.00     0.049 A 
ATOM     57  H   UNL A   1      41.579  30.182  29.100  1.00  0.00     0.167 HD
ATOM     58  C   UNL A   1      45.840  28.847  28.597  1.00  0.00     0.037 A 
ATOM     59  C   UNL A   1      39.526  31.733  30.152  1.00  0.00     0.037 A 
ATOM     60  C   UNL A   1      45.882  30.163  29.170  1.00  0.00     0.049 A 
ATOM     61  C   UNL A   1      40.830  32.437  30.418  1.00  0.00     0.074 A 
ATOM     62  C   UNL A   1      46.983  30.953  29.434  1.00  0.00     0.029 A 
ATOM     63  N   UNL A   1      44.761  30.889  29.551  1.00  0.00    -0.354 N 
ATOM     64  N   UNL A   1      42.054  32.029  30.164  1.00  0.00    -0.248 NA
ATOM     65  C   UNL A   1      40.755  33.762  31.044  1.00  0.00     0.031 C 
ATOM     66  C   UNL A   1      46.529  32.140  30.016  1.00  0.00     0.029 A 
ATOM     67  C   UNL A   1      45.143  32.114  30.059  1.00  0.00     0.049 A 
ATOM     68  H   UNL A   1      43.831  30.575  29.470  1.00  0.00     0.167 HD
ATOM     69  C   UNL A   1      42.891  33.062  30.566  1.00  0.00     0.074 A 
ATOM     70  C   UNL A   1      42.031  34.117  31.068  1.00  0.00     0.031 C 
ATOM     71  C   UNL A   1      44.246  33.141  30.528  1.00  0.00     0.037 A 
BRANCH  58  72
ATOM     72  C   UNL A   1      47.128  28.141  28.279  1.00  0.00     0.058 A 
ATOM     73  C   UNL A   1      47.799  27.356  29.232  1.00  0.00     0.135 A 
ATOM     74  C   UNL A   1      47.683  28.220  26.992  1.00  0.00     0.135 A 
ATOM     75  F   UNL A   1      47.330  27.267  30.488  1.00  0.00    -0.206 F 
ATOM     76  C   UNL A   1      48.979  26.688  28.926  1.00  0.00     0.059 A 
ATOM     77  C   UNL A   1      48.845  27.532  26.654  1.00  0.00     0.059 A 
ATOM     78  F   UNL A   1      47.095  28.969  26.046  1.00  0.00    -0.206 F 
ATOM     79  C   UNL A   1      49.489  26.773  27.630  1.00  0.00     0.060 A 
BRANCH  79  80
ATOM     80  S   UNL A   1      50.992  25.856  27.239  1.00  0.00     0.124 S 
ATOM     81  O   UNL A   1      50.528  24.476  27.339  1.00  0.00    -0.237 OA
ATOM     82  O   UNL A   1      51.298  26.324  25.891  1.00  0.00    -0.237 OA
ATOM     83  O   UNL A   1      51.930  26.279  28.274  1.00  0.00    -0.744 OA
ENDBRANCH  79  80
ENDBRANCH  58  72
BRANCH  59  84
ATOM     84  C   UNL A   1      38.223  32.331  30.547  1.00  0.00     0.058 A 
ATOM     85  C   UNL A   1      37.541  33.200  29.682  1.00  0.00     0.135 A 
ATOM     86  C   UNL A   1      37.624  32.044  31.784  1.00  0.00     0.135 A 
ATOM     87  F   UNL A   1      38.067  33.502  28.484  1.00  0.00    -0.206 F 
ATOM     88  C   UNL A   1      36.334  33.792  30.040  1.00  0.00     0.059 A 
ATOM     89  C   UNL A   1      36.403  32.600  32.153  1.00  0.00     0.059 A 
ATOM     90  F   UNL A   1      38.219  31.197  32.639  1.00  0.00    -0.206 F 
ATOM     91  C   UNL A   1      35.774  33.487  31.280  1.00  0.00     0.060 A 
BRANCH  91  92
ATOM     92  S   UNL A   1      34.198  34.249  31.727  1.00  0.00     0.124 S 
ATOM     93  O   UNL A   1      34.639  35.502  32.327  1.00  0.00    -0.237 OA
ATOM     94  O   UNL A   1      33.534  34.359  30.432  1.00  0.00    -0.237 OA
ATOM     95  O   UNL A   1      33.607  33.282  32.646  1.00  0.00    -0.744 OA
ENDBRANCH  91  92
ENDBRANCH  59  84
BRANCH  71  96
ATOM     96  C   UNL A   1      44.868  34.426  30.989  1.00  0.00     0.058 A 
ATOM     97  C   UNL A   1      45.054  35.510  30.119  1.00  0.00     0.135 A 
ATOM     98  C   UNL A   1      45.222  34.590  32.339  1.00  0.00     0.135 A 
ATOM     99  F   UNL A   1      44.735  35.397  28.820  1.00  0.00    -0.206 F 
ATOM    100  C   UNL A   1      45.597  36.707  30.566  1.00  0.00     0.059 A 
ATOM    101  C   UNL A   1      45.732  35.791  32.814  1.00  0.00     0.059 A 
ATOM    102  F   UNL A   1      45.048  33.585  33.212  1.00  0.00    -0.206 F 
ATOM    103  C   UNL A   1      45.928  36.840  31.917  1.00  0.00     0.060 A 
BRANCH 103 104
ATOM    104  S   UNL A   1      46.598  38.413  32.489  1.00  0.00     0.124 S 
ATOM    105  O   UNL A   1      45.898  39.360  31.627  1.00  0.00    -0.237 OA
ATOM    106  O   UNL A   1      46.207  38.425  33.895  1.00  0.00    -0.237 OA
ATOM    107  O   UNL A   1      48.031  38.282  32.243  1.00  0.00    -0.744 OA
ENDBRANCH 103 104
ENDBRANCH  71  96
ENDBRANCH  45  46
ENDBRANCH  37  40
ENDBRANCH  35  36
ENDBRANCH  34  35
ENDBRANCH   1  34
TORSDOF 19
ENDMDL
MODEL 3
REMARK VINA RESULT:     -11.9      2.730      8.677
REMARK SMILES CC[NH+]1CCN(c2ccc(NS(=O)(=O)c3cccc(F)c3)cc2C(=O)NCCCCNC(=O)c2ccc(-c3c4nc(c(-c5c(F)cc(S(=O)(=O)[O-])cc5F)c5ccc([nH]5)c(-c5c(F)cc(S(=O)(=O)[O-])cc5F)c5nc(c(-c6c(F)cc(S(=O)(=O)[O-])cc6F)c6ccc3[nH]6)C=C5)C=C4)cc2)CC1
REMARK SMILES IDX 28 1 27 2 26 3 24 4 25 5 23 7 7 8 8 9 9 10 22 11 10 12 6 13
REMARK SMILES IDX 3 14 4 15 101 16 5 18 100 19 2 20 1 21 11 22 12 24 13 25
REMARK SMILES IDX 14 26 15 27 16 28 21 29 17 30 19 31 18 32 20 33 29 34 30 35
REMARK SMILES IDX 31 36 32 37 33 39 34 40 35 41 99 42 36 43 98 44 37 45 38 46
REMARK SMILES IDX 39 47 92 48 40 49 97 50 91 51 93 52 41 53 96 54 90 55 89 56
REMARK SMILES IDX 42 58 76 59 55 60 75 61 56 62 59 63 74 64 94 65 57 66 58 67
REMARK SMILES IDX 73 69 95 70 60 71 43 72 44 73 53 74 45 75 46 76 52 77 54 78
REMARK SMILES IDX 47 79 48 80 49 81 50 82 51 83 77 84 78 85 87 86 79 87 80 88
REMARK SMILES IDX 86 89 88 90 81 91 82 92 83 93 84 94 85 95 61 96 62 97 71 98
REMARK SMILES IDX 63 99 64 100 70 101 72 102 65 103 66 104 67 105 68 106
REMARK SMILES IDX 69 107
REMARK H PARENT 26 6 3 17 11 23 31 38 93 57 59 68
REMARK Flexibility Score: inf
ROOT
ATOM      1  C   UNL A   1      34.089  28.203  25.924  1.00  0.00     0.023 C 
ENDROOT
BRANCH   1   2
ATOM      2  C   UNL A   1      33.691  28.771  24.570  1.00  0.00     0.116 C 
BRANCH   2   3
ATOM      3  N   UNL A   1      33.928  27.815  23.506  1.00  0.00    -0.352 N 
ATOM      4  C   UNL A   1      33.372  26.689  22.981  1.00  0.00     0.253 C 
ATOM      5  O   UNL A   1      33.963  26.329  21.948  1.00  0.00    -0.269 OA
ATOM      6  H   UNL A   1      34.744  28.055  23.010  1.00  0.00     0.163 HD
BRANCH   4   7
ATOM      7  C   UNL A   1      32.230  25.808  23.435  1.00  0.00     0.065 A 
ATOM      8  C   UNL A   1      30.918  26.128  23.848  1.00  0.00     0.050 A 
ATOM      9  C   UNL A   1      30.245  25.168  24.649  1.00  0.00     0.029 A 
ATOM     10  C   UNL A   1      30.801  23.956  25.023  1.00  0.00     0.029 A 
ATOM     11  C   UNL A   1      32.684  24.465  23.679  1.00  0.00     0.042 A 
ATOM     12  C   UNL A   1      31.962  23.532  24.427  1.00  0.00     0.050 A 
BRANCH   8  13
ATOM     13  N   UNL A   1      30.204  27.299  23.550  1.00  0.00    -0.360 N 
ATOM     14  N   UNL A   1      28.700  29.710  23.121  1.00  0.00    -0.332 N 
ATOM     15  C   UNL A   1      30.033  29.778  23.716  1.00  0.00     0.283 C 
ATOM     16  C   UNL A   1      28.031  28.403  23.024  1.00  0.00     0.283 C 
ATOM     17  H   UNL A   1      28.899  29.774  22.123  1.00  0.00     0.348 HD
ATOM     18  C   UNL A   1      30.551  28.493  24.354  1.00  0.00     0.178 C 
ATOM     19  C   UNL A   1      28.738  27.122  23.535  1.00  0.00     0.178 C 
BRANCH  14  20
ATOM     20  C   UNL A   1      27.880  30.891  23.379  1.00  0.00     0.258 C 
ATOM     21  C   UNL A   1      28.671  32.180  23.122  1.00  0.00     0.071 C 
ENDBRANCH  14  20
ENDBRANCH   8  13
BRANCH  12  22
ATOM     22  N   UNL A   1      32.508  22.243  24.742  1.00  0.00    -0.280 N 
ATOM     23  H   UNL A   1      32.369  21.494  24.118  1.00  0.00     0.180 HD
BRANCH  22  24
ATOM     24  S   UNL A   1      33.396  21.982  26.181  1.00  0.00     0.261 S 
ATOM     25  O   UNL A   1      32.984  23.007  27.113  1.00  0.00    -0.201 OA
ATOM     26  O   UNL A   1      33.212  20.581  26.514  1.00  0.00    -0.201 OA
BRANCH  24  27
ATOM     27  C   UNL A   1      35.128  22.232  25.869  1.00  0.00     0.090 A 
ATOM     28  C   UNL A   1      35.678  23.517  26.004  1.00  0.00     0.022 A 
ATOM     29  C   UNL A   1      35.935  21.155  25.495  1.00  0.00     0.061 A 
ATOM     30  C   UNL A   1      37.006  23.744  25.633  1.00  0.00     0.004 A 
ATOM     31  C   UNL A   1      37.266  21.393  25.171  1.00  0.00     0.124 A 
ATOM     32  C   UNL A   1      37.800  22.679  25.207  1.00  0.00     0.039 A 
ATOM     33  F   UNL A   1      38.048  20.372  24.796  1.00  0.00    -0.207 F 
ENDBRANCH  24  27
ENDBRANCH  22  24
ENDBRANCH  12  22
ENDBRANCH   4   7
ENDBRANCH   2   3
ENDBRANCH   1   2
BRANCH   1  34
ATOM     34  C   UNL A   1      34.064  29.110  27.167  1.00  0.00     0.023 C 
BRANCH  34  35
ATOM     35  C   UNL A   1      35.318  29.859  27.615  1.00  0.00     0.116 C 
BRANCH  35  36
ATOM     36  N   UNL A   1      35.322  30.240  29.023  1.00  0.00    -0.352 N 
ATOM     37  C   UNL A   1      36.321  30.238  29.965  1.00  0.00     0.251 C 
ATOM     38  H   UNL A   1      34.451  30.556  29.358  1.00  0.00     0.163 HD
ATOM     39  O   UNL A   1      36.141  30.617  31.117  1.00  0.00    -0.269 OA
BRANCH  37  40
ATOM     40  C   UNL A   1      37.612  29.677  29.592  1.00  0.00     0.039 A 
ATOM     41  C   UNL A   1      38.061  29.831  28.276  1.00  0.00     0.014 A 
ATOM     42  C   UNL A   1      38.408  29.130  30.592  1.00  0.00     0.014 A 
ATOM     43  C   UNL A   1      39.367  29.477  27.970  1.00  0.00     0.010 A 
ATOM     44  C   UNL A   1      39.735  28.900  30.313  1.00  0.00     0.010 A 
ATOM     45  C   UNL A   1      40.213  29.042  29.000  1.00  0.00    -0.014 A 
BRANCH  45  46
ATOM     46  C   UNL A   1      41.602  28.625  28.753  1.00  0.00     0.031 A 
ATOM     47  C   UNL A   1      42.647  29.701  28.727  1.00  0.00     0.074 A 
ATOM     48  C   UNL A   1      41.864  27.350  28.417  1.00  0.00     0.049 A 
ATOM     49  N   UNL A   1      43.869  29.653  28.280  1.00  0.00    -0.248 NA
ATOM     50  C   UNL A   1      42.230  31.038  29.199  1.00  0.00     0.031 C 
ATOM     51  C   UNL A   1      40.884  26.260  28.369  1.00  0.00     0.029 A 
ATOM     52  N   UNL A   1      43.033  26.763  28.017  1.00  0.00    -0.354 N 
ATOM     53  C   UNL A   1      44.347  30.954  28.372  1.00  0.00     0.074 A 
ATOM     54  C   UNL A   1      43.265  31.783  28.847  1.00  0.00     0.031 C 
ATOM     55  C   UNL A   1      41.498  25.134  27.971  1.00  0.00     0.029 A 
ATOM     56  C   UNL A   1      42.897  25.435  27.691  1.00  0.00     0.049 A 
ATOM     57  H   UNL A   1      43.889  27.246  27.966  1.00  0.00     0.167 HD
ATOM     58  C   UNL A   1      45.593  31.402  28.109  1.00  0.00     0.037 A 
ATOM     59  C   UNL A   1      43.809  24.575  27.204  1.00  0.00     0.037 A 
ATOM     60  C   UNL A   1      46.658  30.530  27.697  1.00  0.00     0.049 A 
ATOM     61  C   UNL A   1      45.204  25.090  26.964  1.00  0.00     0.074 A 
ATOM     62  C   UNL A   1      47.986  30.836  27.479  1.00  0.00     0.029 A 
ATOM     63  N   UNL A   1      46.509  29.170  27.458  1.00  0.00    -0.354 N 
ATOM     64  N   UNL A   1      45.668  26.312  27.111  1.00  0.00    -0.248 NA
ATOM     65  C   UNL A   1      46.202  24.118  26.506  1.00  0.00     0.031 C 
ATOM     66  C   UNL A   1      48.633  29.668  27.065  1.00  0.00     0.029 A 
ATOM     67  C   UNL A   1      47.720  28.623  27.083  1.00  0.00     0.049 A 
ATOM     68  H   UNL A   1      45.665  28.670  27.543  1.00  0.00     0.167 HD
ATOM     69  C   UNL A   1      47.019  26.245  26.798  1.00  0.00     0.074 A 
ATOM     70  C   UNL A   1      47.298  24.861  26.467  1.00  0.00     0.031 C 
ATOM     71  C   UNL A   1      47.951  27.232  26.783  1.00  0.00     0.037 A 
BRANCH  58  72
ATOM     72  C   UNL A   1      45.868  32.869  28.281  1.00  0.00     0.058 A 
ATOM     73  C   UNL A   1      45.702  33.783  27.227  1.00  0.00     0.135 A 
ATOM     74  C   UNL A   1      46.269  33.377  29.527  1.00  0.00     0.135 A 
ATOM     75  F   UNL A   1      45.348  33.351  26.005  1.00  0.00    -0.206 F 
ATOM     76  C   UNL A   1      45.936  35.143  27.397  1.00  0.00     0.059 A 
ATOM     77  C   UNL A   1      46.476  34.739  29.729  1.00  0.00     0.059 A 
ATOM     78  F   UNL A   1      46.459  32.548  30.565  1.00  0.00    -0.206 F 
ATOM     79  C   UNL A   1      46.314  35.613  28.655  1.00  0.00     0.060 A 
BRANCH  79  80
ATOM     80  S   UNL A   1      46.562  37.387  28.869  1.00  0.00     0.124 S 
ATOM     81  O   UNL A   1      47.021  37.781  27.541  1.00  0.00    -0.237 OA
ATOM     82  O   UNL A   1      45.226  37.844  29.238  1.00  0.00    -0.237 OA
ATOM     83  O   UNL A   1      47.563  37.466  29.928  1.00  0.00    -0.744 OA
ENDBRANCH  79  80
ENDBRANCH  58  72
BRANCH  59  84
ATOM     84  C   UNL A   1      43.447  23.156  26.944  1.00  0.00     0.058 A 
ATOM     85  C   UNL A   1      43.304  22.681  25.631  1.00  0.00     0.135 A 
ATOM     86  C   UNL A   1      43.245  22.242  27.991  1.00  0.00     0.135 A 
ATOM     87  F   UNL A   1      43.493  23.512  24.595  1.00  0.00    -0.206 F 
ATOM     88  C   UNL A   1      42.940  21.365  25.365  1.00  0.00     0.059 A 
ATOM     89  C   UNL A   1      42.909  20.913  27.749  1.00  0.00     0.059 A 
ATOM     90  F   UNL A   1      43.396  22.636  29.265  1.00  0.00    -0.206 F 
ATOM     91  C   UNL A   1      42.742  20.489  26.432  1.00  0.00     0.060 A 
BRANCH  91  92
ATOM     92  S   UNL A   1      42.285  18.779  26.072  1.00  0.00     0.124 S 
ATOM     93  O   UNL A   1      43.228  18.441  25.012  1.00  0.00    -0.237 OA
ATOM     94  O   UNL A   1      42.507  18.126  27.358  1.00  0.00    -0.237 OA
ATOM     95  O   UNL A   1      40.888  18.884  25.664  1.00  0.00    -0.744 OA
ENDBRANCH  91  92
ENDBRANCH  59  84
BRANCH  71  96
ATOM     96  C   UNL A   1      49.360  26.836  26.451  1.00  0.00     0.058 A 
ATOM     97  C   UNL A   1      49.867  26.937  25.147  1.00  0.00     0.135 A 
ATOM     98  C   UNL A   1      50.229  26.412  27.470  1.00  0.00     0.135 A 
ATOM     99  F   UNL A   1      49.072  27.332  24.141  1.00  0.00    -0.206 F 
ATOM    100  C   UNL A   1      51.184  26.602  24.859  1.00  0.00     0.059 A 
ATOM    101  C   UNL A   1      51.559  26.108  27.209  1.00  0.00     0.059 A 
ATOM    102  F   UNL A   1      49.793  26.315  28.735  1.00  0.00    -0.206 F 
ATOM    103  C   UNL A   1      52.023  26.194  25.898  1.00  0.00     0.060 A 
BRANCH 103 104
ATOM    104  S   UNL A   1      53.740  25.799  25.513  1.00  0.00     0.124 S 
ATOM    105  O   UNL A   1      54.120  26.930  24.673  1.00  0.00    -0.237 OA
ATOM    106  O   UNL A   1      54.353  25.756  26.836  1.00  0.00    -0.237 OA
ATOM    107  O   UNL A   1      53.647  24.512  24.829  1.00  0.00    -0.744 OA
ENDBRANCH 103 104
ENDBRANCH  71  96
ENDBRANCH  45  46
ENDBRANCH  37  40
ENDBRANCH  35  36
ENDBRANCH  34  35
ENDBRANCH   1  34
TORSDOF 19
ENDMDL
