MODEL 1
REMARK VINA RESULT:     -13.1      0.000      0.000
REMARK SMILES Cc1ccc2oc(C(=O)N[C@@H]3C=C[C@H](C(=O)NCCCCNC(=O)c4ccc(-c5c6nc(c(-c7c(F)cc(S(=O)(=O)[O-])cc7F)c7ccc([nH]7)c(-c7c(F)cc(S(=O)(=O)[O-])cc7F)c7nc(c(-c8c(F)cc(S(=O)(=O)[O-])cc8F)c8ccc5[nH]8)C=C7)C=C6)cc4)C3)cc2c1
REMARK SMILES IDX 20 1 19 2 18 3 17 4 15 5 16 6 14 8 11 9 12 10 91 11 13 12
REMARK SMILES IDX 10 13 8 14 9 15 7 17 1 18 2 19 3 20 94 21 4 22 93 23 5 24
REMARK SMILES IDX 92 25 6 26 21 27 22 28 23 29 24 31 25 32 26 33 90 34 27 35
REMARK SMILES IDX 89 36 28 37 29 38 30 39 83 40 31 41 88 42 82 43 84 44 32 45
REMARK SMILES IDX 87 46 81 47 80 48 33 50 67 51 46 52 66 53 47 54 50 55 65 56
REMARK SMILES IDX 85 57 48 58 49 59 64 61 86 62 51 63 34 64 35 65 44 66 36 67
REMARK SMILES IDX 37 68 43 69 45 70 38 71 39 72 40 73 41 74 42 75 68 76 69 77
REMARK SMILES IDX 78 78 70 79 71 80 77 81 79 82 72 83 73 84 74 85 75 86 76 87
REMARK SMILES IDX 52 88 53 89 62 90 54 91 55 92 61 93 63 94 56 95 57 96 58 97
REMARK SMILES IDX 59 98 60 99
REMARK H PARENT 17 7 10 16 22 30 84 49 50 60
REMARK Flexibility Score: inf
ROOT
ATOM      1  C   UNL A   1      39.932  22.126  26.897  1.00  0.00     0.023 C 
ENDROOT
BRANCH   1   2
ATOM      2  C   UNL A   1      38.851  22.850  26.079  1.00  0.00     0.023 C 
BRANCH   2   3
ATOM      3  C   UNL A   1      37.609  22.037  25.707  1.00  0.00     0.116 C 
BRANCH   3   4
ATOM      4  N   UNL A   1      36.420  22.392  26.454  1.00  0.00    -0.356 N 
ATOM      5  C   UNL A   1      35.103  22.095  26.296  1.00  0.00     0.227 C 
ATOM      6  O   UNL A   1      34.392  22.378  27.268  1.00  0.00    -0.274 OA
ATOM      7  H   UNL A   1      36.603  22.966  27.233  1.00  0.00     0.163 HD
BRANCH   5   8
ATOM      8  C   UNL A   1      34.455  21.577  24.979  1.00  0.00     0.103 C 
ATOM      9  C   UNL A   1      31.971  21.650  24.886  1.00  0.00     0.106 C 
ATOM     10  C   UNL A   1      32.477  20.258  24.861  1.00  0.00    -0.006 C 
ATOM     11  C   UNL A   1      33.239  22.475  24.616  1.00  0.00     0.047 C 
ATOM     12  C   UNL A   1      33.820  20.216  24.870  1.00  0.00    -0.016 C 
BRANCH   9  13
ATOM     13  N   UNL A   1      31.176  22.064  26.043  1.00  0.00    -0.343 N 
ATOM     14  C   UNL A   1      30.577  23.173  26.597  1.00  0.00     0.287 C 
ATOM     15  O   UNL A   1      30.068  22.968  27.712  1.00  0.00    -0.266 OA
ATOM     16  H   UNL A   1      31.015  21.285  26.622  1.00  0.00     0.164 HD
BRANCH  14  17
ATOM     17  C   UNL A   1      30.568  24.478  25.980  1.00  0.00     0.192 A 
ATOM     18  C   UNL A   1      30.631  29.439  22.573  1.00  0.00     0.044 C 
ATOM     19  C   UNL A   1      30.751  28.482  23.723  1.00  0.00    -0.050 A 
ATOM     20  C   UNL A   1      31.342  28.853  24.942  1.00  0.00     0.007 A 
ATOM     21  C   UNL A   1      30.302  27.173  23.550  1.00  0.00     0.015 A 
ATOM     22  C   UNL A   1      31.530  27.931  25.993  1.00  0.00     0.048 A 
ATOM     23  C   UNL A   1      30.430  26.265  24.607  1.00  0.00     0.021 A 
ATOM     24  C   UNL A   1      31.078  26.633  25.771  1.00  0.00     0.135 A 
ATOM     25  C   UNL A   1      29.987  24.960  24.836  1.00  0.00     0.065 A 
ATOM     26  O   UNL A   1      31.187  25.549  26.605  1.00  0.00    -0.451 OA
ENDBRANCH  14  17
ENDBRANCH   9  13
ENDBRANCH   5   8
ENDBRANCH   3   4
ENDBRANCH   2   3
ENDBRANCH   1   2
BRANCH   1  27
ATOM     27  C   UNL A   1      41.261  22.857  27.117  1.00  0.00     0.116 C 
BRANCH  27  28
ATOM     28  N   UNL A   1      41.594  23.790  26.053  1.00  0.00    -0.352 N 
ATOM     29  C   UNL A   1      41.690  25.163  26.040  1.00  0.00     0.251 C 
ATOM     30  H   UNL A   1      41.784  23.364  25.186  1.00  0.00     0.163 HD
ATOM     31  O   UNL A   1      41.923  25.719  24.967  1.00  0.00    -0.269 OA
BRANCH  29  32
ATOM     32  C   UNL A   1      41.489  25.992  27.260  1.00  0.00     0.039 A 
ATOM     33  C   UNL A   1      42.474  26.931  27.591  1.00  0.00     0.014 A 
ATOM     34  C   UNL A   1      40.393  25.830  28.111  1.00  0.00     0.014 A 
ATOM     35  C   UNL A   1      42.325  27.750  28.717  1.00  0.00     0.010 A 
ATOM     36  C   UNL A   1      40.216  26.688  29.206  1.00  0.00     0.010 A 
ATOM     37  C   UNL A   1      41.175  27.665  29.517  1.00  0.00    -0.014 A 
BRANCH  37  38
ATOM     38  C   UNL A   1      40.962  28.610  30.652  1.00  0.00     0.031 A 
ATOM     39  C   UNL A   1      41.805  28.531  31.899  1.00  0.00     0.074 A 
ATOM     40  C   UNL A   1      39.980  29.533  30.573  1.00  0.00     0.049 A 
ATOM     41  N   UNL A   1      41.739  29.257  32.988  1.00  0.00    -0.248 NA
ATOM     42  C   UNL A   1      42.845  27.491  31.934  1.00  0.00     0.031 C 
ATOM     43  C   UNL A   1      39.060  29.695  29.446  1.00  0.00     0.029 A 
ATOM     44  N   UNL A   1      39.588  30.507  31.459  1.00  0.00    -0.354 N 
ATOM     45  C   UNL A   1      42.727  28.766  33.835  1.00  0.00     0.074 A 
ATOM     46  C   UNL A   1      43.343  27.646  33.154  1.00  0.00     0.031 C 
ATOM     47  C   UNL A   1      38.227  30.717  29.698  1.00  0.00     0.029 A 
ATOM     48  C   UNL A   1      38.533  31.269  31.015  1.00  0.00     0.049 A 
ATOM     49  H   UNL A   1      40.022  30.646  32.333  1.00  0.00     0.167 HD
ATOM     50  C   UNL A   1      43.105  29.218  35.058  1.00  0.00     0.037 A 
ATOM     51  C   UNL A   1      37.882  32.295  31.596  1.00  0.00     0.037 A 
ATOM     52  C   UNL A   1      42.502  30.337  35.737  1.00  0.00     0.049 A 
ATOM     53  C   UNL A   1      38.322  32.779  32.952  1.00  0.00     0.074 A 
ATOM     54  C   UNL A   1      42.830  30.875  36.972  1.00  0.00     0.029 A 
ATOM     55  N   UNL A   1      41.455  31.097  35.240  1.00  0.00    -0.354 N 
ATOM     56  N   UNL A   1      39.284  32.323  33.718  1.00  0.00    -0.248 NA
ATOM     57  C   UNL A   1      37.593  33.925  33.518  1.00  0.00     0.031 C 
ATOM     58  C   UNL A   1      41.966  31.947  37.230  1.00  0.00     0.029 A 
ATOM     59  C   UNL A   1      41.124  32.097  36.141  1.00  0.00     0.049 A 
ATOM     60  H   UNL A   1      41.011  30.948  34.374  1.00  0.00     0.167 HD
ATOM     61  C   UNL A   1      39.294  33.144  34.841  1.00  0.00     0.074 A 
ATOM     62  C   UNL A   1      38.252  34.131  34.649  1.00  0.00     0.031 C 
ATOM     63  C   UNL A   1      40.094  33.082  35.934  1.00  0.00     0.037 A 
BRANCH  50  64
ATOM     64  C   UNL A   1      44.245  28.510  35.736  1.00  0.00     0.058 A 
ATOM     65  C   UNL A   1      44.016  27.442  36.621  1.00  0.00     0.135 A 
ATOM     66  C   UNL A   1      45.578  28.865  35.472  1.00  0.00     0.135 A 
ATOM     67  F   UNL A   1      42.761  27.069  36.917  1.00  0.00    -0.206 F 
ATOM     68  C   UNL A   1      45.064  26.770  37.238  1.00  0.00     0.059 A 
ATOM     69  C   UNL A   1      46.644  28.190  36.061  1.00  0.00     0.059 A 
ATOM     70  F   UNL A   1      45.854  29.875  34.633  1.00  0.00    -0.206 F 
ATOM     71  C   UNL A   1      46.376  27.153  36.955  1.00  0.00     0.060 A 
BRANCH  71  72
ATOM     72  S   UNL A   1      47.726  26.267  37.762  1.00  0.00     0.124 S 
ATOM     73  O   UNL A   1      47.968  25.182  36.815  1.00  0.00    -0.237 OA
ATOM     74  O   UNL A   1      48.769  27.285  37.837  1.00  0.00    -0.237 OA
ATOM     75  O   UNL A   1      47.152  25.866  39.042  1.00  0.00    -0.744 OA
ENDBRANCH  71  72
ENDBRANCH  50  64
BRANCH  51  76
ATOM     76  C   UNL A   1      36.752  32.961  30.895  1.00  0.00     0.058 A 
ATOM     77  C   UNL A   1      36.987  33.865  29.847  1.00  0.00     0.135 A 
ATOM     78  C   UNL A   1      35.421  32.725  31.269  1.00  0.00     0.135 A 
ATOM     79  F   UNL A   1      38.244  34.127  29.458  1.00  0.00    -0.206 F 
ATOM     80  C   UNL A   1      35.945  34.535  29.215  1.00  0.00     0.059 A 
ATOM     81  C   UNL A   1      34.361  33.364  30.636  1.00  0.00     0.059 A 
ATOM     82  F   UNL A   1      35.143  31.856  32.253  1.00  0.00    -0.206 F 
ATOM     83  C   UNL A   1      34.634  34.281  29.621  1.00  0.00     0.060 A 
BRANCH  83  84
ATOM     84  S   UNL A   1      33.282  35.136  28.782  1.00  0.00     0.124 S 
ATOM     85  O   UNL A   1      32.476  35.586  29.910  1.00  0.00    -0.237 OA
ATOM     86  O   UNL A   1      33.986  36.180  28.042  1.00  0.00    -0.237 OA
ATOM     87  O   UNL A   1      32.688  34.088  27.957  1.00  0.00    -0.744 OA
ENDBRANCH  83  84
ENDBRANCH  51  76
BRANCH  63  88
ATOM     88  C   UNL A   1      39.898  34.137  36.988  1.00  0.00     0.058 A 
ATOM     89  C   UNL A   1      40.480  35.410  36.873  1.00  0.00     0.135 A 
ATOM     90  C   UNL A   1      39.105  33.877  38.117  1.00  0.00     0.135 A 
ATOM     91  F   UNL A   1      41.252  35.707  35.816  1.00  0.00    -0.206 F 
ATOM     92  C   UNL A   1      40.311  36.377  37.860  1.00  0.00     0.059 A 
ATOM     93  C   UNL A   1      38.904  34.837  39.104  1.00  0.00     0.059 A 
ATOM     94  F   UNL A   1      38.518  32.680  38.269  1.00  0.00    -0.206 F 
ATOM     95  C   UNL A   1      39.524  36.080  38.975  1.00  0.00     0.060 A 
BRANCH  95  96
ATOM     96  S   UNL A   1      39.303  37.342  40.246  1.00  0.00     0.124 S 
ATOM     97  O   UNL A   1      38.624  36.588  41.294  1.00  0.00    -0.237 OA
ATOM     98  O   UNL A   1      40.677  37.738  40.540  1.00  0.00    -0.237 OA
ATOM     99  O   UNL A   1      38.496  38.357  39.577  1.00  0.00    -0.744 OA
ENDBRANCH  95  96
ENDBRANCH  63  88
ENDBRANCH  37  38
ENDBRANCH  29  32
ENDBRANCH  27  28
ENDBRANCH   1  27
TORSDOF 16
ENDMDL
MODEL 2
REMARK VINA RESULT:     -13.1      1.497      2.137
REMARK SMILES Cc1ccc2oc(C(=O)N[C@@H]3C=C[C@H](C(=O)NCCCCNC(=O)c4ccc(-c5c6nc(c(-c7c(F)cc(S(=O)(=O)[O-])cc7F)c7ccc([nH]7)c(-c7c(F)cc(S(=O)(=O)[O-])cc7F)c7nc(c(-c8c(F)cc(S(=O)(=O)[O-])cc8F)c8ccc5[nH]8)C=C7)C=C6)cc4)C3)cc2c1
REMARK SMILES IDX 20 1 19 2 18 3 17 4 15 5 16 6 14 8 11 9 12 10 91 11 13 12
REMARK SMILES IDX 10 13 8 14 9 15 7 17 1 18 2 19 3 20 94 21 4 22 93 23 5 24
REMARK SMILES IDX 92 25 6 26 21 27 22 28 23 29 24 31 25 32 26 33 90 34 27 35
REMARK SMILES IDX 89 36 28 37 29 38 30 39 83 40 31 41 88 42 82 43 84 44 32 45
REMARK SMILES IDX 87 46 81 47 80 48 33 50 67 51 46 52 66 53 47 54 50 55 65 56
REMARK SMILES IDX 85 57 48 58 49 59 64 61 86 62 51 63 34 64 35 65 44 66 36 67
REMARK SMILES IDX 37 68 43 69 45 70 38 71 39 72 40 73 41 74 42 75 68 76 69 77
REMARK SMILES IDX 78 78 70 79 71 80 77 81 79 82 72 83 73 84 74 85 75 86 76 87
REMARK SMILES IDX 52 88 53 89 62 90 54 91 55 92 61 93 63 94 56 95 57 96 58 97
REMARK SMILES IDX 59 98 60 99
REMARK H PARENT 17 7 10 16 22 30 84 49 50 60
REMARK Flexibility Score: inf
ROOT
ATOM      1  C   UNL A   1      40.386  21.954  27.410  1.00  0.00     0.023 C 
ENDROOT
BRANCH   1   2
ATOM      2  C   UNL A   1      39.570  21.657  26.142  1.00  0.00     0.023 C 
BRANCH   2   3
ATOM      3  C   UNL A   1      38.235  22.391  25.994  1.00  0.00     0.116 C 
BRANCH   3   4
ATOM      4  N   UNL A   1      37.786  22.538  24.625  1.00  0.00    -0.356 N 
ATOM      5  C   UNL A   1      36.561  22.732  24.067  1.00  0.00     0.227 C 
ATOM      6  O   UNL A   1      36.586  23.051  22.872  1.00  0.00    -0.274 OA
ATOM      7  H   UNL A   1      38.515  22.486  23.965  1.00  0.00     0.163 HD
BRANCH   5   8
ATOM      8  C   UNL A   1      35.203  22.453  24.772  1.00  0.00     0.103 C 
ATOM      9  C   UNL A   1      33.204  23.521  23.749  1.00  0.00     0.106 C 
ATOM     10  C   UNL A   1      33.480  24.064  25.099  1.00  0.00    -0.006 C 
ATOM     11  C   UNL A   1      34.094  22.268  23.700  1.00  0.00     0.047 C 
ATOM     12  C   UNL A   1      34.536  23.460  25.672  1.00  0.00    -0.016 C 
BRANCH   9  13
ATOM     13  N   UNL A   1      33.325  24.433  22.611  1.00  0.00    -0.343 N 
ATOM     14  C   UNL A   1      33.220  25.766  22.283  1.00  0.00     0.287 C 
ATOM     15  O   UNL A   1      33.350  25.999  21.069  1.00  0.00    -0.266 OA
ATOM     16  H   UNL A   1      33.563  23.919  21.806  1.00  0.00     0.164 HD
BRANCH  14  17
ATOM     17  C   UNL A   1      32.939  26.812  23.237  1.00  0.00     0.192 A 
ATOM     18  C   UNL A   1      31.254  31.583  26.496  1.00  0.00     0.044 C 
ATOM     19  C   UNL A   1      31.999  30.391  25.970  1.00  0.00    -0.050 A 
ATOM     20  C   UNL A   1      33.271  30.036  26.448  1.00  0.00     0.007 A 
ATOM     21  C   UNL A   1      31.422  29.646  24.941  1.00  0.00     0.015 A 
ATOM     22  C   UNL A   1      34.006  28.966  25.896  1.00  0.00     0.048 A 
ATOM     23  C   UNL A   1      32.117  28.546  24.427  1.00  0.00     0.021 A 
ATOM     24  C   UNL A   1      33.396  28.259  24.864  1.00  0.00     0.135 A 
ATOM     25  C   UNL A   1      31.805  27.527  23.523  1.00  0.00     0.065 A 
ATOM     26  O   UNL A   1      33.915  27.221  24.133  1.00  0.00    -0.451 OA
ENDBRANCH  14  17
ENDBRANCH   9  13
ENDBRANCH   5   8
ENDBRANCH   3   4
ENDBRANCH   2   3
ENDBRANCH   1   2
BRANCH   1  27
ATOM     27  C   UNL A   1      41.572  22.915  27.280  1.00  0.00     0.116 C 
BRANCH  27  28
ATOM     28  N   UNL A   1      41.459  23.827  26.153  1.00  0.00    -0.352 N 
ATOM     29  C   UNL A   1      41.216  25.180  26.094  1.00  0.00     0.251 C 
ATOM     30  H   UNL A   1      41.577  23.399  25.273  1.00  0.00     0.163 HD
ATOM     31  O   UNL A   1      41.099  25.702  24.985  1.00  0.00    -0.269 OA
BRANCH  29  32
ATOM     32  C   UNL A   1      41.059  26.019  27.313  1.00  0.00     0.039 A 
ATOM     33  C   UNL A   1      42.036  26.986  27.582  1.00  0.00     0.014 A 
ATOM     34  C   UNL A   1      40.012  25.841  28.222  1.00  0.00     0.014 A 
ATOM     35  C   UNL A   1      41.926  27.815  28.705  1.00  0.00     0.010 A 
ATOM     36  C   UNL A   1      39.872  26.709  29.315  1.00  0.00     0.010 A 
ATOM     37  C   UNL A   1      40.821  27.713  29.564  1.00  0.00    -0.014 A 
BRANCH  37  38
ATOM     38  C   UNL A   1      40.644  28.667  30.698  1.00  0.00     0.031 A 
ATOM     39  C   UNL A   1      41.489  28.562  31.942  1.00  0.00     0.074 A 
ATOM     40  C   UNL A   1      39.693  29.621  30.621  1.00  0.00     0.049 A 
ATOM     41  N   UNL A   1      41.451  29.292  33.030  1.00  0.00    -0.248 NA
ATOM     42  C   UNL A   1      42.493  27.489  31.976  1.00  0.00     0.031 C 
ATOM     43  C   UNL A   1      38.774  29.811  29.497  1.00  0.00     0.029 A 
ATOM     44  N   UNL A   1      39.336  30.609  31.507  1.00  0.00    -0.354 N 
ATOM     45  C   UNL A   1      42.426  28.771  33.874  1.00  0.00     0.074 A 
ATOM     46  C   UNL A   1      43.002  27.630  33.193  1.00  0.00     0.031 C 
ATOM     47  C   UNL A   1      37.976  30.861  29.750  1.00  0.00     0.029 A 
ATOM     48  C   UNL A   1      38.305  31.405  31.065  1.00  0.00     0.049 A 
ATOM     49  H   UNL A   1      39.778  30.736  32.379  1.00  0.00     0.167 HD
ATOM     50  C   UNL A   1      42.823  29.213  35.094  1.00  0.00     0.037 A 
ATOM     51  C   UNL A   1      37.691  32.453  31.647  1.00  0.00     0.037 A 
ATOM     52  C   UNL A   1      42.261  30.353  35.774  1.00  0.00     0.049 A 
ATOM     53  C   UNL A   1      38.152  32.925  33.000  1.00  0.00     0.074 A 
ATOM     54  C   UNL A   1      42.610  30.881  37.006  1.00  0.00     0.029 A 
ATOM     55  N   UNL A   1      41.237  31.145  35.279  1.00  0.00    -0.354 N 
ATOM     56  N   UNL A   1      39.102  32.439  33.763  1.00  0.00    -0.248 NA
ATOM     57  C   UNL A   1      37.464  34.095  33.566  1.00  0.00     0.031 C 
ATOM     58  C   UNL A   1      41.784  31.982  37.265  1.00  0.00     0.029 A 
ATOM     59  C   UNL A   1      40.942  32.158  36.179  1.00  0.00     0.049 A 
ATOM     60  H   UNL A   1      40.785  31.010  34.415  1.00  0.00     0.167 HD
ATOM     61  C   UNL A   1      39.143  33.261  34.884  1.00  0.00     0.074 A 
ATOM     62  C   UNL A   1      38.134  34.282  34.694  1.00  0.00     0.031 C 
ATOM     63  C   UNL A   1      39.944  33.175  35.974  1.00  0.00     0.037 A 
BRANCH  50  64
ATOM     64  C   UNL A   1      43.942  28.468  35.770  1.00  0.00     0.058 A 
ATOM     65  C   UNL A   1      43.682  27.400  36.644  1.00  0.00     0.135 A 
ATOM     66  C   UNL A   1      45.284  28.791  35.512  1.00  0.00     0.135 A 
ATOM     67  F   UNL A   1      42.416  27.058  36.933  1.00  0.00    -0.206 F 
ATOM     68  C   UNL A   1      44.710  26.694  37.259  1.00  0.00     0.059 A 
ATOM     69  C   UNL A   1      46.330  28.083  36.099  1.00  0.00     0.059 A 
ATOM     70  F   UNL A   1      45.590  29.800  34.683  1.00  0.00    -0.206 F 
ATOM     71  C   UNL A   1      46.032  27.045  36.982  1.00  0.00     0.060 A 
BRANCH  71  72
ATOM     72  S   UNL A   1      47.356  26.117  37.786  1.00  0.00     0.124 S 
ATOM     73  O   UNL A   1      47.604  26.932  38.972  1.00  0.00    -0.237 OA
ATOM     74  O   UNL A   1      46.728  24.822  38.030  1.00  0.00    -0.237 OA
ATOM     75  O   UNL A   1      48.423  26.115  36.791  1.00  0.00    -0.744 OA
ENDBRANCH  71  72
ENDBRANCH  50  64
BRANCH  51  76
ATOM     76  C   UNL A   1      36.581  33.154  30.948  1.00  0.00     0.058 A 
ATOM     77  C   UNL A   1      36.825  33.927  29.802  1.00  0.00     0.135 A 
ATOM     78  C   UNL A   1      35.262  33.085  31.421  1.00  0.00     0.135 A 
ATOM     79  F   UNL A   1      38.071  34.028  29.316  1.00  0.00    -0.206 F 
ATOM     80  C   UNL A   1      35.807  34.631  29.167  1.00  0.00     0.059 A 
ATOM     81  C   UNL A   1      34.223  33.760  30.790  1.00  0.00     0.059 A 
ATOM     82  F   UNL A   1      34.974  32.345  32.503  1.00  0.00    -0.206 F 
ATOM     83  C   UNL A   1      34.509  34.544  29.672  1.00  0.00     0.060 A 
BRANCH  83  84
ATOM     84  S   UNL A   1      33.186  35.441  28.831  1.00  0.00     0.124 S 
ATOM     85  O   UNL A   1      32.410  35.943  29.959  1.00  0.00    -0.237 OA
ATOM     86  O   UNL A   1      33.926  36.443  28.068  1.00  0.00    -0.237 OA
ATOM     87  O   UNL A   1      32.541  34.406  28.028  1.00  0.00    -0.744 OA
ENDBRANCH  83  84
ENDBRANCH  51  76
BRANCH  63  88
ATOM     88  C   UNL A   1      39.788  34.239  37.026  1.00  0.00     0.058 A 
ATOM     89  C   UNL A   1      39.010  34.029  38.177  1.00  0.00     0.135 A 
ATOM     90  C   UNL A   1      40.436  35.477  36.888  1.00  0.00     0.135 A 
ATOM     91  F   UNL A   1      38.365  32.866  38.353  1.00  0.00    -0.206 F 
ATOM     92  C   UNL A   1      38.854  35.023  39.137  1.00  0.00     0.059 A 
ATOM     93  C   UNL A   1      40.312  36.476  37.849  1.00  0.00     0.059 A 
ATOM     94  F   UNL A   1      41.199  35.724  35.812  1.00  0.00    -0.206 F 
ATOM     95  C   UNL A   1      39.505  36.246  38.963  1.00  0.00     0.060 A 
BRANCH  95  96
ATOM     96  S   UNL A   1      39.303  37.528  40.218  1.00  0.00     0.124 S 
ATOM     97  O   UNL A   1      38.270  38.366  39.620  1.00  0.00    -0.237 OA
ATOM     98  O   UNL A   1      38.895  36.760  41.391  1.00  0.00    -0.237 OA
ATOM     99  O   UNL A   1      40.630  38.129  40.303  1.00  0.00    -0.744 OA
ENDBRANCH  95  96
ENDBRANCH  63  88
ENDBRANCH  37  38
ENDBRANCH  29  32
ENDBRANCH  27  28
ENDBRANCH   1  27
TORSDOF 16
ENDMDL
MODEL 3
REMARK VINA RESULT:     -12.9      0.367      1.487
REMARK SMILES Cc1ccc2oc(C(=O)N[C@@H]3C=C[C@H](C(=O)NCCCCNC(=O)c4ccc(-c5c6nc(c(-c7c(F)cc(S(=O)(=O)[O-])cc7F)c7ccc([nH]7)c(-c7c(F)cc(S(=O)(=O)[O-])cc7F)c7nc(c(-c8c(F)cc(S(=O)(=O)[O-])cc8F)c8ccc5[nH]8)C=C7)C=C6)cc4)C3)cc2c1
REMARK SMILES IDX 20 1 19 2 18 3 17 4 15 5 16 6 14 8 11 9 12 10 91 11 13 12
REMARK SMILES IDX 10 13 8 14 9 15 7 17 1 18 2 19 3 20 94 21 4 22 93 23 5 24
REMARK SMILES IDX 92 25 6 26 21 27 22 28 23 29 24 31 25 32 26 33 90 34 27 35
REMARK SMILES IDX 89 36 28 37 29 38 30 39 83 40 31 41 88 42 82 43 84 44 32 45
REMARK SMILES IDX 87 46 81 47 80 48 33 50 67 51 46 52 66 53 47 54 50 55 65 56
REMARK SMILES IDX 85 57 48 58 49 59 64 61 86 62 51 63 34 64 35 65 44 66 36 67
REMARK SMILES IDX 37 68 43 69 45 70 38 71 39 72 40 73 41 74 42 75 68 76 69 77
REMARK SMILES IDX 78 78 70 79 71 80 77 81 79 82 72 83 73 84 74 85 75 86 76 87
REMARK SMILES IDX 52 88 53 89 62 90 54 91 55 92 61 93 63 94 56 95 57 96 58 97
REMARK SMILES IDX 59 98 60 99
REMARK H PARENT 17 7 10 16 22 30 84 49 50 60
REMARK Flexibility Score: inf
ROOT
ATOM      1  C   UNL A   1      39.741  21.770  26.335  1.00  0.00     0.023 C 
ENDROOT
BRANCH   1   2
ATOM      2  C   UNL A   1      38.315  21.852  25.767  1.00  0.00     0.023 C 
BRANCH   2   3
ATOM      3  C   UNL A   1      37.664  23.237  25.741  1.00  0.00     0.116 C 
BRANCH   3   4
ATOM      4  N   UNL A   1      36.439  23.332  26.509  1.00  0.00    -0.356 N 
ATOM      5  C   UNL A   1      35.228  22.725  26.400  1.00  0.00     0.227 C 
ATOM      6  O   UNL A   1      34.489  22.873  27.382  1.00  0.00    -0.274 OA
ATOM      7  H   UNL A   1      36.496  23.965  27.261  1.00  0.00     0.163 HD
BRANCH   5   8
ATOM      8  C   UNL A   1      34.695  22.014  25.123  1.00  0.00     0.103 C 
ATOM      9  C   UNL A   1      32.228  21.732  24.981  1.00  0.00     0.106 C 
ATOM     10  C   UNL A   1      32.921  20.427  25.086  1.00  0.00    -0.006 C 
ATOM     11  C   UNL A   1      33.379  22.700  24.661  1.00  0.00     0.047 C 
ATOM     12  C   UNL A   1      34.256  20.573  25.122  1.00  0.00    -0.016 C 
BRANCH   9  13
ATOM     13  N   UNL A   1      31.351  22.128  26.083  1.00  0.00    -0.343 N 
ATOM     14  C   UNL A   1      30.678  23.218  26.585  1.00  0.00     0.287 C 
ATOM     15  O   UNL A   1      30.111  23.006  27.671  1.00  0.00    -0.266 OA
ATOM     16  H   UNL A   1      31.186  21.350  26.663  1.00  0.00     0.164 HD
BRANCH  14  17
ATOM     17  C   UNL A   1      30.654  24.514  25.951  1.00  0.00     0.192 A 
ATOM     18  C   UNL A   1      30.724  29.434  22.484  1.00  0.00     0.044 C 
ATOM     19  C   UNL A   1      30.813  28.497  23.653  1.00  0.00    -0.050 A 
ATOM     20  C   UNL A   1      31.316  28.904  24.899  1.00  0.00     0.007 A 
ATOM     21  C   UNL A   1      30.428  27.168  23.472  1.00  0.00     0.015 A 
ATOM     22  C   UNL A   1      31.478  28.003  25.972  1.00  0.00     0.048 A 
ATOM     23  C   UNL A   1      30.527  26.279  24.548  1.00  0.00     0.021 A 
ATOM     24  C   UNL A   1      31.091  26.686  25.742  1.00  0.00     0.135 A 
ATOM     25  C   UNL A   1      30.123  24.960  24.768  1.00  0.00     0.065 A 
ATOM     26  O   UNL A   1      31.193  25.617  26.596  1.00  0.00    -0.451 OA
ENDBRANCH  14  17
ENDBRANCH   9  13
ENDBRANCH   5   8
ENDBRANCH   3   4
ENDBRANCH   2   3
ENDBRANCH   1   2
BRANCH   1  27
ATOM     27  C   UNL A   1      40.335  23.044  26.944  1.00  0.00     0.116 C 
BRANCH  27  28
ATOM     28  N   UNL A   1      40.969  23.914  25.967  1.00  0.00    -0.352 N 
ATOM     29  C   UNL A   1      41.337  25.239  26.027  1.00  0.00     0.251 C 
ATOM     30  H   UNL A   1      41.171  23.477  25.108  1.00  0.00     0.163 HD
ATOM     31  O   UNL A   1      41.801  25.760  25.012  1.00  0.00    -0.269 OA
BRANCH  29  32
ATOM     32  C   UNL A   1      41.164  26.063  27.253  1.00  0.00     0.039 A 
ATOM     33  C   UNL A   1      42.211  26.914  27.632  1.00  0.00     0.014 A 
ATOM     34  C   UNL A   1      40.030  25.980  28.066  1.00  0.00     0.014 A 
ATOM     35  C   UNL A   1      42.091  27.726  28.766  1.00  0.00     0.010 A 
ATOM     36  C   UNL A   1      39.888  26.834  29.169  1.00  0.00     0.010 A 
ATOM     37  C   UNL A   1      40.912  27.725  29.527  1.00  0.00    -0.014 A 
BRANCH  37  38
ATOM     38  C   UNL A   1      40.739  28.668  30.671  1.00  0.00     0.031 A 
ATOM     39  C   UNL A   1      41.584  28.549  31.913  1.00  0.00     0.074 A 
ATOM     40  C   UNL A   1      39.790  29.625  30.604  1.00  0.00     0.049 A 
ATOM     41  N   UNL A   1      41.550  29.267  33.008  1.00  0.00    -0.248 NA
ATOM     42  C   UNL A   1      42.586  27.472  31.934  1.00  0.00     0.031 C 
ATOM     43  C   UNL A   1      38.871  29.829  29.483  1.00  0.00     0.029 A 
ATOM     44  N   UNL A   1      39.437  30.606  31.500  1.00  0.00    -0.354 N 
ATOM     45  C   UNL A   1      42.524  28.735  33.846  1.00  0.00     0.074 A 
ATOM     46  C   UNL A   1      43.096  27.600  33.152  1.00  0.00     0.031 C 
ATOM     47  C   UNL A   1      38.076  30.879  29.748  1.00  0.00     0.029 A 
ATOM     48  C   UNL A   1      38.408  31.408  31.067  1.00  0.00     0.049 A 
ATOM     49  H   UNL A   1      39.880  30.723  32.372  1.00  0.00     0.167 HD
ATOM     50  C   UNL A   1      42.924  29.164  35.070  1.00  0.00     0.037 A 
ATOM     51  C   UNL A   1      37.797  32.453  31.660  1.00  0.00     0.037 A 
ATOM     52  C   UNL A   1      42.365  30.298  35.761  1.00  0.00     0.049 A 
ATOM     53  C   UNL A   1      38.261  32.910  33.018  1.00  0.00     0.074 A 
ATOM     54  C   UNL A   1      42.718  30.814  36.998  1.00  0.00     0.029 A 
ATOM     55  N   UNL A   1      41.343  31.099  35.275  1.00  0.00    -0.354 N 
ATOM     56  N   UNL A   1      39.210  32.414  33.774  1.00  0.00    -0.248 NA
ATOM     57  C   UNL A   1      37.577  34.076  33.596  1.00  0.00     0.031 C 
ATOM     58  C   UNL A   1      41.894  31.914  37.269  1.00  0.00     0.029 A 
ATOM     59  C   UNL A   1      41.053  32.103  36.186  1.00  0.00     0.049 A 
ATOM     60  H   UNL A   1      40.890  30.973  34.411  1.00  0.00     0.167 HD
ATOM     61  C   UNL A   1      39.255  33.225  34.904  1.00  0.00     0.074 A 
ATOM     62  C   UNL A   1      38.248  34.250  34.725  1.00  0.00     0.031 C 
ATOM     63  C   UNL A   1      40.057  33.125  35.992  1.00  0.00     0.037 A 
BRANCH  50  64
ATOM     64  C   UNL A   1      44.041  28.409  35.737  1.00  0.00     0.058 A 
ATOM     65  C   UNL A   1      43.779  27.340  36.609  1.00  0.00     0.135 A 
ATOM     66  C   UNL A   1      45.384  28.724  35.473  1.00  0.00     0.135 A 
ATOM     67  F   UNL A   1      42.512  27.005  36.903  1.00  0.00    -0.206 F 
ATOM     68  C   UNL A   1      44.806  26.625  37.215  1.00  0.00     0.059 A 
ATOM     69  C   UNL A   1      46.429  28.007  36.052  1.00  0.00     0.059 A 
ATOM     70  F   UNL A   1      45.693  29.734  34.645  1.00  0.00    -0.206 F 
ATOM     71  C   UNL A   1      46.128  26.968  36.933  1.00  0.00     0.060 A 
BRANCH  71  72
ATOM     72  S   UNL A   1      47.451  26.028  37.726  1.00  0.00     0.124 S 
ATOM     73  O   UNL A   1      47.271  26.400  39.127  1.00  0.00    -0.237 OA
ATOM     74  O   UNL A   1      47.103  24.651  37.388  1.00  0.00    -0.237 OA
ATOM     75  O   UNL A   1      48.660  26.540  37.091  1.00  0.00    -0.744 OA
ENDBRANCH  71  72
ENDBRANCH  50  64
BRANCH  51  76
ATOM     76  C   UNL A   1      36.688  33.164  30.969  1.00  0.00     0.058 A 
ATOM     77  C   UNL A   1      35.360  33.018  31.400  1.00  0.00     0.135 A 
ATOM     78  C   UNL A   1      36.929  33.983  29.857  1.00  0.00     0.135 A 
ATOM     79  F   UNL A   1      35.081  32.240  32.457  1.00  0.00    -0.206 F 
ATOM     80  C   UNL A   1      34.306  33.634  30.734  1.00  0.00     0.059 A 
ATOM     81  C   UNL A   1      35.894  34.629  29.189  1.00  0.00     0.059 A 
ATOM     82  F   UNL A   1      38.183  34.169  29.417  1.00  0.00    -0.206 F 
ATOM     83  C   UNL A   1      34.584  34.435  29.626  1.00  0.00     0.060 A 
BRANCH  83  84
ATOM     84  S   UNL A   1      33.215  35.252  28.777  1.00  0.00     0.124 S 
ATOM     85  O   UNL A   1      32.613  34.139  28.053  1.00  0.00    -0.237 OA
ATOM     86  O   UNL A   1      32.435  35.787  29.889  1.00  0.00    -0.237 OA
ATOM     87  O   UNL A   1      33.885  36.255  27.954  1.00  0.00    -0.744 OA
ENDBRANCH  83  84
ENDBRANCH  51  76
BRANCH  63  88
ATOM     88  C   UNL A   1      39.905  34.179  37.055  1.00  0.00     0.058 A 
ATOM     89  C   UNL A   1      39.075  33.985  38.171  1.00  0.00     0.135 A 
ATOM     90  C   UNL A   1      40.608  35.390  36.962  1.00  0.00     0.135 A 
ATOM     91  F   UNL A   1      38.375  32.848  38.303  1.00  0.00    -0.206 F 
ATOM     92  C   UNL A   1      38.923  34.970  39.142  1.00  0.00     0.059 A 
ATOM     93  C   UNL A   1      40.490  36.379  37.934  1.00  0.00     0.059 A 
ATOM     94  F   UNL A   1      41.423  35.621  35.920  1.00  0.00    -0.206 F 
ATOM     95  C   UNL A   1      39.631  36.167  39.012  1.00  0.00     0.060 A 
BRANCH  95  96
ATOM     96  S   UNL A   1      39.435  37.437  40.280  1.00  0.00     0.124 S 
ATOM     97  O   UNL A   1      40.808  37.902  40.445  1.00  0.00    -0.237 OA
ATOM     98  O   UNL A   1      38.520  38.380  39.643  1.00  0.00    -0.237 OA
ATOM     99  O   UNL A   1      38.879  36.702  41.411  1.00  0.00    -0.744 OA
ENDBRANCH  95  96
ENDBRANCH  63  88
ENDBRANCH  37  38
ENDBRANCH  29  32
ENDBRANCH  27  28
ENDBRANCH   1  27
TORSDOF 16
ENDMDL
