MODEL 1
REMARK VINA RESULT:     -10.6      0.000      0.000
REMARK SMILES C[C@H](O)C[C@@]1(C(=O)NCCCCNC(=O)c2ccc(-c3c4nc(c(-c5c(F)cc(S(=O)(=O)[O-])cc5F)c5ccc([nH]5)c(-c5c(F)cc(S(=O)(=O)[O-])cc5F)c5nc(c(-c6c(F)cc(S(=O)(=O)[O-])cc6F)c6ccc3[nH]6)C=C5)C=C4)cc2)CCN(C(=O)OC(C)(C)C)C1
REMARK SMILES IDX 10 1 9 2 8 3 6 4 7 5 5 7 82 8 92 9 83 10 84 11 4 12 2 13
REMARK SMILES IDX 1 14 3 15 85 17 86 18 87 19 88 20 89 21 90 22 91 23 11 24
REMARK SMILES IDX 12 25 13 26 14 27 15 29 16 30 17 31 81 32 18 33 80 34 19 35
REMARK SMILES IDX 20 36 21 37 74 38 22 39 79 40 73 41 75 42 23 43 78 44 72 45
REMARK SMILES IDX 71 46 24 48 58 49 37 50 57 51 38 52 41 53 56 54 76 55 39 56
REMARK SMILES IDX 40 57 55 59 77 60 42 61 25 62 26 63 35 64 27 65 28 66 34 67
REMARK SMILES IDX 36 68 29 69 30 70 31 71 32 72 33 73 59 74 60 75 69 76 61 77
REMARK SMILES IDX 62 78 68 79 70 80 63 81 64 82 65 83 66 84 67 85 43 86 44 87
REMARK SMILES IDX 53 88 45 89 46 90 52 91 54 92 47 93 48 94 49 95 50 96 51 97
REMARK H PARENT 8 6 3 16 13 28 75 47 41 58
REMARK Flexibility Score: inf
ROOT
ATOM      1  C   UNL A   1      37.008  20.182  25.104  1.00  0.00     0.023 C 
ENDROOT
BRANCH   1   2
ATOM      2  C   UNL A   1      36.525  21.610  25.303  1.00  0.00     0.116 C 
BRANCH   2   3
ATOM      3  N   UNL A   1      35.732  21.794  26.508  1.00  0.00    -0.356 N 
ATOM      4  C   UNL A   1      34.386  21.969  26.670  1.00  0.00     0.228 C 
ATOM      5  O   UNL A   1      33.972  21.984  27.830  1.00  0.00    -0.274 OA
ATOM      6  H   UNL A   1      36.250  21.791  27.345  1.00  0.00     0.163 HD
BRANCH   4   7
ATOM      7  C   UNL A   1      33.448  22.175  25.455  1.00  0.00     0.071 C 
ATOM      8  C   UNL A   1      33.974  23.405  24.657  1.00  0.00     0.040 C 
ATOM      9  C   UNL A   1      32.050  22.649  25.940  1.00  0.00     0.140 C 
ATOM     10  C   UNL A   1      33.233  24.598  25.245  1.00  0.00     0.124 C 
ATOM     11  N   UNL A   1      31.939  24.041  25.542  1.00  0.00    -0.307 N 
BRANCH   7  12
ATOM     12  C   UNL A   1      33.429  20.867  24.601  1.00  0.00     0.050 C 
BRANCH  12  13
ATOM     13  C   UNL A   1      33.381  19.491  25.268  1.00  0.00     0.112 C 
ATOM     14  C   UNL A   1      33.821  18.423  24.265  1.00  0.00     0.038 C 
BRANCH  13  15
ATOM     15  O   UNL A   1      32.050  19.179  25.659  1.00  0.00    -0.393 OA
ATOM     16  H   UNL A   1      32.066  18.480  26.332  1.00  0.00     0.210 HD
ENDBRANCH  13  15
ENDBRANCH  12  13
ENDBRANCH   7  12
BRANCH  11  17
ATOM     17  C   UNL A   1      30.732  24.688  25.495  1.00  0.00     0.410 C 
ATOM     18  O   UNL A   1      30.026  24.841  26.487  1.00  0.00    -0.224 OA
BRANCH  17  19
ATOM     19  O   UNL A   1      30.400  25.092  24.241  1.00  0.00    -0.444 OA
BRANCH  19  20
ATOM     20  C   UNL A   1      30.207  26.504  23.961  1.00  0.00     0.106 C 
ATOM     21  C   UNL A   1      28.717  26.828  23.795  1.00  0.00     0.056 C 
ATOM     22  C   UNL A   1      30.875  27.395  25.017  1.00  0.00     0.056 C 
ATOM     23  C   UNL A   1      30.907  26.755  22.616  1.00  0.00     0.056 C 
ENDBRANCH  19  20
ENDBRANCH  17  19
ENDBRANCH  11  17
ENDBRANCH   4   7
ENDBRANCH   2   3
ENDBRANCH   1   2
BRANCH   1  24
ATOM     24  C   UNL A   1      38.488  20.035  24.768  1.00  0.00     0.023 C 
BRANCH  24  25
ATOM     25  C   UNL A   1      39.442  20.246  25.936  1.00  0.00     0.116 C 
BRANCH  25  26
ATOM     26  N   UNL A   1      40.437  19.191  26.058  1.00  0.00    -0.352 N 
ATOM     27  C   UNL A   1      41.799  19.292  26.223  1.00  0.00     0.251 C 
ATOM     28  H   UNL A   1      40.085  18.272  26.017  1.00  0.00     0.163 HD
ATOM     29  O   UNL A   1      42.498  18.286  26.153  1.00  0.00    -0.269 OA
BRANCH  27  30
ATOM     30  C   UNL A   1      42.418  20.616  26.455  1.00  0.00     0.039 A 
ATOM     31  C   UNL A   1      42.935  21.326  25.369  1.00  0.00     0.014 A 
ATOM     32  C   UNL A   1      42.476  21.162  27.739  1.00  0.00     0.014 A 
ATOM     33  C   UNL A   1      43.457  22.607  25.567  1.00  0.00     0.010 A 
ATOM     34  C   UNL A   1      42.901  22.474  27.916  1.00  0.00     0.010 A 
ATOM     35  C   UNL A   1      43.418  23.205  26.836  1.00  0.00    -0.014 A 
BRANCH  35  36
ATOM     36  C   UNL A   1      43.951  24.574  27.064  1.00  0.00     0.031 A 
ATOM     37  C   UNL A   1      43.020  25.678  27.496  1.00  0.00     0.074 A 
ATOM     38  C   UNL A   1      45.254  24.838  26.838  1.00  0.00     0.049 A 
ATOM     39  N   UNL A   1      43.278  26.945  27.701  1.00  0.00    -0.248 NA
ATOM     40  C   UNL A   1      41.606  25.319  27.691  1.00  0.00     0.031 C 
ATOM     41  C   UNL A   1      46.245  23.869  26.368  1.00  0.00     0.029 A 
ATOM     42  N   UNL A   1      45.968  26.002  26.970  1.00  0.00    -0.354 N 
ATOM     43  C   UNL A   1      42.061  27.530  28.035  1.00  0.00     0.074 A 
ATOM     44  C   UNL A   1      41.054  26.498  27.935  1.00  0.00     0.031 C 
ATOM     45  C   UNL A   1      47.443  24.470  26.280  1.00  0.00     0.029 A 
ATOM     46  C   UNL A   1      47.299  25.875  26.650  1.00  0.00     0.049 A 
ATOM     47  H   UNL A   1      45.565  26.850  27.268  1.00  0.00     0.167 HD
ATOM     48  C   UNL A   1      41.808  28.804  28.420  1.00  0.00     0.037 A 
ATOM     49  C   UNL A   1      48.291  26.787  26.652  1.00  0.00     0.037 A 
ATOM     50  C   UNL A   1      42.820  29.821  28.541  1.00  0.00     0.049 A 
ATOM     51  C   UNL A   1      47.988  28.196  27.090  1.00  0.00     0.074 A 
ATOM     52  C   UNL A   1      42.678  31.130  28.969  1.00  0.00     0.029 A 
ATOM     53  N   UNL A   1      44.161  29.645  28.233  1.00  0.00    -0.354 N 
ATOM     54  N   UNL A   1      46.842  28.717  27.459  1.00  0.00    -0.248 NA
ATOM     55  C   UNL A   1      49.116  29.136  27.128  1.00  0.00     0.031 C 
ATOM     56  C   UNL A   1      43.923  31.758  28.871  1.00  0.00     0.029 A 
ATOM     57  C   UNL A   1      44.855  30.825  28.448  1.00  0.00     0.049 A 
ATOM     58  H   UNL A   1      44.561  28.806  27.911  1.00  0.00     0.167 HD
ATOM     59  C   UNL A   1      47.120  30.034  27.815  1.00  0.00     0.074 A 
ATOM     60  C   UNL A   1      48.543  30.223  27.622  1.00  0.00     0.031 C 
ATOM     61  C   UNL A   1      46.276  30.996  28.265  1.00  0.00     0.037 A 
BRANCH  48  62
ATOM     62  C   UNL A   1      40.382  29.166  28.740  1.00  0.00     0.058 A 
ATOM     63  C   UNL A   1      39.924  29.273  30.064  1.00  0.00     0.135 A 
ATOM     64  C   UNL A   1      39.466  29.440  27.711  1.00  0.00     0.135 A 
ATOM     65  F   UNL A   1      40.748  29.007  31.090  1.00  0.00    -0.206 F 
ATOM     66  C   UNL A   1      38.605  29.605  30.355  1.00  0.00     0.059 A 
ATOM     67  C   UNL A   1      38.150  29.807  27.979  1.00  0.00     0.059 A 
ATOM     68  F   UNL A   1      39.846  29.352  26.426  1.00  0.00    -0.206 F 
ATOM     69  C   UNL A   1      37.725  29.871  29.305  1.00  0.00     0.060 A 
BRANCH  69  70
ATOM     70  S   UNL A   1      36.019  30.308  29.702  1.00  0.00     0.124 S 
ATOM     71  O   UNL A   1      35.289  29.617  28.643  1.00  0.00    -0.237 OA
ATOM     72  O   UNL A   1      35.861  29.758  31.044  1.00  0.00    -0.237 OA
ATOM     73  O   UNL A   1      36.013  31.765  29.619  1.00  0.00    -0.744 OA
ENDBRANCH  69  70
ENDBRANCH  48  62
BRANCH  49  74
ATOM     74  C   UNL A   1      49.672  26.391  26.260  1.00  0.00     0.058 A 
ATOM     75  C   UNL A   1      50.164  26.654  24.973  1.00  0.00     0.135 A 
ATOM     76  C   UNL A   1      50.529  25.744  27.165  1.00  0.00     0.135 A 
ATOM     77  F   UNL A   1      49.383  27.265  24.068  1.00  0.00    -0.206 F 
ATOM     78  C   UNL A   1      51.445  26.270  24.586  1.00  0.00     0.059 A 
ATOM     79  C   UNL A   1      51.824  25.377  26.812  1.00  0.00     0.059 A 
ATOM     80  F   UNL A   1      50.116  25.486  28.415  1.00  0.00    -0.206 F 
ATOM     81  C   UNL A   1      52.270  25.634  25.516  1.00  0.00     0.060 A 
BRANCH  81  82
ATOM     82  S   UNL A   1      53.944  25.179  25.019  1.00  0.00     0.124 S 
ATOM     83  O   UNL A   1      54.734  25.694  26.131  1.00  0.00    -0.237 OA
ATOM     84  O   UNL A   1      53.848  23.725  24.921  1.00  0.00    -0.237 OA
ATOM     85  O   UNL A   1      54.116  25.873  23.747  1.00  0.00    -0.744 OA
ENDBRANCH  81  82
ENDBRANCH  49  74
BRANCH  61  86
ATOM     86  C   UNL A   1      46.877  32.322  28.648  1.00  0.00     0.058 A 
ATOM     87  C   UNL A   1      47.005  33.379  27.734  1.00  0.00     0.135 A 
ATOM     88  C   UNL A   1      47.307  32.543  29.968  1.00  0.00     0.135 A 
ATOM     89  F   UNL A   1      46.611  33.224  26.460  1.00  0.00    -0.206 F 
ATOM     90  C   UNL A   1      47.581  34.592  28.102  1.00  0.00     0.059 A 
ATOM     91  C   UNL A   1      47.851  33.759  30.367  1.00  0.00     0.059 A 
ATOM     92  F   UNL A   1      47.192  31.573  30.889  1.00  0.00    -0.206 F 
ATOM     93  C   UNL A   1      48.003  34.771  29.420  1.00  0.00     0.060 A 
BRANCH  93  94
ATOM     94  S   UNL A   1      48.748  36.348  29.885  1.00  0.00     0.124 S 
ATOM     95  O   UNL A   1      47.672  36.967  30.650  1.00  0.00    -0.237 OA
ATOM     96  O   UNL A   1      49.914  35.927  30.657  1.00  0.00    -0.237 OA
ATOM     97  O   UNL A   1      49.048  36.975  28.601  1.00  0.00    -0.744 OA
ENDBRANCH  93  94
ENDBRANCH  61  86
ENDBRANCH  35  36
ENDBRANCH  27  30
ENDBRANCH  25  26
ENDBRANCH  24  25
ENDBRANCH   1  24
TORSDOF 20
ENDMDL
MODEL 2
REMARK VINA RESULT:     -10.6      2.546      8.744
REMARK SMILES C[C@H](O)C[C@@]1(C(=O)NCCCCNC(=O)c2ccc(-c3c4nc(c(-c5c(F)cc(S(=O)(=O)[O-])cc5F)c5ccc([nH]5)c(-c5c(F)cc(S(=O)(=O)[O-])cc5F)c5nc(c(-c6c(F)cc(S(=O)(=O)[O-])cc6F)c6ccc3[nH]6)C=C5)C=C4)cc2)CCN(C(=O)OC(C)(C)C)C1
REMARK SMILES IDX 10 1 9 2 8 3 6 4 7 5 5 7 82 8 92 9 83 10 84 11 4 12 2 13
REMARK SMILES IDX 1 14 3 15 85 17 86 18 87 19 88 20 89 21 90 22 91 23 11 24
REMARK SMILES IDX 12 25 13 26 14 27 15 29 16 30 17 31 81 32 18 33 80 34 19 35
REMARK SMILES IDX 20 36 21 37 74 38 22 39 79 40 73 41 75 42 23 43 78 44 72 45
REMARK SMILES IDX 71 46 24 48 58 49 37 50 57 51 38 52 41 53 56 54 76 55 39 56
REMARK SMILES IDX 40 57 55 59 77 60 42 61 25 62 26 63 35 64 27 65 28 66 34 67
REMARK SMILES IDX 36 68 29 69 30 70 31 71 32 72 33 73 59 74 60 75 69 76 61 77
REMARK SMILES IDX 62 78 68 79 70 80 63 81 64 82 65 83 66 84 67 85 43 86 44 87
REMARK SMILES IDX 53 88 45 89 46 90 52 91 54 92 47 93 48 94 49 95 50 96 51 97
REMARK H PARENT 8 6 3 16 13 28 75 47 41 58
REMARK Flexibility Score: inf
ROOT
ATOM      1  C   UNL A   1      32.765  30.152  27.099  1.00  0.00     0.023 C 
ENDROOT
BRANCH   1   2
ATOM      2  C   UNL A   1      31.941  30.047  25.825  1.00  0.00     0.116 C 
BRANCH   2   3
ATOM      3  N   UNL A   1      32.718  29.657  24.660  1.00  0.00    -0.356 N 
ATOM      4  C   UNL A   1      32.458  28.739  23.683  1.00  0.00     0.228 C 
ATOM      5  O   UNL A   1      33.251  28.701  22.741  1.00  0.00    -0.274 OA
ATOM      6  H   UNL A   1      33.572  30.135  24.558  1.00  0.00     0.163 HD
BRANCH   4   7
ATOM      7  C   UNL A   1      31.248  27.776  23.782  1.00  0.00     0.071 C 
ATOM      8  C   UNL A   1      31.016  27.466  25.292  1.00  0.00     0.040 C 
ATOM      9  C   UNL A   1      31.626  26.388  23.198  1.00  0.00     0.140 C 
ATOM     10  C   UNL A   1      31.844  26.218  25.566  1.00  0.00     0.124 C 
ATOM     11  N   UNL A   1      31.714  25.486  24.333  1.00  0.00    -0.307 N 
BRANCH   7  12
ATOM     12  C   UNL A   1      30.009  28.448  23.109  1.00  0.00     0.050 C 
BRANCH  12  13
ATOM     13  C   UNL A   1      30.058  29.904  22.644  1.00  0.00     0.112 C 
ATOM     14  C   UNL A   1      28.639  30.475  22.606  1.00  0.00     0.038 C 
BRANCH  13  15
ATOM     15  O   UNL A   1      30.578  29.983  21.322  1.00  0.00    -0.393 OA
ATOM     16  H   UNL A   1      29.960  30.479  20.761  1.00  0.00     0.210 HD
ENDBRANCH  13  15
ENDBRANCH  12  13
ENDBRANCH   7  12
BRANCH  11  17
ATOM     17  C   UNL A   1      31.691  24.124  24.181  1.00  0.00     0.410 C 
ATOM     18  O   UNL A   1      30.696  23.520  23.792  1.00  0.00    -0.224 OA
BRANCH  17  19
ATOM     19  O   UNL A   1      32.860  23.535  24.542  1.00  0.00    -0.444 OA
BRANCH  19  20
ATOM     20  C   UNL A   1      33.612  22.757  23.572  1.00  0.00     0.106 C 
ATOM     21  C   UNL A   1      33.293  23.213  22.143  1.00  0.00     0.056 C 
ATOM     22  C   UNL A   1      35.118  22.783  23.862  1.00  0.00     0.056 C 
ATOM     23  C   UNL A   1      33.121  21.310  23.737  1.00  0.00     0.056 C 
ENDBRANCH  19  20
ENDBRANCH  17  19
ENDBRANCH  11  17
ENDBRANCH   4   7
ENDBRANCH   2   3
ENDBRANCH   1   2
BRANCH   1  24
ATOM     24  C   UNL A   1      33.865  29.110  27.253  1.00  0.00     0.023 C 
BRANCH  24  25
ATOM     25  C   UNL A   1      35.237  29.663  27.619  1.00  0.00     0.116 C 
BRANCH  25  26
ATOM     26  N   UNL A   1      35.277  30.255  28.948  1.00  0.00    -0.352 N 
ATOM     27  C   UNL A   1      36.312  30.295  29.852  1.00  0.00     0.251 C 
ATOM     28  H   UNL A   1      34.444  30.690  29.241  1.00  0.00     0.163 HD
ATOM     29  O   UNL A   1      36.112  30.709  30.991  1.00  0.00    -0.269 OA
BRANCH  27  30
ATOM     30  C   UNL A   1      37.656  29.815  29.458  1.00  0.00     0.039 A 
ATOM     31  C   UNL A   1      38.020  29.843  28.110  1.00  0.00     0.014 A 
ATOM     32  C   UNL A   1      38.559  29.351  30.418  1.00  0.00     0.014 A 
ATOM     33  C   UNL A   1      39.310  29.459  27.735  1.00  0.00     0.010 A 
ATOM     34  C   UNL A   1      39.871  29.068  30.055  1.00  0.00     0.010 A 
ATOM     35  C   UNL A   1      40.257  29.097  28.707  1.00  0.00    -0.014 A 
BRANCH  35  36
ATOM     36  C   UNL A   1      41.641  28.703  28.331  1.00  0.00     0.031 A 
ATOM     37  C   UNL A   1      42.727  29.747  28.274  1.00  0.00     0.074 A 
ATOM     38  C   UNL A   1      41.912  27.427  27.994  1.00  0.00     0.049 A 
ATOM     39  N   UNL A   1      43.981  29.617  27.926  1.00  0.00    -0.248 NA
ATOM     40  C   UNL A   1      42.346  31.125  28.626  1.00  0.00     0.031 C 
ATOM     41  C   UNL A   1      40.937  26.335  27.957  1.00  0.00     0.029 A 
ATOM     42  N   UNL A   1      43.088  26.831  27.614  1.00  0.00    -0.354 N 
ATOM     43  C   UNL A   1      44.530  30.893  28.003  1.00  0.00     0.074 A 
ATOM     44  C   UNL A   1      43.458  31.793  28.362  1.00  0.00     0.031 C 
ATOM     45  C   UNL A   1      41.560  25.198  27.606  1.00  0.00     0.029 A 
ATOM     46  C   UNL A   1      42.970  25.485  27.355  1.00  0.00     0.049 A 
ATOM     47  H   UNL A   1      43.938  27.321  27.535  1.00  0.00     0.167 HD
ATOM     48  C   UNL A   1      45.817  31.276  27.822  1.00  0.00     0.037 A 
ATOM     49  C   UNL A   1      43.891  24.585  26.958  1.00  0.00     0.037 A 
ATOM     50  C   UNL A   1      46.885  30.370  27.489  1.00  0.00     0.049 A 
ATOM     51  C   UNL A   1      45.316  25.034  26.770  1.00  0.00     0.074 A 
ATOM     52  C   UNL A   1      48.232  30.648  27.331  1.00  0.00     0.029 A 
ATOM     53  N   UNL A   1      46.728  29.011  27.262  1.00  0.00    -0.354 N 
ATOM     54  N   UNL A   1      45.829  26.234  26.904  1.00  0.00    -0.248 NA
ATOM     55  C   UNL A   1      46.291  24.002  26.392  1.00  0.00     0.031 C 
ATOM     56  C   UNL A   1      48.880  29.466  26.958  1.00  0.00     0.029 A 
ATOM     57  C   UNL A   1      47.952  28.439  26.950  1.00  0.00     0.049 A 
ATOM     58  H   UNL A   1      45.875  28.524  27.315  1.00  0.00     0.167 HD
ATOM     59  C   UNL A   1      47.195  26.093  26.670  1.00  0.00     0.074 A 
ATOM     60  C   UNL A   1      47.424  24.690  26.393  1.00  0.00     0.031 C 
ATOM     61  C   UNL A   1      48.168  27.037  26.690  1.00  0.00     0.037 A 
BRANCH  48  62
ATOM     62  C   UNL A   1      46.138  32.739  27.984  1.00  0.00     0.058 A 
ATOM     63  C   UNL A   1      46.647  33.257  29.187  1.00  0.00     0.135 A 
ATOM     64  C   UNL A   1      45.964  33.631  26.914  1.00  0.00     0.135 A 
ATOM     65  F   UNL A   1      46.819  32.456  30.251  1.00  0.00    -0.206 F 
ATOM     66  C   UNL A   1      46.939  34.609  29.333  1.00  0.00     0.059 A 
ATOM     67  C   UNL A   1      46.282  34.982  27.026  1.00  0.00     0.059 A 
ATOM     68  F   UNL A   1      45.480  33.194  25.740  1.00  0.00    -0.206 F 
ATOM     69  C   UNL A   1      46.754  35.464  28.246  1.00  0.00     0.060 A 
BRANCH  69  70
ATOM     70  S   UNL A   1      47.147  37.214  28.451  1.00  0.00     0.124 S 
ATOM     71  O   UNL A   1      45.847  37.760  28.830  1.00  0.00    -0.237 OA
ATOM     72  O   UNL A   1      48.154  37.185  29.506  1.00  0.00    -0.237 OA
ATOM     73  O   UNL A   1      47.633  37.611  27.133  1.00  0.00    -0.744 OA
ENDBRANCH  69  70
ENDBRANCH  48  62
BRANCH  49  74
ATOM     74  C   UNL A   1      43.504  23.163  26.746  1.00  0.00     0.058 A 
ATOM     75  C   UNL A   1      43.237  22.314  27.830  1.00  0.00     0.135 A 
ATOM     76  C   UNL A   1      43.388  22.625  25.454  1.00  0.00     0.135 A 
ATOM     77  F   UNL A   1      43.339  22.778  29.085  1.00  0.00    -0.206 F 
ATOM     78  C   UNL A   1      42.895  20.978  27.647  1.00  0.00     0.059 A 
ATOM     79  C   UNL A   1      43.017  21.300  25.244  1.00  0.00     0.059 A 
ATOM     80  F   UNL A   1      43.612  23.399  24.381  1.00  0.00    -0.206 F 
ATOM     81  C   UNL A   1      42.784  20.481  26.347  1.00  0.00     0.060 A 
BRANCH  81  82
ATOM     82  S   UNL A   1      42.297  18.758  26.118  1.00  0.00     0.124 S 
ATOM     83  O   UNL A   1      42.506  18.212  27.454  1.00  0.00    -0.237 OA
ATOM     84  O   UNL A   1      40.906  18.888  25.691  1.00  0.00    -0.237 OA
ATOM     85  O   UNL A   1      43.217  18.283  25.090  1.00  0.00    -0.744 OA
ENDBRANCH  81  82
ENDBRANCH  49  74
BRANCH  61  86
ATOM     86  C   UNL A   1      49.585  26.576  26.472  1.00  0.00     0.058 A 
ATOM     87  C   UNL A   1      50.373  26.058  27.511  1.00  0.00     0.135 A 
ATOM     88  C   UNL A   1      50.151  26.629  25.187  1.00  0.00     0.135 A 
ATOM     89  F   UNL A   1      49.884  25.984  28.759  1.00  0.00    -0.206 F 
ATOM     90  C   UNL A   1      51.688  25.655  27.295  1.00  0.00     0.059 A 
ATOM     91  C   UNL A   1      51.450  26.197  24.939  1.00  0.00     0.059 A 
ATOM     92  F   UNL A   1      49.437  27.098  24.151  1.00  0.00    -0.206 F 
ATOM     93  C   UNL A   1      52.217  25.730  26.005  1.00  0.00     0.060 A 
BRANCH  93  94
ATOM     94  S   UNL A   1      53.923  25.204  25.736  1.00  0.00     0.124 S 
ATOM     95  O   UNL A   1      53.781  23.752  25.709  1.00  0.00    -0.237 OA
ATOM     96  O   UNL A   1      54.247  25.834  24.460  1.00  0.00    -0.237 OA
ATOM     97  O   UNL A   1      54.632  25.744  26.893  1.00  0.00    -0.744 OA
ENDBRANCH  93  94
ENDBRANCH  61  86
ENDBRANCH  35  36
ENDBRANCH  27  30
ENDBRANCH  25  26
ENDBRANCH  24  25
ENDBRANCH   1  24
TORSDOF 20
ENDMDL
MODEL 3
REMARK VINA RESULT:     -10.5      5.259      8.547
REMARK SMILES C[C@H](O)C[C@@]1(C(=O)NCCCCNC(=O)c2ccc(-c3c4nc(c(-c5c(F)cc(S(=O)(=O)[O-])cc5F)c5ccc([nH]5)c(-c5c(F)cc(S(=O)(=O)[O-])cc5F)c5nc(c(-c6c(F)cc(S(=O)(=O)[O-])cc6F)c6ccc3[nH]6)C=C5)C=C4)cc2)CCN(C(=O)OC(C)(C)C)C1
REMARK SMILES IDX 10 1 9 2 8 3 6 4 7 5 5 7 82 8 92 9 83 10 84 11 4 12 2 13
REMARK SMILES IDX 1 14 3 15 85 17 86 18 87 19 88 20 89 21 90 22 91 23 11 24
REMARK SMILES IDX 12 25 13 26 14 27 15 29 16 30 17 31 81 32 18 33 80 34 19 35
REMARK SMILES IDX 20 36 21 37 74 38 22 39 79 40 73 41 75 42 23 43 78 44 72 45
REMARK SMILES IDX 71 46 24 48 58 49 37 50 57 51 38 52 41 53 56 54 76 55 39 56
REMARK SMILES IDX 40 57 55 59 77 60 42 61 25 62 26 63 35 64 27 65 28 66 34 67
REMARK SMILES IDX 36 68 29 69 30 70 31 71 32 72 33 73 59 74 60 75 69 76 61 77
REMARK SMILES IDX 62 78 68 79 70 80 63 81 64 82 65 83 66 84 67 85 43 86 44 87
REMARK SMILES IDX 53 88 45 89 46 90 52 91 54 92 47 93 48 94 49 95 50 96 51 97
REMARK H PARENT 8 6 3 16 13 28 75 47 41 58
REMARK Flexibility Score: inf
ROOT
ATOM      1  C   UNL A   1      33.273  26.572  25.331  1.00  0.00     0.023 C 
ENDROOT
BRANCH   1   2
ATOM      2  C   UNL A   1      34.239  25.399  25.404  1.00  0.00     0.116 C 
BRANCH   2   3
ATOM      3  N   UNL A   1      34.420  24.714  24.135  1.00  0.00    -0.356 N 
ATOM      4  C   UNL A   1      33.891  23.542  23.673  1.00  0.00     0.228 C 
ATOM      5  O   UNL A   1      34.133  23.258  22.498  1.00  0.00    -0.274 OA
ATOM      6  H   UNL A   1      35.024  25.169  23.505  1.00  0.00     0.163 HD
BRANCH   4   7
ATOM      7  C   UNL A   1      33.066  22.610  24.595  1.00  0.00     0.071 C 
ATOM      8  C   UNL A   1      34.018  22.090  25.712  1.00  0.00     0.040 C 
ATOM      9  C   UNL A   1      32.685  21.312  23.832  1.00  0.00     0.140 C 
ATOM     10  C   UNL A   1      34.593  20.792  25.163  1.00  0.00     0.124 C 
ATOM     11  N   UNL A   1      33.481  20.252  24.423  1.00  0.00    -0.307 N 
BRANCH   7  12
ATOM     12  C   UNL A   1      31.850  23.409  25.164  1.00  0.00     0.050 C 
BRANCH  12  13
ATOM     13  C   UNL A   1      31.402  23.232  26.617  1.00  0.00     0.112 C 
ATOM     14  C   UNL A   1      29.980  22.671  26.646  1.00  0.00     0.038 C 
BRANCH  13  15
ATOM     15  O   UNL A   1      31.371  24.490  27.280  1.00  0.00    -0.393 OA
ATOM     16  H   UNL A   1      30.492  24.888  27.176  1.00  0.00     0.210 HD
ENDBRANCH  13  15
ENDBRANCH  12  13
ENDBRANCH   7  12
BRANCH  11  17
ATOM     17  C   UNL A   1      33.173  18.928  24.246  1.00  0.00     0.410 C 
ATOM     18  O   UNL A   1      32.201  18.559  23.595  1.00  0.00    -0.224 OA
BRANCH  17  19
ATOM     19  O   UNL A   1      34.029  18.097  24.896  1.00  0.00    -0.444 OA
BRANCH  19  20
ATOM     20  C   UNL A   1      34.070  16.686  24.556  1.00  0.00     0.106 C 
ATOM     21  C   UNL A   1      32.836  15.958  25.106  1.00  0.00     0.056 C 
ATOM     22  C   UNL A   1      34.243  16.464  23.048  1.00  0.00     0.056 C 
ATOM     23  C   UNL A   1      35.314  16.128  25.265  1.00  0.00     0.056 C 
ENDBRANCH  19  20
ENDBRANCH  17  19
ENDBRANCH  11  17
ENDBRANCH   4   7
ENDBRANCH   2   3
ENDBRANCH   1   2
BRANCH   1  24
ATOM     24  C   UNL A   1      33.500  27.670  26.363  1.00  0.00     0.023 C 
BRANCH  24  25
ATOM     25  C   UNL A   1      34.316  28.860  25.875  1.00  0.00     0.116 C 
BRANCH  25  26
ATOM     26  N   UNL A   1      33.895  30.122  26.466  1.00  0.00    -0.352 N 
ATOM     27  C   UNL A   1      34.436  30.810  27.526  1.00  0.00     0.251 C 
ATOM     28  H   UNL A   1      33.111  30.543  26.045  1.00  0.00     0.163 HD
ATOM     29  O   UNL A   1      33.849  31.788  27.981  1.00  0.00    -0.269 OA
BRANCH  27  30
ATOM     30  C   UNL A   1      35.707  30.354  28.132  1.00  0.00     0.039 A 
ATOM     31  C   UNL A   1      36.916  30.799  27.592  1.00  0.00     0.014 A 
ATOM     32  C   UNL A   1      35.706  29.501  29.237  1.00  0.00     0.014 A 
ATOM     33  C   UNL A   1      38.120  30.432  28.199  1.00  0.00     0.010 A 
ATOM     34  C   UNL A   1      36.897  29.221  29.898  1.00  0.00     0.010 A 
ATOM     35  C   UNL A   1      38.121  29.665  29.375  1.00  0.00    -0.014 A 
BRANCH  35  36
ATOM     36  C   UNL A   1      39.390  29.280  30.047  1.00  0.00     0.031 A 
ATOM     37  C   UNL A   1      39.837  30.018  31.283  1.00  0.00     0.074 A 
ATOM     38  C   UNL A   1      40.162  28.307  29.524  1.00  0.00     0.049 A 
ATOM     39  N   UNL A   1      40.930  29.867  31.987  1.00  0.00    -0.248 NA
ATOM     40  C   UNL A   1      38.955  31.090  31.775  1.00  0.00     0.031 C 
ATOM     41  C   UNL A   1      39.867  27.554  28.303  1.00  0.00     0.029 A 
ATOM     42  N   UNL A   1      41.357  27.785  29.952  1.00  0.00    -0.354 N 
ATOM     43  C   UNL A   1      40.870  30.828  32.990  1.00  0.00     0.074 A 
ATOM     44  C   UNL A   1      39.672  31.603  32.762  1.00  0.00     0.031 C 
ATOM     45  C   UNL A   1      40.837  26.649  28.098  1.00  0.00     0.029 A 
ATOM     46  C   UNL A   1      41.843  26.780  29.148  1.00  0.00     0.049 A 
ATOM     47  H   UNL A   1      41.824  28.100  30.759  1.00  0.00     0.167 HD
ATOM     48  C   UNL A   1      41.720  31.029  34.026  1.00  0.00     0.037 A 
ATOM     49  C   UNL A   1      42.971  26.049  29.245  1.00  0.00     0.037 A 
ATOM     50  C   UNL A   1      42.899  30.237  34.261  1.00  0.00     0.049 A 
ATOM     51  C   UNL A   1      43.897  26.285  30.408  1.00  0.00     0.074 A 
ATOM     52  C   UNL A   1      43.801  30.325  35.307  1.00  0.00     0.029 A 
ATOM     53  N   UNL A   1      43.341  29.211  33.439  1.00  0.00    -0.354 N 
ATOM     54  N   UNL A   1      43.795  27.161  31.381  1.00  0.00    -0.248 NA
ATOM     55  C   UNL A   1      45.083  25.424  30.497  1.00  0.00     0.031 C 
ATOM     56  C   UNL A   1      44.815  29.388  35.090  1.00  0.00     0.029 A 
ATOM     57  C   UNL A   1      44.511  28.669  33.946  1.00  0.00     0.049 A 
ATOM     58  H   UNL A   1      42.891  28.912  32.616  1.00  0.00     0.167 HD
ATOM     59  C   UNL A   1      44.881  26.925  32.220  1.00  0.00     0.074 A 
ATOM     60  C   UNL A   1      45.619  25.821  31.641  1.00  0.00     0.031 C 
ATOM     61  C   UNL A   1      45.229  27.560  33.367  1.00  0.00     0.037 A 
BRANCH  48  62
ATOM     62  C   UNL A   1      41.402  32.147  34.983  1.00  0.00     0.058 A 
ATOM     63  C   UNL A   1      41.940  33.435  34.823  1.00  0.00     0.135 A 
ATOM     64  C   UNL A   1      40.523  31.938  36.059  1.00  0.00     0.135 A 
ATOM     65  F   UNL A   1      42.798  33.691  33.823  1.00  0.00    -0.206 F 
ATOM     66  C   UNL A   1      41.646  34.464  35.712  1.00  0.00     0.059 A 
ATOM     67  C   UNL A   1      40.188  32.961  36.941  1.00  0.00     0.059 A 
ATOM     68  F   UNL A   1      39.980  30.727  36.264  1.00  0.00    -0.206 F 
ATOM     69  C   UNL A   1      40.768  34.217  36.768  1.00  0.00     0.060 A 
BRANCH  69  70
ATOM     70  S   UNL A   1      40.391  35.566  37.907  1.00  0.00     0.124 S 
ATOM     71  O   UNL A   1      39.975  36.618  36.984  1.00  0.00    -0.237 OA
ATOM     72  O   UNL A   1      39.333  34.992  38.731  1.00  0.00    -0.237 OA
ATOM     73  O   UNL A   1      41.659  35.799  38.591  1.00  0.00    -0.744 OA
ENDBRANCH  69  70
ENDBRANCH  48  62
BRANCH  49  74
ATOM     74  C   UNL A   1      43.271  25.001  28.230  1.00  0.00     0.058 A 
ATOM     75  C   UNL A   1      42.907  23.663  28.440  1.00  0.00     0.135 A 
ATOM     76  C   UNL A   1      43.925  25.317  27.028  1.00  0.00     0.135 A 
ATOM     77  F   UNL A   1      42.285  23.308  29.575  1.00  0.00    -0.206 F 
ATOM     78  C   UNL A   1      43.201  22.670  27.510  1.00  0.00     0.059 A 
ATOM     79  C   UNL A   1      44.202  24.348  26.069  1.00  0.00     0.059 A 
ATOM     80  F   UNL A   1      44.278  26.585  26.768  1.00  0.00    -0.206 F 
ATOM     81  C   UNL A   1      43.846  23.024  26.324  1.00  0.00     0.060 A 
BRANCH  81  82
ATOM     82  S   UNL A   1      44.184  21.736  25.105  1.00  0.00     0.124 S 
ATOM     83  O   UNL A   1      44.087  22.480  23.854  1.00  0.00    -0.237 OA
ATOM     84  O   UNL A   1      45.523  21.298  25.487  1.00  0.00    -0.237 OA
ATOM     85  O   UNL A   1      43.123  20.763  25.344  1.00  0.00    -0.744 OA
ENDBRANCH  81  82
ENDBRANCH  49  74
BRANCH  61  86
ATOM     86  C   UNL A   1      46.426  27.033  34.114  1.00  0.00     0.058 A 
ATOM     87  C   UNL A   1      47.723  27.525  33.894  1.00  0.00     0.135 A 
ATOM     88  C   UNL A   1      46.262  26.036  35.090  1.00  0.00     0.135 A 
ATOM     89  F   UNL A   1      47.938  28.478  32.973  1.00  0.00    -0.206 F 
ATOM     90  C   UNL A   1      48.820  27.013  34.580  1.00  0.00     0.059 A 
ATOM     91  C   UNL A   1      47.339  25.536  35.814  1.00  0.00     0.059 A 
ATOM     92  F   UNL A   1      45.042  25.541  35.354  1.00  0.00    -0.206 F 
ATOM     93  C   UNL A   1      48.617  26.016  35.537  1.00  0.00     0.060 A 
BRANCH  93  94
ATOM     94  S   UNL A   1      50.048  25.360  36.421  1.00  0.00     0.124 S 
ATOM     95  O   UNL A   1      50.450  26.510  37.223  1.00  0.00    -0.237 OA
ATOM     96  O   UNL A   1      49.472  24.240  37.160  1.00  0.00    -0.237 OA
ATOM     97  O   UNL A   1      50.969  24.988  35.350  1.00  0.00    -0.744 OA
ENDBRANCH  93  94
ENDBRANCH  61  86
ENDBRANCH  35  36
ENDBRANCH  27  30
ENDBRANCH  25  26
ENDBRANCH  24  25
ENDBRANCH   1  24
TORSDOF 20
ENDMDL
