MODEL 1
REMARK VINA RESULT:     -11.6      0.000      0.000
REMARK SMILES CC(C)N(CCCC(=O)NCCCCNC(=O)c1ccc(-c2c3nc(c(-c4c(F)cc(S(=O)(=O)[O-])cc4F)c4ccc([nH]4)c(-c4c(F)cc(S(=O)(=O)[O-])cc4F)c4nc(c(-c5c(F)cc(S(=O)(=O)[O-])cc5F)c5ccc2[nH]5)C=C4)C=C3)cc1)C(=O)Cc1c(F)cccc1F
REMARK SMILES IDX 11 1 10 2 8 3 9 4 7 6 6 7 5 8 4 9 2 10 1 11 3 12 84 13 85 14
REMARK SMILES IDX 86 15 87 16 88 17 93 18 89 19 90 20 92 21 94 22 91 23 12 24
REMARK SMILES IDX 13 25 14 26 15 27 16 28 17 30 18 31 19 32 83 33 20 34 82 35
REMARK SMILES IDX 21 36 22 37 23 38 76 39 24 40 81 41 75 42 77 43 25 44 80 45
REMARK SMILES IDX 74 46 73 47 26 49 60 50 39 51 59 52 40 53 43 54 58 55 78 56
REMARK SMILES IDX 41 57 42 58 57 60 79 61 44 62 27 63 28 64 37 65 29 66 30 67
REMARK SMILES IDX 36 68 38 69 31 70 32 71 33 72 34 73 35 74 61 75 62 76 71 77
REMARK SMILES IDX 63 78 64 79 70 80 72 81 65 82 66 83 67 84 68 85 69 86 45 87
REMARK SMILES IDX 46 88 55 89 47 90 48 91 54 92 56 93 49 94 50 95 51 96 52 97
REMARK SMILES IDX 53 98
REMARK H PARENT 10 5 15 29 77 48 43 59
REMARK Flexibility Score: inf
ROOT
ATOM      1  C   UNL A   1      33.344  21.132  26.064  1.00  0.00     0.116 C 
ENDROOT
BRANCH   1   2
ATOM      2  N   UNL A   1      31.658  22.138  26.776  1.00  0.00    -0.356 N 
ATOM      3  C   UNL A   1      30.789  23.264  26.716  1.00  0.00     0.220 C 
ATOM      4  O   UNL A   1      29.868  23.182  27.555  1.00  0.00    -0.275 OA
ATOM      5  H   UNL A   1      31.293  21.564  27.488  1.00  0.00     0.163 HD
BRANCH   3   6
ATOM      6  C   UNL A   1      30.771  24.591  25.806  1.00  0.00     0.102 C 
BRANCH   6   7
ATOM      7  C   UNL A   1      29.907  25.836  25.303  1.00  0.00     0.031 C 
BRANCH   7   8
ATOM      8  C   UNL A   1      29.770  26.749  24.021  1.00  0.00     0.120 C 
BRANCH   8   9
ATOM      9  N   UNL A   1      30.169  28.161  23.889  1.00  0.00    -0.340 N 
BRANCH   9  10
ATOM     10  C   UNL A   1      29.311  29.031  23.044  1.00  0.00     0.078 C 
ATOM     11  C   UNL A   1      27.882  28.482  22.876  1.00  0.00     0.031 C 
ATOM     12  C   UNL A   1      29.275  30.479  23.533  1.00  0.00     0.031 C 
ENDBRANCH   9  10
BRANCH   9  13
ATOM     13  C   UNL A   1      31.348  28.704  24.337  1.00  0.00     0.227 C 
ATOM     14  O   UNL A   1      32.241  29.110  23.593  1.00  0.00    -0.275 OA
BRANCH  13  15
ATOM     15  C   UNL A   1      31.506  28.832  25.798  1.00  0.00     0.142 C 
BRANCH  15  16
ATOM     16  C   UNL A   1      32.640  29.711  26.264  1.00  0.00     0.033 A 
ATOM     17  C   UNL A   1      32.622  31.423  26.957  1.00  0.00     0.129 A 
ATOM     18  C   UNL A   1      34.112  28.694  26.582  1.00  0.00     0.129 A 
ATOM     19  F   UNL A   1      31.605  32.276  26.940  1.00  0.00    -0.207 F 
ATOM     20  C   UNL A   1      34.055  32.047  27.917  1.00  0.00     0.040 A 
ATOM     21  C   UNL A   1      35.520  29.332  27.467  1.00  0.00     0.040 A 
ATOM     22  F   UNL A   1      34.138  27.425  26.152  1.00  0.00    -0.207 F 
ATOM     23  C   UNL A   1      35.493  31.003  28.147  1.00  0.00     0.006 A 
ENDBRANCH  15  16
ENDBRANCH  13  15
ENDBRANCH   9  13
ENDBRANCH   8   9
ENDBRANCH   7   8
ENDBRANCH   6   7
ENDBRANCH   3   6
ENDBRANCH   1   2
BRANCH   1  24
ATOM     24  C   UNL A   1      34.986  21.726  25.837  1.00  0.00     0.023 C 
BRANCH  24  25
ATOM     25  C   UNL A   1      35.145  23.221  26.097  1.00  0.00     0.023 C 
BRANCH  25  26
ATOM     26  C   UNL A   1      36.553  23.721  25.907  1.00  0.00     0.116 C 
BRANCH  26  27
ATOM     27  N   UNL A   1      37.563  22.680  26.012  1.00  0.00    -0.352 N 
ATOM     28  C   UNL A   1      38.854  22.869  26.457  1.00  0.00     0.251 C 
ATOM     29  H   UNL A   1      37.305  21.768  25.744  1.00  0.00     0.163 HD
ATOM     30  O   UNL A   1      39.684  21.970  26.443  1.00  0.00    -0.269 OA
BRANCH  28  31
ATOM     31  C   UNL A   1      39.198  24.234  26.896  1.00  0.00     0.039 A 
ATOM     32  C   UNL A   1      39.099  24.547  28.250  1.00  0.00     0.014 A 
ATOM     33  C   UNL A   1      39.841  25.094  25.998  1.00  0.00     0.014 A 
ATOM     34  C   UNL A   1      39.693  25.717  28.717  1.00  0.00     0.010 A 
ATOM     35  C   UNL A   1      40.518  26.202  26.486  1.00  0.00     0.010 A 
ATOM     36  C   UNL A   1      40.435  26.537  27.846  1.00  0.00    -0.014 A 
BRANCH  36  37
ATOM     37  C   UNL A   1      41.088  27.768  28.352  1.00  0.00     0.031 A 
ATOM     38  C   UNL A   1      42.578  27.926  28.219  1.00  0.00     0.074 A 
ATOM     39  C   UNL A   1      40.347  28.734  28.932  1.00  0.00     0.049 A 
ATOM     40  N   UNL A   1      43.326  28.957  28.515  1.00  0.00    -0.248 NA
ATOM     41  C   UNL A   1      43.331  26.767  27.713  1.00  0.00     0.031 C 
ATOM     42  C   UNL A   1      38.908  28.658  29.197  1.00  0.00     0.029 A 
ATOM     43  N   UNL A   1      40.701  29.978  29.390  1.00  0.00    -0.354 N 
ATOM     44  C   UNL A   1      44.630  28.568  28.232  1.00  0.00     0.074 A 
ATOM     45  C   UNL A   1      44.583  27.184  27.820  1.00  0.00     0.031 C 
ATOM     46  C   UNL A   1      38.495  29.822  29.726  1.00  0.00     0.029 A 
ATOM     47  C   UNL A   1      39.639  30.721  29.849  1.00  0.00     0.049 A 
ATOM     48  H   UNL A   1      41.629  30.308  29.391  1.00  0.00     0.167 HD
ATOM     49  C   UNL A   1      45.762  29.307  28.271  1.00  0.00     0.037 A 
ATOM     50  C   UNL A   1      39.592  31.994  30.291  1.00  0.00     0.037 A 
ATOM     51  C   UNL A   1      45.798  30.693  28.652  1.00  0.00     0.049 A 
ATOM     52  C   UNL A   1      40.855  32.813  30.282  1.00  0.00     0.074 A 
ATOM     53  C   UNL A   1      46.879  31.556  28.666  1.00  0.00     0.029 A 
ATOM     54  N   UNL A   1      44.699  31.419  29.086  1.00  0.00    -0.354 N 
ATOM     55  N   UNL A   1      42.066  32.458  29.922  1.00  0.00    -0.248 NA
ATOM     56  C   UNL A   1      40.742  34.211  30.717  1.00  0.00     0.031 C 
ATOM     57  C   UNL A   1      46.440  32.796  29.146  1.00  0.00     0.029 A 
ATOM     58  C   UNL A   1      45.077  32.716  29.387  1.00  0.00     0.049 A 
ATOM     59  H   UNL A   1      43.785  31.064  29.168  1.00  0.00     0.167 HD
ATOM     60  C   UNL A   1      42.855  33.593  30.069  1.00  0.00     0.074 A 
ATOM     61  C   UNL A   1      41.977  34.651  30.527  1.00  0.00     0.031 C 
ATOM     62  C   UNL A   1      44.185  33.750  29.849  1.00  0.00     0.037 A 
BRANCH  49  63
ATOM     63  C   UNL A   1      47.043  28.630  27.871  1.00  0.00     0.058 A 
ATOM     64  C   UNL A   1      47.477  28.606  26.534  1.00  0.00     0.135 A 
ATOM     65  C   UNL A   1      47.852  28.003  28.832  1.00  0.00     0.135 A 
ATOM     66  F   UNL A   1      46.731  29.170  25.571  1.00  0.00    -0.206 F 
ATOM     67  C   UNL A   1      48.649  27.958  26.159  1.00  0.00     0.059 A 
ATOM     68  C   UNL A   1      49.044  27.375  28.483  1.00  0.00     0.059 A 
ATOM     69  F   UNL A   1      47.483  27.990  30.122  1.00  0.00    -0.206 F 
ATOM     70  C   UNL A   1      49.426  27.344  27.143  1.00  0.00     0.060 A 
BRANCH  70  71
ATOM     71  S   UNL A   1      50.948  26.513  26.643  1.00  0.00     0.124 S 
ATOM     72  O   UNL A   1      51.203  25.655  27.797  1.00  0.00    -0.237 OA
ATOM     73  O   UNL A   1      50.540  25.826  25.421  1.00  0.00    -0.237 OA
ATOM     74  O   UNL A   1      51.890  27.612  26.456  1.00  0.00    -0.744 OA
ENDBRANCH  70  71
ENDBRANCH  49  63
BRANCH  50  75
ATOM     75  C   UNL A   1      38.298  32.588  30.723  1.00  0.00     0.058 A 
ATOM     76  C   UNL A   1      37.802  32.381  32.019  1.00  0.00     0.135 A 
ATOM     77  C   UNL A   1      37.532  33.378  29.852  1.00  0.00     0.135 A 
ATOM     78  F   UNL A   1      38.494  31.628  32.889  1.00  0.00    -0.206 F 
ATOM     79  C   UNL A   1      36.586  32.917  32.432  1.00  0.00     0.059 A 
ATOM     80  C   UNL A   1      36.325  33.946  30.248  1.00  0.00     0.059 A 
ATOM     81  F   UNL A   1      37.969  33.623  28.606  1.00  0.00    -0.206 F 
ATOM     82  C   UNL A   1      35.855  33.701  31.537  1.00  0.00     0.060 A 
BRANCH  82  83
ATOM     83  S   UNL A   1      34.303  34.437  32.097  1.00  0.00     0.124 S 
ATOM     84  O   UNL A   1      33.770  33.385  32.954  1.00  0.00    -0.237 OA
ATOM     85  O   UNL A   1      34.763  35.644  32.777  1.00  0.00    -0.237 OA
ATOM     86  O   UNL A   1      33.575  34.669  30.852  1.00  0.00    -0.744 OA
ENDBRANCH  82  83
ENDBRANCH  50  75
BRANCH  62  87
ATOM     87  C   UNL A   1      44.759  35.119  30.087  1.00  0.00     0.058 A 
ATOM     88  C   UNL A   1      45.270  35.494  31.339  1.00  0.00     0.135 A 
ATOM     89  C   UNL A   1      44.809  36.060  29.047  1.00  0.00     0.135 A 
ATOM     90  F   UNL A   1      45.245  34.631  32.366  1.00  0.00    -0.206 F 
ATOM     91  C   UNL A   1      45.769  36.772  31.565  1.00  0.00     0.059 A 
ATOM     92  C   UNL A   1      45.331  37.334  29.242  1.00  0.00     0.059 A 
ATOM     93  F   UNL A   1      44.349  35.745  27.826  1.00  0.00    -0.206 F 
ATOM     94  C   UNL A   1      45.787  37.688  30.511  1.00  0.00     0.060 A 
BRANCH  94  95
ATOM     95  S   UNL A   1      46.422  39.349  30.818  1.00  0.00     0.124 S 
ATOM     96  O   UNL A   1      46.204  39.989  29.526  1.00  0.00    -0.237 OA
ATOM     97  O   UNL A   1      45.572  39.815  31.910  1.00  0.00    -0.237 OA
ATOM     98  O   UNL A   1      47.819  39.116  31.176  1.00  0.00    -0.744 OA
ENDBRANCH  94  95
ENDBRANCH  62  87
ENDBRANCH  36  37
ENDBRANCH  28  31
ENDBRANCH  26  27
ENDBRANCH  25  26
ENDBRANCH  24  25
ENDBRANCH   1  24
TORSDOF 21
ENDMDL
MODEL 2
REMARK VINA RESULT:     -11.5      2.959      4.388
REMARK SMILES CC(C)N(CCCC(=O)NCCCCNC(=O)c1ccc(-c2c3nc(c(-c4c(F)cc(S(=O)(=O)[O-])cc4F)c4ccc([nH]4)c(-c4c(F)cc(S(=O)(=O)[O-])cc4F)c4nc(c(-c5c(F)cc(S(=O)(=O)[O-])cc5F)c5ccc2[nH]5)C=C4)C=C3)cc1)C(=O)Cc1c(F)cccc1F
REMARK SMILES IDX 11 1 10 2 8 3 9 4 7 6 6 7 5 8 4 9 2 10 1 11 3 12 84 13 85 14
REMARK SMILES IDX 86 15 87 16 88 17 93 18 89 19 90 20 92 21 94 22 91 23 12 24
REMARK SMILES IDX 13 25 14 26 15 27 16 28 17 30 18 31 19 32 83 33 20 34 82 35
REMARK SMILES IDX 21 36 22 37 23 38 76 39 24 40 81 41 75 42 77 43 25 44 80 45
REMARK SMILES IDX 74 46 73 47 26 49 60 50 39 51 59 52 40 53 43 54 58 55 78 56
REMARK SMILES IDX 41 57 42 58 57 60 79 61 44 62 27 63 28 64 37 65 29 66 30 67
REMARK SMILES IDX 36 68 38 69 31 70 32 71 33 72 34 73 35 74 61 75 62 76 71 77
REMARK SMILES IDX 63 78 64 79 70 80 72 81 65 82 66 83 67 84 68 85 69 86 45 87
REMARK SMILES IDX 46 88 55 89 47 90 48 91 54 92 56 93 49 94 50 95 51 96 52 97
REMARK SMILES IDX 53 98
REMARK H PARENT 10 5 15 29 77 48 43 59
REMARK Flexibility Score: inf
ROOT
ATOM      1  C   UNL A   1      36.103  21.111  25.475  1.00  0.00     0.116 C 
ENDROOT
BRANCH   1   2
ATOM      2  N   UNL A   1      34.329  20.016  25.350  1.00  0.00    -0.356 N 
ATOM      3  C   UNL A   1      33.088  19.767  24.698  1.00  0.00     0.220 C 
ATOM      4  O   UNL A   1      32.456  18.841  25.248  1.00  0.00    -0.275 OA
ATOM      5  H   UNL A   1      34.369  19.370  26.091  1.00  0.00     0.163 HD
BRANCH   3   6
ATOM      6  C   UNL A   1      32.360  20.436  23.430  1.00  0.00     0.102 C 
BRANCH   6   7
ATOM      7  C   UNL A   1      31.807  21.789  22.786  1.00  0.00     0.031 C 
BRANCH   7   8
ATOM      8  C   UNL A   1      31.723  23.327  23.136  1.00  0.00     0.120 C 
BRANCH   8   9
ATOM      9  N   UNL A   1      32.823  24.307  23.105  1.00  0.00    -0.340 N 
BRANCH   9  10
ATOM     10  C   UNL A   1      33.963  24.075  24.030  1.00  0.00     0.078 C 
ATOM     11  C   UNL A   1      35.205  23.508  23.318  1.00  0.00     0.031 C 
ATOM     12  C   UNL A   1      34.329  25.320  24.838  1.00  0.00     0.031 C 
ENDBRANCH   9  10
BRANCH   9  13
ATOM     13  C   UNL A   1      32.814  25.498  22.422  1.00  0.00     0.227 C 
ATOM     14  O   UNL A   1      33.742  25.886  21.712  1.00  0.00    -0.275 OA
BRANCH  13  15
ATOM     15  C   UNL A   1      31.594  26.319  22.535  1.00  0.00     0.142 C 
BRANCH  15  16
ATOM     16  C   UNL A   1      31.424  27.072  23.830  1.00  0.00     0.033 A 
ATOM     17  C   UNL A   1      30.916  26.478  25.504  1.00  0.00     0.129 A 
ATOM     18  C   UNL A   1      32.306  28.658  23.737  1.00  0.00     0.129 A 
ATOM     19  F   UNL A   1      30.374  25.303  25.799  1.00  0.00    -0.207 F 
ATOM     20  C   UNL A   1      31.294  27.479  26.994  1.00  0.00     0.040 A 
ATOM     21  C   UNL A   1      32.616  29.647  25.186  1.00  0.00     0.040 A 
ATOM     22  F   UNL A   1      32.749  29.094  22.549  1.00  0.00    -0.207 F 
ATOM     23  C   UNL A   1      32.124  29.057  26.818  1.00  0.00     0.006 A 
ENDBRANCH  15  16
ENDBRANCH  13  15
ENDBRANCH   9  13
ENDBRANCH   8   9
ENDBRANCH   7   8
ENDBRANCH   6   7
ENDBRANCH   3   6
ENDBRANCH   1   2
BRANCH   1  24
ATOM     24  C   UNL A   1      37.746  20.626  25.069  1.00  0.00     0.023 C 
BRANCH  24  25
ATOM     25  C   UNL A   1      38.813  21.619  25.521  1.00  0.00     0.023 C 
BRANCH  25  26
ATOM     26  C   UNL A   1      39.724  21.080  26.593  1.00  0.00     0.116 C 
BRANCH  26  27
ATOM     27  N   UNL A   1      40.426  19.865  26.208  1.00  0.00    -0.352 N 
ATOM     28  C   UNL A   1      41.792  19.749  26.067  1.00  0.00     0.251 C 
ATOM     29  H   UNL A   1      39.882  19.063  26.034  1.00  0.00     0.163 HD
ATOM     30  O   UNL A   1      42.319  18.723  25.658  1.00  0.00    -0.269 OA
BRANCH  28  31
ATOM     31  C   UNL A   1      42.584  20.954  26.380  1.00  0.00     0.039 A 
ATOM     32  C   UNL A   1      42.871  21.852  25.353  1.00  0.00     0.014 A 
ATOM     33  C   UNL A   1      42.811  21.288  27.719  1.00  0.00     0.014 A 
ATOM     34  C   UNL A   1      43.350  23.118  25.680  1.00  0.00     0.010 A 
ATOM     35  C   UNL A   1      43.189  22.583  28.042  1.00  0.00     0.010 A 
ATOM     36  C   UNL A   1      43.482  23.505  27.026  1.00  0.00    -0.014 A 
BRANCH  36  37
ATOM     37  C   UNL A   1      43.969  24.863  27.370  1.00  0.00     0.031 A 
ATOM     38  C   UNL A   1      45.416  25.210  27.152  1.00  0.00     0.074 A 
ATOM     39  C   UNL A   1      43.117  25.775  27.881  1.00  0.00     0.049 A 
ATOM     40  N   UNL A   1      46.019  26.361  27.304  1.00  0.00    -0.248 NA
ATOM     41  C   UNL A   1      46.311  24.118  26.735  1.00  0.00     0.031 C 
ATOM     42  C   UNL A   1      41.712  25.530  28.219  1.00  0.00     0.029 A 
ATOM     43  N   UNL A   1      43.304  27.098  28.190  1.00  0.00    -0.354 N 
ATOM     44  C   UNL A   1      47.355  26.127  27.002  1.00  0.00     0.074 A 
ATOM     45  C   UNL A   1      47.493  24.713  26.739  1.00  0.00     0.031 C 
ATOM     46  C   UNL A   1      41.155  26.676  28.643  1.00  0.00     0.029 A 
ATOM     47  C   UNL A   1      42.161  27.733  28.617  1.00  0.00     0.049 A 
ATOM     48  H   UNL A   1      44.175  27.551  28.113  1.00  0.00     0.167 HD
ATOM     49  C   UNL A   1      48.371  27.016  26.911  1.00  0.00     0.037 A 
ATOM     50  C   UNL A   1      41.947  29.027  28.926  1.00  0.00     0.037 A 
ATOM     51  C   UNL A   1      48.221  28.427  27.144  1.00  0.00     0.049 A 
ATOM     52  C   UNL A   1      43.080  30.008  28.773  1.00  0.00     0.074 A 
ATOM     53  C   UNL A   1      49.167  29.428  27.016  1.00  0.00     0.029 A 
ATOM     54  N   UNL A   1      47.043  29.037  27.550  1.00  0.00    -0.354 N 
ATOM     55  N   UNL A   1      44.317  29.786  28.396  1.00  0.00    -0.248 NA
ATOM     56  C   UNL A   1      42.782  31.416  29.066  1.00  0.00     0.031 C 
ATOM     57  C   UNL A   1      48.571  30.640  27.384  1.00  0.00     0.029 A 
ATOM     58  C   UNL A   1      47.241  30.399  27.696  1.00  0.00     0.049 A 
ATOM     59  H   UNL A   1      46.192  28.570  27.712  1.00  0.00     0.167 HD
ATOM     60  C   UNL A   1      44.940  31.029  28.387  1.00  0.00     0.074 A 
ATOM     61  C   UNL A   1      43.935  32.000  28.772  1.00  0.00     0.031 C 
ATOM     62  C   UNL A   1      46.226  31.344  28.090  1.00  0.00     0.037 A 
BRANCH  49  63
ATOM     63  C   UNL A   1      49.722  26.483  26.524  1.00  0.00     0.058 A 
ATOM     64  C   UNL A   1      50.144  26.450  25.183  1.00  0.00     0.135 A 
ATOM     65  C   UNL A   1      50.610  26.005  27.500  1.00  0.00     0.135 A 
ATOM     66  F   UNL A   1      49.327  26.873  24.206  1.00  0.00    -0.206 F 
ATOM     67  C   UNL A   1      51.384  25.934  24.822  1.00  0.00     0.059 A 
ATOM     68  C   UNL A   1      51.867  25.512  27.164  1.00  0.00     0.059 A 
ATOM     69  F   UNL A   1      50.255  26.007  28.795  1.00  0.00    -0.206 F 
ATOM     70  C   UNL A   1      52.238  25.467  25.821  1.00  0.00     0.060 A 
BRANCH  70  71
ATOM     71  S   UNL A   1      53.847  24.805  25.338  1.00  0.00     0.124 S 
ATOM     72  O   UNL A   1      53.513  23.415  25.043  1.00  0.00    -0.237 OA
ATOM     73  O   UNL A   1      54.191  25.633  24.186  1.00  0.00    -0.237 OA
ATOM     74  O   UNL A   1      54.670  25.015  26.525  1.00  0.00    -0.744 OA
ENDBRANCH  70  71
ENDBRANCH  49  63
BRANCH  50  75
ATOM     75  C   UNL A   1      40.596  29.480  29.354  1.00  0.00     0.058 A 
ATOM     76  C   UNL A   1      39.556  29.639  28.425  1.00  0.00     0.135 A 
ATOM     77  C   UNL A   1      40.314  29.760  30.700  1.00  0.00     0.135 A 
ATOM     78  F   UNL A   1      39.776  29.389  27.124  1.00  0.00    -0.206 F 
ATOM     79  C   UNL A   1      38.292  30.077  28.809  1.00  0.00     0.059 A 
ATOM     80  C   UNL A   1      39.051  30.175  31.112  1.00  0.00     0.059 A 
ATOM     81  F   UNL A   1      41.267  29.607  31.633  1.00  0.00    -0.206 F 
ATOM     82  C   UNL A   1      38.050  30.341  30.157  1.00  0.00     0.060 A 
BRANCH  82  83
ATOM     83  S   UNL A   1      36.392  30.858  30.655  1.00  0.00     0.124 S 
ATOM     84  O   UNL A   1      36.641  32.203  31.157  1.00  0.00    -0.237 OA
ATOM     85  O   UNL A   1      35.652  30.770  29.401  1.00  0.00    -0.237 OA
ATOM     86  O   UNL A   1      36.021  29.865  31.662  1.00  0.00    -0.744 OA
ENDBRANCH  82  83
ENDBRANCH  50  75
BRANCH  62  87
ATOM     87  C   UNL A   1      46.606  32.797  28.156  1.00  0.00     0.058 A 
ATOM     88  C   UNL A   1      47.212  33.346  29.297  1.00  0.00     0.135 A 
ATOM     89  C   UNL A   1      46.372  33.644  27.062  1.00  0.00     0.135 A 
ATOM     90  F   UNL A   1      47.456  32.578  30.370  1.00  0.00    -0.206 F 
ATOM     91  C   UNL A   1      47.531  34.698  29.368  1.00  0.00     0.059 A 
ATOM     92  C   UNL A   1      46.711  34.993  27.101  1.00  0.00     0.059 A 
ATOM     93  F   UNL A   1      45.812  33.164  25.941  1.00  0.00    -0.206 F 
ATOM     94  C   UNL A   1      47.268  35.515  28.267  1.00  0.00     0.060 A 
BRANCH  94  95
ATOM     95  S   UNL A   1      47.672  37.270  28.375  1.00  0.00     0.124 S 
ATOM     96  O   UNL A   1      48.818  37.362  27.478  1.00  0.00    -0.237 OA
ATOM     97  O   UNL A   1      46.445  37.905  27.904  1.00  0.00    -0.237 OA
ATOM     98  O   UNL A   1      47.965  37.463  29.792  1.00  0.00    -0.744 OA
ENDBRANCH  94  95
ENDBRANCH  62  87
ENDBRANCH  36  37
ENDBRANCH  28  31
ENDBRANCH  26  27
ENDBRANCH  25  26
ENDBRANCH  24  25
ENDBRANCH   1  24
TORSDOF 21
ENDMDL
MODEL 3
REMARK VINA RESULT:     -11.1      5.673     10.901
REMARK SMILES CC(C)N(CCCC(=O)NCCCCNC(=O)c1ccc(-c2c3nc(c(-c4c(F)cc(S(=O)(=O)[O-])cc4F)c4ccc([nH]4)c(-c4c(F)cc(S(=O)(=O)[O-])cc4F)c4nc(c(-c5c(F)cc(S(=O)(=O)[O-])cc5F)c5ccc2[nH]5)C=C4)C=C3)cc1)C(=O)Cc1c(F)cccc1F
REMARK SMILES IDX 11 1 10 2 8 3 9 4 7 6 6 7 5 8 4 9 2 10 1 11 3 12 84 13 85 14
REMARK SMILES IDX 86 15 87 16 88 17 93 18 89 19 90 20 92 21 94 22 91 23 12 24
REMARK SMILES IDX 13 25 14 26 15 27 16 28 17 30 18 31 19 32 83 33 20 34 82 35
REMARK SMILES IDX 21 36 22 37 23 38 76 39 24 40 81 41 75 42 77 43 25 44 80 45
REMARK SMILES IDX 74 46 73 47 26 49 60 50 39 51 59 52 40 53 43 54 58 55 78 56
REMARK SMILES IDX 41 57 42 58 57 60 79 61 44 62 27 63 28 64 37 65 29 66 30 67
REMARK SMILES IDX 36 68 38 69 31 70 32 71 33 72 34 73 35 74 61 75 62 76 71 77
REMARK SMILES IDX 63 78 64 79 70 80 72 81 65 82 66 83 67 84 68 85 69 86 45 87
REMARK SMILES IDX 46 88 55 89 47 90 48 91 54 92 56 93 49 94 50 95 51 96 52 97
REMARK SMILES IDX 53 98
REMARK H PARENT 10 5 15 29 77 48 43 59
REMARK Flexibility Score: inf
ROOT
ATOM      1  C   UNL A   1      35.247  30.750  27.950  1.00  0.00     0.116 C 
ENDROOT
BRANCH   1   2
ATOM      2  N   UNL A   1      33.962  30.087  26.443  1.00  0.00    -0.356 N 
ATOM      3  C   UNL A   1      33.526  29.044  25.578  1.00  0.00     0.220 C 
ATOM      4  O   UNL A   1      32.590  29.417  24.841  1.00  0.00    -0.275 OA
ATOM      5  H   UNL A   1      33.390  30.860  26.230  1.00  0.00     0.163 HD
BRANCH   3   6
ATOM      6  C   UNL A   1      34.003  27.523  25.365  1.00  0.00     0.102 C 
BRANCH   6   7
ATOM      7  C   UNL A   1      33.633  25.982  25.567  1.00  0.00     0.031 C 
BRANCH   7   8
ATOM      8  C   UNL A   1      34.366  24.587  25.677  1.00  0.00     0.120 C 
BRANCH   8   9
ATOM      9  N   UNL A   1      34.164  23.407  24.818  1.00  0.00    -0.340 N 
BRANCH   9  10
ATOM     10  C   UNL A   1      34.153  22.079  25.484  1.00  0.00     0.078 C 
ATOM     11  C   UNL A   1      35.565  21.496  25.682  1.00  0.00     0.031 C 
ATOM     12  C   UNL A   1      33.387  22.088  26.807  1.00  0.00     0.031 C 
ENDBRANCH   9  10
BRANCH   9  13
ATOM     13  C   UNL A   1      34.151  23.410  23.445  1.00  0.00     0.227 C 
ATOM     14  O   UNL A   1      35.158  23.559  22.752  1.00  0.00    -0.275 OA
BRANCH  13  15
ATOM     15  C   UNL A   1      32.849  23.178  22.793  1.00  0.00     0.142 C 
BRANCH  15  16
ATOM     16  C   UNL A   1      31.762  24.171  23.121  1.00  0.00     0.033 A 
ATOM     17  C   UNL A   1      30.701  24.332  24.624  1.00  0.00     0.129 A 
ATOM     18  C   UNL A   1      31.918  25.627  22.045  1.00  0.00     0.129 A 
ATOM     19  F   UNL A   1      30.551  23.436  25.591  1.00  0.00    -0.207 F 
ATOM     20  C   UNL A   1      29.843  25.914  24.984  1.00  0.00     0.040 A 
ATOM     21  C   UNL A   1      31.034  27.137  22.376  1.00  0.00     0.040 A 
ATOM     22  F   UNL A   1      32.729  25.572  20.980  1.00  0.00    -0.207 F 
ATOM     23  C   UNL A   1      30.005  27.291  23.850  1.00  0.00     0.006 A 
ENDBRANCH  15  16
ENDBRANCH  13  15
ENDBRANCH   9  13
ENDBRANCH   8   9
ENDBRANCH   7   8
ENDBRANCH   6   7
ENDBRANCH   3   6
ENDBRANCH   1   2
BRANCH   1  24
ATOM     24  C   UNL A   1      35.104  32.154  29.003  1.00  0.00     0.023 C 
BRANCH  24  25
ATOM     25  C   UNL A   1      33.946  33.079  28.646  1.00  0.00     0.023 C 
BRANCH  25  26
ATOM     26  C   UNL A   1      34.135  34.497  29.121  1.00  0.00     0.116 C 
BRANCH  26  27
ATOM     27  N   UNL A   1      33.025  35.002  29.912  1.00  0.00    -0.352 N 
ATOM     28  C   UNL A   1      32.974  35.018  31.289  1.00  0.00     0.251 C 
ATOM     29  H   UNL A   1      32.247  35.361  29.426  1.00  0.00     0.163 HD
ATOM     30  O   UNL A   1      31.977  35.378  31.899  1.00  0.00    -0.269 OA
BRANCH  28  31
ATOM     31  C   UNL A   1      34.172  34.519  31.991  1.00  0.00     0.039 A 
ATOM     32  C   UNL A   1      34.161  33.218  32.492  1.00  0.00     0.014 A 
ATOM     33  C   UNL A   1      35.357  35.259  31.921  1.00  0.00     0.014 A 
ATOM     34  C   UNL A   1      35.365  32.638  32.885  1.00  0.00     0.010 A 
ATOM     35  C   UNL A   1      36.563  34.640  32.216  1.00  0.00     0.010 A 
ATOM     36  C   UNL A   1      36.578  33.331  32.720  1.00  0.00    -0.014 A 
BRANCH  36  37
ATOM     37  C   UNL A   1      37.860  32.700  33.116  1.00  0.00     0.031 A 
ATOM     38  C   UNL A   1      38.519  33.105  34.407  1.00  0.00     0.074 A 
ATOM     39  C   UNL A   1      38.430  31.774  32.319  1.00  0.00     0.049 A 
ATOM     40  N   UNL A   1      39.590  32.613  34.974  1.00  0.00    -0.248 NA
ATOM     41  C   UNL A   1      37.914  34.226  35.145  1.00  0.00     0.031 C 
ATOM     42  C   UNL A   1      37.933  31.363  31.004  1.00  0.00     0.029 A 
ATOM     43  N   UNL A   1      39.547  30.999  32.506  1.00  0.00    -0.354 N 
ATOM     44  C   UNL A   1      39.782  33.364  36.128  1.00  0.00     0.074 A 
ATOM     45  C   UNL A   1      38.770  34.395  36.140  1.00  0.00     0.031 C 
ATOM     46  C   UNL A   1      38.713  30.379  30.525  1.00  0.00     0.029 A 
ATOM     47  C   UNL A   1      39.770  30.097  31.492  1.00  0.00     0.049 A 
ATOM     48  H   UNL A   1      40.133  31.081  33.292  1.00  0.00     0.167 HD
ATOM     49  C   UNL A   1      40.693  33.187  37.112  1.00  0.00     0.037 A 
ATOM     50  C   UNL A   1      40.706  29.135  31.372  1.00  0.00     0.037 A 
ATOM     51  C   UNL A   1      41.678  32.140  37.109  1.00  0.00     0.049 A 
ATOM     52  C   UNL A   1      41.681  28.925  32.500  1.00  0.00     0.074 A 
ATOM     53  C   UNL A   1      42.608  31.828  38.085  1.00  0.00     0.029 A 
ATOM     54  N   UNL A   1      41.858  31.230  36.077  1.00  0.00    -0.354 N 
ATOM     55  N   UNL A   1      41.790  29.585  33.629  1.00  0.00    -0.248 NA
ATOM     56  C   UNL A   1      42.644  27.827  32.348  1.00  0.00     0.031 C 
ATOM     57  C   UNL A   1      43.377  30.752  37.625  1.00  0.00     0.029 A 
ATOM     58  C   UNL A   1      42.894  30.366  36.383  1.00  0.00     0.049 A 
ATOM     59  H   UNL A   1      41.325  31.203  35.250  1.00  0.00     0.167 HD
ATOM     60  C   UNL A   1      42.822  28.970  34.330  1.00  0.00     0.074 A 
ATOM     61  C   UNL A   1      43.284  27.870  33.507  1.00  0.00     0.031 C 
ATOM     62  C   UNL A   1      43.343  29.284  35.543  1.00  0.00     0.037 A 
BRANCH  49  63
ATOM     63  C   UNL A   1      40.645  34.137  38.276  1.00  0.00     0.058 A 
ATOM     64  C   UNL A   1      39.895  33.850  39.430  1.00  0.00     0.135 A 
ATOM     65  C   UNL A   1      41.360  35.344  38.245  1.00  0.00     0.135 A 
ATOM     66  F   UNL A   1      39.173  32.721  39.504  1.00  0.00    -0.206 F 
ATOM     67  C   UNL A   1      39.830  34.740  40.496  1.00  0.00     0.059 A 
ATOM     68  C   UNL A   1      41.334  36.236  39.313  1.00  0.00     0.059 A 
ATOM     69  F   UNL A   1      42.088  35.671  37.165  1.00  0.00    -0.206 F 
ATOM     70  C   UNL A   1      40.553  35.931  40.428  1.00  0.00     0.060 A 
BRANCH  70  71
ATOM     71  S   UNL A   1      40.465  37.074  41.822  1.00  0.00     0.124 S 
ATOM     72  O   UNL A   1      41.743  37.771  41.709  1.00  0.00    -0.237 OA
ATOM     73  O   UNL A   1      39.281  37.866  41.502  1.00  0.00    -0.237 OA
ATOM     74  O   UNL A   1      40.331  36.191  42.977  1.00  0.00    -0.744 OA
ENDBRANCH  70  71
ENDBRANCH  49  63
BRANCH  50  75
ATOM     75  C   UNL A   1      40.730  28.262  30.167  1.00  0.00     0.058 A 
ATOM     76  C   UNL A   1      39.784  27.239  29.993  1.00  0.00     0.135 A 
ATOM     77  C   UNL A   1      41.695  28.433  29.163  1.00  0.00     0.135 A 
ATOM     78  F   UNL A   1      38.843  27.031  30.928  1.00  0.00    -0.206 F 
ATOM     79  C   UNL A   1      39.805  26.405  28.880  1.00  0.00     0.059 A 
ATOM     80  C   UNL A   1      41.721  27.628  28.028  1.00  0.00     0.059 A 
ATOM     81  F   UNL A   1      42.611  29.408  29.270  1.00  0.00    -0.206 F 
ATOM     82  C   UNL A   1      40.778  26.610  27.900  1.00  0.00     0.060 A 
BRANCH  82  83
ATOM     83  S   UNL A   1      40.765  25.557  26.432  1.00  0.00     0.124 S 
ATOM     84  O   UNL A   1      39.380  25.104  26.407  1.00  0.00    -0.237 OA
ATOM     85  O   UNL A   1      41.152  26.491  25.380  1.00  0.00    -0.237 OA
ATOM     86  O   UNL A   1      41.760  24.534  26.746  1.00  0.00    -0.744 OA
ENDBRANCH  82  83
ENDBRANCH  50  75
BRANCH  62  87
ATOM     87  C   UNL A   1      44.458  28.414  36.052  1.00  0.00     0.058 A 
ATOM     88  C   UNL A   1      45.804  28.717  35.790  1.00  0.00     0.135 A 
ATOM     89  C   UNL A   1      44.178  27.273  36.820  1.00  0.00     0.135 A 
ATOM     90  F   UNL A   1      46.124  29.796  35.060  1.00  0.00    -0.206 F 
ATOM     91  C   UNL A   1      46.831  27.892  36.234  1.00  0.00     0.059 A 
ATOM     92  C   UNL A   1      45.191  26.450  37.299  1.00  0.00     0.059 A 
ATOM     93  F   UNL A   1      42.908  26.950  37.114  1.00  0.00    -0.206 F 
ATOM     94  C   UNL A   1      46.514  26.756  36.981  1.00  0.00     0.060 A 
BRANCH  94  95
ATOM     95  S   UNL A   1      47.854  25.683  37.539  1.00  0.00     0.124 S 
ATOM     96  O   UNL A   1      48.650  26.604  38.341  1.00  0.00    -0.237 OA
ATOM     97  O   UNL A   1      47.140  24.647  38.280  1.00  0.00    -0.237 OA
ATOM     98  O   UNL A   1      48.472  25.239  36.292  1.00  0.00    -0.744 OA
ENDBRANCH  94  95
ENDBRANCH  62  87
ENDBRANCH  36  37
ENDBRANCH  28  31
ENDBRANCH  26  27
ENDBRANCH  25  26
ENDBRANCH  24  25
ENDBRANCH   1  24
TORSDOF 21
ENDMDL
