MODEL 1
REMARK VINA RESULT:      -9.9      0.000      0.000
REMARK SMILES C[NH+]1CCN(c2nc3c(cc2F)c(=O)c(C(=O)NCCCCNC(=O)c2ccc(-c4c5nc(c(-c6c(F)cc(S(=O)(=O)[O-])cc6F)c6ccc([nH]6)c(-c6c(F)cc(S(=O)(=O)[O-])cc6F)c6nc(c(-c7c(F)cc(S(=O)(=O)[O-])cc7F)c7ccc4[nH]7)C=C6)C=C5)cc2)cn3-c2ccc(F)cc2F)CC1
REMARK SMILES IDX 21 1 20 2 19 3 18 4 16 5 17 6 15 8 6 9 7 10 11 11 8 12 10 13
REMARK SMILES IDX 12 14 9 15 93 16 13 17 92 18 14 19 5 20 1 21 2 22 3 23
REMARK SMILES IDX 103 24 4 26 102 27 94 28 95 29 100 30 96 31 99 32 101 33
REMARK SMILES IDX 97 34 98 35 22 36 23 37 24 38 25 40 26 41 27 42 91 43 28 44
REMARK SMILES IDX 90 45 29 46 30 47 31 48 84 49 32 50 89 51 83 52 85 53 33 54
REMARK SMILES IDX 88 55 82 56 81 57 34 59 68 60 47 61 67 62 48 63 51 64 66 65
REMARK SMILES IDX 86 66 49 67 50 68 65 70 87 71 52 72 35 73 36 74 45 75 37 76
REMARK SMILES IDX 38 77 44 78 46 79 39 80 40 81 41 82 42 83 43 84 69 85 70 86
REMARK SMILES IDX 79 87 71 88 72 89 78 90 80 91 73 92 74 93 75 94 76 95 77 96
REMARK SMILES IDX 53 97 54 98 63 99 55 100 56 101 62 102 64 103 57 104 58 105
REMARK SMILES IDX 59 106 60 107 61 108
REMARK H PARENT 18 7 2 25 23 39 85 58 51 69
REMARK Flexibility Score: inf
ROOT
ATOM      1  C   UNL A   1      43.296  22.829  27.173  1.00  0.00     0.023 C 
ENDROOT
BRANCH   1   2
ATOM      2  C   UNL A   1      43.447  22.662  25.665  1.00  0.00     0.023 C 
BRANCH   2   3
ATOM      3  C   UNL A   1      43.873  23.925  24.914  1.00  0.00     0.116 C 
BRANCH   3   4
ATOM      4  N   UNL A   1      45.315  23.996  24.788  1.00  0.00    -0.352 N 
ATOM      5  C   UNL A   1      46.231  24.865  25.292  1.00  0.00     0.256 C 
ATOM      6  O   UNL A   1      47.413  24.639  25.010  1.00  0.00    -0.269 OA
ATOM      7  H   UNL A   1      45.705  23.282  24.234  1.00  0.00     0.163 HD
BRANCH   5   8
ATOM      8  C   UNL A   1      45.890  25.995  26.203  1.00  0.00     0.104 A 
ATOM      9  C   UNL A   1      44.174  29.965  28.883  1.00  0.00     0.167 A 
ATOM     10  N   UNL A   1      44.684  28.753  29.218  1.00  0.00    -0.209 NA
ATOM     11  C   UNL A   1      44.064  30.353  27.546  1.00  0.00     0.166 A 
ATOM     12  C   UNL A   1      45.078  27.890  28.243  1.00  0.00     0.151 A 
ATOM     13  C   UNL A   1      44.527  29.521  26.546  1.00  0.00     0.059 A 
ATOM     14  F   UNL A   1      43.576  31.558  27.208  1.00  0.00    -0.203 F 
ATOM     15  C   UNL A   1      45.050  28.281  26.907  1.00  0.00     0.069 A 
ATOM     16  N   UNL A   1      45.539  26.573  28.567  1.00  0.00    -0.297 N 
ATOM     17  C   UNL A   1      45.645  27.417  25.879  1.00  0.00     0.203 A 
ATOM     18  C   UNL A   1      45.855  25.711  27.518  1.00  0.00     0.111 A 
ATOM     19  O   UNL A   1      45.953  27.951  24.823  1.00  0.00    -0.288 OA
BRANCH   9  20
ATOM     20  N   UNL A   1      43.810  30.793  29.911  1.00  0.00    -0.343 N 
ATOM     21  C   UNL A   1      43.187  34.871  30.918  1.00  0.00     0.332 C 
ATOM     22  N   UNL A   1      43.305  33.418  31.010  1.00  0.00    -0.334 N 
ATOM     23  C   UNL A   1      44.676  32.975  30.655  1.00  0.00     0.283 C 
ATOM     24  C   UNL A   1      42.330  32.763  30.104  1.00  0.00     0.283 C 
ATOM     25  H   UNL A   1      43.109  33.148  31.974  1.00  0.00     0.347 HD
ATOM     26  C   UNL A   1      44.847  31.434  30.715  1.00  0.00     0.179 C 
ATOM     27  C   UNL A   1      42.435  31.224  30.133  1.00  0.00     0.179 C 
ENDBRANCH   9  20
BRANCH  16  28
ATOM     28  C   UNL A   1      45.622  26.099  29.913  1.00  0.00     0.083 A 
ATOM     29  C   UNL A   1      46.733  26.404  30.717  1.00  0.00     0.033 A 
ATOM     30  C   UNL A   1      44.593  25.323  30.477  1.00  0.00     0.150 A 
ATOM     31  C   UNL A   1      46.802  25.952  32.038  1.00  0.00     0.041 A 
ATOM     32  C   UNL A   1      44.659  24.859  31.787  1.00  0.00     0.080 A 
ATOM     33  F   UNL A   1      43.522  24.989  29.740  1.00  0.00    -0.205 F 
ATOM     34  C   UNL A   1      45.766  25.182  32.556  1.00  0.00     0.126 A 
ATOM     35  F   UNL A   1      45.842  24.743  33.819  1.00  0.00    -0.207 F 
ENDBRANCH  16  28
ENDBRANCH   5   8
ENDBRANCH   3   4
ENDBRANCH   2   3
ENDBRANCH   1   2
BRANCH   1  36
ATOM     36  C   UNL A   1      41.885  23.155  27.639  1.00  0.00     0.116 C 
BRANCH  36  37
ATOM     37  N   UNL A   1      41.016  23.627  26.570  1.00  0.00    -0.352 N 
ATOM     38  C   UNL A   1      40.243  24.763  26.561  1.00  0.00     0.251 C 
ATOM     39  H   UNL A   1      40.978  23.069  25.760  1.00  0.00     0.163 HD
ATOM     40  O   UNL A   1      39.496  25.018  25.623  1.00  0.00    -0.269 OA
BRANCH  38  41
ATOM     41  C   UNL A   1      40.306  25.649  27.738  1.00  0.00     0.039 A 
ATOM     42  C   UNL A   1      41.298  26.629  27.789  1.00  0.00     0.014 A 
ATOM     43  C   UNL A   1      39.317  25.569  28.723  1.00  0.00     0.014 A 
ATOM     44  C   UNL A   1      41.263  27.580  28.808  1.00  0.00     0.010 A 
ATOM     45  C   UNL A   1      39.255  26.548  29.707  1.00  0.00     0.010 A 
ATOM     46  C   UNL A   1      40.226  27.561  29.754  1.00  0.00    -0.014 A 
BRANCH  46  47
ATOM     47  C   UNL A   1      40.156  28.579  30.825  1.00  0.00     0.031 A 
ATOM     48  C   UNL A   1      41.063  28.458  32.014  1.00  0.00     0.074 A 
ATOM     49  C   UNL A   1      39.254  29.574  30.747  1.00  0.00     0.049 A 
ATOM     50  N   UNL A   1      41.130  29.210  33.080  1.00  0.00    -0.248 NA
ATOM     51  C   UNL A   1      42.007  27.327  32.012  1.00  0.00     0.031 C 
ATOM     52  C   UNL A   1      38.302  29.774  29.652  1.00  0.00     0.029 A 
ATOM     53  N   UNL A   1      38.988  30.608  31.610  1.00  0.00    -0.354 N 
ATOM     54  C   UNL A   1      42.122  28.650  33.872  1.00  0.00     0.074 A 
ATOM     55  C   UNL A   1      42.592  27.462  33.193  1.00  0.00     0.031 C 
ATOM     56  C   UNL A   1      37.571  30.873  29.900  1.00  0.00     0.029 A 
ATOM     57  C   UNL A   1      37.985  31.443  31.179  1.00  0.00     0.049 A 
ATOM     58  H   UNL A   1      39.471  30.738  32.458  1.00  0.00     0.167 HD
ATOM     59  C   UNL A   1      42.617  29.101  35.049  1.00  0.00     0.037 A 
ATOM     60  C   UNL A   1      37.464  32.544  31.754  1.00  0.00     0.037 A 
ATOM     61  C   UNL A   1      42.158  30.290  35.712  1.00  0.00     0.049 A 
ATOM     62  C   UNL A   1      38.015  33.013  33.073  1.00  0.00     0.074 A 
ATOM     63  C   UNL A   1      42.612  30.848  36.893  1.00  0.00     0.029 A 
ATOM     64  N   UNL A   1      41.137  31.107  35.249  1.00  0.00    -0.354 N 
ATOM     65  N   UNL A   1      38.978  32.491  33.795  1.00  0.00    -0.248 NA
ATOM     66  C   UNL A   1      37.411  34.219  33.655  1.00  0.00     0.031 C 
ATOM     67  C   UNL A   1      41.850  31.992  37.155  1.00  0.00     0.029 A 
ATOM     68  C   UNL A   1      40.940  32.161  36.123  1.00  0.00     0.049 A 
ATOM     69  H   UNL A   1      40.628  30.959  34.418  1.00  0.00     0.167 HD
ATOM     70  C   UNL A   1      39.108  33.315  34.906  1.00  0.00     0.074 A 
ATOM     71  C   UNL A   1      38.131  34.374  34.759  1.00  0.00     0.031 C 
ATOM     72  C   UNL A   1      39.962  33.206  35.953  1.00  0.00     0.037 A 
BRANCH  59  73
ATOM     73  C   UNL A   1      43.723  28.305  35.675  1.00  0.00     0.058 A 
ATOM     74  C   UNL A   1      45.065  28.523  35.321  1.00  0.00     0.135 A 
ATOM     75  C   UNL A   1      43.448  27.322  36.637  1.00  0.00     0.135 A 
ATOM     76  F   UNL A   1      45.378  29.438  34.389  1.00  0.00    -0.206 F 
ATOM     77  C   UNL A   1      46.095  27.775  35.881  1.00  0.00     0.059 A 
ATOM     78  C   UNL A   1      44.465  26.576  37.226  1.00  0.00     0.059 A 
ATOM     79  F   UNL A   1      42.182  27.071  37.003  1.00  0.00    -0.206 F 
ATOM     80  C   UNL A   1      45.784  26.800  36.829  1.00  0.00     0.060 A 
BRANCH  80  81
ATOM     81  S   UNL A   1      47.130  25.831  37.542  1.00  0.00     0.124 S 
ATOM     82  O   UNL A   1      46.444  25.138  38.628  1.00  0.00    -0.237 OA
ATOM     83  O   UNL A   1      47.543  24.996  36.419  1.00  0.00    -0.237 OA
ATOM     84  O   UNL A   1      48.095  26.844  37.955  1.00  0.00    -0.744 OA
ENDBRANCH  80  81
ENDBRANCH  59  73
BRANCH  60  85
ATOM     85  C   UNL A   1      36.388  33.300  31.065  1.00  0.00     0.058 A 
ATOM     86  C   UNL A   1      35.067  33.250  31.535  1.00  0.00     0.135 A 
ATOM     87  C   UNL A   1      36.656  34.101  29.946  1.00  0.00     0.135 A 
ATOM     88  F   UNL A   1      34.762  32.491  32.599  1.00  0.00    -0.206 F 
ATOM     89  C   UNL A   1      34.046  33.963  30.915  1.00  0.00     0.059 A 
ATOM     90  C   UNL A   1      35.654  34.836  29.319  1.00  0.00     0.059 A 
ATOM     91  F   UNL A   1      37.907  34.190  29.468  1.00  0.00    -0.206 F 
ATOM     92  C   UNL A   1      34.351  34.757  29.808  1.00  0.00     0.060 A 
BRANCH  92  93
ATOM     93  S   UNL A   1      33.028  35.723  29.047  1.00  0.00     0.124 S 
ATOM     94  O   UNL A   1      32.369  34.719  28.219  1.00  0.00    -0.237 OA
ATOM     95  O   UNL A   1      32.278  36.185  30.210  1.00  0.00    -0.237 OA
ATOM     96  O   UNL A   1      33.750  36.765  28.322  1.00  0.00    -0.744 OA
ENDBRANCH  92  93
ENDBRANCH  60  85
BRANCH  72  97
ATOM     97  C   UNL A   1      39.892  34.262  37.016  1.00  0.00     0.058 A 
ATOM     98  C   UNL A   1      40.506  35.512  36.844  1.00  0.00     0.135 A 
ATOM     99  C   UNL A   1      39.137  34.051  38.181  1.00  0.00     0.135 A 
ATOM    100  F   UNL A   1      41.243  35.758  35.750  1.00  0.00    -0.206 F 
ATOM    101  C   UNL A   1      40.377  36.518  37.795  1.00  0.00     0.059 A 
ATOM    102  C   UNL A   1      38.981  35.049  39.137  1.00  0.00     0.059 A 
ATOM    103  F   UNL A   1      38.525  32.873  38.385  1.00  0.00    -0.206 F 
ATOM    104  C   UNL A   1      39.608  36.278  38.936  1.00  0.00     0.060 A 
BRANCH 104 105
ATOM    105  S   UNL A   1      39.400  37.612  40.135  1.00  0.00     0.124 S 
ATOM    106  O   UNL A   1      38.901  36.887  41.298  1.00  0.00    -0.237 OA
ATOM    107  O   UNL A   1      40.755  38.143  40.252  1.00  0.00    -0.237 OA
ATOM    108  O   UNL A   1      38.440  38.502  39.488  1.00  0.00    -0.744 OA
ENDBRANCH 104 105
ENDBRANCH  72  97
ENDBRANCH  46  47
ENDBRANCH  38  41
ENDBRANCH  36  37
ENDBRANCH   1  36
TORSDOF 16
ENDMDL
MODEL 2
REMARK VINA RESULT:      -9.7      4.612     12.906
REMARK SMILES C[NH+]1CCN(c2nc3c(cc2F)c(=O)c(C(=O)NCCCCNC(=O)c2ccc(-c4c5nc(c(-c6c(F)cc(S(=O)(=O)[O-])cc6F)c6ccc([nH]6)c(-c6c(F)cc(S(=O)(=O)[O-])cc6F)c6nc(c(-c7c(F)cc(S(=O)(=O)[O-])cc7F)c7ccc4[nH]7)C=C6)C=C5)cc2)cn3-c2ccc(F)cc2F)CC1
REMARK SMILES IDX 21 1 20 2 19 3 18 4 16 5 17 6 15 8 6 9 7 10 11 11 8 12 10 13
REMARK SMILES IDX 12 14 9 15 93 16 13 17 92 18 14 19 5 20 1 21 2 22 3 23
REMARK SMILES IDX 103 24 4 26 102 27 94 28 95 29 100 30 96 31 99 32 101 33
REMARK SMILES IDX 97 34 98 35 22 36 23 37 24 38 25 40 26 41 27 42 91 43 28 44
REMARK SMILES IDX 90 45 29 46 30 47 31 48 84 49 32 50 89 51 83 52 85 53 33 54
REMARK SMILES IDX 88 55 82 56 81 57 34 59 68 60 47 61 67 62 48 63 51 64 66 65
REMARK SMILES IDX 86 66 49 67 50 68 65 70 87 71 52 72 35 73 36 74 45 75 37 76
REMARK SMILES IDX 38 77 44 78 46 79 39 80 40 81 41 82 42 83 43 84 69 85 70 86
REMARK SMILES IDX 79 87 71 88 72 89 78 90 80 91 73 92 74 93 75 94 76 95 77 96
REMARK SMILES IDX 53 97 54 98 63 99 55 100 56 101 62 102 64 103 57 104 58 105
REMARK SMILES IDX 59 106 60 107 61 108
REMARK H PARENT 18 7 2 25 23 39 85 58 51 69
REMARK Flexibility Score: inf
ROOT
ATOM      1  C   UNL A   1      36.208  33.909  29.001  1.00  0.00     0.023 C 
ENDROOT
BRANCH   1   2
ATOM      2  C   UNL A   1      34.765  34.262  29.345  1.00  0.00     0.023 C 
BRANCH   2   3
ATOM      3  C   UNL A   1      34.329  33.889  30.764  1.00  0.00     0.116 C 
BRANCH   3   4
ATOM      4  N   UNL A   1      34.408  35.032  31.652  1.00  0.00    -0.352 N 
ATOM      5  C   UNL A   1      35.268  35.344  32.657  1.00  0.00     0.256 C 
ATOM      6  O   UNL A   1      35.075  36.425  33.225  1.00  0.00    -0.269 OA
ATOM      7  H   UNL A   1      33.709  35.707  31.499  1.00  0.00     0.163 HD
BRANCH   5   8
ATOM      8  C   UNL A   1      36.440  34.506  33.039  1.00  0.00     0.104 A 
ATOM      9  C   UNL A   1      39.984  31.103  34.358  1.00  0.00     0.167 A 
ATOM     10  N   UNL A   1      39.954  32.139  33.482  1.00  0.00    -0.209 NA
ATOM     11  C   UNL A   1      38.879  30.807  35.160  1.00  0.00     0.166 A 
ATOM     12  C   UNL A   1      38.830  32.894  33.364  1.00  0.00     0.151 A 
ATOM     13  C   UNL A   1      37.756  31.607  35.106  1.00  0.00     0.059 A 
ATOM     14  F   UNL A   1      38.909  29.794  36.040  1.00  0.00    -0.203 F 
ATOM     15  C   UNL A   1      37.742  32.669  34.204  1.00  0.00     0.069 A 
ATOM     16  N   UNL A   1      38.742  33.939  32.387  1.00  0.00    -0.297 N 
ATOM     17  C   UNL A   1      36.605  33.600  34.195  1.00  0.00     0.203 A 
ATOM     18  C   UNL A   1      37.535  34.624  32.264  1.00  0.00     0.111 A 
ATOM     19  O   UNL A   1      35.888  33.602  35.186  1.00  0.00    -0.288 OA
BRANCH   9  20
ATOM     20  N   UNL A   1      41.152  30.391  34.441  1.00  0.00    -0.343 N 
ATOM     21  C   UNL A   1      42.950  27.042  36.333  1.00  0.00     0.332 C 
ATOM     22  N   UNL A   1      42.749  28.235  35.514  1.00  0.00    -0.334 N 
ATOM     23  C   UNL A   1      42.337  29.388  36.352  1.00  0.00     0.283 C 
ATOM     24  C   UNL A   1      41.711  27.984  34.485  1.00  0.00     0.283 C 
ATOM     25  H   UNL A   1      43.634  28.455  35.059  1.00  0.00     0.347 HD
ATOM     26  C   UNL A   1      42.088  30.677  35.524  1.00  0.00     0.179 C 
ATOM     27  C   UNL A   1      41.430  29.225  33.611  1.00  0.00     0.179 C 
ENDBRANCH   9  20
BRANCH  16  28
ATOM     28  C   UNL A   1      39.819  34.252  31.501  1.00  0.00     0.083 A 
ATOM     29  C   UNL A   1      39.659  34.150  30.109  1.00  0.00     0.033 A 
ATOM     30  C   UNL A   1      41.065  34.681  31.992  1.00  0.00     0.150 A 
ATOM     31  C   UNL A   1      40.710  34.473  29.245  1.00  0.00     0.041 A 
ATOM     32  C   UNL A   1      42.121  34.993  31.140  1.00  0.00     0.080 A 
ATOM     33  F   UNL A   1      41.272  34.773  33.315  1.00  0.00    -0.205 F 
ATOM     34  C   UNL A   1      41.929  34.887  29.771  1.00  0.00     0.126 A 
ATOM     35  F   UNL A   1      42.936  35.186  28.940  1.00  0.00    -0.207 F 
ENDBRANCH  16  28
ENDBRANCH   5   8
ENDBRANCH   3   4
ENDBRANCH   2   3
ENDBRANCH   1   2
BRANCH   1  36
ATOM     36  C   UNL A   1      36.411  32.487  28.500  1.00  0.00     0.116 C 
BRANCH  36  37
ATOM     37  N   UNL A   1      35.865  31.473  29.392  1.00  0.00    -0.352 N 
ATOM     38  C   UNL A   1      36.492  30.342  29.855  1.00  0.00     0.251 C 
ATOM     39  H   UNL A   1      34.941  31.616  29.698  1.00  0.00     0.163 HD
ATOM     40  O   UNL A   1      35.899  29.526  30.550  1.00  0.00    -0.269 OA
BRANCH  38  41
ATOM     41  C   UNL A   1      37.892  30.116  29.453  1.00  0.00     0.039 A 
ATOM     42  C   UNL A   1      38.896  30.237  30.416  1.00  0.00     0.014 A 
ATOM     43  C   UNL A   1      38.183  29.682  28.157  1.00  0.00     0.014 A 
ATOM     44  C   UNL A   1      40.197  29.859  30.093  1.00  0.00     0.010 A 
ATOM     45  C   UNL A   1      39.471  29.258  27.853  1.00  0.00     0.010 A 
ATOM     46  C   UNL A   1      40.486  29.341  28.820  1.00  0.00    -0.014 A 
BRANCH  46  47
ATOM     47  C   UNL A   1      41.856  28.909  28.468  1.00  0.00     0.031 A 
ATOM     48  C   UNL A   1      42.965  29.918  28.455  1.00  0.00     0.074 A 
ATOM     49  C   UNL A   1      42.087  27.629  28.120  1.00  0.00     0.049 A 
ATOM     50  N   UNL A   1      44.221  29.760  28.131  1.00  0.00    -0.248 NA
ATOM     51  C   UNL A   1      42.610  31.295  28.840  1.00  0.00     0.031 C 
ATOM     52  C   UNL A   1      41.079  26.568  28.068  1.00  0.00     0.029 A 
ATOM     53  N   UNL A   1      43.247  27.003  27.740  1.00  0.00    -0.354 N 
ATOM     54  C   UNL A   1      44.805  31.010  28.276  1.00  0.00     0.074 A 
ATOM     55  C   UNL A   1      43.758  31.930  28.662  1.00  0.00     0.031 C 
ATOM     56  C   UNL A   1      41.668  25.419  27.698  1.00  0.00     0.029 A 
ATOM     57  C   UNL A   1      43.089  25.665  27.465  1.00  0.00     0.049 A 
ATOM     58  H   UNL A   1      44.111  27.469  27.670  1.00  0.00     0.167 HD
ATOM     59  C   UNL A   1      46.106  31.355  28.127  1.00  0.00     0.037 A 
ATOM     60  C   UNL A   1      43.991  24.746  27.073  1.00  0.00     0.037 A 
ATOM     61  C   UNL A   1      47.146  30.434  27.758  1.00  0.00     0.049 A 
ATOM     62  C   UNL A   1      45.426  25.158  26.892  1.00  0.00     0.074 A 
ATOM     63  C   UNL A   1      48.499  30.678  27.608  1.00  0.00     0.029 A 
ATOM     64  N   UNL A   1      46.946  29.089  27.483  1.00  0.00    -0.354 N 
ATOM     65  N   UNL A   1      45.972  26.339  27.065  1.00  0.00    -0.248 NA
ATOM     66  C   UNL A   1      46.369  24.116  26.462  1.00  0.00     0.031 C 
ATOM     67  C   UNL A   1      49.115  29.483  27.220  1.00  0.00     0.029 A 
ATOM     68  C   UNL A   1      48.150  28.490  27.156  1.00  0.00     0.049 A 
ATOM     69  H   UNL A   1      46.077  28.629  27.517  1.00  0.00     0.167 HD
ATOM     70  C   UNL A   1      47.323  26.177  26.786  1.00  0.00     0.074 A 
ATOM     71  C   UNL A   1      47.515  24.784  26.438  1.00  0.00     0.031 C 
ATOM     72  C   UNL A   1      48.316  27.099  26.817  1.00  0.00     0.037 A 
BRANCH  59  73
ATOM     73  C   UNL A   1      46.466  32.788  28.382  1.00  0.00     0.058 A 
ATOM     74  C   UNL A   1      46.438  33.739  27.348  1.00  0.00     0.135 A 
ATOM     75  C   UNL A   1      46.839  33.221  29.663  1.00  0.00     0.135 A 
ATOM     76  F   UNL A   1      46.109  33.370  26.099  1.00  0.00    -0.206 F 
ATOM     77  C   UNL A   1      46.792  35.065  27.571  1.00  0.00     0.059 A 
ATOM     78  C   UNL A   1      47.176  34.547  29.914  1.00  0.00     0.059 A 
ATOM     79  F   UNL A   1      46.888  32.349  30.682  1.00  0.00    -0.206 F 
ATOM     80  C   UNL A   1      47.164  35.458  28.857  1.00  0.00     0.060 A 
BRANCH  80  81
ATOM     81  S   UNL A   1      47.629  37.181  29.131  1.00  0.00     0.124 S 
ATOM     82  O   UNL A   1      47.521  37.728  27.782  1.00  0.00    -0.237 OA
ATOM     83  O   UNL A   1      46.616  37.632  30.080  1.00  0.00    -0.237 OA
ATOM     84  O   UNL A   1      48.984  37.087  29.663  1.00  0.00    -0.744 OA
ENDBRANCH  80  81
ENDBRANCH  59  73
BRANCH  60  85
ATOM     85  C   UNL A   1      43.570  23.338  26.864  1.00  0.00     0.058 A 
ATOM     86  C   UNL A   1      43.309  22.500  27.958  1.00  0.00     0.135 A 
ATOM     87  C   UNL A   1      43.399  22.808  25.576  1.00  0.00     0.135 A 
ATOM     88  F   UNL A   1      43.466  22.962  29.208  1.00  0.00    -0.206 F 
ATOM     89  C   UNL A   1      42.898  21.182  27.784  1.00  0.00     0.059 A 
ATOM     90  C   UNL A   1      42.973  21.498  25.378  1.00  0.00     0.059 A 
ATOM     91  F   UNL A   1      43.625  23.575  24.499  1.00  0.00    -0.206 F 
ATOM     92  C   UNL A   1      42.730  20.691  26.489  1.00  0.00     0.060 A 
BRANCH  92  93
ATOM     93  S   UNL A   1      42.141  18.996  26.277  1.00  0.00     0.124 S 
ATOM     94  O   UNL A   1      40.787  19.216  25.781  1.00  0.00    -0.237 OA
ATOM     95  O   UNL A   1      43.096  18.458  25.314  1.00  0.00    -0.237 OA
ATOM     96  O   UNL A   1      42.239  18.439  27.623  1.00  0.00    -0.744 OA
ENDBRANCH  92  93
ENDBRANCH  60  85
BRANCH  72  97
ATOM     97  C   UNL A   1      49.703  26.634  26.480  1.00  0.00     0.058 A 
ATOM     98  C   UNL A   1      50.541  26.074  27.456  1.00  0.00     0.135 A 
ATOM     99  C   UNL A   1      50.166  26.676  25.156  1.00  0.00     0.135 A 
ATOM    100  F   UNL A   1      50.144  26.019  28.737  1.00  0.00    -0.206 F 
ATOM    101  C   UNL A   1      51.796  25.573  27.130  1.00  0.00     0.059 A 
ATOM    102  C   UNL A   1      51.410  26.164  24.804  1.00  0.00     0.059 A 
ATOM    103  F   UNL A   1      49.396  27.195  24.186  1.00  0.00    -0.206 F 
ATOM    104  C   UNL A   1      52.220  25.618  25.800  1.00  0.00     0.060 A 
BRANCH 104 105
ATOM    105  S   UNL A   1      53.827  24.911  25.380  1.00  0.00     0.124 S 
ATOM    106  O   UNL A   1      54.236  25.753  24.261  1.00  0.00    -0.237 OA
ATOM    107  O   UNL A   1      54.582  25.091  26.617  1.00  0.00    -0.237 OA
ATOM    108  O   UNL A   1      53.510  23.526  25.043  1.00  0.00    -0.744 OA
ENDBRANCH 104 105
ENDBRANCH  72  97
ENDBRANCH  46  47
ENDBRANCH  38  41
ENDBRANCH  36  37
ENDBRANCH   1  36
TORSDOF 16
ENDMDL
MODEL 3
REMARK VINA RESULT:      -9.6      4.611     12.172
REMARK SMILES C[NH+]1CCN(c2nc3c(cc2F)c(=O)c(C(=O)NCCCCNC(=O)c2ccc(-c4c5nc(c(-c6c(F)cc(S(=O)(=O)[O-])cc6F)c6ccc([nH]6)c(-c6c(F)cc(S(=O)(=O)[O-])cc6F)c6nc(c(-c7c(F)cc(S(=O)(=O)[O-])cc7F)c7ccc4[nH]7)C=C6)C=C5)cc2)cn3-c2ccc(F)cc2F)CC1
REMARK SMILES IDX 21 1 20 2 19 3 18 4 16 5 17 6 15 8 6 9 7 10 11 11 8 12 10 13
REMARK SMILES IDX 12 14 9 15 93 16 13 17 92 18 14 19 5 20 1 21 2 22 3 23
REMARK SMILES IDX 103 24 4 26 102 27 94 28 95 29 100 30 96 31 99 32 101 33
REMARK SMILES IDX 97 34 98 35 22 36 23 37 24 38 25 40 26 41 27 42 91 43 28 44
REMARK SMILES IDX 90 45 29 46 30 47 31 48 84 49 32 50 89 51 83 52 85 53 33 54
REMARK SMILES IDX 88 55 82 56 81 57 34 59 68 60 47 61 67 62 48 63 51 64 66 65
REMARK SMILES IDX 86 66 49 67 50 68 65 70 87 71 52 72 35 73 36 74 45 75 37 76
REMARK SMILES IDX 38 77 44 78 46 79 39 80 40 81 41 82 42 83 43 84 69 85 70 86
REMARK SMILES IDX 79 87 71 88 72 89 78 90 80 91 73 92 74 93 75 94 76 95 77 96
REMARK SMILES IDX 53 97 54 98 63 99 55 100 56 101 62 102 64 103 57 104 58 105
REMARK SMILES IDX 59 106 60 107 61 108
REMARK H PARENT 18 7 2 25 23 39 85 58 51 69
REMARK Flexibility Score: inf
ROOT
ATOM      1  C   UNL A   1      38.423  33.775  31.049  1.00  0.00     0.023 C 
ENDROOT
BRANCH   1   2
ATOM      2  C   UNL A   1      39.898  33.438  30.863  1.00  0.00     0.023 C 
BRANCH   2   3
ATOM      3  C   UNL A   1      40.588  32.853  32.097  1.00  0.00     0.116 C 
BRANCH   3   4
ATOM      4  N   UNL A   1      41.947  33.344  32.217  1.00  0.00    -0.352 N 
ATOM      5  C   UNL A   1      43.064  32.804  32.773  1.00  0.00     0.256 C 
ATOM      6  O   UNL A   1      44.095  33.480  32.695  1.00  0.00    -0.269 OA
ATOM      7  H   UNL A   1      42.088  34.235  31.822  1.00  0.00     0.163 HD
BRANCH   5   8
ATOM      8  C   UNL A   1      43.113  31.444  33.382  1.00  0.00     0.104 A 
ATOM      9  C   UNL A   1      42.577  26.846  35.492  1.00  0.00     0.167 A 
ATOM     10  N   UNL A   1      43.358  27.340  34.499  1.00  0.00    -0.209 NA
ATOM     11  C   UNL A   1      41.699  27.674  36.196  1.00  0.00     0.166 A 
ATOM     12  C   UNL A   1      43.279  28.656  34.165  1.00  0.00     0.151 A 
ATOM     13  C   UNL A   1      41.658  29.026  35.920  1.00  0.00     0.059 A 
ATOM     14  F   UNL A   1      40.936  27.195  37.191  1.00  0.00    -0.203 F 
ATOM     15  C   UNL A   1      42.469  29.519  34.900  1.00  0.00     0.069 A 
ATOM     16  N   UNL A   1      44.029  29.184  33.065  1.00  0.00    -0.297 N 
ATOM     17  C   UNL A   1      42.526  30.965  34.651  1.00  0.00     0.203 A 
ATOM     18  C   UNL A   1      43.844  30.523  32.725  1.00  0.00     0.111 A 
ATOM     19  O   UNL A   1      42.125  31.693  35.548  1.00  0.00    -0.288 OA
BRANCH   9  20
ATOM     20  N   UNL A   1      42.715  25.516  35.791  1.00  0.00    -0.343 N 
ATOM     21  C   UNL A   1      45.379  22.227  35.452  1.00  0.00     0.332 C 
ATOM     22  N   UNL A   1      44.201  23.038  35.748  1.00  0.00    -0.334 N 
ATOM     23  C   UNL A   1      43.639  23.627  34.509  1.00  0.00     0.283 C 
ATOM     24  C   UNL A   1      44.549  24.127  36.693  1.00  0.00     0.283 C 
ATOM     25  H   UNL A   1      43.501  22.429  36.173  1.00  0.00     0.347 HD
ATOM     26  C   UNL A   1      42.396  24.519  34.773  1.00  0.00     0.179 C 
ATOM     27  C   UNL A   1      43.347  25.040  37.015  1.00  0.00     0.179 C 
ENDBRANCH   9  20
BRANCH  16  28
ATOM     28  C   UNL A   1      44.901  28.374  32.273  1.00  0.00     0.083 A 
ATOM     29  C   UNL A   1      46.290  28.589  32.283  1.00  0.00     0.033 A 
ATOM     30  C   UNL A   1      44.401  27.334  31.470  1.00  0.00     0.150 A 
ATOM     31  C   UNL A   1      47.141  27.785  31.520  1.00  0.00     0.041 A 
ATOM     32  C   UNL A   1      45.240  26.536  30.698  1.00  0.00     0.080 A 
ATOM     33  F   UNL A   1      43.079  27.106  31.412  1.00  0.00    -0.205 F 
ATOM     34  C   UNL A   1      46.606  26.770  30.734  1.00  0.00     0.126 A 
ATOM     35  F   UNL A   1      47.424  26.008  29.996  1.00  0.00    -0.207 F 
ENDBRANCH  16  28
ENDBRANCH   5   8
ENDBRANCH   3   4
ENDBRANCH   2   3
ENDBRANCH   1   2
BRANCH   1  36
ATOM     36  C   UNL A   1      37.493  33.148  30.020  1.00  0.00     0.116 C 
BRANCH  36  37
ATOM     37  N   UNL A   1      36.538  32.211  30.595  1.00  0.00    -0.352 N 
ATOM     38  C   UNL A   1      36.670  30.849  30.712  1.00  0.00     0.251 C 
ATOM     39  H   UNL A   1      35.702  32.599  30.941  1.00  0.00     0.163 HD
ATOM     40  O   UNL A   1      35.761  30.157  31.155  1.00  0.00    -0.269 OA
BRANCH  38  41
ATOM     41  C   UNL A   1      37.927  30.236  30.247  1.00  0.00     0.039 A 
ATOM     42  C   UNL A   1      38.203  30.224  28.878  1.00  0.00     0.014 A 
ATOM     43  C   UNL A   1      38.866  29.779  31.177  1.00  0.00     0.014 A 
ATOM     44  C   UNL A   1      39.459  29.807  28.441  1.00  0.00     0.010 A 
ATOM     45  C   UNL A   1      40.133  29.411  30.742  1.00  0.00     0.010 A 
ATOM     46  C   UNL A   1      40.439  29.426  29.372  1.00  0.00    -0.014 A 
BRANCH  46  47
ATOM     47  C   UNL A   1      41.786  29.007  28.928  1.00  0.00     0.031 A 
ATOM     48  C   UNL A   1      42.899  30.012  28.908  1.00  0.00     0.074 A 
ATOM     49  C   UNL A   1      41.991  27.745  28.505  1.00  0.00     0.049 A 
ATOM     50  N   UNL A   1      44.135  29.865  28.511  1.00  0.00    -0.248 NA
ATOM     51  C   UNL A   1      42.573  31.369  29.378  1.00  0.00     0.031 C 
ATOM     52  C   UNL A   1      40.975  26.691  28.453  1.00  0.00     0.029 A 
ATOM     53  N   UNL A   1      43.127  27.135  28.034  1.00  0.00    -0.354 N 
ATOM     54  C   UNL A   1      44.734  31.105  28.687  1.00  0.00     0.074 A 
ATOM     55  C   UNL A   1      43.714  32.008  29.173  1.00  0.00     0.031 C 
ATOM     56  C   UNL A   1      41.538  25.561  27.997  1.00  0.00     0.029 A 
ATOM     57  C   UNL A   1      42.946  25.813  27.702  1.00  0.00     0.049 A 
ATOM     58  H   UNL A   1      43.989  27.601  27.943  1.00  0.00     0.167 HD
ATOM     59  C   UNL A   1      46.027  31.452  28.487  1.00  0.00     0.037 A 
ATOM     60  C   UNL A   1      43.821  24.912  27.218  1.00  0.00     0.037 A 
ATOM     61  C   UNL A   1      47.041  30.548  28.020  1.00  0.00     0.049 A 
ATOM     62  C   UNL A   1      45.247  25.327  26.983  1.00  0.00     0.074 A 
ATOM     63  C   UNL A   1      48.386  30.794  27.812  1.00  0.00     0.029 A 
ATOM     64  N   UNL A   1      46.820  29.219  27.689  1.00  0.00    -0.354 N 
ATOM     65  N   UNL A   1      45.809  26.496  27.186  1.00  0.00    -0.248 NA
ATOM     66  C   UNL A   1      46.160  24.305  26.454  1.00  0.00     0.031 C 
ATOM     67  C   UNL A   1      48.974  29.618  27.333  1.00  0.00     0.029 A 
ATOM     68  C   UNL A   1      48.001  28.633  27.270  1.00  0.00     0.049 A 
ATOM     69  H   UNL A   1      45.950  28.760  27.746  1.00  0.00     0.167 HD
ATOM     70  C   UNL A   1      47.143  26.344  26.829  1.00  0.00     0.074 A 
ATOM     71  C   UNL A   1      47.308  24.970  26.403  1.00  0.00     0.031 C 
ATOM     72  C   UNL A   1      48.141  27.260  26.854  1.00  0.00     0.037 A 
BRANCH  59  73
ATOM     73  C   UNL A   1      46.409  32.870  28.794  1.00  0.00     0.058 A 
ATOM     74  C   UNL A   1      46.815  33.250  30.084  1.00  0.00     0.135 A 
ATOM     75  C   UNL A   1      46.376  33.857  27.798  1.00  0.00     0.135 A 
ATOM     76  F   UNL A   1      46.842  32.346  31.078  1.00  0.00    -0.206 F 
ATOM     77  C   UNL A   1      47.150  34.565  30.383  1.00  0.00     0.059 A 
ATOM     78  C   UNL A   1      46.728  35.176  28.069  1.00  0.00     0.059 A 
ATOM     79  F   UNL A   1      45.988  33.546  26.551  1.00  0.00    -0.206 F 
ATOM     80  C   UNL A   1      47.098  35.523  29.369  1.00  0.00     0.060 A 
BRANCH  80  81
ATOM     81  S   UNL A   1      47.528  37.229  29.772  1.00  0.00     0.124 S 
ATOM     82  O   UNL A   1      47.063  37.326  31.152  1.00  0.00    -0.237 OA
ATOM     83  O   UNL A   1      48.976  37.239  29.590  1.00  0.00    -0.237 OA
ATOM     84  O   UNL A   1      46.771  38.009  28.799  1.00  0.00    -0.744 OA
ENDBRANCH  80  81
ENDBRANCH  59  73
BRANCH  60  85
ATOM     85  C   UNL A   1      43.382  23.517  26.961  1.00  0.00     0.058 A 
ATOM     86  C   UNL A   1      43.111  23.082  25.656  1.00  0.00     0.135 A 
ATOM     87  C   UNL A   1      43.246  22.588  28.004  1.00  0.00     0.135 A 
ATOM     88  F   UNL A   1      43.221  23.938  24.628  1.00  0.00    -0.206 F 
ATOM     89  C   UNL A   1      42.714  21.775  25.391  1.00  0.00     0.059 A 
ATOM     90  C   UNL A   1      42.866  21.271  27.762  1.00  0.00     0.059 A 
ATOM     91  F   UNL A   1      43.506  22.955  29.268  1.00  0.00    -0.206 F 
ATOM     92  C   UNL A   1      42.597  20.876  26.452  1.00  0.00     0.060 A 
BRANCH  92  93
ATOM     93  S   UNL A   1      42.137  19.167  26.089  1.00  0.00     0.124 S 
ATOM     94  O   UNL A   1      43.043  18.845  24.993  1.00  0.00    -0.237 OA
ATOM     95  O   UNL A   1      42.407  18.500  27.359  1.00  0.00    -0.237 OA
ATOM     96  O   UNL A   1      40.724  19.271  25.732  1.00  0.00    -0.744 OA
ENDBRANCH  92  93
ENDBRANCH  60  85
BRANCH  72  97
ATOM     97  C   UNL A   1      49.506  26.808  26.423  1.00  0.00     0.058 A 
ATOM     98  C   UNL A   1      50.399  26.220  27.331  1.00  0.00     0.135 A 
ATOM     99  C   UNL A   1      49.890  26.889  25.076  1.00  0.00     0.135 A 
ATOM    100  F   UNL A   1      50.078  26.127  28.630  1.00  0.00    -0.206 F 
ATOM    101  C   UNL A   1      51.633  25.731  26.917  1.00  0.00     0.059 A 
ATOM    102  C   UNL A   1      51.112  26.391  24.637  1.00  0.00     0.059 A 
ATOM    103  F   UNL A   1      49.064  27.436  24.169  1.00  0.00    -0.206 F 
ATOM    104  C   UNL A   1      51.979  25.817  25.567  1.00  0.00     0.060 A 
BRANCH 104 105
ATOM    105  S   UNL A   1      53.559  25.125  25.032  1.00  0.00     0.124 S 
ATOM    106  O   UNL A   1      54.485  25.746  25.973  1.00  0.00    -0.237 OA
ATOM    107  O   UNL A   1      53.347  23.691  25.204  1.00  0.00    -0.237 OA
ATOM    108  O   UNL A   1      53.673  25.574  23.648  1.00  0.00    -0.744 OA
ENDBRANCH 104 105
ENDBRANCH  72  97
ENDBRANCH  46  47
ENDBRANCH  38  41
ENDBRANCH  36  37
ENDBRANCH   1  36
TORSDOF 16
ENDMDL
