MODEL 1
REMARK VINA RESULT:     -11.9      0.000      0.000
REMARK SMILES C[C@@H]1CCC[C@@H](N(C)C(=O)N2CCC(CC(=O)NCCCCNC(=O)c3ccc(-c4c5nc(c(-c6c(F)cc(S(=O)(=O)[O-])cc6F)c6ccc([nH]6)c(-c6c(F)cc(S(=O)(=O)[O-])cc6F)c6nc(c(-c7c(F)cc(S(=O)(=O)[O-])cc7F)c7ccc4[nH]7)C=C6)C=C5)cc3)CC2)C1
REMARK SMILES IDX 20 1 19 2 18 3 16 4 17 5 15 7 14 8 9 9 10 10 11 11 12 12
REMARK SMILES IDX 93 13 13 14 92 15 7 16 8 17 6 18 1 19 2 20 3 21 94 22 4 23
REMARK SMILES IDX 5 24 21 25 22 26 23 27 24 28 25 30 26 31 27 32 91 33 28 34
REMARK SMILES IDX 90 35 29 36 30 37 31 38 84 39 32 40 89 41 83 42 85 43 33 44
REMARK SMILES IDX 88 45 82 46 81 47 34 49 68 50 47 51 67 52 48 53 51 54 66 55
REMARK SMILES IDX 86 56 49 57 50 58 65 60 87 61 52 62 35 63 36 64 45 65 37 66
REMARK SMILES IDX 38 67 44 68 46 69 39 70 40 71 41 72 42 73 43 74 69 75 70 76
REMARK SMILES IDX 79 77 71 78 72 79 78 80 80 81 73 82 74 83 75 84 76 85 77 86
REMARK SMILES IDX 53 87 54 88 63 89 55 90 56 91 62 92 64 93 57 94 58 95 59 96
REMARK SMILES IDX 60 97 61 98
REMARK H PARENT 18 6 23 29 85 48 51 59
REMARK Flexibility Score: inf
ROOT
ATOM      1  C   UNL A   1      31.997  29.253  25.484  1.00  0.00     0.023 C 
ENDROOT
BRANCH   1   2
ATOM      2  C   UNL A   1      31.521  29.062  24.039  1.00  0.00     0.116 C 
BRANCH   2   3
ATOM      3  N   UNL A   1      32.642  28.927  23.122  1.00  0.00    -0.356 N 
ATOM      4  C   UNL A   1      33.112  27.840  22.446  1.00  0.00     0.220 C 
ATOM      5  O   UNL A   1      34.144  27.966  21.782  1.00  0.00    -0.275 OA
ATOM      6  H   UNL A   1      33.146  29.758  22.965  1.00  0.00     0.163 HD
BRANCH   4   7
ATOM      7  C   UNL A   1      32.391  26.498  22.502  1.00  0.00     0.103 C 
BRANCH   7   8
ATOM      8  C   UNL A   1      32.797  25.620  23.704  1.00  0.00     0.002 C 
ATOM      9  C   UNL A   1      33.150  21.676  24.125  1.00  0.00     0.319 C 
ATOM     10  O   UNL A   1      32.357  21.441  23.218  1.00  0.00    -0.248 OA
ATOM     11  N   UNL A   1      33.216  22.921  24.724  1.00  0.00    -0.325 N 
ATOM     12  C   UNL A   1      31.999  23.599  25.087  1.00  0.00     0.121 C 
ATOM     13  C   UNL A   1      34.368  23.780  24.498  1.00  0.00     0.121 C 
ATOM     14  C   UNL A   1      31.653  24.686  24.094  1.00  0.00     0.026 C 
ATOM     15  C   UNL A   1      34.069  24.809  23.401  1.00  0.00     0.026 C 
BRANCH   9  16
ATOM     16  N   UNL A   1      34.032  20.742  24.654  1.00  0.00    -0.325 N 
ATOM     17  C   UNL A   1      35.237  21.148  25.368  1.00  0.00     0.149 C 
BRANCH  16  18
ATOM     18  C   UNL A   1      33.761  19.301  24.592  1.00  0.00     0.086 C 
ATOM     19  C   UNL A   1      34.225  16.653  22.907  1.00  0.00     0.008 C 
ATOM     20  C   UNL A   1      34.668  16.931  24.346  1.00  0.00    -0.012 C 
ATOM     21  C   UNL A   1      33.616  16.458  25.367  1.00  0.00     0.003 C 
ATOM     22  C   UNL A   1      35.017  18.416  24.558  1.00  0.00     0.028 C 
ATOM     23  C   UNL A   1      32.401  17.382  25.473  1.00  0.00     0.002 C 
ATOM     24  C   UNL A   1      32.805  18.838  25.696  1.00  0.00     0.025 C 
ENDBRANCH  16  18
ENDBRANCH   9  16
ENDBRANCH   7   8
ENDBRANCH   4   7
ENDBRANCH   2   3
ENDBRANCH   1   2
BRANCH   1  25
ATOM     25  C   UNL A   1      32.722  28.075  26.107  1.00  0.00     0.023 C 
BRANCH  25  26
ATOM     26  C   UNL A   1      33.807  28.458  27.089  1.00  0.00     0.116 C 
BRANCH  26  27
ATOM     27  N   UNL A   1      33.683  29.813  27.606  1.00  0.00    -0.352 N 
ATOM     28  C   UNL A   1      34.642  30.578  28.233  1.00  0.00     0.251 C 
ATOM     29  H   UNL A   1      32.801  30.238  27.494  1.00  0.00     0.163 HD
ATOM     30  O   UNL A   1      34.364  31.675  28.696  1.00  0.00    -0.269 OA
BRANCH  28  31
ATOM     31  C   UNL A   1      36.004  30.021  28.377  1.00  0.00     0.039 A 
ATOM     32  C   UNL A   1      36.892  30.112  27.303  1.00  0.00     0.014 A 
ATOM     33  C   UNL A   1      36.425  29.498  29.602  1.00  0.00     0.014 A 
ATOM     34  C   UNL A   1      38.224  29.743  27.486  1.00  0.00     0.010 A 
ATOM     35  C   UNL A   1      37.772  29.252  29.814  1.00  0.00     0.010 A 
ATOM     36  C   UNL A   1      38.683  29.348  28.753  1.00  0.00    -0.014 A 
BRANCH  36  37
ATOM     37  C   UNL A   1      40.102  28.986  28.985  1.00  0.00     0.031 A 
ATOM     38  C   UNL A   1      41.038  30.003  29.583  1.00  0.00     0.074 A 
ATOM     39  C   UNL A   1      40.559  27.776  28.603  1.00  0.00     0.049 A 
ATOM     40  N   UNL A   1      42.320  29.908  29.818  1.00  0.00    -0.248 NA
ATOM     41  C   UNL A   1      40.465  31.318  29.923  1.00  0.00     0.031 C 
ATOM     42  C   UNL A   1      39.764  26.739  27.938  1.00  0.00     0.029 A 
ATOM     43  N   UNL A   1      41.804  27.214  28.715  1.00  0.00    -0.354 N 
ATOM     44  C   UNL A   1      42.706  31.151  30.306  1.00  0.00     0.074 A 
ATOM     45  C   UNL A   1      41.543  32.006  30.265  1.00  0.00     0.031 C 
ATOM     46  C   UNL A   1      40.532  25.654  27.740  1.00  0.00     0.029 A 
ATOM     47  C   UNL A   1      41.877  25.929  28.234  1.00  0.00     0.049 A 
ATOM     48  H   UNL A   1      42.575  27.689  29.104  1.00  0.00     0.167 HD
ATOM     49  C   UNL A   1      43.913  31.536  30.783  1.00  0.00     0.037 A 
ATOM     50  C   UNL A   1      42.912  25.066  28.208  1.00  0.00     0.037 A 
ATOM     51  C   UNL A   1      45.050  30.662  30.871  1.00  0.00     0.049 A 
ATOM     52  C   UNL A   1      44.226  25.495  28.801  1.00  0.00     0.074 A 
ATOM     53  C   UNL A   1      46.301  30.924  31.399  1.00  0.00     0.029 A 
ATOM     54  N   UNL A   1      45.067  29.346  30.429  1.00  0.00    -0.354 N 
ATOM     55  N   UNL A   1      44.557  26.653  29.322  1.00  0.00    -0.248 NA
ATOM     56  C   UNL A   1      45.303  24.496  28.820  1.00  0.00     0.031 C 
ATOM     57  C   UNL A   1      47.085  29.774  31.249  1.00  0.00     0.029 A 
ATOM     58  C   UNL A   1      46.309  28.784  30.669  1.00  0.00     0.049 A 
ATOM     59  H   UNL A   1      44.308  28.881  30.008  1.00  0.00     0.167 HD
ATOM     60  C   UNL A   1      45.869  26.513  29.761  1.00  0.00     0.074 A 
ATOM     61  C   UNL A   1      46.267  25.154  29.452  1.00  0.00     0.031 C 
ATOM     62  C   UNL A   1      46.673  27.423  30.364  1.00  0.00     0.037 A 
BRANCH  49  63
ATOM     63  C   UNL A   1      44.048  32.955  31.266  1.00  0.00     0.058 A 
ATOM     64  C   UNL A   1      43.781  33.308  32.599  1.00  0.00     0.135 A 
ATOM     65  C   UNL A   1      44.461  33.971  30.391  1.00  0.00     0.135 A 
ATOM     66  F   UNL A   1      43.362  32.380  33.474  1.00  0.00    -0.206 F 
ATOM     67  C   UNL A   1      43.886  34.623  33.039  1.00  0.00     0.059 A 
ATOM     68  C   UNL A   1      44.602  35.289  30.816  1.00  0.00     0.059 A 
ATOM     69  F   UNL A   1      44.726  33.691  29.104  1.00  0.00    -0.206 F 
ATOM     70  C   UNL A   1      44.296  35.608  32.139  1.00  0.00     0.060 A 
BRANCH  70  71
ATOM     71  S   UNL A   1      44.433  37.309  32.726  1.00  0.00     0.124 S 
ATOM     72  O   UNL A   1      43.349  37.367  33.702  1.00  0.00    -0.237 OA
ATOM     73  O   UNL A   1      45.783  37.342  33.278  1.00  0.00    -0.237 OA
ATOM     74  O   UNL A   1      44.233  38.103  31.518  1.00  0.00    -0.744 OA
ENDBRANCH  70  71
ENDBRANCH  49  63
BRANCH  50  75
ATOM     75  C   UNL A   1      42.729  23.699  27.653  1.00  0.00     0.058 A 
ATOM     76  C   UNL A   1      42.360  22.628  28.481  1.00  0.00     0.135 A 
ATOM     77  C   UNL A   1      42.900  23.437  26.285  1.00  0.00     0.135 A 
ATOM     78  F   UNL A   1      42.186  22.828  29.797  1.00  0.00    -0.206 F 
ATOM     79  C   UNL A   1      42.189  21.341  27.980  1.00  0.00     0.059 A 
ATOM     80  C   UNL A   1      42.711  22.163  25.756  1.00  0.00     0.059 A 
ATOM     81  F   UNL A   1      43.232  24.430  25.446  1.00  0.00    -0.206 F 
ATOM     82  C   UNL A   1      42.366  21.119  26.614  1.00  0.00     0.060 A 
BRANCH  82  83
ATOM     83  S   UNL A   1      42.095  19.456  25.964  1.00  0.00     0.124 S 
ATOM     84  O   UNL A   1      42.595  18.628  27.056  1.00  0.00    -0.237 OA
ATOM     85  O   UNL A   1      40.651  19.436  25.759  1.00  0.00    -0.237 OA
ATOM     86  O   UNL A   1      42.894  19.440  24.741  1.00  0.00    -0.744 OA
ENDBRANCH  82  83
ENDBRANCH  50  75
BRANCH  62  87
ATOM     87  C   UNL A   1      48.045  26.965  30.771  1.00  0.00     0.058 A 
ATOM     88  C   UNL A   1      49.160  27.139  29.937  1.00  0.00     0.135 A 
ATOM     89  C   UNL A   1      48.248  26.379  32.031  1.00  0.00     0.135 A 
ATOM     90  F   UNL A   1      49.016  27.692  28.723  1.00  0.00    -0.206 F 
ATOM     91  C   UNL A   1      50.427  26.718  30.327  1.00  0.00     0.059 A 
ATOM     92  C   UNL A   1      49.510  25.975  32.451  1.00  0.00     0.059 A 
ATOM     93  F   UNL A   1      47.215  26.204  32.871  1.00  0.00    -0.206 F 
ATOM     94  C   UNL A   1      50.591  26.135  31.585  1.00  0.00     0.060 A 
BRANCH  94  95
ATOM     95  S   UNL A   1      52.242  25.605  32.086  1.00  0.00     0.124 S 
ATOM     96  O   UNL A   1      53.020  25.897  30.886  1.00  0.00    -0.237 OA
ATOM     97  O   UNL A   1      52.510  26.458  33.239  1.00  0.00    -0.237 OA
ATOM     98  O   UNL A   1      52.064  24.187  32.390  1.00  0.00    -0.744 OA
ENDBRANCH  94  95
ENDBRANCH  62  87
ENDBRANCH  36  37
ENDBRANCH  28  31
ENDBRANCH  26  27
ENDBRANCH  25  26
ENDBRANCH   1  25
TORSDOF 17
ENDMDL
MODEL 2
REMARK VINA RESULT:     -11.8      4.125      7.228
REMARK SMILES C[C@@H]1CCC[C@@H](N(C)C(=O)N2CCC(CC(=O)NCCCCNC(=O)c3ccc(-c4c5nc(c(-c6c(F)cc(S(=O)(=O)[O-])cc6F)c6ccc([nH]6)c(-c6c(F)cc(S(=O)(=O)[O-])cc6F)c6nc(c(-c7c(F)cc(S(=O)(=O)[O-])cc7F)c7ccc4[nH]7)C=C6)C=C5)cc3)CC2)C1
REMARK SMILES IDX 20 1 19 2 18 3 16 4 17 5 15 7 14 8 9 9 10 10 11 11 12 12
REMARK SMILES IDX 93 13 13 14 92 15 7 16 8 17 6 18 1 19 2 20 3 21 94 22 4 23
REMARK SMILES IDX 5 24 21 25 22 26 23 27 24 28 25 30 26 31 27 32 91 33 28 34
REMARK SMILES IDX 90 35 29 36 30 37 31 38 84 39 32 40 89 41 83 42 85 43 33 44
REMARK SMILES IDX 88 45 82 46 81 47 34 49 68 50 47 51 67 52 48 53 51 54 66 55
REMARK SMILES IDX 86 56 49 57 50 58 65 60 87 61 52 62 35 63 36 64 45 65 37 66
REMARK SMILES IDX 38 67 44 68 46 69 39 70 40 71 41 72 42 73 43 74 69 75 70 76
REMARK SMILES IDX 79 77 71 78 72 79 78 80 80 81 73 82 74 83 75 84 76 85 77 86
REMARK SMILES IDX 53 87 54 88 63 89 55 90 56 91 62 92 64 93 57 94 58 95 59 96
REMARK SMILES IDX 60 97 61 98
REMARK H PARENT 18 6 23 29 85 48 51 59
REMARK Flexibility Score: inf
ROOT
ATOM      1  C   UNL A   1      36.671  32.241  31.802  1.00  0.00     0.023 C 
ENDROOT
BRANCH   1   2
ATOM      2  C   UNL A   1      36.772  31.811  33.271  1.00  0.00     0.116 C 
BRANCH   2   3
ATOM      3  N   UNL A   1      37.116  30.402  33.391  1.00  0.00    -0.356 N 
ATOM      4  C   UNL A   1      38.286  29.749  33.138  1.00  0.00     0.220 C 
ATOM      5  O   UNL A   1      38.303  28.520  33.242  1.00  0.00    -0.275 OA
ATOM      6  H   UNL A   1      36.383  29.826  33.706  1.00  0.00     0.163 HD
BRANCH   4   7
ATOM      7  C   UNL A   1      39.547  30.505  32.736  1.00  0.00     0.103 C 
BRANCH   7   8
ATOM      8  C   UNL A   1      40.740  30.282  33.689  1.00  0.00     0.002 C 
ATOM      9  C   UNL A   1      42.136  27.020  35.497  1.00  0.00     0.319 C 
ATOM     10  O   UNL A   1      41.048  26.454  35.461  1.00  0.00    -0.248 OA
ATOM     11  N   UNL A   1      42.247  28.388  35.313  1.00  0.00    -0.325 N 
ATOM     12  C   UNL A   1      41.328  29.270  35.984  1.00  0.00     0.121 C 
ATOM     13  C   UNL A   1      42.848  28.914  34.098  1.00  0.00     0.121 C 
ATOM     14  C   UNL A   1      40.254  29.768  35.043  1.00  0.00     0.026 C 
ATOM     15  C   UNL A   1      41.766  29.308  33.085  1.00  0.00     0.026 C 
BRANCH   9  16
ATOM     16  N   UNL A   1      43.345  26.379  35.738  1.00  0.00    -0.325 N 
ATOM     17  C   UNL A   1      44.166  26.708  36.896  1.00  0.00     0.149 C 
BRANCH  16  18
ATOM     18  C   UNL A   1      43.822  25.283  34.886  1.00  0.00     0.086 C 
ATOM     19  C   UNL A   1      44.879  22.292  34.870  1.00  0.00     0.008 C 
ATOM     20  C   UNL A   1      43.629  22.842  34.177  1.00  0.00    -0.012 C 
ATOM     21  C   UNL A   1      43.923  23.273  32.729  1.00  0.00     0.003 C 
ATOM     22  C   UNL A   1      42.994  23.993  34.980  1.00  0.00     0.028 C 
ATOM     23  C   UNL A   1      44.671  24.603  32.621  1.00  0.00     0.002 C 
ATOM     24  C   UNL A   1      43.991  25.711  33.423  1.00  0.00     0.025 C 
ENDBRANCH  16  18
ENDBRANCH   9  16
ENDBRANCH   7   8
ENDBRANCH   4   7
ENDBRANCH   2   3
ENDBRANCH   1   2
BRANCH   1  25
ATOM     25  C   UNL A   1      35.297  32.126  31.169  1.00  0.00     0.023 C 
BRANCH  25  26
ATOM     26  C   UNL A   1      35.244  32.533  29.713  1.00  0.00     0.116 C 
BRANCH  26  27
ATOM     27  N   UNL A   1      34.357  31.710  28.903  1.00  0.00    -0.352 N 
ATOM     28  C   UNL A   1      34.657  30.553  28.218  1.00  0.00     0.251 C 
ATOM     29  H   UNL A   1      33.425  32.020  28.835  1.00  0.00     0.163 HD
ATOM     30  O   UNL A   1      33.822  30.016  27.502  1.00  0.00    -0.269 OA
BRANCH  28  31
ATOM     31  C   UNL A   1      36.023  30.001  28.329  1.00  0.00     0.039 A 
ATOM     32  C   UNL A   1      36.926  30.207  27.285  1.00  0.00     0.014 A 
ATOM     33  C   UNL A   1      36.431  29.366  29.505  1.00  0.00     0.014 A 
ATOM     34  C   UNL A   1      38.260  29.837  27.454  1.00  0.00     0.010 A 
ATOM     35  C   UNL A   1      37.778  29.116  29.715  1.00  0.00     0.010 A 
ATOM     36  C   UNL A   1      38.704  29.326  28.684  1.00  0.00    -0.014 A 
BRANCH  36  37
ATOM     37  C   UNL A   1      40.124  28.959  28.904  1.00  0.00     0.031 A 
ATOM     38  C   UNL A   1      41.075  29.982  29.469  1.00  0.00     0.074 A 
ATOM     39  C   UNL A   1      40.568  27.739  28.540  1.00  0.00     0.049 A 
ATOM     40  N   UNL A   1      42.359  29.884  29.688  1.00  0.00    -0.248 NA
ATOM     41  C   UNL A   1      40.514  31.307  29.790  1.00  0.00     0.031 C 
ATOM     42  C   UNL A   1      39.759  26.694  27.906  1.00  0.00     0.029 A 
ATOM     43  N   UNL A   1      41.812  27.172  28.646  1.00  0.00    -0.354 N 
ATOM     44  C   UNL A   1      42.759  31.134  30.146  1.00  0.00     0.074 A 
ATOM     45  C   UNL A   1      41.601  31.995  30.103  1.00  0.00     0.031 C 
ATOM     46  C   UNL A   1      40.517  25.601  27.720  1.00  0.00     0.029 A 
ATOM     47  C   UNL A   1      41.870  25.877  28.190  1.00  0.00     0.049 A 
ATOM     48  H   UNL A   1      42.591  27.650  29.015  1.00  0.00     0.167 HD
ATOM     49  C   UNL A   1      43.974  31.521  30.599  1.00  0.00     0.037 A 
ATOM     50  C   UNL A   1      42.899  25.008  28.167  1.00  0.00     0.037 A 
ATOM     51  C   UNL A   1      45.108  30.641  30.689  1.00  0.00     0.049 A 
ATOM     52  C   UNL A   1      44.225  25.439  28.734  1.00  0.00     0.074 A 
ATOM     53  C   UNL A   1      46.367  30.906  31.194  1.00  0.00     0.029 A 
ATOM     54  N   UNL A   1      45.111  29.317  30.273  1.00  0.00    -0.354 N 
ATOM     55  N   UNL A   1      44.570  26.606  29.227  1.00  0.00    -0.248 NA
ATOM     56  C   UNL A   1      45.296  24.435  28.758  1.00  0.00     0.031 C 
ATOM     57  C   UNL A   1      47.142  29.748  31.057  1.00  0.00     0.029 A 
ATOM     58  C   UNL A   1      46.352  28.752  30.507  1.00  0.00     0.049 A 
ATOM     59  H   UNL A   1      44.344  28.849  29.872  1.00  0.00     0.167 HD
ATOM     60  C   UNL A   1      45.886  26.466  29.650  1.00  0.00     0.074 A 
ATOM     61  C   UNL A   1      46.272  25.099  29.363  1.00  0.00     0.031 C 
ATOM     62  C   UNL A   1      46.704  27.383  30.224  1.00  0.00     0.037 A 
BRANCH  49  63
ATOM     63  C   UNL A   1      44.126  32.948  31.052  1.00  0.00     0.058 A 
ATOM     64  C   UNL A   1      44.603  33.948  30.189  1.00  0.00     0.135 A 
ATOM     65  C   UNL A   1      43.778  33.323  32.359  1.00  0.00     0.135 A 
ATOM     66  F   UNL A   1      44.970  33.641  28.934  1.00  0.00    -0.206 F 
ATOM     67  C   UNL A   1      44.764  35.262  30.615  1.00  0.00     0.059 A 
ATOM     68  C   UNL A   1      43.902  34.639  32.798  1.00  0.00     0.059 A 
ATOM     69  F   UNL A   1      43.321  32.408  33.228  1.00  0.00    -0.206 F 
ATOM     70  C   UNL A   1      44.411  35.598  31.923  1.00  0.00     0.060 A 
BRANCH  70  71
ATOM     71  S   UNL A   1      44.619  37.309  32.459  1.00  0.00     0.124 S 
ATOM     72  O   UNL A   1      46.051  37.504  32.257  1.00  0.00    -0.237 OA
ATOM     73  O   UNL A   1      43.746  38.033  31.541  1.00  0.00    -0.237 OA
ATOM     74  O   UNL A   1      44.179  37.284  33.850  1.00  0.00    -0.744 OA
ENDBRANCH  70  71
ENDBRANCH  49  63
BRANCH  50  75
ATOM     75  C   UNL A   1      42.701  23.630  27.642  1.00  0.00     0.058 A 
ATOM     76  C   UNL A   1      42.782  23.364  26.267  1.00  0.00     0.135 A 
ATOM     77  C   UNL A   1      42.446  22.550  28.502  1.00  0.00     0.135 A 
ATOM     78  F   UNL A   1      43.023  24.364  25.405  1.00  0.00    -0.206 F 
ATOM     79  C   UNL A   1      42.595  22.083  25.758  1.00  0.00     0.059 A 
ATOM     80  C   UNL A   1      42.280  21.255  28.019  1.00  0.00     0.059 A 
ATOM     81  F   UNL A   1      42.380  22.747  29.827  1.00  0.00    -0.206 F 
ATOM     82  C   UNL A   1      42.345  21.034  26.643  1.00  0.00     0.060 A 
BRANCH  82  83
ATOM     83  S   UNL A   1      42.151  19.366  25.978  1.00  0.00     0.124 S 
ATOM     84  O   UNL A   1      43.012  19.416  24.802  1.00  0.00    -0.237 OA
ATOM     85  O   UNL A   1      42.626  18.537  27.081  1.00  0.00    -0.237 OA
ATOM     86  O   UNL A   1      40.718  19.276  25.710  1.00  0.00    -0.744 OA
ENDBRANCH  82  83
ENDBRANCH  50  75
BRANCH  62  87
ATOM     87  C   UNL A   1      48.079  26.924  30.621  1.00  0.00     0.058 A 
ATOM     88  C   UNL A   1      49.137  26.879  29.702  1.00  0.00     0.135 A 
ATOM     89  C   UNL A   1      48.345  26.563  31.952  1.00  0.00     0.135 A 
ATOM     90  F   UNL A   1      48.933  27.213  28.418  1.00  0.00    -0.206 F 
ATOM     91  C   UNL A   1      50.408  26.460  30.082  1.00  0.00     0.059 A 
ATOM     92  C   UNL A   1      49.613  26.166  32.359  1.00  0.00     0.059 A 
ATOM     93  F   UNL A   1      47.368  26.602  32.873  1.00  0.00    -0.206 F 
ATOM     94  C   UNL A   1      50.635  26.104  31.413  1.00  0.00     0.060 A 
BRANCH  94  95
ATOM     95  S   UNL A   1      52.291  25.574  31.897  1.00  0.00     0.124 S 
ATOM     96  O   UNL A   1      52.502  26.352  33.114  1.00  0.00    -0.237 OA
ATOM     97  O   UNL A   1      52.120  24.137  32.085  1.00  0.00    -0.237 OA
ATOM     98  O   UNL A   1      53.116  25.957  30.755  1.00  0.00    -0.744 OA
ENDBRANCH  94  95
ENDBRANCH  62  87
ENDBRANCH  36  37
ENDBRANCH  28  31
ENDBRANCH  26  27
ENDBRANCH  25  26
ENDBRANCH   1  25
TORSDOF 17
ENDMDL
MODEL 3
REMARK VINA RESULT:     -11.8      2.869      3.949
REMARK SMILES C[C@@H]1CCC[C@@H](N(C)C(=O)N2CCC(CC(=O)NCCCCNC(=O)c3ccc(-c4c5nc(c(-c6c(F)cc(S(=O)(=O)[O-])cc6F)c6ccc([nH]6)c(-c6c(F)cc(S(=O)(=O)[O-])cc6F)c6nc(c(-c7c(F)cc(S(=O)(=O)[O-])cc7F)c7ccc4[nH]7)C=C6)C=C5)cc3)CC2)C1
REMARK SMILES IDX 20 1 19 2 18 3 16 4 17 5 15 7 14 8 9 9 10 10 11 11 12 12
REMARK SMILES IDX 93 13 13 14 92 15 7 16 8 17 6 18 1 19 2 20 3 21 94 22 4 23
REMARK SMILES IDX 5 24 21 25 22 26 23 27 24 28 25 30 26 31 27 32 91 33 28 34
REMARK SMILES IDX 90 35 29 36 30 37 31 38 84 39 32 40 89 41 83 42 85 43 33 44
REMARK SMILES IDX 88 45 82 46 81 47 34 49 68 50 47 51 67 52 48 53 51 54 66 55
REMARK SMILES IDX 86 56 49 57 50 58 65 60 87 61 52 62 35 63 36 64 45 65 37 66
REMARK SMILES IDX 38 67 44 68 46 69 39 70 40 71 41 72 42 73 43 74 69 75 70 76
REMARK SMILES IDX 79 77 71 78 72 79 78 80 80 81 73 82 74 83 75 84 76 85 77 86
REMARK SMILES IDX 53 87 54 88 63 89 55 90 56 91 62 92 64 93 57 94 58 95 59 96
REMARK SMILES IDX 60 97 61 98
REMARK H PARENT 18 6 23 29 85 48 51 59
REMARK Flexibility Score: inf
ROOT
ATOM      1  C   UNL A   1      33.839  31.510  27.812  1.00  0.00     0.023 C 
ENDROOT
BRANCH   1   2
ATOM      2  C   UNL A   1      33.168  30.237  27.282  1.00  0.00     0.116 C 
BRANCH   2   3
ATOM      3  N   UNL A   1      33.660  29.885  25.959  1.00  0.00    -0.356 N 
ATOM      4  C   UNL A   1      33.037  29.272  24.912  1.00  0.00     0.220 C 
ATOM      5  O   UNL A   1      33.703  29.009  23.908  1.00  0.00    -0.275 OA
ATOM      6  H   UNL A   1      34.599  30.129  25.793  1.00  0.00     0.163 HD
BRANCH   4   7
ATOM      7  C   UNL A   1      31.556  28.915  24.969  1.00  0.00     0.103 C 
BRANCH   7   8
ATOM      8  C   UNL A   1      31.272  27.519  25.562  1.00  0.00     0.002 C 
ATOM      9  C   UNL A   1      32.149  23.851  24.282  1.00  0.00     0.319 C 
ATOM     10  O   UNL A   1      32.212  24.204  23.109  1.00  0.00    -0.248 OA
ATOM     11  N   UNL A   1      31.527  24.633  25.240  1.00  0.00    -0.325 N 
ATOM     12  C   UNL A   1      30.253  25.235  24.947  1.00  0.00     0.121 C 
ATOM     13  C   UNL A   1      32.318  25.304  26.260  1.00  0.00     0.121 C 
ATOM     14  C   UNL A   1      30.399  26.702  24.612  1.00  0.00     0.026 C 
ATOM     15  C   UNL A   1      32.578  26.764  25.869  1.00  0.00     0.026 C 
BRANCH   9  16
ATOM     16  N   UNL A   1      32.660  22.654  24.768  1.00  0.00    -0.325 N 
ATOM     17  C   UNL A   1      31.806  21.666  25.416  1.00  0.00     0.149 C 
BRANCH  16  18
ATOM     18  C   UNL A   1      34.069  22.285  24.588  1.00  0.00     0.086 C 
ATOM     19  C   UNL A   1      36.714  22.902  22.949  1.00  0.00     0.008 C 
ATOM     20  C   UNL A   1      36.507  23.021  24.462  1.00  0.00    -0.012 C 
ATOM     21  C   UNL A   1      36.902  21.727  25.194  1.00  0.00     0.003 C 
ATOM     22  C   UNL A   1      35.064  23.435  24.807  1.00  0.00     0.028 C 
ATOM     23  C   UNL A   1      35.874  20.602  25.057  1.00  0.00     0.002 C 
ATOM     24  C   UNL A   1      34.465  21.063  25.425  1.00  0.00     0.025 C 
ENDBRANCH  16  18
ENDBRANCH   9  16
ENDBRANCH   7   8
ENDBRANCH   4   7
ENDBRANCH   2   3
ENDBRANCH   1   2
BRANCH   1  25
ATOM     25  C   UNL A   1      35.347  31.576  27.665  1.00  0.00     0.023 C 
BRANCH  25  26
ATOM     26  C   UNL A   1      36.072  32.098  28.886  1.00  0.00     0.116 C 
BRANCH  26  27
ATOM     27  N   UNL A   1      35.785  31.354  30.105  1.00  0.00    -0.352 N 
ATOM     28  C   UNL A   1      36.600  30.468  30.774  1.00  0.00     0.251 C 
ATOM     29  H   UNL A   1      34.895  31.501  30.500  1.00  0.00     0.163 HD
ATOM     30  O   UNL A   1      36.186  29.847  31.743  1.00  0.00    -0.269 OA
BRANCH  28  31
ATOM     31  C   UNL A   1      37.971  30.249  30.267  1.00  0.00     0.039 A 
ATOM     32  C   UNL A   1      39.032  30.208  31.173  1.00  0.00     0.014 A 
ATOM     33  C   UNL A   1      38.187  29.995  28.910  1.00  0.00     0.014 A 
ATOM     34  C   UNL A   1      40.299  29.837  30.723  1.00  0.00     0.010 A 
ATOM     35  C   UNL A   1      39.415  29.506  28.492  1.00  0.00     0.010 A 
ATOM     36  C   UNL A   1      40.491  29.445  29.388  1.00  0.00    -0.014 A 
BRANCH  36  37
ATOM     37  C   UNL A   1      41.819  29.010  28.891  1.00  0.00     0.031 A 
ATOM     38  C   UNL A   1      42.939  30.013  28.797  1.00  0.00     0.074 A 
ATOM     39  C   UNL A   1      41.998  27.742  28.470  1.00  0.00     0.049 A 
ATOM     40  N   UNL A   1      44.154  29.854  28.343  1.00  0.00    -0.248 NA
ATOM     41  C   UNL A   1      42.640  31.389  29.230  1.00  0.00     0.031 C 
ATOM     42  C   UNL A   1      40.963  26.704  28.436  1.00  0.00     0.029 A 
ATOM     43  N   UNL A   1      43.114  27.110  27.985  1.00  0.00    -0.354 N 
ATOM     44  C   UNL A   1      44.750  31.108  28.415  1.00  0.00     0.074 A 
ATOM     45  C   UNL A   1      43.744  32.032  28.883  1.00  0.00     0.031 C 
ATOM     46  C   UNL A   1      41.505  25.556  27.996  1.00  0.00     0.029 A 
ATOM     47  C   UNL A   1      42.913  25.783  27.687  1.00  0.00     0.049 A 
ATOM     48  H   UNL A   1      43.978  27.565  27.861  1.00  0.00     0.167 HD
ATOM     49  C   UNL A   1      46.032  31.453  28.151  1.00  0.00     0.037 A 
ATOM     50  C   UNL A   1      43.773  24.854  27.229  1.00  0.00     0.037 A 
ATOM     51  C   UNL A   1      47.039  30.515  27.737  1.00  0.00     0.049 A 
ATOM     52  C   UNL A   1      45.208  25.245  27.002  1.00  0.00     0.074 A 
ATOM     53  C   UNL A   1      48.384  30.739  27.507  1.00  0.00     0.029 A 
ATOM     54  N   UNL A   1      46.811  29.165  27.505  1.00  0.00    -0.354 N 
ATOM     55  N   UNL A   1      45.773  26.422  27.139  1.00  0.00    -0.248 NA
ATOM     56  C   UNL A   1      46.128  24.182  26.576  1.00  0.00     0.031 C 
ATOM     57  C   UNL A   1      48.964  29.530  27.107  1.00  0.00     0.029 A 
ATOM     58  C   UNL A   1      47.990  28.545  27.130  1.00  0.00     0.049 A 
ATOM     59  H   UNL A   1      45.940  28.716  27.594  1.00  0.00     0.167 HD
ATOM     60  C   UNL A   1      47.120  26.234  26.848  1.00  0.00     0.074 A 
ATOM     61  C   UNL A   1      47.285  24.829  26.537  1.00  0.00     0.031 C 
ATOM     62  C   UNL A   1      48.129  27.140  26.839  1.00  0.00     0.037 A 
BRANCH  49  63
ATOM     63  C   UNL A   1      46.413  32.897  28.327  1.00  0.00     0.058 A 
ATOM     64  C   UNL A   1      46.885  33.390  29.554  1.00  0.00     0.135 A 
ATOM     65  C   UNL A   1      46.317  33.797  27.254  1.00  0.00     0.135 A 
ATOM     66  F   UNL A   1      46.977  32.578  30.619  1.00  0.00    -0.206 F 
ATOM     67  C   UNL A   1      47.216  34.730  29.722  1.00  0.00     0.059 A 
ATOM     68  C   UNL A   1      46.671  35.137  27.391  1.00  0.00     0.059 A 
ATOM     69  F   UNL A   1      45.867  33.382  26.059  1.00  0.00    -0.206 F 
ATOM     70  C   UNL A   1      47.105  35.598  28.634  1.00  0.00     0.060 A 
BRANCH  70  71
ATOM     71  S   UNL A   1      47.544  37.333  28.865  1.00  0.00     0.124 S 
ATOM     72  O   UNL A   1      47.970  37.706  27.520  1.00  0.00    -0.237 OA
ATOM     73  O   UNL A   1      46.285  37.917  29.315  1.00  0.00    -0.237 OA
ATOM     74  O   UNL A   1      48.603  37.284  29.868  1.00  0.00    -0.744 OA
ENDBRANCH  70  71
ENDBRANCH  49  63
BRANCH  50  75
ATOM     75  C   UNL A   1      43.315  23.456  27.010  1.00  0.00     0.058 A 
ATOM     76  C   UNL A   1      43.055  22.977  25.718  1.00  0.00     0.135 A 
ATOM     77  C   UNL A   1      43.147  22.566  28.082  1.00  0.00     0.135 A 
ATOM     78  F   UNL A   1      43.200  23.790  24.660  1.00  0.00    -0.206 F 
ATOM     79  C   UNL A   1      42.621  21.674  25.494  1.00  0.00     0.059 A 
ATOM     80  C   UNL A   1      42.738  21.250  27.883  1.00  0.00     0.059 A 
ATOM     81  F   UNL A   1      43.403  22.967  29.336  1.00  0.00    -0.206 F 
ATOM     82  C   UNL A   1      42.467  20.817  26.585  1.00  0.00     0.060 A 
BRANCH  82  83
ATOM     83  S   UNL A   1      41.950  19.113  26.282  1.00  0.00     0.124 S 
ATOM     84  O   UNL A   1      42.096  18.521  27.607  1.00  0.00    -0.237 OA
ATOM     85  O   UNL A   1      40.580  19.285  25.809  1.00  0.00    -0.237 OA
ATOM     86  O   UNL A   1      42.899  18.649  25.274  1.00  0.00    -0.744 OA
ENDBRANCH  82  83
ENDBRANCH  50  75
BRANCH  62  87
ATOM     87  C   UNL A   1      49.507  26.629  26.527  1.00  0.00     0.058 A 
ATOM     88  C   UNL A   1      50.368  26.163  27.531  1.00  0.00     0.135 A 
ATOM     89  C   UNL A   1      49.952  26.569  25.196  1.00  0.00     0.135 A 
ATOM     90  F   UNL A   1      49.989  26.202  28.818  1.00  0.00    -0.206 F 
ATOM     91  C   UNL A   1      51.639  25.685  27.231  1.00  0.00     0.059 A 
ATOM     92  C   UNL A   1      51.208  26.070  24.870  1.00  0.00     0.059 A 
ATOM     93  F   UNL A   1      49.159  26.990  24.197  1.00  0.00    -0.206 F 
ATOM     94  C   UNL A   1      52.050  25.644  25.897  1.00  0.00     0.060 A 
BRANCH  94  95
ATOM     95  S   UNL A   1      53.696  25.008  25.516  1.00  0.00     0.124 S 
ATOM     96  O   UNL A   1      54.402  25.256  26.768  1.00  0.00    -0.237 OA
ATOM     97  O   UNL A   1      53.427  23.608  25.206  1.00  0.00    -0.237 OA
ATOM     98  O   UNL A   1      54.120  25.825  24.382  1.00  0.00    -0.744 OA
ENDBRANCH  94  95
ENDBRANCH  62  87
ENDBRANCH  36  37
ENDBRANCH  28  31
ENDBRANCH  26  27
ENDBRANCH  25  26
ENDBRANCH   1  25
TORSDOF 17
ENDMDL
