MODEL 1
REMARK VINA RESULT:     -10.0      0.000      0.000
REMARK SMILES CCCCOc1ccccc1C[C@@H]([NH3+])C(=O)NCCCCNC(=O)c1ccc(-c2c3nc(c(-c4c(F)cc(S(=O)(=O)[O-])cc4F)c4ccc([nH]4)c(-c4c(F)cc(S(=O)(=O)[O-])cc4F)c4nc(c(-c5c(F)cc(S(=O)(=O)[O-])cc5F)c5ccc2[nH]5)C=C4)C=C3)cc1
REMARK SMILES IDX 18 1 17 2 15 3 16 4 13 6 12 7 11 8 6 9 7 10 8 11 10 12 9 13
REMARK SMILES IDX 5 14 4 15 3 16 2 17 1 18 14 19 19 23 20 24 21 25 22 26 23 27
REMARK SMILES IDX 24 29 25 30 26 31 90 32 27 33 89 34 28 35 29 36 30 37 83 38
REMARK SMILES IDX 31 39 88 40 82 41 84 42 32 43 87 44 81 45 80 46 33 48 67 49
REMARK SMILES IDX 46 50 66 51 47 52 50 53 65 54 85 55 48 56 49 57 64 59 86 60
REMARK SMILES IDX 51 61 34 62 35 63 44 64 36 65 37 66 43 67 45 68 38 69 39 70
REMARK SMILES IDX 40 71 41 72 42 73 68 74 69 75 78 76 70 77 71 78 77 79 79 80
REMARK SMILES IDX 72 81 73 82 74 83 75 84 76 85 52 86 53 87 62 88 54 89 55 90
REMARK SMILES IDX 61 91 63 92 56 93 57 94 58 95 59 96 60 97
REMARK H PARENT 17 5 14 20 14 21 14 22 22 28 84 47 50 58
REMARK Flexibility Score: inf
ROOT
ATOM      1  C   UNL A   1      33.210  26.821  23.681  1.00  0.00     0.116 C 
ENDROOT
BRANCH   1   2
ATOM      2  N   UNL A   1      31.963  26.104  23.456  1.00  0.00    -0.351 N 
ATOM      3  C   UNL A   1      31.724  24.763  23.300  1.00  0.00     0.278 C 
ATOM      4  O   UNL A   1      30.547  24.391  23.299  1.00  0.00    -0.268 OA
ATOM      5  H   UNL A   1      31.162  26.673  23.409  1.00  0.00     0.163 HD
BRANCH   3   6
ATOM      6  C   UNL A   1      32.870  23.732  23.086  1.00  0.00     0.275 C 
BRANCH   6   7
ATOM      7  C   UNL A   1      32.692  22.637  24.146  1.00  0.00     0.115 C 
BRANCH   7   8
ATOM      8  C   UNL A   1      33.183  21.209  24.021  1.00  0.00     0.001 A 
ATOM      9  C   UNL A   1      34.308  20.789  24.766  1.00  0.00     0.122 A 
ATOM     10  C   UNL A   1      34.638  19.436  24.877  1.00  0.00     0.047 A 
ATOM     11  C   UNL A   1      33.817  18.472  24.298  1.00  0.00     0.004 A 
ATOM     12  C   UNL A   1      32.378  20.220  23.439  1.00  0.00     0.008 A 
ATOM     13  C   UNL A   1      32.692  18.863  23.578  1.00  0.00     0.001 A 
BRANCH   9  14
ATOM     14  O   UNL A   1      35.084  21.739  25.383  1.00  0.00    -0.493 OA
BRANCH  14  15
ATOM     15  C   UNL A   1      36.356  21.979  24.757  1.00  0.00     0.229 C 
BRANCH  15  16
ATOM     16  C   UNL A   1      36.712  23.468  24.780  1.00  0.00     0.041 C 
BRANCH  16  17
ATOM     17  C   UNL A   1      37.766  23.796  25.835  1.00  0.00     0.000 C 
ATOM     18  C   UNL A   1      38.729  22.676  26.162  1.00  0.00     0.004 C 
ENDBRANCH  16  17
ENDBRANCH  15  16
ENDBRANCH  14  15
ENDBRANCH   9  14
ENDBRANCH   7   8
ENDBRANCH   6   7
BRANCH   6  19
ATOM     19  N   UNL A   1      32.892  23.302  21.672  1.00  0.00    -0.347 N 
ATOM     20  H   UNL A   1      33.825  22.970  21.432  1.00  0.00     0.345 HD
ATOM     21  H   UNL A   1      32.647  24.091  21.074  1.00  0.00     0.345 HD
ATOM     22  H   UNL A   1      32.217  22.549  21.535  1.00  0.00     0.345 HD
ENDBRANCH   6  19
ENDBRANCH   3   6
ENDBRANCH   1   2
BRANCH   1  23
ATOM     23  C   UNL A   1      33.599  26.879  25.162  1.00  0.00     0.023 C 
BRANCH  23  24
ATOM     24  C   UNL A   1      33.910  28.258  25.727  1.00  0.00     0.023 C 
BRANCH  24  25
ATOM     25  C   UNL A   1      33.530  28.447  27.182  1.00  0.00     0.116 C 
BRANCH  25  26
ATOM     26  N   UNL A   1      33.446  29.847  27.575  1.00  0.00    -0.352 N 
ATOM     27  C   UNL A   1      34.408  30.644  28.161  1.00  0.00     0.251 C 
ATOM     28  H   UNL A   1      32.584  30.286  27.396  1.00  0.00     0.163 HD
ATOM     29  O   UNL A   1      34.127  31.768  28.540  1.00  0.00    -0.269 OA
BRANCH  27  30
ATOM     30  C   UNL A   1      35.771  30.098  28.358  1.00  0.00     0.039 A 
ATOM     31  C   UNL A   1      36.686  30.160  27.306  1.00  0.00     0.014 A 
ATOM     32  C   UNL A   1      36.157  29.582  29.596  1.00  0.00     0.014 A 
ATOM     33  C   UNL A   1      38.012  29.778  27.524  1.00  0.00     0.010 A 
ATOM     34  C   UNL A   1      37.496  29.314  29.843  1.00  0.00     0.010 A 
ATOM     35  C   UNL A   1      38.437  29.396  28.808  1.00  0.00    -0.014 A 
BRANCH  35  36
ATOM     36  C   UNL A   1      39.854  29.055  29.092  1.00  0.00     0.031 A 
ATOM     37  C   UNL A   1      40.765  30.092  29.696  1.00  0.00     0.074 A 
ATOM     38  C   UNL A   1      40.340  27.847  28.739  1.00  0.00     0.049 A 
ATOM     39  N   UNL A   1      42.047  30.025  29.940  1.00  0.00    -0.248 NA
ATOM     40  C   UNL A   1      40.158  31.391  30.036  1.00  0.00     0.031 C 
ATOM     41  C   UNL A   1      39.573  26.781  28.091  1.00  0.00     0.029 A 
ATOM     42  N   UNL A   1      41.599  27.317  28.865  1.00  0.00    -0.354 N 
ATOM     43  C   UNL A   1      42.402  31.273  30.438  1.00  0.00     0.074 A 
ATOM     44  C   UNL A   1      41.217  32.098  30.400  1.00  0.00     0.031 C 
ATOM     45  C   UNL A   1      40.369  25.715  27.906  1.00  0.00     0.029 A 
ATOM     46  C   UNL A   1      41.711  26.034  28.381  1.00  0.00     0.049 A 
ATOM     47  H   UNL A   1      42.353  27.809  29.265  1.00  0.00     0.167 HD
ATOM     48  C   UNL A   1      43.600  31.686  30.917  1.00  0.00     0.037 A 
ATOM     49  C   UNL A   1      42.777  25.211  28.322  1.00  0.00     0.037 A 
ATOM     50  C   UNL A   1      44.766  30.846  30.984  1.00  0.00     0.049 A 
ATOM     51  C   UNL A   1      44.096  25.687  28.868  1.00  0.00     0.074 A 
ATOM     52  C   UNL A   1      46.010  31.143  31.510  1.00  0.00     0.029 A 
ATOM     53  N   UNL A   1      44.830  29.543  30.511  1.00  0.00    -0.354 N 
ATOM     54  N   UNL A   1      44.397  26.848  29.401  1.00  0.00    -0.248 NA
ATOM     55  C   UNL A   1      45.218  24.741  28.813  1.00  0.00     0.031 C 
ATOM     56  C   UNL A   1      46.842  30.036  31.312  1.00  0.00     0.029 A 
ATOM     57  C   UNL A   1      46.100  29.029  30.714  1.00  0.00     0.049 A 
ATOM     58  H   UNL A   1      44.084  29.056  30.093  1.00  0.00     0.167 HD
ATOM     59  C   UNL A   1      45.735  26.762  29.770  1.00  0.00     0.074 A 
ATOM     60  C   UNL A   1      46.180  25.430  29.411  1.00  0.00     0.031 C 
ATOM     61  C   UNL A   1      46.523  27.697  30.356  1.00  0.00     0.037 A 
BRANCH  48  62
ATOM     62  C   UNL A   1      43.701  33.104  31.411  1.00  0.00     0.058 A 
ATOM     63  C   UNL A   1      43.354  33.455  32.726  1.00  0.00     0.135 A 
ATOM     64  C   UNL A   1      44.168  34.123  30.565  1.00  0.00     0.135 A 
ATOM     65  F   UNL A   1      42.884  32.525  33.573  1.00  0.00    -0.206 F 
ATOM     66  C   UNL A   1      43.430  34.770  33.174  1.00  0.00     0.059 A 
ATOM     67  C   UNL A   1      44.284  35.440  31.002  1.00  0.00     0.059 A 
ATOM     68  F   UNL A   1      44.514  33.846  29.298  1.00  0.00    -0.206 F 
ATOM     69  C   UNL A   1      43.897  35.756  32.303  1.00  0.00     0.060 A 
BRANCH  69  70
ATOM     70  S   UNL A   1      43.989  37.456  32.900  1.00  0.00     0.124 S 
ATOM     71  O   UNL A   1      45.344  37.501  33.442  1.00  0.00    -0.237 OA
ATOM     72  O   UNL A   1      43.770  38.227  31.681  1.00  0.00    -0.237 OA
ATOM     73  O   UNL A   1      42.917  37.529  33.887  1.00  0.00    -0.744 OA
ENDBRANCH  69  70
ENDBRANCH  48  62
BRANCH  49  74
ATOM     74  C   UNL A   1      42.629  23.843  27.755  1.00  0.00     0.058 A 
ATOM     75  C   UNL A   1      42.485  22.728  28.593  1.00  0.00     0.135 A 
ATOM     76  C   UNL A   1      42.608  23.625  26.368  1.00  0.00     0.135 A 
ATOM     77  F   UNL A   1      42.505  22.883  29.925  1.00  0.00    -0.206 F 
ATOM     78  C   UNL A   1      42.340  21.442  28.080  1.00  0.00     0.059 A 
ATOM     79  C   UNL A   1      42.437  22.353  25.831  1.00  0.00     0.059 A 
ATOM     80  F   UNL A   1      42.723  24.660  25.522  1.00  0.00    -0.206 F 
ATOM     81  C   UNL A   1      42.312  21.266  26.696  1.00  0.00     0.060 A 
BRANCH  81  82
ATOM     82  S   UNL A   1      42.069  19.600  26.040  1.00  0.00     0.124 S 
ATOM     83  O   UNL A   1      42.489  18.777  27.168  1.00  0.00    -0.237 OA
ATOM     84  O   UNL A   1      40.640  19.595  25.743  1.00  0.00    -0.237 OA
ATOM     85  O   UNL A   1      42.944  19.568  24.873  1.00  0.00    -0.744 OA
ENDBRANCH  81  82
ENDBRANCH  49  74
BRANCH  61  86
ATOM     86  C   UNL A   1      47.938  27.306  30.683  1.00  0.00     0.058 A 
ATOM     87  C   UNL A   1      48.247  26.508  31.795  1.00  0.00     0.135 A 
ATOM     88  C   UNL A   1      48.992  27.688  29.836  1.00  0.00     0.135 A 
ATOM     89  F   UNL A   1      47.277  26.120  32.639  1.00  0.00    -0.206 F 
ATOM     90  C   UNL A   1      49.554  26.121  32.070  1.00  0.00     0.059 A 
ATOM     91  C   UNL A   1      50.302  27.288  30.075  1.00  0.00     0.059 A 
ATOM     92  F   UNL A   1      48.749  28.442  28.752  1.00  0.00    -0.206 F 
ATOM     93  C   UNL A   1      50.575  26.514  31.201  1.00  0.00     0.060 A 
BRANCH  93  94
ATOM     94  S   UNL A   1      52.262  25.975  31.550  1.00  0.00     0.124 S 
ATOM     95  O   UNL A   1      52.775  27.098  32.328  1.00  0.00    -0.237 OA
ATOM     96  O   UNL A   1      52.047  24.737  32.291  1.00  0.00    -0.237 OA
ATOM     97  O   UNL A   1      52.847  25.810  30.223  1.00  0.00    -0.744 OA
ENDBRANCH  93  94
ENDBRANCH  61  86
ENDBRANCH  35  36
ENDBRANCH  27  30
ENDBRANCH  25  26
ENDBRANCH  24  25
ENDBRANCH  23  24
ENDBRANCH   1  23
TORSDOF 21
ENDMDL
MODEL 2
REMARK VINA RESULT:     -10.0      2.738      3.430
REMARK SMILES CCCCOc1ccccc1C[C@@H]([NH3+])C(=O)NCCCCNC(=O)c1ccc(-c2c3nc(c(-c4c(F)cc(S(=O)(=O)[O-])cc4F)c4ccc([nH]4)c(-c4c(F)cc(S(=O)(=O)[O-])cc4F)c4nc(c(-c5c(F)cc(S(=O)(=O)[O-])cc5F)c5ccc2[nH]5)C=C4)C=C3)cc1
REMARK SMILES IDX 18 1 17 2 15 3 16 4 13 6 12 7 11 8 6 9 7 10 8 11 10 12 9 13
REMARK SMILES IDX 5 14 4 15 3 16 2 17 1 18 14 19 19 23 20 24 21 25 22 26 23 27
REMARK SMILES IDX 24 29 25 30 26 31 90 32 27 33 89 34 28 35 29 36 30 37 83 38
REMARK SMILES IDX 31 39 88 40 82 41 84 42 32 43 87 44 81 45 80 46 33 48 67 49
REMARK SMILES IDX 46 50 66 51 47 52 50 53 65 54 85 55 48 56 49 57 64 59 86 60
REMARK SMILES IDX 51 61 34 62 35 63 44 64 36 65 37 66 43 67 45 68 38 69 39 70
REMARK SMILES IDX 40 71 41 72 42 73 68 74 69 75 78 76 70 77 71 78 77 79 79 80
REMARK SMILES IDX 72 81 73 82 74 83 75 84 76 85 52 86 53 87 62 88 54 89 55 90
REMARK SMILES IDX 61 91 63 92 56 93 57 94 58 95 59 96 60 97
REMARK H PARENT 17 5 14 20 14 21 14 22 22 28 84 47 50 58
REMARK Flexibility Score: inf
ROOT
ATOM      1  C   UNL A   1      30.860  26.403  25.538  1.00  0.00     0.116 C 
ENDROOT
BRANCH   1   2
ATOM      2  N   UNL A   1      31.246  25.519  26.630  1.00  0.00    -0.351 N 
ATOM      3  C   UNL A   1      31.413  24.159  26.656  1.00  0.00     0.278 C 
ATOM      4  O   UNL A   1      31.919  23.667  27.670  1.00  0.00    -0.268 OA
ATOM      5  H   UNL A   1      31.414  25.971  27.487  1.00  0.00     0.163 HD
BRANCH   3   6
ATOM      6  C   UNL A   1      30.950  23.239  25.488  1.00  0.00     0.275 C 
BRANCH   6   7
ATOM      7  C   UNL A   1      32.192  22.928  24.644  1.00  0.00     0.115 C 
BRANCH   7   8
ATOM      8  C   UNL A   1      32.663  21.541  24.256  1.00  0.00     0.001 A 
ATOM      9  C   UNL A   1      33.433  20.785  25.169  1.00  0.00     0.122 A 
ATOM     10  C   UNL A   1      33.670  19.424  24.960  1.00  0.00     0.047 A 
ATOM     11  C   UNL A   1      33.094  18.779  23.870  1.00  0.00     0.004 A 
ATOM     12  C   UNL A   1      32.102  20.871  23.161  1.00  0.00     0.008 A 
ATOM     13  C   UNL A   1      32.314  19.501  22.970  1.00  0.00     0.001 A 
BRANCH   9  14
ATOM     14  O   UNL A   1      33.955  21.412  26.274  1.00  0.00    -0.493 OA
BRANCH  14  15
ATOM     15  C   UNL A   1      35.350  21.744  26.177  1.00  0.00     0.229 C 
BRANCH  15  16
ATOM     16  C   UNL A   1      35.555  23.259  26.103  1.00  0.00     0.041 C 
BRANCH  16  17
ATOM     17  C   UNL A   1      35.985  23.718  24.712  1.00  0.00     0.000 C 
ATOM     18  C   UNL A   1      36.293  22.611  23.728  1.00  0.00     0.004 C 
ENDBRANCH  16  17
ENDBRANCH  15  16
ENDBRANCH  14  15
ENDBRANCH   9  14
ENDBRANCH   7   8
ENDBRANCH   6   7
BRANCH   6  19
ATOM     19  N   UNL A   1      30.201  22.087  26.032  1.00  0.00    -0.347 N 
ATOM     20  H   UNL A   1      30.748  21.236  25.906  1.00  0.00     0.345 HD
ATOM     21  H   UNL A   1      29.313  21.997  25.539  1.00  0.00     0.345 HD
ATOM     22  H   UNL A   1      30.024  22.234  27.026  1.00  0.00     0.345 HD
ENDBRANCH   6  19
ENDBRANCH   3   6
ENDBRANCH   1   2
BRANCH   1  23
ATOM     23  C   UNL A   1      31.770  27.630  25.424  1.00  0.00     0.023 C 
BRANCH  23  24
ATOM     24  C   UNL A   1      32.868  27.759  26.469  1.00  0.00     0.023 C 
BRANCH  24  25
ATOM     25  C   UNL A   1      34.004  28.686  26.084  1.00  0.00     0.116 C 
BRANCH  25  26
ATOM     26  N   UNL A   1      33.797  30.059  26.525  1.00  0.00    -0.352 N 
ATOM     27  C   UNL A   1      34.530  30.801  27.428  1.00  0.00     0.251 C 
ATOM     28  H   UNL A   1      33.028  30.521  26.121  1.00  0.00     0.163 HD
ATOM     29  O   UNL A   1      34.141  31.903  27.777  1.00  0.00    -0.269 OA
BRANCH  27  30
ATOM     30  C   UNL A   1      35.771  30.223  27.994  1.00  0.00     0.039 A 
ATOM     31  C   UNL A   1      36.977  30.410  27.318  1.00  0.00     0.014 A 
ATOM     32  C   UNL A   1      35.746  29.550  29.217  1.00  0.00     0.014 A 
ATOM     33  C   UNL A   1      38.171  29.993  27.912  1.00  0.00     0.010 A 
ATOM     34  C   UNL A   1      36.939  29.242  29.856  1.00  0.00     0.010 A 
ATOM     35  C   UNL A   1      38.165  29.447  29.207  1.00  0.00    -0.014 A 
BRANCH  35  36
ATOM     36  C   UNL A   1      39.421  29.060  29.898  1.00  0.00     0.031 A 
ATOM     37  C   UNL A   1      39.866  29.822  31.118  1.00  0.00     0.074 A 
ATOM     38  C   UNL A   1      40.196  28.082  29.387  1.00  0.00     0.049 A 
ATOM     39  N   UNL A   1      40.967  29.702  31.812  1.00  0.00    -0.248 NA
ATOM     40  C   UNL A   1      38.969  30.887  31.600  1.00  0.00     0.031 C 
ATOM     41  C   UNL A   1      39.903  27.312  28.176  1.00  0.00     0.029 A 
ATOM     42  N   UNL A   1      41.396  27.574  29.817  1.00  0.00    -0.354 N 
ATOM     43  C   UNL A   1      40.904  30.686  32.792  1.00  0.00     0.074 A 
ATOM     44  C   UNL A   1      39.691  31.436  32.564  1.00  0.00     0.031 C 
ATOM     45  C   UNL A   1      40.879  26.411  27.980  1.00  0.00     0.029 A 
ATOM     46  C   UNL A   1      41.888  26.565  29.022  1.00  0.00     0.049 A 
ATOM     47  H   UNL A   1      41.862  27.902  30.621  1.00  0.00     0.167 HD
ATOM     48  C   UNL A   1      41.763  30.922  33.813  1.00  0.00     0.037 A 
ATOM     49  C   UNL A   1      43.026  25.849  29.121  1.00  0.00     0.037 A 
ATOM     50  C   UNL A   1      42.950  30.146  34.054  1.00  0.00     0.049 A 
ATOM     51  C   UNL A   1      43.961  26.122  30.268  1.00  0.00     0.074 A 
ATOM     52  C   UNL A   1      43.854  30.258  35.095  1.00  0.00     0.029 A 
ATOM     53  N   UNL A   1      43.398  29.113  33.243  1.00  0.00    -0.354 N 
ATOM     54  N   UNL A   1      43.851  27.011  31.228  1.00  0.00    -0.248 NA
ATOM     55  C   UNL A   1      45.170  25.292  30.352  1.00  0.00     0.031 C 
ATOM     56  C   UNL A   1      44.875  29.325  34.887  1.00  0.00     0.029 A 
ATOM     57  C   UNL A   1      44.578  28.592  33.748  1.00  0.00     0.049 A 
ATOM     58  H   UNL A   1      42.945  28.796  32.428  1.00  0.00     0.167 HD
ATOM     59  C   UNL A   1      44.962  26.827  32.045  1.00  0.00     0.074 A 
ATOM     60  C   UNL A   1      45.723  25.735  31.473  1.00  0.00     0.031 C 
ATOM     61  C   UNL A   1      45.318  27.499  33.168  1.00  0.00     0.037 A 
BRANCH  48  62
ATOM     62  C   UNL A   1      41.441  32.058  34.746  1.00  0.00     0.058 A 
ATOM     63  C   UNL A   1      40.634  31.876  35.881  1.00  0.00     0.135 A 
ATOM     64  C   UNL A   1      41.959  33.342  34.512  1.00  0.00     0.135 A 
ATOM     65  F   UNL A   1      40.096  30.674  36.144  1.00  0.00    -0.206 F 
ATOM     66  C   UNL A   1      40.322  32.932  36.730  1.00  0.00     0.059 A 
ATOM     67  C   UNL A   1      41.687  34.407  35.367  1.00  0.00     0.059 A 
ATOM     68  F   UNL A   1      42.735  33.574  33.443  1.00  0.00    -0.206 F 
ATOM     69  C   UNL A   1      40.854  34.195  36.464  1.00  0.00     0.060 A 
BRANCH  69  70
ATOM     70  S   UNL A   1      40.438  35.554  37.577  1.00  0.00     0.124 S 
ATOM     71  O   UNL A   1      41.722  35.800  38.227  1.00  0.00    -0.237 OA
ATOM     72  O   UNL A   1      39.990  36.589  36.651  1.00  0.00    -0.237 OA
ATOM     73  O   UNL A   1      39.400  34.989  38.432  1.00  0.00    -0.744 OA
ENDBRANCH  69  70
ENDBRANCH  48  62
BRANCH  49  74
ATOM     74  C   UNL A   1      43.323  24.786  28.124  1.00  0.00     0.058 A 
ATOM     75  C   UNL A   1      44.037  25.077  26.952  1.00  0.00     0.135 A 
ATOM     76  C   UNL A   1      42.920  23.457  28.330  1.00  0.00     0.135 A 
ATOM     77  F   UNL A   1      44.440  26.332  26.706  1.00  0.00    -0.206 F 
ATOM     78  C   UNL A   1      44.329  24.093  26.012  1.00  0.00     0.059 A 
ATOM     79  C   UNL A   1      43.223  22.451  27.418  1.00  0.00     0.059 A 
ATOM     80  F   UNL A   1      42.250  23.122  29.443  1.00  0.00    -0.206 F 
ATOM     81  C   UNL A   1      43.922  22.781  26.257  1.00  0.00     0.060 A 
BRANCH  81  82
ATOM     82  S   UNL A   1      44.353  21.502  25.056  1.00  0.00     0.124 S 
ATOM     83  O   UNL A   1      43.320  20.504  25.305  1.00  0.00    -0.237 OA
ATOM     84  O   UNL A   1      44.252  22.225  23.791  1.00  0.00    -0.237 OA
ATOM     85  O   UNL A   1      45.708  21.120  25.444  1.00  0.00    -0.744 OA
ENDBRANCH  81  82
ENDBRANCH  49  74
BRANCH  61  86
ATOM     86  C   UNL A   1      46.565  27.050  33.878  1.00  0.00     0.058 A 
ATOM     87  C   UNL A   1      47.819  27.615  33.600  1.00  0.00     0.135 A 
ATOM     88  C   UNL A   1      46.492  26.082  34.893  1.00  0.00     0.135 A 
ATOM     89  F   UNL A   1      47.945  28.540  32.635  1.00  0.00    -0.206 F 
ATOM     90  C   UNL A   1      48.962  27.219  34.287  1.00  0.00     0.059 A 
ATOM     91  C   UNL A   1      47.616  25.692  35.614  1.00  0.00     0.059 A 
ATOM     92  F   UNL A   1      45.314  25.518  35.207  1.00  0.00    -0.206 F 
ATOM     93  C   UNL A   1      48.849  26.259  35.296  1.00  0.00     0.060 A 
BRANCH  93  94
ATOM     94  S   UNL A   1      50.334  25.781  36.205  1.00  0.00     0.124 S 
ATOM     95  O   UNL A   1      51.038  24.974  35.213  1.00  0.00    -0.237 OA
ATOM     96  O   UNL A   1      50.938  27.073  36.516  1.00  0.00    -0.237 OA
ATOM     97  O   UNL A   1      49.809  25.049  37.353  1.00  0.00    -0.744 OA
ENDBRANCH  93  94
ENDBRANCH  61  86
ENDBRANCH  35  36
ENDBRANCH  27  30
ENDBRANCH  25  26
ENDBRANCH  24  25
ENDBRANCH  23  24
ENDBRANCH   1  23
TORSDOF 21
ENDMDL
MODEL 3
REMARK VINA RESULT:      -9.7      2.770      3.829
REMARK SMILES CCCCOc1ccccc1C[C@@H]([NH3+])C(=O)NCCCCNC(=O)c1ccc(-c2c3nc(c(-c4c(F)cc(S(=O)(=O)[O-])cc4F)c4ccc([nH]4)c(-c4c(F)cc(S(=O)(=O)[O-])cc4F)c4nc(c(-c5c(F)cc(S(=O)(=O)[O-])cc5F)c5ccc2[nH]5)C=C4)C=C3)cc1
REMARK SMILES IDX 18 1 17 2 15 3 16 4 13 6 12 7 11 8 6 9 7 10 8 11 10 12 9 13
REMARK SMILES IDX 5 14 4 15 3 16 2 17 1 18 14 19 19 23 20 24 21 25 22 26 23 27
REMARK SMILES IDX 24 29 25 30 26 31 90 32 27 33 89 34 28 35 29 36 30 37 83 38
REMARK SMILES IDX 31 39 88 40 82 41 84 42 32 43 87 44 81 45 80 46 33 48 67 49
REMARK SMILES IDX 46 50 66 51 47 52 50 53 65 54 85 55 48 56 49 57 64 59 86 60
REMARK SMILES IDX 51 61 34 62 35 63 44 64 36 65 37 66 43 67 45 68 38 69 39 70
REMARK SMILES IDX 40 71 41 72 42 73 68 74 69 75 78 76 70 77 71 78 77 79 79 80
REMARK SMILES IDX 72 81 73 82 74 83 75 84 76 85 52 86 53 87 62 88 54 89 55 90
REMARK SMILES IDX 61 91 63 92 56 93 57 94 58 95 59 96 60 97
REMARK H PARENT 17 5 14 20 14 21 14 22 22 28 84 47 50 58
REMARK Flexibility Score: inf
ROOT
ATOM      1  C   UNL A   1      32.178  26.112  25.318  1.00  0.00     0.116 C 
ENDROOT
BRANCH   1   2
ATOM      2  N   UNL A   1      32.356  25.196  26.435  1.00  0.00    -0.351 N 
ATOM      3  C   UNL A   1      32.187  23.837  26.506  1.00  0.00     0.278 C 
ATOM      4  O   UNL A   1      32.576  23.268  27.531  1.00  0.00    -0.268 OA
ATOM      5  H   UNL A   1      32.644  25.619  27.274  1.00  0.00     0.163 HD
BRANCH   3   6
ATOM      6  C   UNL A   1      31.494  23.023  25.375  1.00  0.00     0.275 C 
BRANCH   6   7
ATOM      7  C   UNL A   1      32.519  22.865  24.244  1.00  0.00     0.115 C 
BRANCH   7   8
ATOM      8  C   UNL A   1      34.009  22.665  24.435  1.00  0.00     0.001 A 
ATOM      9  C   UNL A   1      34.500  21.400  24.831  1.00  0.00     0.122 A 
ATOM     10  C   UNL A   1      35.864  21.103  24.772  1.00  0.00     0.047 A 
ATOM     11  C   UNL A   1      36.757  22.040  24.261  1.00  0.00     0.004 A 
ATOM     12  C   UNL A   1      34.930  23.596  23.933  1.00  0.00     0.008 A 
ATOM     13  C   UNL A   1      36.291  23.285  23.845  1.00  0.00     0.001 A 
BRANCH   9  14
ATOM     14  O   UNL A   1      33.609  20.457  25.282  1.00  0.00    -0.493 OA
BRANCH  14  15
ATOM     15  C   UNL A   1      33.742  19.161  24.673  1.00  0.00     0.229 C 
BRANCH  15  16
ATOM     16  C   UNL A   1      32.595  18.889  23.695  1.00  0.00     0.041 C 
BRANCH  16  17
ATOM     17  C   UNL A   1      32.863  17.671  22.814  1.00  0.00     0.000 C 
ATOM     18  C   UNL A   1      33.839  16.663  23.377  1.00  0.00     0.004 C 
ENDBRANCH  16  17
ENDBRANCH  15  16
ENDBRANCH  14  15
ENDBRANCH   9  14
ENDBRANCH   7   8
ENDBRANCH   6   7
BRANCH   6  19
ATOM     19  N   UNL A   1      30.918  21.783  25.938  1.00  0.00    -0.347 N 
ATOM     20  H   UNL A   1      30.268  22.021  26.687  1.00  0.00     0.345 HD
ATOM     21  H   UNL A   1      31.667  21.200  26.311  1.00  0.00     0.345 HD
ATOM     22  H   UNL A   1      30.423  21.275  25.205  1.00  0.00     0.345 HD
ENDBRANCH   6  19
ENDBRANCH   3   6
ENDBRANCH   1   2
BRANCH   1  23
ATOM     23  C   UNL A   1      31.869  27.543  25.772  1.00  0.00     0.023 C 
BRANCH  23  24
ATOM     24  C   UNL A   1      32.766  28.116  26.859  1.00  0.00     0.023 C 
BRANCH  24  25
ATOM     25  C   UNL A   1      33.882  29.009  26.355  1.00  0.00     0.116 C 
BRANCH  25  26
ATOM     26  N   UNL A   1      33.732  30.399  26.764  1.00  0.00    -0.352 N 
ATOM     27  C   UNL A   1      34.524  31.146  27.612  1.00  0.00     0.251 C 
ATOM     28  H   UNL A   1      32.959  30.872  26.380  1.00  0.00     0.163 HD
ATOM     29  O   UNL A   1      34.181  32.268  27.944  1.00  0.00    -0.269 OA
BRANCH  27  30
ATOM     30  C   UNL A   1      35.772  30.548  28.141  1.00  0.00     0.039 A 
ATOM     31  C   UNL A   1      36.996  30.928  27.587  1.00  0.00     0.014 A 
ATOM     32  C   UNL A   1      35.733  29.662  29.219  1.00  0.00     0.014 A 
ATOM     33  C   UNL A   1      38.184  30.481  28.170  1.00  0.00     0.010 A 
ATOM     34  C   UNL A   1      36.910  29.313  29.865  1.00  0.00     0.010 A 
ATOM     35  C   UNL A   1      38.150  29.707  29.342  1.00  0.00    -0.014 A 
BRANCH  35  36
ATOM     36  C   UNL A   1      39.393  29.275  30.029  1.00  0.00     0.031 A 
ATOM     37  C   UNL A   1      39.859  30.009  31.259  1.00  0.00     0.074 A 
ATOM     38  C   UNL A   1      40.141  28.280  29.508  1.00  0.00     0.049 A 
ATOM     39  N   UNL A   1      40.956  29.849  31.952  1.00  0.00    -0.248 NA
ATOM     40  C   UNL A   1      38.994  31.094  31.753  1.00  0.00     0.031 C 
ATOM     41  C   UNL A   1      39.826  27.534  28.287  1.00  0.00     0.029 A 
ATOM     42  N   UNL A   1      41.324  27.733  29.933  1.00  0.00    -0.354 N 
ATOM     43  C   UNL A   1      40.921  30.822  32.944  1.00  0.00     0.074 A 
ATOM     44  C   UNL A   1      39.731  31.610  32.724  1.00  0.00     0.031 C 
ATOM     45  C   UNL A   1      40.776  26.607  28.081  1.00  0.00     0.029 A 
ATOM     46  C   UNL A   1      41.787  26.719  29.126  1.00  0.00     0.049 A 
ATOM     47  H   UNL A   1      41.799  28.037  30.740  1.00  0.00     0.167 HD
ATOM     48  C   UNL A   1      41.785  31.020  33.968  1.00  0.00     0.037 A 
ATOM     49  C   UNL A   1      42.903  25.969  29.217  1.00  0.00     0.037 A 
ATOM     50  C   UNL A   1      42.949  30.207  34.200  1.00  0.00     0.049 A 
ATOM     51  C   UNL A   1      43.846  26.201  30.368  1.00  0.00     0.074 A 
ATOM     52  C   UNL A   1      43.855  30.281  35.243  1.00  0.00     0.029 A 
ATOM     53  N   UNL A   1      43.367  29.171  33.378  1.00  0.00    -0.354 N 
ATOM     54  N   UNL A   1      43.761  27.081  31.338  1.00  0.00    -0.248 NA
ATOM     55  C   UNL A   1      45.029  25.335  30.443  1.00  0.00     0.031 C 
ATOM     56  C   UNL A   1      44.848  29.320  35.025  1.00  0.00     0.029 A 
ATOM     57  C   UNL A   1      44.530  28.610  33.877  1.00  0.00     0.049 A 
ATOM     58  H   UNL A   1      42.906  28.878  32.559  1.00  0.00     0.167 HD
ATOM     59  C   UNL A   1      44.865  26.855  32.154  1.00  0.00     0.074 A 
ATOM     60  C   UNL A   1      45.594  25.748  31.569  1.00  0.00     0.031 C 
ATOM     61  C   UNL A   1      45.239  27.502  33.285  1.00  0.00     0.037 A 
BRANCH  48  62
ATOM     62  C   UNL A   1      41.496  32.154  34.914  1.00  0.00     0.058 A 
ATOM     63  C   UNL A   1      42.107  33.411  34.771  1.00  0.00     0.135 A 
ATOM     64  C   UNL A   1      40.583  31.989  35.968  1.00  0.00     0.135 A 
ATOM     65  F   UNL A   1      43.003  33.620  33.792  1.00  0.00    -0.206 F 
ATOM     66  C   UNL A   1      41.853  34.451  35.659  1.00  0.00     0.059 A 
ATOM     67  C   UNL A   1      40.287  33.026  36.849  1.00  0.00     0.059 A 
ATOM     68  F   UNL A   1      39.969  30.810  36.153  1.00  0.00    -0.206 F 
ATOM     69  C   UNL A   1      40.941  34.248  36.696  1.00  0.00     0.060 A 
BRANCH  69  70
ATOM     70  S   UNL A   1      40.622  35.608  37.839  1.00  0.00     0.124 S 
ATOM     71  O   UNL A   1      39.961  34.913  38.940  1.00  0.00    -0.237 OA
ATOM     72  O   UNL A   1      41.966  36.101  38.118  1.00  0.00    -0.237 OA
ATOM     73  O   UNL A   1      39.773  36.510  37.067  1.00  0.00    -0.744 OA
ENDBRANCH  69  70
ENDBRANCH  48  62
BRANCH  49  74
ATOM     74  C   UNL A   1      43.171  24.909  28.208  1.00  0.00     0.058 A 
ATOM     75  C   UNL A   1      43.815  25.211  26.999  1.00  0.00     0.135 A 
ATOM     76  C   UNL A   1      42.808  23.572  28.437  1.00  0.00     0.135 A 
ATOM     77  F   UNL A   1      44.177  26.474  26.730  1.00  0.00    -0.206 F 
ATOM     78  C   UNL A   1      44.079  24.231  26.046  1.00  0.00     0.059 A 
ATOM     79  C   UNL A   1      43.083  22.570  27.512  1.00  0.00     0.059 A 
ATOM     80  F   UNL A   1      42.205  23.227  29.585  1.00  0.00    -0.206 F 
ATOM     81  C   UNL A   1      43.712  22.911  26.315  1.00  0.00     0.060 A 
BRANCH  81  82
ATOM     82  S   UNL A   1      44.108  21.638  25.095  1.00  0.00     0.124 S 
ATOM     83  O   UNL A   1      43.890  22.353  23.844  1.00  0.00    -0.237 OA
ATOM     84  O   UNL A   1      45.497  21.326  25.420  1.00  0.00    -0.237 OA
ATOM     85  O   UNL A   1      43.149  20.579  25.394  1.00  0.00    -0.744 OA
ENDBRANCH  81  82
ENDBRANCH  49  74
BRANCH  61  86
ATOM     86  C   UNL A   1      46.472  27.009  33.991  1.00  0.00     0.058 A 
ATOM     87  C   UNL A   1      46.413  25.998  34.963  1.00  0.00     0.135 A 
ATOM     88  C   UNL A   1      47.736  27.514  33.645  1.00  0.00     0.135 A 
ATOM     89  F   UNL A   1      45.229  25.485  35.334  1.00  0.00    -0.206 F 
ATOM     90  C   UNL A   1      47.562  25.523  35.585  1.00  0.00     0.059 A 
ATOM     91  C   UNL A   1      48.901  27.033  34.232  1.00  0.00     0.059 A 
ATOM     92  F   UNL A   1      47.849  28.473  32.711  1.00  0.00    -0.206 F 
ATOM     93  C   UNL A   1      48.803  26.045  35.210  1.00  0.00     0.060 A 
BRANCH  93  94
ATOM     94  S   UNL A   1      50.290  25.392  35.999  1.00  0.00     0.124 S 
ATOM     95  O   UNL A   1      51.065  26.610  36.217  1.00  0.00    -0.237 OA
ATOM     96  O   UNL A   1      49.754  24.759  37.199  1.00  0.00    -0.237 OA
ATOM     97  O   UNL A   1      50.830  24.474  35.001  1.00  0.00    -0.744 OA
ENDBRANCH  93  94
ENDBRANCH  61  86
ENDBRANCH  35  36
ENDBRANCH  27  30
ENDBRANCH  25  26
ENDBRANCH  24  25
ENDBRANCH  23  24
ENDBRANCH   1  23
TORSDOF 21
ENDMDL
