MODEL 1
REMARK VINA RESULT:     -13.3      0.000      0.000
REMARK SMILES Cc1cc(C(=O)NCCCCNC(=O)c2ccc(-c3c4nc(c(-c5c(F)cc(S(=O)(=O)[O-])cc5F)c5ccc([nH]5)c(-c5c(F)cc(S(=O)(=O)[O-])cc5F)c5nc(c(-c6c(F)cc(S(=O)(=O)[O-])cc6F)c6ccc3[nH]6)C=C5)C=C4)cc2)cc(S(=O)(=O)NNC(=O)c2c[nH]c3ccccc23)c1C
REMARK SMILES IDX 9 1 8 2 7 3 5 4 6 5 4 7 1 8 2 9 3 10 99 11 82 12 100 13
REMARK SMILES IDX 81 14 83 15 84 16 85 17 86 18 87 20 88 21 89 23 90 24 91 25
REMARK SMILES IDX 98 26 92 27 93 28 97 29 94 31 96 32 95 33 10 34 11 35 12 36
REMARK SMILES IDX 13 37 14 39 15 40 16 41 80 42 17 43 79 44 18 45 19 46 20 47
REMARK SMILES IDX 73 48 21 49 78 50 72 51 74 52 22 53 77 54 71 55 70 56 23 58
REMARK SMILES IDX 57 59 36 60 56 61 37 62 40 63 55 64 75 65 38 66 39 67 54 69
REMARK SMILES IDX 76 70 41 71 24 72 25 73 34 74 26 75 27 76 33 77 35 78 28 79
REMARK SMILES IDX 29 80 30 81 31 82 32 83 58 84 59 85 68 86 60 87 61 88 67 89
REMARK SMILES IDX 69 90 62 91 63 92 64 93 65 94 66 95 42 96 43 97 52 98 44 99
REMARK SMILES IDX 45 100 51 101 53 102 46 103 47 104 48 105 49 106 50 107
REMARK H PARENT 7 6 86 19 87 22 92 30 12 38 74 57 40 68
REMARK Flexibility Score: inf
ROOT
ATOM      1  C   UNL A   1      34.922  30.629  27.640  1.00  0.00     0.023 C 
ENDROOT
BRANCH   1   2
ATOM      2  C   UNL A   1      33.630  30.387  26.853  1.00  0.00     0.116 C 
BRANCH   2   3
ATOM      3  N   UNL A   1      32.749  29.467  27.552  1.00  0.00    -0.352 N 
ATOM      4  C   UNL A   1      31.936  28.438  27.149  1.00  0.00     0.251 C 
ATOM      5  O   UNL A   1      31.325  27.826  28.027  1.00  0.00    -0.269 OA
ATOM      6  H   UNL A   1      32.731  29.613  28.525  1.00  0.00     0.163 HD
BRANCH   4   7
ATOM      7  C   UNL A   1      31.756  27.988  25.734  1.00  0.00     0.041 A 
ATOM      8  C   UNL A   1      29.760  28.798  22.602  1.00  0.00     0.044 C 
ATOM      9  C   UNL A   1      30.737  28.093  23.508  1.00  0.00    -0.046 A 
ATOM     10  C   UNL A   1      30.818  28.515  24.847  1.00  0.00     0.017 A 
ATOM     11  C   UNL A   1      31.552  27.034  23.061  1.00  0.00    -0.028 A 
ATOM     12  C   UNL A   1      32.418  26.411  23.997  1.00  0.00     0.088 A 
ATOM     13  C   UNL A   1      31.495  26.567  21.626  1.00  0.00     0.046 C 
ATOM     14  C   UNL A   1      32.550  26.915  25.297  1.00  0.00     0.036 A 
BRANCH  12  15
ATOM     15  S   UNL A   1      33.199  24.873  23.545  1.00  0.00     0.257 S 
ATOM     16  O   UNL A   1      32.111  23.914  23.350  1.00  0.00    -0.205 OA
ATOM     17  O   UNL A   1      34.140  25.148  22.500  1.00  0.00    -0.205 OA
BRANCH  15  18
ATOM     18  N   UNL A   1      34.141  24.325  24.853  1.00  0.00    -0.123 NA
ATOM     19  H   UNL A   1      33.649  23.523  25.250  1.00  0.00     0.167 HD
BRANCH  18  20
ATOM     20  N   UNL A   1      35.536  23.904  24.653  1.00  0.00    -0.273 N 
ATOM     21  C   UNL A   1      35.824  22.800  23.861  1.00  0.00     0.268 C 
ATOM     22  H   UNL A   1      36.267  24.407  25.081  1.00  0.00     0.186 HD
ATOM     23  O   UNL A   1      36.335  22.920  22.752  1.00  0.00    -0.268 OA
BRANCH  21  24
ATOM     24  C   UNL A   1      35.780  21.530  24.586  1.00  0.00     0.066 A 
ATOM     25  C   UNL A   1      36.867  20.859  25.120  1.00  0.00     0.097 A 
ATOM     26  C   UNL A   1      34.682  20.615  24.711  1.00  0.00     0.012 A 
ATOM     27  N   UNL A   1      36.596  19.524  25.000  1.00  0.00    -0.360 N 
ATOM     28  C   UNL A   1      35.259  19.344  24.756  1.00  0.00     0.046 A 
ATOM     29  C   UNL A   1      33.276  20.703  24.640  1.00  0.00     0.011 A 
ATOM     30  H   UNL A   1      37.261  18.802  25.078  1.00  0.00     0.166 HD
ATOM     31  C   UNL A   1      34.533  18.170  24.544  1.00  0.00     0.027 A 
ATOM     32  C   UNL A   1      32.520  19.524  24.570  1.00  0.00     0.001 A 
ATOM     33  C   UNL A   1      33.145  18.284  24.462  1.00  0.00     0.002 A 
ENDBRANCH  21  24
ENDBRANCH  18  20
ENDBRANCH  15  18
ENDBRANCH  12  15
ENDBRANCH   4   7
ENDBRANCH   2   3
ENDBRANCH   1   2
BRANCH   1  34
ATOM     34  C   UNL A   1      35.107  32.074  28.122  1.00  0.00     0.023 C 
BRANCH  34  35
ATOM     35  C   UNL A   1      36.086  32.250  29.280  1.00  0.00     0.116 C 
BRANCH  35  36
ATOM     36  N   UNL A   1      35.801  31.387  30.416  1.00  0.00    -0.352 N 
ATOM     37  C   UNL A   1      36.599  30.414  30.973  1.00  0.00     0.251 C 
ATOM     38  H   UNL A   1      34.922  31.515  30.841  1.00  0.00     0.163 HD
ATOM     39  O   UNL A   1      36.162  29.703  31.873  1.00  0.00    -0.269 OA
BRANCH  37  40
ATOM     40  C   UNL A   1      37.965  30.202  30.448  1.00  0.00     0.039 A 
ATOM     41  C   UNL A   1      39.031  30.135  31.349  1.00  0.00     0.014 A 
ATOM     42  C   UNL A   1      38.192  30.042  29.079  1.00  0.00     0.014 A 
ATOM     43  C   UNL A   1      40.313  29.831  30.885  1.00  0.00     0.010 A 
ATOM     44  C   UNL A   1      39.457  29.675  28.625  1.00  0.00     0.010 A 
ATOM     45  C   UNL A   1      40.528  29.560  29.524  1.00  0.00    -0.014 A 
BRANCH  45  46
ATOM     46  C   UNL A   1      41.862  29.137  29.023  1.00  0.00     0.031 A 
ATOM     47  C   UNL A   1      42.977  30.137  28.900  1.00  0.00     0.074 A 
ATOM     48  C   UNL A   1      42.042  27.869  28.604  1.00  0.00     0.049 A 
ATOM     49  N   UNL A   1      44.181  29.976  28.416  1.00  0.00    -0.248 NA
ATOM     50  C   UNL A   1      42.691  31.507  29.355  1.00  0.00     0.031 C 
ATOM     51  C   UNL A   1      41.019  26.820  28.618  1.00  0.00     0.029 A 
ATOM     52  N   UNL A   1      43.145  27.249  28.070  1.00  0.00    -0.354 N 
ATOM     53  C   UNL A   1      44.791  31.222  28.493  1.00  0.00     0.074 A 
ATOM     54  C   UNL A   1      43.806  32.141  29.022  1.00  0.00     0.031 C 
ATOM     55  C   UNL A   1      41.548  25.684  28.134  1.00  0.00     0.029 A 
ATOM     56  C   UNL A   1      42.933  25.931  27.744  1.00  0.00     0.049 A 
ATOM     57  H   UNL A   1      44.005  27.706  27.935  1.00  0.00     0.167 HD
ATOM     58  C   UNL A   1      46.062  31.566  28.172  1.00  0.00     0.037 A 
ATOM     59  C   UNL A   1      43.758  25.023  27.187  1.00  0.00     0.037 A 
ATOM     60  C   UNL A   1      47.045  30.642  27.667  1.00  0.00     0.049 A 
ATOM     61  C   UNL A   1      45.170  25.420  26.853  1.00  0.00     0.074 A 
ATOM     62  C   UNL A   1      48.376  30.877  27.371  1.00  0.00     0.029 A 
ATOM     63  N   UNL A   1      46.802  29.306  27.380  1.00  0.00    -0.354 N 
ATOM     64  N   UNL A   1      45.751  26.588  26.996  1.00  0.00    -0.248 NA
ATOM     65  C   UNL A   1      46.039  24.379  26.292  1.00  0.00     0.031 C 
ATOM     66  C   UNL A   1      48.929  29.693  26.870  1.00  0.00     0.029 A 
ATOM     67  C   UNL A   1      47.954  28.707  26.896  1.00  0.00     0.049 A 
ATOM     68  H   UNL A   1      45.939  28.850  27.504  1.00  0.00     0.167 HD
ATOM     69  C   UNL A   1      47.060  26.416  26.564  1.00  0.00     0.074 A 
ATOM     70  C   UNL A   1      47.189  25.029  26.165  1.00  0.00     0.031 C 
ATOM     71  C   UNL A   1      48.066  27.324  26.505  1.00  0.00     0.037 A 
BRANCH  58  72
ATOM     72  C   UNL A   1      46.457  33.005  28.361  1.00  0.00     0.058 A 
ATOM     73  C   UNL A   1      46.331  33.945  27.325  1.00  0.00     0.135 A 
ATOM     74  C   UNL A   1      46.962  33.453  29.592  1.00  0.00     0.135 A 
ATOM     75  F   UNL A   1      45.866  33.568  26.123  1.00  0.00    -0.206 F 
ATOM     76  C   UNL A   1      46.731  35.267  27.489  1.00  0.00     0.059 A 
ATOM     77  C   UNL A   1      47.342  34.778  29.788  1.00  0.00     0.059 A 
ATOM     78  F   UNL A   1      47.101  32.598  30.618  1.00  0.00    -0.206 F 
ATOM     79  C   UNL A   1      47.242  35.672  28.723  1.00  0.00     0.060 A 
BRANCH  79  80
ATOM     80  S   UNL A   1      47.780  37.385  28.913  1.00  0.00     0.124 S 
ATOM     81  O   UNL A   1      46.535  38.107  28.672  1.00  0.00    -0.237 OA
ATOM     82  O   UNL A   1      48.271  37.410  30.287  1.00  0.00    -0.237 OA
ATOM     83  O   UNL A   1      48.803  37.536  27.883  1.00  0.00    -0.744 OA
ENDBRANCH  79  80
ENDBRANCH  58  72
BRANCH  59  84
ATOM     84  C   UNL A   1      43.274  23.639  26.945  1.00  0.00     0.058 A 
ATOM     85  C   UNL A   1      42.997  23.191  25.645  1.00  0.00     0.135 A 
ATOM     86  C   UNL A   1      43.115  22.726  27.999  1.00  0.00     0.135 A 
ATOM     87  F   UNL A   1      43.128  24.029  24.606  1.00  0.00    -0.206 F 
ATOM     88  C   UNL A   1      42.574  21.889  25.397  1.00  0.00     0.059 A 
ATOM     89  C   UNL A   1      42.715  21.412  27.774  1.00  0.00     0.059 A 
ATOM     90  F   UNL A   1      43.384  23.101  29.260  1.00  0.00    -0.206 F 
ATOM     91  C   UNL A   1      42.443  21.005  26.469  1.00  0.00     0.060 A 
BRANCH  91  92
ATOM     92  S   UNL A   1      41.964  19.297  26.127  1.00  0.00     0.124 S 
ATOM     93  O   UNL A   1      40.546  19.444  25.822  1.00  0.00    -0.237 OA
ATOM     94  O   UNL A   1      42.828  18.955  25.001  1.00  0.00    -0.237 OA
ATOM     95  O   UNL A   1      42.274  18.607  27.376  1.00  0.00    -0.744 OA
ENDBRANCH  91  92
ENDBRANCH  59  84
BRANCH  71  96
ATOM     96  C   UNL A   1      49.404  26.843  26.016  1.00  0.00     0.058 A 
ATOM     97  C   UNL A   1      49.851  27.106  24.713  1.00  0.00     0.135 A 
ATOM     98  C   UNL A   1      50.272  26.157  26.883  1.00  0.00     0.135 A 
ATOM     99  F   UNL A   1      49.058  27.752  23.844  1.00  0.00    -0.206 F 
ATOM    100  C   UNL A   1      51.105  26.690  24.278  1.00  0.00     0.059 A 
ATOM    101  C   UNL A   1      51.539  25.752  26.476  1.00  0.00     0.059 A 
ATOM    102  F   UNL A   1      49.896  25.888  28.143  1.00  0.00    -0.206 F 
ATOM    103  C   UNL A   1      51.943  26.014  25.168  1.00  0.00     0.060 A 
BRANCH 103 104
ATOM    104  S   UNL A   1      53.583  25.512  24.604  1.00  0.00     0.124 S 
ATOM    105  O   UNL A   1      53.534  25.882  23.193  1.00  0.00    -0.237 OA
ATOM    106  O   UNL A   1      54.464  26.320  25.441  1.00  0.00    -0.237 OA
ATOM    107  O   UNL A   1      53.611  24.078  24.876  1.00  0.00    -0.744 OA
ENDBRANCH 103 104
ENDBRANCH  71  96
ENDBRANCH  45  46
ENDBRANCH  37  40
ENDBRANCH  35  36
ENDBRANCH  34  35
ENDBRANCH   1  34
TORSDOF 18
ENDMDL
MODEL 2
REMARK VINA RESULT:     -13.1      1.072      8.065
REMARK SMILES Cc1cc(C(=O)NCCCCNC(=O)c2ccc(-c3c4nc(c(-c5c(F)cc(S(=O)(=O)[O-])cc5F)c5ccc([nH]5)c(-c5c(F)cc(S(=O)(=O)[O-])cc5F)c5nc(c(-c6c(F)cc(S(=O)(=O)[O-])cc6F)c6ccc3[nH]6)C=C5)C=C4)cc2)cc(S(=O)(=O)NNC(=O)c2c[nH]c3ccccc23)c1C
REMARK SMILES IDX 9 1 8 2 7 3 5 4 6 5 4 7 1 8 2 9 3 10 99 11 82 12 100 13
REMARK SMILES IDX 81 14 83 15 84 16 85 17 86 18 87 20 88 21 89 23 90 24 91 25
REMARK SMILES IDX 98 26 92 27 93 28 97 29 94 31 96 32 95 33 10 34 11 35 12 36
REMARK SMILES IDX 13 37 14 39 15 40 16 41 80 42 17 43 79 44 18 45 19 46 20 47
REMARK SMILES IDX 73 48 21 49 78 50 72 51 74 52 22 53 77 54 71 55 70 56 23 58
REMARK SMILES IDX 57 59 36 60 56 61 37 62 40 63 55 64 75 65 38 66 39 67 54 69
REMARK SMILES IDX 76 70 41 71 24 72 25 73 34 74 26 75 27 76 33 77 35 78 28 79
REMARK SMILES IDX 29 80 30 81 31 82 32 83 58 84 59 85 68 86 60 87 61 88 67 89
REMARK SMILES IDX 69 90 62 91 63 92 64 93 65 94 66 95 42 96 43 97 52 98 44 99
REMARK SMILES IDX 45 100 51 101 53 102 46 103 47 104 48 105 49 106 50 107
REMARK H PARENT 7 6 86 19 87 22 92 30 12 38 74 57 40 68
REMARK Flexibility Score: inf
ROOT
ATOM      1  C   UNL A   1      34.141  31.435  27.667  1.00  0.00     0.023 C 
ENDROOT
BRANCH   1   2
ATOM      2  C   UNL A   1      33.966  30.041  27.055  1.00  0.00     0.116 C 
BRANCH   2   3
ATOM      3  N   UNL A   1      32.893  29.309  27.706  1.00  0.00    -0.352 N 
ATOM      4  C   UNL A   1      31.939  28.427  27.265  1.00  0.00     0.251 C 
ATOM      5  O   UNL A   1      31.173  27.957  28.109  1.00  0.00    -0.269 OA
ATOM      6  H   UNL A   1      32.837  29.484  28.673  1.00  0.00     0.163 HD
BRANCH   4   7
ATOM      7  C   UNL A   1      31.775  27.976  25.848  1.00  0.00     0.041 A 
ATOM      8  C   UNL A   1      30.428  29.166  22.499  1.00  0.00     0.044 C 
ATOM      9  C   UNL A   1      31.058  28.256  23.521  1.00  0.00    -0.046 A 
ATOM     10  C   UNL A   1      31.127  28.706  24.852  1.00  0.00     0.017 A 
ATOM     11  C   UNL A   1      31.565  26.983  23.190  1.00  0.00    -0.028 A 
ATOM     12  C   UNL A   1      32.111  26.185  24.229  1.00  0.00     0.088 A 
ATOM     13  C   UNL A   1      31.515  26.479  21.768  1.00  0.00     0.046 C 
ATOM     14  C   UNL A   1      32.256  26.696  25.524  1.00  0.00     0.036 A 
BRANCH  12  15
ATOM     15  S   UNL A   1      32.444  24.465  23.898  1.00  0.00     0.257 S 
ATOM     16  O   UNL A   1      31.145  23.855  23.608  1.00  0.00    -0.205 OA
ATOM     17  O   UNL A   1      33.520  24.399  22.954  1.00  0.00    -0.205 OA
BRANCH  15  18
ATOM     18  N   UNL A   1      33.052  23.737  25.312  1.00  0.00    -0.123 NA
ATOM     19  H   UNL A   1      32.421  24.002  26.069  1.00  0.00     0.167 HD
BRANCH  18  20
ATOM     20  N   UNL A   1      33.220  22.278  25.395  1.00  0.00    -0.273 N 
ATOM     21  C   UNL A   1      34.192  21.736  26.225  1.00  0.00     0.268 C 
ATOM     22  H   UNL A   1      32.641  21.685  24.863  1.00  0.00     0.186 HD
ATOM     23  O   UNL A   1      33.900  21.155  27.266  1.00  0.00    -0.268 OA
BRANCH  21  24
ATOM     24  C   UNL A   1      35.508  21.626  25.595  1.00  0.00     0.066 A 
ATOM     25  C   UNL A   1      35.972  20.548  24.861  1.00  0.00     0.097 A 
ATOM     26  C   UNL A   1      36.651  22.475  25.770  1.00  0.00     0.012 A 
ATOM     27  N   UNL A   1      37.315  20.461  25.106  1.00  0.00    -0.360 N 
ATOM     28  C   UNL A   1      37.761  21.634  25.659  1.00  0.00     0.046 A 
ATOM     29  C   UNL A   1      36.871  23.813  26.156  1.00  0.00     0.011 A 
ATOM     30  H   UNL A   1      37.876  19.674  24.915  1.00  0.00     0.166 HD
ATOM     31  C   UNL A   1      39.039  21.997  26.089  1.00  0.00     0.027 A 
ATOM     32  C   UNL A   1      38.174  24.234  26.457  1.00  0.00     0.001 A 
ATOM     33  C   UNL A   1      39.227  23.323  26.480  1.00  0.00     0.002 A 
ENDBRANCH  21  24
ENDBRANCH  18  20
ENDBRANCH  15  18
ENDBRANCH  12  15
ENDBRANCH   4   7
ENDBRANCH   2   3
ENDBRANCH   1   2
BRANCH   1  34
ATOM     34  C   UNL A   1      35.589  31.940  27.681  1.00  0.00     0.023 C 
BRANCH  34  35
ATOM     35  C   UNL A   1      36.185  32.159  29.070  1.00  0.00     0.116 C 
BRANCH  35  36
ATOM     36  N   UNL A   1      35.864  31.097  30.012  1.00  0.00    -0.352 N 
ATOM     37  C   UNL A   1      36.637  30.021  30.383  1.00  0.00     0.251 C 
ATOM     38  H   UNL A   1      34.978  31.156  30.438  1.00  0.00     0.163 HD
ATOM     39  O   UNL A   1      36.170  29.157  31.120  1.00  0.00    -0.269 OA
BRANCH  37  40
ATOM     40  C   UNL A   1      38.010  29.889  29.852  1.00  0.00     0.039 A 
ATOM     41  C   UNL A   1      39.085  29.925  30.744  1.00  0.00     0.014 A 
ATOM     42  C   UNL A   1      38.237  29.703  28.486  1.00  0.00     0.014 A 
ATOM     43  C   UNL A   1      40.381  29.698  30.276  1.00  0.00     0.010 A 
ATOM     44  C   UNL A   1      39.521  29.413  28.031  1.00  0.00     0.010 A 
ATOM     45  C   UNL A   1      40.604  29.401  28.922  1.00  0.00    -0.014 A 
BRANCH  45  46
ATOM     46  C   UNL A   1      41.961  29.058  28.420  1.00  0.00     0.031 A 
ATOM     47  C   UNL A   1      42.283  27.647  28.012  1.00  0.00     0.074 A 
ATOM     48  C   UNL A   1      42.923  30.001  28.410  1.00  0.00     0.049 A 
ATOM     49  N   UNL A   1      43.424  27.141  27.623  1.00  0.00    -0.248 NA
ATOM     50  C   UNL A   1      41.183  26.672  28.078  1.00  0.00     0.031 C 
ATOM     51  C   UNL A   1      42.749  31.392  28.836  1.00  0.00     0.029 A 
ATOM     52  N   UNL A   1      44.243  29.930  28.040  1.00  0.00    -0.354 N 
ATOM     53  C   UNL A   1      43.186  25.787  27.413  1.00  0.00     0.074 A 
ATOM     54  C   UNL A   1      41.804  25.543  27.768  1.00  0.00     0.031 C 
ATOM     55  C   UNL A   1      43.912  32.046  28.687  1.00  0.00     0.029 A 
ATOM     56  C   UNL A   1      44.922  31.117  28.188  1.00  0.00     0.049 A 
ATOM     57  H   UNL A   1      44.664  29.108  27.701  1.00  0.00     0.167 HD
ATOM     58  C   UNL A   1      44.035  24.839  26.947  1.00  0.00     0.037 A 
ATOM     59  C   UNL A   1      46.213  31.422  27.954  1.00  0.00     0.037 A 
ATOM     60  C   UNL A   1      45.403  25.094  26.574  1.00  0.00     0.049 A 
ATOM     61  C   UNL A   1      47.135  30.359  27.422  1.00  0.00     0.074 A 
ATOM     62  C   UNL A   1      46.325  24.216  26.033  1.00  0.00     0.029 A 
ATOM     63  N   UNL A   1      46.046  26.317  26.707  1.00  0.00    -0.354 N 
ATOM     64  N   UNL A   1      46.875  29.100  27.164  1.00  0.00    -0.248 NA
ATOM     65  C   UNL A   1      48.519  30.759  27.141  1.00  0.00     0.031 C 
ATOM     66  C   UNL A   1      47.537  24.898  25.874  1.00  0.00     0.029 A 
ATOM     67  C   UNL A   1      47.357  26.213  26.274  1.00  0.00     0.049 A 
ATOM     68  H   UNL A   1      45.630  27.137  27.057  1.00  0.00     0.167 HD
ATOM     69  C   UNL A   1      48.057  28.561  26.669  1.00  0.00     0.074 A 
ATOM     70  C   UNL A   1      49.030  29.635  26.653  1.00  0.00     0.031 C 
ATOM     71  C   UNL A   1      48.313  27.293  26.262  1.00  0.00     0.037 A 
BRANCH  58  72
ATOM     72  C   UNL A   1      43.501  23.439  26.815  1.00  0.00     0.058 A 
ATOM     73  C   UNL A   1      43.356  22.599  27.931  1.00  0.00     0.135 A 
ATOM     74  C   UNL A   1      43.125  22.932  25.561  1.00  0.00     0.135 A 
ATOM     75  F   UNL A   1      43.713  23.029  29.152  1.00  0.00    -0.206 F 
ATOM     76  C   UNL A   1      42.897  21.292  27.803  1.00  0.00     0.059 A 
ATOM     77  C   UNL A   1      42.637  21.637  25.413  1.00  0.00     0.059 A 
ATOM     78  F   UNL A   1      43.241  23.693  24.461  1.00  0.00    -0.206 F 
ATOM     79  C   UNL A   1      42.547  20.817  26.538  1.00  0.00     0.060 A 
BRANCH  79  80
ATOM     80  S   UNL A   1      41.976  19.112  26.384  1.00  0.00     0.124 S 
ATOM     81  O   UNL A   1      40.643  19.302  25.824  1.00  0.00    -0.237 OA
ATOM     82  O   UNL A   1      42.965  18.529  25.482  1.00  0.00    -0.237 OA
ATOM     83  O   UNL A   1      42.017  18.615  27.756  1.00  0.00    -0.744 OA
ENDBRANCH  79  80
ENDBRANCH  58  72
BRANCH  59  84
ATOM     84  C   UNL A   1      46.697  32.807  28.191  1.00  0.00     0.058 A 
ATOM     85  C   UNL A   1      46.602  33.784  27.189  1.00  0.00     0.135 A 
ATOM     86  C   UNL A   1      47.226  33.192  29.433  1.00  0.00     0.135 A 
ATOM     87  F   UNL A   1      46.109  33.461  25.984  1.00  0.00    -0.206 F 
ATOM     88  C   UNL A   1      47.019  35.093  27.406  1.00  0.00     0.059 A 
ATOM     89  C   UNL A   1      47.629  34.502  29.681  1.00  0.00     0.059 A 
ATOM     90  F   UNL A   1      47.322  32.299  30.430  1.00  0.00    -0.206 F 
ATOM     91  C   UNL A   1      47.526  35.443  28.658  1.00  0.00     0.060 A 
BRANCH  91  92
ATOM     92  S   UNL A   1      47.997  37.163  28.951  1.00  0.00     0.124 S 
ATOM     93  O   UNL A   1      47.035  37.876  28.120  1.00  0.00    -0.237 OA
ATOM     94  O   UNL A   1      47.813  37.289  30.394  1.00  0.00    -0.237 OA
ATOM     95  O   UNL A   1      49.384  37.212  28.497  1.00  0.00    -0.744 OA
ENDBRANCH  91  92
ENDBRANCH  59  84
BRANCH  71  96
ATOM     96  C   UNL A   1      49.691  27.000  25.739  1.00  0.00     0.058 A 
ATOM     97  C   UNL A   1      50.034  27.225  24.397  1.00  0.00     0.135 A 
ATOM     98  C   UNL A   1      50.696  26.538  26.605  1.00  0.00     0.135 A 
ATOM     99  F   UNL A   1      49.108  27.659  23.527  1.00  0.00    -0.206 F 
ATOM    100  C   UNL A   1      51.321  26.987  23.927  1.00  0.00     0.059 A 
ATOM    101  C   UNL A   1      51.996  26.315  26.161  1.00  0.00     0.059 A 
ATOM    102  F   UNL A   1      50.423  26.315  27.900  1.00  0.00    -0.206 F 
ATOM    103  C   UNL A   1      52.297  26.533  24.818  1.00  0.00     0.060 A 
BRANCH 103 104
ATOM    104  S   UNL A   1      53.973  26.262  24.205  1.00  0.00     0.124 S 
ATOM    105  O   UNL A   1      54.391  25.109  24.995  1.00  0.00    -0.237 OA
ATOM    106  O   UNL A   1      53.751  26.012  22.784  1.00  0.00    -0.237 OA
ATOM    107  O   UNL A   1      54.653  27.516  24.515  1.00  0.00    -0.744 OA
ENDBRANCH 103 104
ENDBRANCH  71  96
ENDBRANCH  45  46
ENDBRANCH  37  40
ENDBRANCH  35  36
ENDBRANCH  34  35
ENDBRANCH   1  34
TORSDOF 18
ENDMDL
MODEL 3
REMARK VINA RESULT:     -13.1      1.364      2.050
REMARK SMILES Cc1cc(C(=O)NCCCCNC(=O)c2ccc(-c3c4nc(c(-c5c(F)cc(S(=O)(=O)[O-])cc5F)c5ccc([nH]5)c(-c5c(F)cc(S(=O)(=O)[O-])cc5F)c5nc(c(-c6c(F)cc(S(=O)(=O)[O-])cc6F)c6ccc3[nH]6)C=C5)C=C4)cc2)cc(S(=O)(=O)NNC(=O)c2c[nH]c3ccccc23)c1C
REMARK SMILES IDX 9 1 8 2 7 3 5 4 6 5 4 7 1 8 2 9 3 10 99 11 82 12 100 13
REMARK SMILES IDX 81 14 83 15 84 16 85 17 86 18 87 20 88 21 89 23 90 24 91 25
REMARK SMILES IDX 98 26 92 27 93 28 97 29 94 31 96 32 95 33 10 34 11 35 12 36
REMARK SMILES IDX 13 37 14 39 15 40 16 41 80 42 17 43 79 44 18 45 19 46 20 47
REMARK SMILES IDX 73 48 21 49 78 50 72 51 74 52 22 53 77 54 71 55 70 56 23 58
REMARK SMILES IDX 57 59 36 60 56 61 37 62 40 63 55 64 75 65 38 66 39 67 54 69
REMARK SMILES IDX 76 70 41 71 24 72 25 73 34 74 26 75 27 76 33 77 35 78 28 79
REMARK SMILES IDX 29 80 30 81 31 82 32 83 58 84 59 85 68 86 60 87 61 88 67 89
REMARK SMILES IDX 69 90 62 91 63 92 64 93 65 94 66 95 42 96 43 97 52 98 44 99
REMARK SMILES IDX 45 100 51 101 53 102 46 103 47 104 48 105 49 106 50 107
REMARK H PARENT 7 6 86 19 87 22 92 30 12 38 74 57 40 68
REMARK Flexibility Score: inf
ROOT
ATOM      1  C   UNL A   1      34.834  30.119  27.593  1.00  0.00     0.023 C 
ENDROOT
BRANCH   1   2
ATOM      2  C   UNL A   1      33.697  29.667  26.670  1.00  0.00     0.116 C 
BRANCH   2   3
ATOM      3  N   UNL A   1      34.191  29.349  25.341  1.00  0.00    -0.352 N 
ATOM      4  C   UNL A   1      33.647  28.721  24.249  1.00  0.00     0.251 C 
ATOM      5  O   UNL A   1      34.349  28.635  23.240  1.00  0.00    -0.269 OA
ATOM      6  H   UNL A   1      35.117  29.647  25.191  1.00  0.00     0.163 HD
BRANCH   4   7
ATOM      7  C   UNL A   1      32.262  28.158  24.183  1.00  0.00     0.041 A 
ATOM      8  C   UNL A   1      28.798  28.966  22.842  1.00  0.00     0.044 C 
ATOM      9  C   UNL A   1      29.896  28.211  23.546  1.00  0.00    -0.046 A 
ATOM     10  C   UNL A   1      31.162  28.817  23.635  1.00  0.00     0.017 A 
ATOM     11  C   UNL A   1      29.693  26.938  24.117  1.00  0.00    -0.028 A 
ATOM     12  C   UNL A   1      30.780  26.320  24.788  1.00  0.00     0.088 A 
ATOM     13  C   UNL A   1      28.348  26.258  24.027  1.00  0.00     0.046 C 
ATOM     14  C   UNL A   1      32.053  26.902  24.776  1.00  0.00     0.036 A 
BRANCH  12  15
ATOM     15  S   UNL A   1      30.456  24.884  25.794  1.00  0.00     0.257 S 
ATOM     16  O   UNL A   1      29.302  25.229  26.625  1.00  0.00    -0.205 OA
ATOM     17  O   UNL A   1      30.432  23.740  24.932  1.00  0.00    -0.205 OA
BRANCH  15  18
ATOM     18  N   UNL A   1      31.780  24.626  26.833  1.00  0.00    -0.123 NA
ATOM     19  H   UNL A   1      31.470  24.888  27.769  1.00  0.00     0.167 HD
BRANCH  18  20
ATOM     20  N   UNL A   1      32.398  23.296  26.951  1.00  0.00    -0.273 N 
ATOM     21  C   UNL A   1      33.669  23.072  26.440  1.00  0.00     0.268 C 
ATOM     22  H   UNL A   1      31.909  22.565  27.393  1.00  0.00     0.186 HD
ATOM     23  O   UNL A   1      34.641  22.922  27.174  1.00  0.00    -0.268 OA
BRANCH  21  24
ATOM     24  C   UNL A   1      33.677  22.703  25.024  1.00  0.00     0.066 A 
ATOM     25  C   UNL A   1      33.744  23.580  23.954  1.00  0.00     0.097 A 
ATOM     26  C   UNL A   1      33.404  21.423  24.437  1.00  0.00     0.012 A 
ATOM     27  N   UNL A   1      33.001  23.024  22.950  1.00  0.00    -0.360 N 
ATOM     28  C   UNL A   1      32.783  21.697  23.216  1.00  0.00     0.046 A 
ATOM     29  C   UNL A   1      33.472  20.079  24.859  1.00  0.00     0.011 A 
ATOM     30  H   UNL A   1      32.673  23.505  22.155  1.00  0.00     0.166 HD
ATOM     31  C   UNL A   1      32.067  20.740  22.494  1.00  0.00     0.027 A 
ATOM     32  C   UNL A   1      32.879  19.083  24.070  1.00  0.00     0.001 A 
ATOM     33  C   UNL A   1      32.137  19.420  22.940  1.00  0.00     0.002 A 
ENDBRANCH  21  24
ENDBRANCH  18  20
ENDBRANCH  15  18
ENDBRANCH  12  15
ENDBRANCH   4   7
ENDBRANCH   2   3
ENDBRANCH   1   2
BRANCH   1  34
ATOM     34  C   UNL A   1      34.807  31.614  27.940  1.00  0.00     0.023 C 
BRANCH  34  35
ATOM     35  C   UNL A   1      35.814  32.050  29.002  1.00  0.00     0.116 C 
BRANCH  35  36
ATOM     36  N   UNL A   1      35.603  31.414  30.295  1.00  0.00    -0.352 N 
ATOM     37  C   UNL A   1      36.471  30.623  31.011  1.00  0.00     0.251 C 
ATOM     38  H   UNL A   1      34.723  31.570  30.710  1.00  0.00     0.163 HD
ATOM     39  O   UNL A   1      36.095  30.081  32.045  1.00  0.00    -0.269 OA
BRANCH  37  40
ATOM     40  C   UNL A   1      37.841  30.395  30.501  1.00  0.00     0.039 A 
ATOM     41  C   UNL A   1      38.914  30.480  31.391  1.00  0.00     0.014 A 
ATOM     42  C   UNL A   1      38.063  30.071  29.160  1.00  0.00     0.014 A 
ATOM     43  C   UNL A   1      40.203  30.165  30.953  1.00  0.00     0.010 A 
ATOM     44  C   UNL A   1      39.337  29.695  28.742  1.00  0.00     0.010 A 
ATOM     45  C   UNL A   1      40.418  29.732  29.635  1.00  0.00    -0.014 A 
BRANCH  45  46
ATOM     46  C   UNL A   1      41.763  29.297  29.176  1.00  0.00     0.031 A 
ATOM     47  C   UNL A   1      42.890  30.288  29.085  1.00  0.00     0.074 A 
ATOM     48  C   UNL A   1      41.945  28.026  28.767  1.00  0.00     0.049 A 
ATOM     49  N   UNL A   1      44.107  30.115  28.638  1.00  0.00    -0.248 NA
ATOM     50  C   UNL A   1      42.601  31.661  29.526  1.00  0.00     0.031 C 
ATOM     51  C   UNL A   1      40.914  26.985  28.753  1.00  0.00     0.029 A 
ATOM     52  N   UNL A   1      43.059  27.396  28.269  1.00  0.00    -0.354 N 
ATOM     53  C   UNL A   1      44.724  31.357  28.729  1.00  0.00     0.074 A 
ATOM     54  C   UNL A   1      43.731  32.285  29.225  1.00  0.00     0.031 C 
ATOM     55  C   UNL A   1      41.448  25.844  28.288  1.00  0.00     0.029 A 
ATOM     56  C   UNL A   1      42.846  26.078  27.940  1.00  0.00     0.049 A 
ATOM     57  H   UNL A   1      43.926  27.845  28.158  1.00  0.00     0.167 HD
ATOM     58  C   UNL A   1      46.007  31.689  28.445  1.00  0.00     0.037 A 
ATOM     59  C   UNL A   1      43.680  25.162  27.411  1.00  0.00     0.037 A 
ATOM     60  C   UNL A   1      46.997  30.756  27.973  1.00  0.00     0.049 A 
ATOM     61  C   UNL A   1      45.104  25.547  27.119  1.00  0.00     0.074 A 
ATOM     62  C   UNL A   1      48.338  30.979  27.717  1.00  0.00     0.029 A 
ATOM     63  N   UNL A   1      46.752  29.420  27.683  1.00  0.00    -0.354 N 
ATOM     64  N   UNL A   1      45.691  26.710  27.276  1.00  0.00    -0.248 NA
ATOM     65  C   UNL A   1      45.982  24.497  26.587  1.00  0.00     0.031 C 
ATOM     66  C   UNL A   1      48.896  29.789  27.237  1.00  0.00     0.029 A 
ATOM     67  C   UNL A   1      47.913  28.811  27.235  1.00  0.00     0.049 A 
ATOM     68  H   UNL A   1      45.882  28.972  27.782  1.00  0.00     0.167 HD
ATOM     69  C   UNL A   1      47.011  26.526  26.883  1.00  0.00     0.074 A 
ATOM     70  C   UNL A   1      47.140  25.137  26.493  1.00  0.00     0.031 C 
ATOM     71  C   UNL A   1      48.026  27.426  26.852  1.00  0.00     0.037 A 
BRANCH  58  72
ATOM     72  C   UNL A   1      46.408  33.126  28.642  1.00  0.00     0.058 A 
ATOM     73  C   UNL A   1      46.319  34.064  27.601  1.00  0.00     0.135 A 
ATOM     74  C   UNL A   1      46.881  33.573  29.886  1.00  0.00     0.135 A 
ATOM     75  F   UNL A   1      45.886  33.687  26.387  1.00  0.00    -0.206 F 
ATOM     76  C   UNL A   1      46.724  35.382  27.773  1.00  0.00     0.059 A 
ATOM     77  C   UNL A   1      47.266  34.895  30.089  1.00  0.00     0.059 A 
ATOM     78  F   UNL A   1      46.984  32.720  30.917  1.00  0.00    -0.206 F 
ATOM     79  C   UNL A   1      47.204  35.788  29.019  1.00  0.00     0.060 A 
BRANCH  79  80
ATOM     80  S   UNL A   1      47.749  37.496  29.220  1.00  0.00     0.124 S 
ATOM     81  O   UNL A   1      48.435  37.432  30.507  1.00  0.00    -0.237 OA
ATOM     82  O   UNL A   1      48.607  37.692  28.055  1.00  0.00    -0.237 OA
ATOM     83  O   UNL A   1      46.502  38.255  29.210  1.00  0.00    -0.744 OA
ENDBRANCH  79  80
ENDBRANCH  58  72
BRANCH  59  84
ATOM     84  C   UNL A   1      43.192  23.781  27.158  1.00  0.00     0.058 A 
ATOM     85  C   UNL A   1      42.807  23.379  25.871  1.00  0.00     0.135 A 
ATOM     86  C   UNL A   1      43.137  22.827  28.186  1.00  0.00     0.135 A 
ATOM     87  F   UNL A   1      42.837  24.257  24.858  1.00  0.00    -0.206 F 
ATOM     88  C   UNL A   1      42.379  22.081  25.611  1.00  0.00     0.059 A 
ATOM     89  C   UNL A   1      42.734  21.516  27.946  1.00  0.00     0.059 A 
ATOM     90  F   UNL A   1      43.511  23.158  29.432  1.00  0.00    -0.206 F 
ATOM     91  C   UNL A   1      42.352  21.155  26.655  1.00  0.00     0.060 A 
BRANCH  91  92
ATOM     92  S   UNL A   1      41.865  19.454  26.290  1.00  0.00     0.124 S 
ATOM     93  O   UNL A   1      42.654  19.171  25.098  1.00  0.00    -0.237 OA
ATOM     94  O   UNL A   1      42.268  18.752  27.505  1.00  0.00    -0.237 OA
ATOM     95  O   UNL A   1      40.423  19.556  26.085  1.00  0.00    -0.744 OA
ENDBRANCH  91  92
ENDBRANCH  59  84
BRANCH  71  96
ATOM     96  C   UNL A   1      49.374  26.933  26.406  1.00  0.00     0.058 A 
ATOM     97  C   UNL A   1      50.259  26.302  27.293  1.00  0.00     0.135 A 
ATOM     98  C   UNL A   1      49.761  27.045  25.060  1.00  0.00     0.135 A 
ATOM     99  F   UNL A   1      49.939  26.176  28.591  1.00  0.00    -0.206 F 
ATOM    100  C   UNL A   1      51.490  25.814  26.866  1.00  0.00     0.059 A 
ATOM    101  C   UNL A   1      50.977  26.544  24.607  1.00  0.00     0.059 A 
ATOM    102  F   UNL A   1      48.947  27.632  24.169  1.00  0.00    -0.206 F 
ATOM    103  C   UNL A   1      51.840  25.939  25.520  1.00  0.00     0.060 A 
BRANCH 103 104
ATOM    104  S   UNL A   1      53.423  25.269  24.970  1.00  0.00     0.124 S 
ATOM    105  O   UNL A   1      53.259  23.850  25.264  1.00  0.00    -0.237 OA
ATOM    106  O   UNL A   1      53.440  25.626  23.554  1.00  0.00    -0.237 OA
ATOM    107  O   UNL A   1      54.396  25.974  25.799  1.00  0.00    -0.744 OA
ENDBRANCH 103 104
ENDBRANCH  71  96
ENDBRANCH  45  46
ENDBRANCH  37  40
ENDBRANCH  35  36
ENDBRANCH  34  35
ENDBRANCH   1  34
TORSDOF 18
ENDMDL
