MODEL 1
REMARK VINA RESULT:      -9.8      0.000      0.000
REMARK SMILES O=C(NCCCCNC(=O)C(Cl)(c1ccccc1)c1ccccc1)c1ccc(-c2c3nc(c(-c4c(F)cc(S(=O)(=O)[O-])cc4F)c4ccc([nH]4)c(-c4c(F)cc(S(=O)(=O)[O-])cc4F)c4nc(c(-c5c(F)cc(S(=O)(=O)[O-])cc5F)c5ccc2[nH]5)C=C4)C=C3)cc1
REMARK SMILES IDX 4 1 3 2 1 3 2 4 25 6 26 7 90 8 27 9 89 10 28 11 29 12 30 13
REMARK SMILES IDX 83 14 31 15 88 16 82 17 84 18 32 19 87 20 81 21 80 22 33 24
REMARK SMILES IDX 67 25 46 26 66 27 47 28 50 29 65 30 85 31 48 32 49 33 64 35
REMARK SMILES IDX 86 36 51 37 34 38 35 39 44 40 36 41 37 42 43 43 45 44 38 45
REMARK SMILES IDX 39 46 40 47 41 48 42 49 68 50 69 51 78 52 70 53 71 54 77 55
REMARK SMILES IDX 79 56 72 57 73 58 74 59 75 60 76 61 52 62 53 63 62 64 54 65
REMARK SMILES IDX 55 66 61 67 63 68 56 69 57 70 58 71 59 72 60 73 5 74 6 75
REMARK SMILES IDX 7 76 8 77 9 78 10 80 11 81 12 82 13 83 14 84 18 85 15 86
REMARK SMILES IDX 17 87 16 88 19 89 20 90 24 91 21 92 23 93 22 94
REMARK H PARENT 3 5 84 23 50 34 8 79
REMARK Flexibility Score: inf
ROOT
ATOM      1  C   UNL A   1      35.055  32.321  29.765  1.00  0.00     0.116 C 
ENDROOT
BRANCH   1   2
ATOM      2  N   UNL A   1      34.308  31.455  28.865  1.00  0.00    -0.352 N 
ATOM      3  O   UNL A   1      34.011  29.815  27.342  1.00  0.00    -0.269 OA
ATOM      4  C   UNL A   1      34.751  30.368  28.142  1.00  0.00     0.251 C 
ATOM      5  H   UNL A   1      33.355  31.675  28.758  1.00  0.00     0.163 HD
BRANCH   4   6
ATOM      6  C   UNL A   1      36.143  29.901  28.324  1.00  0.00     0.039 A 
ATOM      7  C   UNL A   1      36.543  29.340  29.537  1.00  0.00     0.014 A 
ATOM      8  C   UNL A   1      37.063  30.063  27.284  1.00  0.00     0.014 A 
ATOM      9  C   UNL A   1      37.890  29.089  29.765  1.00  0.00     0.010 A 
ATOM     10  C   UNL A   1      38.406  29.727  27.487  1.00  0.00     0.010 A 
ATOM     11  C   UNL A   1      38.837  29.271  28.741  1.00  0.00    -0.014 A 
BRANCH  11  12
ATOM     12  C   UNL A   1      40.254  28.913  29.007  1.00  0.00     0.031 A 
ATOM     13  C   UNL A   1      40.812  27.569  28.623  1.00  0.00     0.074 A 
ATOM     14  C   UNL A   1      41.055  29.853  29.547  1.00  0.00     0.049 A 
ATOM     15  N   UNL A   1      42.041  27.131  28.733  1.00  0.00    -0.248 NA
ATOM     16  C   UNL A   1      39.879  26.588  28.049  1.00  0.00     0.031 C 
ATOM     17  C   UNL A   1      40.615  31.183  29.980  1.00  0.00     0.029 A 
ATOM     18  N   UNL A   1      42.402  29.853  29.796  1.00  0.00    -0.354 N 
ATOM     19  C   UNL A   1      42.029  25.825  28.255  1.00  0.00     0.074 A 
ATOM     20  C   UNL A   1      40.664  25.531  27.876  1.00  0.00     0.031 C 
ATOM     21  C   UNL A   1      41.679  31.889  30.386  1.00  0.00     0.029 A 
ATOM     22  C   UNL A   1      42.865  31.046  30.299  1.00  0.00     0.049 A 
ATOM     23  H   UNL A   1      42.983  29.075  29.632  1.00  0.00     0.167 HD
ATOM     24  C   UNL A   1      43.065  24.958  28.137  1.00  0.00     0.037 A 
ATOM     25  C   UNL A   1      44.106  31.421  30.659  1.00  0.00     0.037 A 
ATOM     26  C   UNL A   1      44.425  25.265  28.504  1.00  0.00     0.049 A 
ATOM     27  C   UNL A   1      45.234  30.442  30.507  1.00  0.00     0.074 A 
ATOM     28  C   UNL A   1      45.546  24.458  28.410  1.00  0.00     0.029 A 
ATOM     29  N   UNL A   1      44.852  26.478  29.028  1.00  0.00    -0.354 N 
ATOM     30  N   UNL A   1      45.200  29.216  30.043  1.00  0.00    -0.248 NA
ATOM     31  C   UNL A   1      46.564  30.895  30.930  1.00  0.00     0.031 C 
ATOM     32  C   UNL A   1      46.645  25.170  28.906  1.00  0.00     0.029 A 
ATOM     33  C   UNL A   1      46.216  26.435  29.272  1.00  0.00     0.049 A 
ATOM     34  H   UNL A   1      44.272  27.253  29.202  1.00  0.00     0.167 HD
ATOM     35  C   UNL A   1      46.506  28.748  30.122  1.00  0.00     0.074 A 
ATOM     36  C   UNL A   1      47.309  29.837  30.643  1.00  0.00     0.031 C 
ATOM     37  C   UNL A   1      46.995  27.525  29.804  1.00  0.00     0.037 A 
BRANCH  24  38
ATOM     38  C   UNL A   1      42.779  23.587  27.590  1.00  0.00     0.058 A 
ATOM     39  C   UNL A   1      42.894  23.305  26.219  1.00  0.00     0.135 A 
ATOM     40  C   UNL A   1      42.465  22.523  28.451  1.00  0.00     0.135 A 
ATOM     41  F   UNL A   1      43.177  24.287  25.348  1.00  0.00    -0.206 F 
ATOM     42  C   UNL A   1      42.701  22.019  25.722  1.00  0.00     0.059 A 
ATOM     43  C   UNL A   1      42.287  21.225  27.979  1.00  0.00     0.059 A 
ATOM     44  F   UNL A   1      42.342  22.737  29.772  1.00  0.00    -0.206 F 
ATOM     45  C   UNL A   1      42.401  20.985  26.610  1.00  0.00     0.060 A 
BRANCH  45  46
ATOM     46  S   UNL A   1      42.186  19.316  25.953  1.00  0.00     0.124 S 
ATOM     47  O   UNL A   1      43.018  19.366  24.754  1.00  0.00    -0.237 OA
ATOM     48  O   UNL A   1      42.694  18.484  27.040  1.00  0.00    -0.237 OA
ATOM     49  O   UNL A   1      40.750  19.225  25.716  1.00  0.00    -0.744 OA
ENDBRANCH  45  46
ENDBRANCH  24  38
BRANCH  25  50
ATOM     50  C   UNL A   1      44.336  32.778  31.217  1.00  0.00     0.058 A 
ATOM     51  C   UNL A   1      44.703  33.851  30.394  1.00  0.00     0.135 A 
ATOM     52  C   UNL A   1      44.173  33.029  32.589  1.00  0.00     0.135 A 
ATOM     53  F   UNL A   1      44.872  33.659  29.076  1.00  0.00    -0.206 F 
ATOM     54  C   UNL A   1      44.922  35.123  30.913  1.00  0.00     0.059 A 
ATOM     55  C   UNL A   1      44.359  34.298  33.126  1.00  0.00     0.059 A 
ATOM     56  F   UNL A   1      43.801  32.039  33.415  1.00  0.00    -0.206 F 
ATOM     57  C   UNL A   1      44.748  35.336  32.281  1.00  0.00     0.060 A 
BRANCH  57  58
ATOM     58  S   UNL A   1      44.993  36.996  32.947  1.00  0.00     0.124 S 
ATOM     59  O   UNL A   1      45.034  36.730  34.380  1.00  0.00    -0.237 OA
ATOM     60  O   UNL A   1      46.256  37.394  32.335  1.00  0.00    -0.237 OA
ATOM     61  O   UNL A   1      43.819  37.721  32.470  1.00  0.00    -0.744 OA
ENDBRANCH  57  58
ENDBRANCH  25  50
BRANCH  37  62
ATOM     62  C   UNL A   1      48.466  27.312  30.014  1.00  0.00     0.058 A 
ATOM     63  C   UNL A   1      49.400  27.651  29.022  1.00  0.00     0.135 A 
ATOM     64  C   UNL A   1      48.946  26.766  31.214  1.00  0.00     0.135 A 
ATOM     65  F   UNL A   1      48.988  28.169  27.855  1.00  0.00    -0.206 F 
ATOM     66  C   UNL A   1      50.759  27.419  29.199  1.00  0.00     0.059 A 
ATOM     67  C   UNL A   1      50.304  26.547  31.420  1.00  0.00     0.059 A 
ATOM     68  F   UNL A   1      48.093  26.434  32.195  1.00  0.00    -0.206 F 
ATOM     69  C   UNL A   1      51.201  26.859  30.399  1.00  0.00     0.060 A 
BRANCH  69  70
ATOM     70  S   UNL A   1      52.967  26.557  30.618  1.00  0.00     0.124 S 
ATOM     71  O   UNL A   1      53.424  27.850  31.116  1.00  0.00    -0.237 OA
ATOM     72  O   UNL A   1      52.984  25.464  31.585  1.00  0.00    -0.237 OA
ATOM     73  O   UNL A   1      53.418  26.205  29.275  1.00  0.00    -0.744 OA
ENDBRANCH  69  70
ENDBRANCH  37  62
ENDBRANCH  11  12
ENDBRANCH   4   6
ENDBRANCH   1   2
BRANCH   1  74
ATOM     74  C   UNL A   1      35.974  33.299  29.039  1.00  0.00     0.023 C 
BRANCH  74  75
ATOM     75  C   UNL A   1      37.473  33.108  29.282  1.00  0.00     0.023 C 
BRANCH  75  76
ATOM     76  C   UNL A   1      38.099  34.101  30.255  1.00  0.00     0.116 C 
BRANCH  76  77
ATOM     77  N   UNL A   1      37.300  34.286  31.458  1.00  0.00    -0.354 N 
ATOM     78  C   UNL A   1      37.624  34.404  32.785  1.00  0.00     0.250 C 
ATOM     79  H   UNL A   1      36.332  34.335  31.284  1.00  0.00     0.163 HD
ATOM     80  O   UNL A   1      36.793  35.096  33.397  1.00  0.00    -0.272 OA
BRANCH  78  81
ATOM     81  C   UNL A   1      38.951  33.863  33.493  1.00  0.00     0.173 C 
ATOM     82  Cl  UNL A   1      40.394  34.483  32.524  1.00  0.00    -0.098 Cl
BRANCH  81  83
ATOM     83  C   UNL A   1      39.074  34.459  34.934  1.00  0.00    -0.013 A 
ATOM     84  C   UNL A   1      38.481  33.873  36.069  1.00  0.00     0.006 A 
ATOM     85  C   UNL A   1      39.863  35.604  35.186  1.00  0.00     0.006 A 
ATOM     86  C   UNL A   1      38.706  34.359  37.365  1.00  0.00     0.000 A 
ATOM     87  C   UNL A   1      40.097  36.088  36.479  1.00  0.00     0.000 A 
ATOM     88  C   UNL A   1      39.527  35.456  37.572  1.00  0.00     0.000 A 
ENDBRANCH  81  83
BRANCH  81  89
ATOM     89  C   UNL A   1      39.105  32.293  33.401  1.00  0.00    -0.013 A 
ATOM     90  C   UNL A   1      38.061  31.420  33.042  1.00  0.00     0.006 A 
ATOM     91  C   UNL A   1      40.360  31.675  33.637  1.00  0.00     0.006 A 
ATOM     92  C   UNL A   1      38.245  30.032  32.965  1.00  0.00     0.000 A 
ATOM     93  C   UNL A   1      40.542  30.288  33.589  1.00  0.00     0.000 A 
ATOM     94  C   UNL A   1      39.478  29.464  33.255  1.00  0.00     0.000 A 
ENDBRANCH  81  89
ENDBRANCH  78  81
ENDBRANCH  76  77
ENDBRANCH  75  76
ENDBRANCH  74  75
ENDBRANCH   1  74
TORSDOF 16
ENDMDL
MODEL 2
REMARK VINA RESULT:      -9.7      5.944     12.401
REMARK SMILES O=C(NCCCCNC(=O)C(Cl)(c1ccccc1)c1ccccc1)c1ccc(-c2c3nc(c(-c4c(F)cc(S(=O)(=O)[O-])cc4F)c4ccc([nH]4)c(-c4c(F)cc(S(=O)(=O)[O-])cc4F)c4nc(c(-c5c(F)cc(S(=O)(=O)[O-])cc5F)c5ccc2[nH]5)C=C4)C=C3)cc1
REMARK SMILES IDX 4 1 3 2 1 3 2 4 25 6 26 7 90 8 27 9 89 10 28 11 29 12 30 13
REMARK SMILES IDX 83 14 31 15 88 16 82 17 84 18 32 19 87 20 81 21 80 22 33 24
REMARK SMILES IDX 67 25 46 26 66 27 47 28 50 29 65 30 85 31 48 32 49 33 64 35
REMARK SMILES IDX 86 36 51 37 34 38 35 39 44 40 36 41 37 42 43 43 45 44 38 45
REMARK SMILES IDX 39 46 40 47 41 48 42 49 68 50 69 51 78 52 70 53 71 54 77 55
REMARK SMILES IDX 79 56 72 57 73 58 74 59 75 60 76 61 52 62 53 63 62 64 54 65
REMARK SMILES IDX 55 66 61 67 63 68 56 69 57 70 58 71 59 72 60 73 5 74 6 75
REMARK SMILES IDX 7 76 8 77 9 78 10 80 11 81 12 82 13 83 14 84 18 85 15 86
REMARK SMILES IDX 17 87 16 88 19 89 20 90 24 91 21 92 23 93 22 94
REMARK H PARENT 3 5 84 23 50 34 8 79
REMARK Flexibility Score: inf
ROOT
ATOM      1  C   UNL A   1      38.564  24.013  26.717  1.00  0.00     0.116 C 
ENDROOT
BRANCH   1   2
ATOM      2  N   UNL A   1      39.878  24.195  26.118  1.00  0.00    -0.352 N 
ATOM      3  O   UNL A   1      41.844  25.229  25.713  1.00  0.00    -0.269 OA
ATOM      4  C   UNL A   1      40.831  25.152  26.392  1.00  0.00     0.251 C 
ATOM      5  H   UNL A   1      40.120  23.544  25.420  1.00  0.00     0.163 HD
BRANCH   4   6
ATOM      6  C   UNL A   1      40.596  26.105  27.500  1.00  0.00     0.039 A 
ATOM      7  C   UNL A   1      41.326  27.293  27.570  1.00  0.00     0.014 A 
ATOM      8  C   UNL A   1      39.667  25.788  28.494  1.00  0.00     0.014 A 
ATOM      9  C   UNL A   1      41.242  28.081  28.710  1.00  0.00     0.010 A 
ATOM     10  C   UNL A   1      39.521  26.631  29.601  1.00  0.00     0.010 A 
ATOM     11  C   UNL A   1      40.333  27.766  29.736  1.00  0.00    -0.014 A 
BRANCH  11  12
ATOM     12  C   UNL A   1      40.222  28.683  30.898  1.00  0.00     0.031 A 
ATOM     13  C   UNL A   1      41.154  28.578  32.076  1.00  0.00     0.074 A 
ATOM     14  C   UNL A   1      39.301  29.666  30.846  1.00  0.00     0.049 A 
ATOM     15  N   UNL A   1      41.224  29.343  33.136  1.00  0.00    -0.248 NA
ATOM     16  C   UNL A   1      42.128  27.476  32.071  1.00  0.00     0.031 C 
ATOM     17  C   UNL A   1      38.329  29.848  29.764  1.00  0.00     0.029 A 
ATOM     18  N   UNL A   1      39.047  30.708  31.697  1.00  0.00    -0.354 N 
ATOM     19  C   UNL A   1      42.235  28.813  33.929  1.00  0.00     0.074 A 
ATOM     20  C   UNL A   1      42.738  27.644  33.239  1.00  0.00     0.031 C 
ATOM     21  C   UNL A   1      37.625  30.967  29.987  1.00  0.00     0.029 A 
ATOM     22  C   UNL A   1      38.053  31.548  31.253  1.00  0.00     0.049 A 
ATOM     23  H   UNL A   1      39.528  30.844  32.546  1.00  0.00     0.167 HD
ATOM     24  C   UNL A   1      42.705  29.266  35.117  1.00  0.00     0.037 A 
ATOM     25  C   UNL A   1      37.535  32.660  31.806  1.00  0.00     0.037 A 
ATOM     26  C   UNL A   1      42.209  30.441  35.790  1.00  0.00     0.049 A 
ATOM     27  C   UNL A   1      38.083  33.143  33.117  1.00  0.00     0.074 A 
ATOM     28  C   UNL A   1      42.628  30.989  36.990  1.00  0.00     0.029 A 
ATOM     29  N   UNL A   1      41.188  31.255  35.318  1.00  0.00    -0.354 N 
ATOM     30  N   UNL A   1      39.047  32.631  33.843  1.00  0.00    -0.248 NA
ATOM     31  C   UNL A   1      37.472  34.351  33.685  1.00  0.00     0.031 C 
ATOM     32  C   UNL A   1      41.841  32.114  37.260  1.00  0.00     0.029 A 
ATOM     33  C   UNL A   1      40.957  32.292  36.209  1.00  0.00     0.049 A 
ATOM     34  H   UNL A   1      40.699  31.116  34.475  1.00  0.00     0.167 HD
ATOM     35  C   UNL A   1      39.156  33.452  34.957  1.00  0.00     0.074 A 
ATOM     36  C   UNL A   1      38.185  34.515  34.790  1.00  0.00     0.031 C 
ATOM     37  C   UNL A   1      39.977  33.332  36.030  1.00  0.00     0.037 A 
BRANCH  24  38
ATOM     38  C   UNL A   1      43.815  28.496  35.778  1.00  0.00     0.058 A 
ATOM     39  C   UNL A   1      43.549  27.427  36.648  1.00  0.00     0.135 A 
ATOM     40  C   UNL A   1      45.159  28.777  35.480  1.00  0.00     0.135 A 
ATOM     41  F   UNL A   1      42.284  27.124  36.981  1.00  0.00    -0.206 F 
ATOM     42  C   UNL A   1      44.575  26.667  37.203  1.00  0.00     0.059 A 
ATOM     43  C   UNL A   1      46.200  28.018  36.007  1.00  0.00     0.059 A 
ATOM     44  F   UNL A   1      45.469  29.790  34.654  1.00  0.00    -0.206 F 
ATOM     45  C   UNL A   1      45.898  26.969  36.874  1.00  0.00     0.060 A 
BRANCH  45  46
ATOM     46  S   UNL A   1      47.216  25.954  37.576  1.00  0.00     0.124 S 
ATOM     47  O   UNL A   1      48.330  26.267  36.685  1.00  0.00    -0.237 OA
ATOM     48  O   UNL A   1      47.327  26.478  38.934  1.00  0.00    -0.237 OA
ATOM     49  O   UNL A   1      46.694  24.595  37.472  1.00  0.00    -0.744 OA
ENDBRANCH  45  46
ENDBRANCH  24  38
BRANCH  25  50
ATOM     50  C   UNL A   1      36.423  33.374  31.127  1.00  0.00     0.058 A 
ATOM     51  C   UNL A   1      35.117  33.338  31.634  1.00  0.00     0.135 A 
ATOM     52  C   UNL A   1      36.655  34.123  29.963  1.00  0.00     0.135 A 
ATOM     53  F   UNL A   1      34.848  32.634  32.745  1.00  0.00    -0.206 F 
ATOM     54  C   UNL A   1      34.073  34.002  31.000  1.00  0.00     0.059 A 
ATOM     55  C   UNL A   1      35.632  34.819  29.327  1.00  0.00     0.059 A 
ATOM     56  F   UNL A   1      37.892  34.207  29.450  1.00  0.00    -0.206 F 
ATOM     57  C   UNL A   1      34.341  34.739  29.846  1.00  0.00     0.060 A 
BRANCH  57  58
ATOM     58  S   UNL A   1      32.993  35.635  29.045  1.00  0.00     0.124 S 
ATOM     59  O   UNL A   1      33.718  36.690  28.349  1.00  0.00    -0.237 OA
ATOM     60  O   UNL A   1      32.393  34.606  28.201  1.00  0.00    -0.237 OA
ATOM     61  O   UNL A   1      32.168  36.068  30.170  1.00  0.00    -0.744 OA
ENDBRANCH  57  58
ENDBRANCH  25  50
BRANCH  37  62
ATOM     62  C   UNL A   1      39.850  34.382  37.095  1.00  0.00     0.058 A 
ATOM     63  C   UNL A   1      39.020  34.193  38.210  1.00  0.00     0.135 A 
ATOM     64  C   UNL A   1      40.563  35.587  37.000  1.00  0.00     0.135 A 
ATOM     65  F   UNL A   1      38.312  33.060  38.341  1.00  0.00    -0.206 F 
ATOM     66  C   UNL A   1      38.871  35.180  39.178  1.00  0.00     0.059 A 
ATOM     67  C   UNL A   1      40.447  36.578  37.969  1.00  0.00     0.059 A 
ATOM     68  F   UNL A   1      41.377  35.811  35.957  1.00  0.00    -0.206 F 
ATOM     69  C   UNL A   1      39.583  36.373  39.045  1.00  0.00     0.060 A 
BRANCH  69  70
ATOM     70  S   UNL A   1      39.381  37.650  40.304  1.00  0.00     0.124 S 
ATOM     71  O   UNL A   1      40.622  38.403  40.157  1.00  0.00    -0.237 OA
ATOM     72  O   UNL A   1      38.169  38.337  39.867  1.00  0.00    -0.237 OA
ATOM     73  O   UNL A   1      39.250  36.887  41.541  1.00  0.00    -0.744 OA
ENDBRANCH  69  70
ENDBRANCH  37  62
ENDBRANCH  11  12
ENDBRANCH   4   6
ENDBRANCH   1   2
BRANCH   1  74
ATOM     74  C   UNL A   1      37.511  23.523  25.728  1.00  0.00     0.023 C 
BRANCH  74  75
ATOM     75  C   UNL A   1      37.775  22.151  25.103  1.00  0.00     0.023 C 
BRANCH  75  76
ATOM     76  C   UNL A   1      36.631  21.151  25.238  1.00  0.00     0.116 C 
BRANCH  76  77
ATOM     77  N   UNL A   1      35.701  21.505  26.300  1.00  0.00    -0.354 N 
ATOM     78  C   UNL A   1      34.334  21.454  26.399  1.00  0.00     0.250 C 
ATOM     79  H   UNL A   1      36.140  21.852  27.110  1.00  0.00     0.163 HD
ATOM     80  O   UNL A   1      33.968  21.282  27.574  1.00  0.00    -0.272 OA
BRANCH  78  81
ATOM     81  C   UNL A   1      33.291  21.468  25.188  1.00  0.00     0.173 C 
ATOM     82  Cl  UNL A   1      31.600  21.631  25.908  1.00  0.00    -0.098 Cl
BRANCH  81  83
ATOM     83  C   UNL A   1      33.530  22.725  24.287  1.00  0.00    -0.013 A 
ATOM     84  C   UNL A   1      33.606  22.668  22.881  1.00  0.00     0.006 A 
ATOM     85  C   UNL A   1      33.614  24.020  24.846  1.00  0.00     0.006 A 
ATOM     86  C   UNL A   1      33.700  23.823  22.091  1.00  0.00     0.000 A 
ATOM     87  C   UNL A   1      33.700  25.176  24.061  1.00  0.00     0.000 A 
ATOM     88  C   UNL A   1      33.730  25.078  22.679  1.00  0.00     0.000 A 
ENDBRANCH  81  83
BRANCH  81  89
ATOM     89  C   UNL A   1      33.220  20.093  24.416  1.00  0.00    -0.013 A 
ATOM     90  C   UNL A   1      32.322  19.825  23.365  1.00  0.00     0.006 A 
ATOM     91  C   UNL A   1      34.125  19.044  24.724  1.00  0.00     0.006 A 
ATOM     92  C   UNL A   1      32.300  18.589  22.701  1.00  0.00     0.000 A 
ATOM     93  C   UNL A   1      34.088  17.800  24.084  1.00  0.00     0.000 A 
ATOM     94  C   UNL A   1      33.170  17.572  23.070  1.00  0.00     0.000 A 
ENDBRANCH  81  89
ENDBRANCH  78  81
ENDBRANCH  76  77
ENDBRANCH  75  76
ENDBRANCH  74  75
ENDBRANCH   1  74
TORSDOF 16
ENDMDL
MODEL 3
REMARK VINA RESULT:      -9.6      4.122      7.424
REMARK SMILES O=C(NCCCCNC(=O)C(Cl)(c1ccccc1)c1ccccc1)c1ccc(-c2c3nc(c(-c4c(F)cc(S(=O)(=O)[O-])cc4F)c4ccc([nH]4)c(-c4c(F)cc(S(=O)(=O)[O-])cc4F)c4nc(c(-c5c(F)cc(S(=O)(=O)[O-])cc5F)c5ccc2[nH]5)C=C4)C=C3)cc1
REMARK SMILES IDX 4 1 3 2 1 3 2 4 25 6 26 7 90 8 27 9 89 10 28 11 29 12 30 13
REMARK SMILES IDX 83 14 31 15 88 16 82 17 84 18 32 19 87 20 81 21 80 22 33 24
REMARK SMILES IDX 67 25 46 26 66 27 47 28 50 29 65 30 85 31 48 32 49 33 64 35
REMARK SMILES IDX 86 36 51 37 34 38 35 39 44 40 36 41 37 42 43 43 45 44 38 45
REMARK SMILES IDX 39 46 40 47 41 48 42 49 68 50 69 51 78 52 70 53 71 54 77 55
REMARK SMILES IDX 79 56 72 57 73 58 74 59 75 60 76 61 52 62 53 63 62 64 54 65
REMARK SMILES IDX 55 66 61 67 63 68 56 69 57 70 58 71 59 72 60 73 5 74 6 75
REMARK SMILES IDX 7 76 8 77 9 78 10 80 11 81 12 82 13 83 14 84 18 85 15 86
REMARK SMILES IDX 17 87 16 88 19 89 20 90 24 91 21 92 23 93 22 94
REMARK H PARENT 3 5 84 23 50 34 8 79
REMARK Flexibility Score: inf
ROOT
ATOM      1  C   UNL A   1      34.061  28.318  26.510  1.00  0.00     0.116 C 
ENDROOT
BRANCH   1   2
ATOM      2  N   UNL A   1      33.811  29.599  27.154  1.00  0.00    -0.352 N 
ATOM      3  O   UNL A   1      34.234  31.348  28.517  1.00  0.00    -0.269 OA
ATOM      4  C   UNL A   1      34.645  30.339  27.964  1.00  0.00     0.251 C 
ATOM      5  H   UNL A   1      32.924  29.991  26.989  1.00  0.00     0.163 HD
BRANCH   4   6
ATOM      6  C   UNL A   1      36.035  29.877  28.180  1.00  0.00     0.039 A 
ATOM      7  C   UNL A   1      36.405  29.314  29.403  1.00  0.00     0.014 A 
ATOM      8  C   UNL A   1      36.981  30.046  27.166  1.00  0.00     0.014 A 
ATOM      9  C   UNL A   1      37.746  29.068  29.665  1.00  0.00     0.010 A 
ATOM     10  C   UNL A   1      38.319  29.716  27.404  1.00  0.00     0.010 A 
ATOM     11  C   UNL A   1      38.719  29.258  28.667  1.00  0.00    -0.014 A 
BRANCH  11  12
ATOM     12  C   UNL A   1      40.130  28.905  28.970  1.00  0.00     0.031 A 
ATOM     13  C   UNL A   1      40.704  27.565  28.598  1.00  0.00     0.074 A 
ATOM     14  C   UNL A   1      40.913  29.848  29.532  1.00  0.00     0.049 A 
ATOM     15  N   UNL A   1      41.932  27.131  28.739  1.00  0.00    -0.248 NA
ATOM     16  C   UNL A   1      39.790  26.580  27.997  1.00  0.00     0.031 C 
ATOM     17  C   UNL A   1      40.455  31.175  29.956  1.00  0.00     0.029 A 
ATOM     18  N   UNL A   1      42.252  29.853  29.816  1.00  0.00    -0.354 N 
ATOM     19  C   UNL A   1      41.938  25.827  28.258  1.00  0.00     0.074 A 
ATOM     20  C   UNL A   1      40.584  25.528  27.843  1.00  0.00     0.031 C 
ATOM     21  C   UNL A   1      41.506  31.885  30.391  1.00  0.00     0.029 A 
ATOM     22  C   UNL A   1      42.698  31.047  30.333  1.00  0.00     0.049 A 
ATOM     23  H   UNL A   1      42.841  29.078  29.666  1.00  0.00     0.167 HD
ATOM     24  C   UNL A   1      42.980  24.964  28.166  1.00  0.00     0.037 A 
ATOM     25  C   UNL A   1      43.927  31.426  30.727  1.00  0.00     0.037 A 
ATOM     26  C   UNL A   1      44.329  25.276  28.569  1.00  0.00     0.049 A 
ATOM     27  C   UNL A   1      45.062  30.453  30.602  1.00  0.00     0.074 A 
ATOM     28  C   UNL A   1      45.456  24.474  28.502  1.00  0.00     0.029 A 
ATOM     29  N   UNL A   1      44.737  26.490  29.106  1.00  0.00    -0.354 N 
ATOM     30  N   UNL A   1      45.046  29.228  30.135  1.00  0.00    -0.248 NA
ATOM     31  C   UNL A   1      46.379  30.910  31.060  1.00  0.00     0.031 C 
ATOM     32  C   UNL A   1      46.537  25.190  29.028  1.00  0.00     0.029 A 
ATOM     33  C   UNL A   1      46.094  26.452  29.386  1.00  0.00     0.049 A 
ATOM     34  H   UNL A   1      44.149  27.262  29.266  1.00  0.00     0.167 HD
ATOM     35  C   UNL A   1      46.351  28.765  30.247  1.00  0.00     0.074 A 
ATOM     36  C   UNL A   1      47.136  29.856  30.791  1.00  0.00     0.031 C 
ATOM     37  C   UNL A   1      46.854  27.544  29.940  1.00  0.00     0.037 A 
BRANCH  24  38
ATOM     38  C   UNL A   1      42.714  23.593  27.609  1.00  0.00     0.058 A 
ATOM     39  C   UNL A   1      42.826  23.324  26.235  1.00  0.00     0.135 A 
ATOM     40  C   UNL A   1      42.423  22.516  28.463  1.00  0.00     0.135 A 
ATOM     41  F   UNL A   1      43.088  24.318  25.371  1.00  0.00    -0.206 F 
ATOM     42  C   UNL A   1      42.653  22.039  25.728  1.00  0.00     0.059 A 
ATOM     43  C   UNL A   1      42.265  21.220  27.981  1.00  0.00     0.059 A 
ATOM     44  F   UNL A   1      42.304  22.718  29.786  1.00  0.00    -0.206 F 
ATOM     45  C   UNL A   1      42.375  20.993  26.609  1.00  0.00     0.060 A 
BRANCH  45  46
ATOM     46  S   UNL A   1      42.185  19.326  25.940  1.00  0.00     0.124 S 
ATOM     47  O   UNL A   1      42.695  18.512  27.040  1.00  0.00    -0.237 OA
ATOM     48  O   UNL A   1      40.747  19.244  25.707  1.00  0.00    -0.237 OA
ATOM     49  O   UNL A   1      43.012  19.344  24.739  1.00  0.00    -0.744 OA
ENDBRANCH  45  46
ENDBRANCH  24  38
BRANCH  25  50
ATOM     50  C   UNL A   1      44.136  32.783  31.293  1.00  0.00     0.058 A 
ATOM     51  C   UNL A   1      44.006  33.027  32.667  1.00  0.00     0.135 A 
ATOM     52  C   UNL A   1      44.489  33.861  30.466  1.00  0.00     0.135 A 
ATOM     53  F   UNL A   1      43.669  32.027  33.497  1.00  0.00    -0.206 F 
ATOM     54  C   UNL A   1      44.198  34.297  33.201  1.00  0.00     0.059 A 
ATOM     55  C   UNL A   1      44.713  35.133  30.981  1.00  0.00     0.059 A 
ATOM     56  F   UNL A   1      44.647  33.675  29.146  1.00  0.00    -0.206 F 
ATOM     57  C   UNL A   1      44.550  35.344  32.349  1.00  0.00     0.060 A 
BRANCH  57  58
ATOM     58  S   UNL A   1      44.838  36.983  33.048  1.00  0.00     0.124 S 
ATOM     59  O   UNL A   1      44.769  36.706  34.478  1.00  0.00    -0.237 OA
ATOM     60  O   UNL A   1      46.159  37.318  32.525  1.00  0.00    -0.237 OA
ATOM     61  O   UNL A   1      43.739  37.775  32.502  1.00  0.00    -0.744 OA
ENDBRANCH  57  58
ENDBRANCH  25  50
BRANCH  37  62
ATOM     62  C   UNL A   1      48.320  27.338  30.187  1.00  0.00     0.058 A 
ATOM     63  C   UNL A   1      48.789  26.844  31.414  1.00  0.00     0.135 A 
ATOM     64  C   UNL A   1      49.263  27.637  29.192  1.00  0.00     0.135 A 
ATOM     65  F   UNL A   1      47.926  26.551  32.400  1.00  0.00    -0.206 F 
ATOM     66  C   UNL A   1      50.149  26.689  31.660  1.00  0.00     0.059 A 
ATOM     67  C   UNL A   1      50.626  27.467  29.408  1.00  0.00     0.059 A 
ATOM     68  F   UNL A   1      48.862  28.104  27.999  1.00  0.00    -0.206 F 
ATOM     69  C   UNL A   1      51.061  27.011  30.653  1.00  0.00     0.060 A 
BRANCH  69  70
ATOM     70  S   UNL A   1      52.824  26.811  30.982  1.00  0.00     0.124 S 
ATOM     71  O   UNL A   1      53.377  26.840  29.632  1.00  0.00    -0.237 OA
ATOM     72  O   UNL A   1      53.125  27.971  31.815  1.00  0.00    -0.237 OA
ATOM     73  O   UNL A   1      52.896  25.522  31.663  1.00  0.00    -0.744 OA
ENDBRANCH  69  70
ENDBRANCH  37  62
ENDBRANCH  11  12
ENDBRANCH   4   6
ENDBRANCH   1   2
BRANCH   1  74
ATOM     74  C   UNL A   1      32.832  27.414  26.462  1.00  0.00     0.023 C 
BRANCH  74  75
ATOM     75  C   UNL A   1      33.096  25.953  26.093  1.00  0.00     0.023 C 
BRANCH  75  76
ATOM     76  C   UNL A   1      32.189  25.390  25.004  1.00  0.00     0.116 C 
BRANCH  76  77
ATOM     77  N   UNL A   1      31.609  24.105  25.367  1.00  0.00    -0.354 N 
ATOM     78  C   UNL A   1      32.048  22.813  25.236  1.00  0.00     0.250 C 
ATOM     79  H   UNL A   1      30.723  24.177  25.790  1.00  0.00     0.163 HD
ATOM     80  O   UNL A   1      31.591  22.082  26.132  1.00  0.00    -0.272 OA
BRANCH  78  81
ATOM     81  C   UNL A   1      33.117  22.273  24.176  1.00  0.00     0.173 C 
ATOM     82  Cl  UNL A   1      32.652  22.945  22.521  1.00  0.00    -0.098 Cl
BRANCH  81  83
ATOM     83  C   UNL A   1      34.540  22.828  24.515  1.00  0.00    -0.013 A 
ATOM     84  C   UNL A   1      34.978  23.088  25.828  1.00  0.00     0.006 A 
ATOM     85  C   UNL A   1      35.504  23.035  23.503  1.00  0.00     0.006 A 
ATOM     86  C   UNL A   1      36.296  23.470  26.114  1.00  0.00     0.000 A 
ATOM     87  C   UNL A   1      36.823  23.409  23.784  1.00  0.00     0.000 A 
ATOM     88  C   UNL A   1      37.224  23.614  25.094  1.00  0.00     0.000 A 
ENDBRANCH  81  83
BRANCH  81  89
ATOM     89  C   UNL A   1      33.040  20.710  23.962  1.00  0.00    -0.013 A 
ATOM     90  C   UNL A   1      32.238  20.088  22.987  1.00  0.00     0.006 A 
ATOM     91  C   UNL A   1      33.841  19.834  24.739  1.00  0.00     0.006 A 
ATOM     92  C   UNL A   1      32.206  18.694  22.827  1.00  0.00     0.000 A 
ATOM     93  C   UNL A   1      33.793  18.442  24.603  1.00  0.00     0.000 A 
ATOM     94  C   UNL A   1      32.969  17.871  23.645  1.00  0.00     0.000 A 
ENDBRANCH  81  89
ENDBRANCH  78  81
ENDBRANCH  76  77
ENDBRANCH  75  76
ENDBRANCH  74  75
ENDBRANCH   1  74
TORSDOF 16
ENDMDL
