MODEL 1
REMARK VINA RESULT:     -10.6      0.000      0.000
REMARK SMILES C[C@H](C(=O)NCCCCNC(=O)c1ccc(-c2c3nc(c(-c4c(F)cc(S(=O)(=O)[O-])cc4F)c4ccc([nH]4)c(-c4c(F)cc(S(=O)(=O)[O-])cc4F)c4nc(c(-c5c(F)cc(S(=O)(=O)[O-])cc5F)c5ccc2[nH]5)C=C4)C=C3)cc1)n1c(=O)ssc1=O
REMARK SMILES IDX 8 1 7 2 6 3 5 4 3 5 4 6 2 8 1 9 79 10 80 11 84 12 81 13
REMARK SMILES IDX 82 14 83 15 85 16 9 17 10 18 11 19 12 21 13 22 14 23 78 24
REMARK SMILES IDX 15 25 77 26 16 27 17 28 18 29 71 30 19 31 76 32 70 33 72 34
REMARK SMILES IDX 20 35 75 36 69 37 68 38 21 40 55 41 34 42 54 43 35 44 38 45
REMARK SMILES IDX 53 46 73 47 36 48 37 49 52 51 74 52 39 53 22 54 23 55 32 56
REMARK SMILES IDX 24 57 25 58 31 59 33 60 26 61 27 62 28 63 29 64 30 65 56 66
REMARK SMILES IDX 57 67 66 68 58 69 59 70 65 71 67 72 60 73 61 74 62 75 63 76
REMARK SMILES IDX 64 77 40 78 41 79 50 80 42 81 43 82 49 83 51 84 44 85 45 86
REMARK SMILES IDX 46 87 47 88 48 89
REMARK H PARENT 5 7 10 20 72 39 38 50
REMARK Flexibility Score: inf
ROOT
ATOM      1  C   UNL A   1      38.299  33.690  31.604  1.00  0.00     0.023 C 
ENDROOT
BRANCH   1   2
ATOM      2  C   UNL A   1      38.662  33.765  30.120  1.00  0.00     0.023 C 
BRANCH   2   3
ATOM      3  C   UNL A   1      37.580  34.398  29.252  1.00  0.00     0.116 C 
BRANCH   3   4
ATOM      4  N   UNL A   1      36.739  33.404  28.633  1.00  0.00    -0.354 N 
ATOM      5  C   UNL A   1      35.452  33.337  28.240  1.00  0.00     0.243 C 
ATOM      6  O   UNL A   1      35.244  32.348  27.517  1.00  0.00    -0.273 OA
ATOM      7  H   UNL A   1      37.226  32.567  28.452  1.00  0.00     0.163 HD
BRANCH   5   8
ATOM      8  C   UNL A   1      34.311  34.409  28.435  1.00  0.00     0.181 C 
ATOM      9  C   UNL A   1      33.057  33.692  27.872  1.00  0.00     0.042 C 
BRANCH   8  10
ATOM     10  N   UNL A   1      34.106  35.013  29.777  1.00  0.00    -0.244 N 
ATOM     11  C   UNL A   1      33.213  36.058  29.902  1.00  0.00     0.321 A 
ATOM     12  C   UNL A   1      34.226  34.302  30.948  1.00  0.00     0.321 A 
ATOM     13  O   UNL A   1      32.406  36.410  29.068  1.00  0.00    -0.256 OA
ATOM     14  S   UNL A   1      33.230  36.806  31.502  1.00  0.00    -0.014 S 
ATOM     15  S   UNL A   1      34.352  35.354  32.350  1.00  0.00    -0.014 S 
ATOM     16  O   UNL A   1      34.127  33.094  31.111  1.00  0.00    -0.256 OA
ENDBRANCH   8  10
ENDBRANCH   5   8
ENDBRANCH   3   4
ENDBRANCH   2   3
ENDBRANCH   1   2
BRANCH   1  17
ATOM     17  C   UNL A   1      38.019  32.279  32.109  1.00  0.00     0.116 C 
BRANCH  17  18
ATOM     18  N   UNL A   1      36.745  31.730  31.658  1.00  0.00    -0.352 N 
ATOM     19  C   UNL A   1      36.561  30.677  30.790  1.00  0.00     0.251 C 
ATOM     20  H   UNL A   1      35.932  32.159  32.011  1.00  0.00     0.163 HD
ATOM     21  O   UNL A   1      35.442  30.347  30.416  1.00  0.00    -0.269 OA
BRANCH  19  22
ATOM     22  C   UNL A   1      37.765  29.990  30.287  1.00  0.00     0.039 A 
ATOM     23  C   UNL A   1      38.186  30.226  28.978  1.00  0.00     0.014 A 
ATOM     24  C   UNL A   1      38.549  29.249  31.174  1.00  0.00     0.014 A 
ATOM     25  C   UNL A   1      39.446  29.779  28.578  1.00  0.00     0.010 A 
ATOM     26  C   UNL A   1      39.833  28.883  30.799  1.00  0.00     0.010 A 
ATOM     27  C   UNL A   1      40.296  29.146  29.498  1.00  0.00    -0.014 A 
BRANCH  27  28
ATOM     28  C   UNL A   1      41.674  28.728  29.141  1.00  0.00     0.031 A 
ATOM     29  C   UNL A   1      42.770  29.756  29.122  1.00  0.00     0.074 A 
ATOM     30  C   UNL A   1      41.917  27.468  28.729  1.00  0.00     0.049 A 
ATOM     31  N   UNL A   1      43.993  29.655  28.676  1.00  0.00    -0.248 NA
ATOM     32  C   UNL A   1      42.422  31.093  29.632  1.00  0.00     0.031 C 
ATOM     33  C   UNL A   1      40.928  26.391  28.661  1.00  0.00     0.029 A 
ATOM     34  N   UNL A   1      43.070  26.888  28.260  1.00  0.00    -0.354 N 
ATOM     35  C   UNL A   1      44.550  30.920  28.819  1.00  0.00     0.074 A 
ATOM     36  C   UNL A   1      43.512  31.784  29.338  1.00  0.00     0.031 C 
ATOM     37  C   UNL A   1      41.517  25.281  28.187  1.00  0.00     0.029 A 
ATOM     38  C   UNL A   1      42.913  25.578  27.874  1.00  0.00     0.049 A 
ATOM     39  H   UNL A   1      43.929  27.366  28.205  1.00  0.00     0.167 HD
ATOM     40  C   UNL A   1      45.816  31.323  28.559  1.00  0.00     0.037 A 
ATOM     41  C   UNL A   1      43.787  24.718  27.313  1.00  0.00     0.037 A 
ATOM     42  C   UNL A   1      46.848  30.446  28.072  1.00  0.00     0.049 A 
ATOM     43  C   UNL A   1      45.195  25.177  27.045  1.00  0.00     0.074 A 
ATOM     44  C   UNL A   1      48.180  30.734  27.838  1.00  0.00     0.029 A 
ATOM     45  N   UNL A   1      46.662  29.111  27.744  1.00  0.00    -0.354 N 
ATOM     46  N   UNL A   1      45.724  26.362  27.237  1.00  0.00    -0.248 NA
ATOM     47  C   UNL A   1      46.127  24.184  26.494  1.00  0.00     0.031 C 
ATOM     48  C   UNL A   1      48.789  29.584  27.324  1.00  0.00     0.029 A 
ATOM     49  C   UNL A   1      47.851  28.564  27.293  1.00  0.00     0.049 A 
ATOM     50  H   UNL A   1      45.809  28.624  27.822  1.00  0.00     0.167 HD
ATOM     51  C   UNL A   1      47.058  26.249  26.862  1.00  0.00     0.074 A 
ATOM     52  C   UNL A   1      47.255  24.881  26.430  1.00  0.00     0.031 C 
ATOM     53  C   UNL A   1      48.033  27.193  26.882  1.00  0.00     0.037 A 
BRANCH  40  54
ATOM     54  C   UNL A   1      46.139  32.774  28.785  1.00  0.00     0.058 A 
ATOM     55  C   UNL A   1      46.561  33.254  30.037  1.00  0.00     0.135 A 
ATOM     56  C   UNL A   1      46.008  33.704  27.741  1.00  0.00     0.135 A 
ATOM     57  F   UNL A   1      46.691  32.412  31.075  1.00  0.00    -0.206 F 
ATOM     58  C   UNL A   1      46.787  34.608  30.259  1.00  0.00     0.059 A 
ATOM     59  C   UNL A   1      46.262  35.059  27.932  1.00  0.00     0.059 A 
ATOM     60  F   UNL A   1      45.611  33.302  26.523  1.00  0.00    -0.206 F 
ATOM     61  C   UNL A   1      46.627  35.503  29.201  1.00  0.00     0.060 A 
BRANCH  61  62
ATOM     62  S   UNL A   1      46.885  37.262  29.515  1.00  0.00     0.124 S 
ATOM     63  O   UNL A   1      47.323  37.728  28.203  1.00  0.00    -0.237 OA
ATOM     64  O   UNL A   1      45.560  37.704  29.935  1.00  0.00    -0.237 OA
ATOM     65  O   UNL A   1      47.907  37.273  30.558  1.00  0.00    -0.744 OA
ENDBRANCH  61  62
ENDBRANCH  40  54
BRANCH  41  66
ATOM     66  C   UNL A   1      43.351  23.333  26.995  1.00  0.00     0.058 A 
ATOM     67  C   UNL A   1      43.152  22.927  25.667  1.00  0.00     0.135 A 
ATOM     68  C   UNL A   1      43.181  22.371  28.004  1.00  0.00     0.135 A 
ATOM     69  F   UNL A   1      43.295  23.812  24.668  1.00  0.00    -0.206 F 
ATOM     70  C   UNL A   1      42.805  21.618  25.348  1.00  0.00     0.059 A 
ATOM     71  C   UNL A   1      42.855  21.050  27.708  1.00  0.00     0.059 A 
ATOM     72  F   UNL A   1      43.374  22.704  29.289  1.00  0.00    -0.206 F 
ATOM     73  C   UNL A   1      42.669  20.684  26.376  1.00  0.00     0.060 A 
BRANCH  73  74
ATOM     74  S   UNL A   1      42.310  18.967  25.943  1.00  0.00     0.124 S 
ATOM     75  O   UNL A   1      40.869  19.013  25.727  1.00  0.00    -0.237 OA
ATOM     76  O   UNL A   1      43.129  18.776  24.750  1.00  0.00    -0.237 OA
ATOM     77  O   UNL A   1      42.750  18.225  27.119  1.00  0.00    -0.744 OA
ENDBRANCH  73  74
ENDBRANCH  41  66
BRANCH  53  78
ATOM     78  C   UNL A   1      49.420  26.778  26.478  1.00  0.00     0.058 A 
ATOM     79  C   UNL A   1      50.303  26.163  27.376  1.00  0.00     0.135 A 
ATOM     80  C   UNL A   1      49.831  26.912  25.140  1.00  0.00     0.135 A 
ATOM     81  F   UNL A   1      49.962  26.017  28.667  1.00  0.00    -0.206 F 
ATOM     82  C   UNL A   1      51.548  25.697  26.965  1.00  0.00     0.059 A 
ATOM     83  C   UNL A   1      51.060  26.431  24.702  1.00  0.00     0.059 A 
ATOM     84  F   UNL A   1      49.019  27.487  24.238  1.00  0.00    -0.206 F 
ATOM     85  C   UNL A   1      51.914  25.827  25.623  1.00  0.00     0.060 A 
BRANCH  85  86
ATOM     86  S   UNL A   1      53.502  25.156  25.089  1.00  0.00     0.124 S 
ATOM     87  O   UNL A   1      54.416  25.765  26.047  1.00  0.00    -0.237 OA
ATOM     88  O   UNL A   1      53.297  23.718  25.233  1.00  0.00    -0.237 OA
ATOM     89  O   UNL A   1      53.626  25.631  23.714  1.00  0.00    -0.744 OA
ENDBRANCH  85  86
ENDBRANCH  53  78
ENDBRANCH  27  28
ENDBRANCH  19  22
ENDBRANCH  17  18
ENDBRANCH   1  17
TORSDOF 15
ENDMDL
MODEL 2
REMARK VINA RESULT:     -10.5      4.322      6.015
REMARK SMILES C[C@H](C(=O)NCCCCNC(=O)c1ccc(-c2c3nc(c(-c4c(F)cc(S(=O)(=O)[O-])cc4F)c4ccc([nH]4)c(-c4c(F)cc(S(=O)(=O)[O-])cc4F)c4nc(c(-c5c(F)cc(S(=O)(=O)[O-])cc5F)c5ccc2[nH]5)C=C4)C=C3)cc1)n1c(=O)ssc1=O
REMARK SMILES IDX 8 1 7 2 6 3 5 4 3 5 4 6 2 8 1 9 79 10 80 11 84 12 81 13
REMARK SMILES IDX 82 14 83 15 85 16 9 17 10 18 11 19 12 21 13 22 14 23 78 24
REMARK SMILES IDX 15 25 77 26 16 27 17 28 18 29 71 30 19 31 76 32 70 33 72 34
REMARK SMILES IDX 20 35 75 36 69 37 68 38 21 40 55 41 34 42 54 43 35 44 38 45
REMARK SMILES IDX 53 46 73 47 36 48 37 49 52 51 74 52 39 53 22 54 23 55 32 56
REMARK SMILES IDX 24 57 25 58 31 59 33 60 26 61 27 62 28 63 29 64 30 65 56 66
REMARK SMILES IDX 57 67 66 68 58 69 59 70 65 71 67 72 60 73 61 74 62 75 63 76
REMARK SMILES IDX 64 77 40 78 41 79 50 80 42 81 43 82 49 83 51 84 44 85 45 86
REMARK SMILES IDX 46 87 47 88 48 89
REMARK H PARENT 5 7 10 20 72 39 38 50
REMARK Flexibility Score: inf
ROOT
ATOM      1  C   UNL A   1      32.471  28.437  26.298  1.00  0.00     0.023 C 
ENDROOT
BRANCH   1   2
ATOM      2  C   UNL A   1      31.510  27.343  26.765  1.00  0.00     0.023 C 
BRANCH   2   3
ATOM      3  C   UNL A   1      31.355  26.195  25.774  1.00  0.00     0.116 C 
BRANCH   3   4
ATOM      4  N   UNL A   1      30.942  24.977  26.425  1.00  0.00    -0.354 N 
ATOM      5  C   UNL A   1      31.557  23.862  26.868  1.00  0.00     0.243 C 
ATOM      6  O   UNL A   1      30.811  23.186  27.598  1.00  0.00    -0.273 OA
ATOM      7  H   UNL A   1      29.971  24.952  26.584  1.00  0.00     0.163 HD
BRANCH   5   8
ATOM      8  C   UNL A   1      33.073  23.455  26.721  1.00  0.00     0.181 C 
ATOM      9  C   UNL A   1      33.182  22.184  27.602  1.00  0.00     0.042 C 
BRANCH   8  10
ATOM     10  N   UNL A   1      33.652  23.295  25.361  1.00  0.00    -0.244 N 
ATOM     11  C   UNL A   1      35.025  23.309  25.222  1.00  0.00     0.321 A 
ATOM     12  C   UNL A   1      33.045  22.564  24.367  1.00  0.00     0.321 A 
ATOM     13  O   UNL A   1      35.835  23.225  26.121  1.00  0.00    -0.256 OA
ATOM     14  S   UNL A   1      35.557  23.319  23.537  1.00  0.00    -0.014 S 
ATOM     15  S   UNL A   1      33.727  22.906  22.785  1.00  0.00    -0.014 S 
ATOM     16  O   UNL A   1      32.226  21.663  24.486  1.00  0.00    -0.256 OA
ENDBRANCH   8  10
ENDBRANCH   5   8
ENDBRANCH   3   4
ENDBRANCH   2   3
ENDBRANCH   1   2
BRANCH   1  17
ATOM     17  C   UNL A   1      33.589  28.752  27.287  1.00  0.00     0.116 C 
BRANCH  17  18
ATOM     18  N   UNL A   1      33.552  30.114  27.808  1.00  0.00    -0.352 N 
ATOM     19  C   UNL A   1      34.584  30.794  28.416  1.00  0.00     0.251 C 
ATOM     20  H   UNL A   1      32.698  30.597  27.717  1.00  0.00     0.163 HD
ATOM     21  O   UNL A   1      34.420  31.911  28.889  1.00  0.00    -0.269 OA
BRANCH  19  22
ATOM     22  C   UNL A   1      35.884  30.106  28.519  1.00  0.00     0.039 A 
ATOM     23  C   UNL A   1      36.752  30.124  27.427  1.00  0.00     0.014 A 
ATOM     24  C   UNL A   1      36.289  29.592  29.753  1.00  0.00     0.014 A 
ATOM     25  C   UNL A   1      38.069  29.694  27.596  1.00  0.00     0.010 A 
ATOM     26  C   UNL A   1      37.620  29.247  29.938  1.00  0.00     0.010 A 
ATOM     27  C   UNL A   1      38.524  29.296  28.863  1.00  0.00    -0.014 A 
BRANCH  27  28
ATOM     28  C   UNL A   1      39.935  28.909  29.109  1.00  0.00     0.031 A 
ATOM     29  C   UNL A   1      40.903  29.945  29.607  1.00  0.00     0.074 A 
ATOM     30  C   UNL A   1      40.369  27.677  28.780  1.00  0.00     0.049 A 
ATOM     31  N   UNL A   1      42.202  29.879  29.722  1.00  0.00    -0.248 NA
ATOM     32  C   UNL A   1      40.330  31.249  29.983  1.00  0.00     0.031 C 
ATOM     33  C   UNL A   1      39.536  26.597  28.246  1.00  0.00     0.029 A 
ATOM     34  N   UNL A   1      41.629  27.132  28.821  1.00  0.00    -0.354 N 
ATOM     35  C   UNL A   1      42.605  31.138  30.148  1.00  0.00     0.074 A 
ATOM     36  C   UNL A   1      41.419  31.964  30.215  1.00  0.00     0.031 C 
ATOM     37  C   UNL A   1      40.305  25.520  28.017  1.00  0.00     0.029 A 
ATOM     38  C   UNL A   1      41.691  25.845  28.344  1.00  0.00     0.049 A 
ATOM     39  H   UNL A   1      42.415  27.619  29.161  1.00  0.00     0.167 HD
ATOM     40  C   UNL A   1      43.849  31.565  30.472  1.00  0.00     0.037 A 
ATOM     41  C   UNL A   1      42.747  25.024  28.170  1.00  0.00     0.037 A 
ATOM     42  C   UNL A   1      45.017  30.725  30.431  1.00  0.00     0.049 A 
ATOM     43  C   UNL A   1      44.120  25.508  28.549  1.00  0.00     0.074 A 
ATOM     44  C   UNL A   1      46.312  31.035  30.801  1.00  0.00     0.029 A 
ATOM     45  N   UNL A   1      45.028  29.408  29.992  1.00  0.00    -0.354 N 
ATOM     46  N   UNL A   1      44.481  26.684  29.004  1.00  0.00    -0.248 NA
ATOM     47  C   UNL A   1      45.229  24.555  28.402  1.00  0.00     0.031 C 
ATOM     48  C   UNL A   1      47.117  29.921  30.543  1.00  0.00     0.029 A 
ATOM     49  C   UNL A   1      46.313  28.896  30.066  1.00  0.00     0.049 A 
ATOM     50  H   UNL A   1      44.239  28.911  29.675  1.00  0.00     0.167 HD
ATOM     51  C   UNL A   1      45.851  26.603  29.229  1.00  0.00     0.074 A 
ATOM     52  C   UNL A   1      46.255  25.262  28.858  1.00  0.00     0.031 C 
ATOM     53  C   UNL A   1      46.694  27.552  29.708  1.00  0.00     0.037 A 
BRANCH  40  54
ATOM     54  C   UNL A   1      44.000  33.003  30.882  1.00  0.00     0.058 A 
ATOM     55  C   UNL A   1      43.863  33.411  32.220  1.00  0.00     0.135 A 
ATOM     56  C   UNL A   1      44.268  33.993  29.923  1.00  0.00     0.135 A 
ATOM     57  F   UNL A   1      43.593  32.510  33.178  1.00  0.00    -0.206 F 
ATOM     58  C   UNL A   1      43.931  34.752  32.583  1.00  0.00     0.059 A 
ATOM     59  C   UNL A   1      44.374  35.337  30.269  1.00  0.00     0.059 A 
ATOM     60  F   UNL A   1      44.412  33.662  28.630  1.00  0.00    -0.206 F 
ATOM     61  C   UNL A   1      44.179  35.708  31.598  1.00  0.00     0.060 A 
BRANCH  61  62
ATOM     62  S   UNL A   1      44.225  37.448  32.078  1.00  0.00     0.124 S 
ATOM     63  O   UNL A   1      43.312  37.457  33.218  1.00  0.00    -0.237 OA
ATOM     64  O   UNL A   1      45.635  37.648  32.393  1.00  0.00    -0.237 OA
ATOM     65  O   UNL A   1      43.746  38.141  30.886  1.00  0.00    -0.744 OA
ENDBRANCH  61  62
ENDBRANCH  40  54
BRANCH  41  66
ATOM     66  C   UNL A   1      42.530  23.656  27.631  1.00  0.00     0.058 A 
ATOM     67  C   UNL A   1      42.591  23.406  26.251  1.00  0.00     0.135 A 
ATOM     68  C   UNL A   1      42.318  22.561  28.483  1.00  0.00     0.135 A 
ATOM     69  F   UNL A   1      42.785  24.422  25.395  1.00  0.00    -0.206 F 
ATOM     70  C   UNL A   1      42.453  22.122  25.735  1.00  0.00     0.059 A 
ATOM     71  C   UNL A   1      42.199  21.263  27.992  1.00  0.00     0.059 A 
ATOM     72  F   UNL A   1      42.267  22.743  29.811  1.00  0.00    -0.206 F 
ATOM     73  C   UNL A   1      42.267  21.054  26.616  1.00  0.00     0.060 A 
BRANCH  73  74
ATOM     74  S   UNL A   1      42.184  19.381  25.940  1.00  0.00     0.124 S 
ATOM     75  O   UNL A   1      40.756  19.242  25.674  1.00  0.00    -0.237 OA
ATOM     76  O   UNL A   1      43.045  19.482  24.766  1.00  0.00    -0.237 OA
ATOM     77  O   UNL A   1      42.708  18.555  27.023  1.00  0.00    -0.744 OA
ENDBRANCH  73  74
ENDBRANCH  41  66
BRANCH  53  78
ATOM     78  C   UNL A   1      48.134  27.171  29.914  1.00  0.00     0.058 A 
ATOM     79  C   UNL A   1      49.125  27.471  28.969  1.00  0.00     0.135 A 
ATOM     80  C   UNL A   1      48.538  26.586  31.127  1.00  0.00     0.135 A 
ATOM     81  F   UNL A   1      48.791  28.024  27.791  1.00  0.00    -0.206 F 
ATOM     82  C   UNL A   1      50.467  27.200  29.214  1.00  0.00     0.059 A 
ATOM     83  C   UNL A   1      49.877  26.331  31.403  1.00  0.00     0.059 A 
ATOM     84  F   UNL A   1      47.629  26.287  32.069  1.00  0.00    -0.206 F 
ATOM     85  C   UNL A   1      50.835  26.638  30.439  1.00  0.00     0.060 A 
BRANCH  85  86
ATOM     86  S   UNL A   1      52.586  26.357  30.772  1.00  0.00     0.124 S 
ATOM     87  O   UNL A   1      52.969  27.610  31.413  1.00  0.00    -0.237 OA
ATOM     88  O   UNL A   1      52.554  25.183  31.640  1.00  0.00    -0.237 OA
ATOM     89  O   UNL A   1      53.153  26.131  29.445  1.00  0.00    -0.744 OA
ENDBRANCH  85  86
ENDBRANCH  53  78
ENDBRANCH  27  28
ENDBRANCH  19  22
ENDBRANCH  17  18
ENDBRANCH   1  17
TORSDOF 15
ENDMDL
MODEL 3
REMARK VINA RESULT:     -10.2      5.948     13.499
REMARK SMILES C[C@H](C(=O)NCCCCNC(=O)c1ccc(-c2c3nc(c(-c4c(F)cc(S(=O)(=O)[O-])cc4F)c4ccc([nH]4)c(-c4c(F)cc(S(=O)(=O)[O-])cc4F)c4nc(c(-c5c(F)cc(S(=O)(=O)[O-])cc5F)c5ccc2[nH]5)C=C4)C=C3)cc1)n1c(=O)ssc1=O
REMARK SMILES IDX 8 1 7 2 6 3 5 4 3 5 4 6 2 8 1 9 79 10 80 11 84 12 81 13
REMARK SMILES IDX 82 14 83 15 85 16 9 17 10 18 11 19 12 21 13 22 14 23 78 24
REMARK SMILES IDX 15 25 77 26 16 27 17 28 18 29 71 30 19 31 76 32 70 33 72 34
REMARK SMILES IDX 20 35 75 36 69 37 68 38 21 40 55 41 34 42 54 43 35 44 38 45
REMARK SMILES IDX 53 46 73 47 36 48 37 49 52 51 74 52 39 53 22 54 23 55 32 56
REMARK SMILES IDX 24 57 25 58 31 59 33 60 26 61 27 62 28 63 29 64 30 65 56 66
REMARK SMILES IDX 57 67 66 68 58 69 59 70 65 71 67 72 60 73 61 74 62 75 63 76
REMARK SMILES IDX 64 77 40 78 41 79 50 80 42 81 43 82 49 83 51 84 44 85 45 86
REMARK SMILES IDX 46 87 47 88 48 89
REMARK H PARENT 5 7 10 20 72 39 38 50
REMARK Flexibility Score: inf
ROOT
ATOM      1  C   UNL A   1      43.805  25.060  28.579  1.00  0.00     0.023 C 
ENDROOT
BRANCH   1   2
ATOM      2  C   UNL A   1      44.295  23.612  28.633  1.00  0.00     0.023 C 
BRANCH   2   3
ATOM      3  C   UNL A   1      43.251  22.627  29.149  1.00  0.00     0.116 C 
BRANCH   3   4
ATOM      4  N   UNL A   1      41.969  22.827  28.522  1.00  0.00    -0.354 N 
ATOM      5  C   UNL A   1      41.175  22.114  27.698  1.00  0.00     0.243 C 
ATOM      6  O   UNL A   1      40.034  22.600  27.626  1.00  0.00    -0.273 OA
ATOM      7  H   UNL A   1      41.575  23.700  28.752  1.00  0.00     0.163 HD
BRANCH   5   8
ATOM      8  C   UNL A   1      41.470  20.724  27.015  1.00  0.00     0.181 C 
ATOM      9  C   UNL A   1      40.179  20.452  26.201  1.00  0.00     0.042 C 
BRANCH   8  10
ATOM     10  N   UNL A   1      42.721  20.551  26.230  1.00  0.00    -0.244 N 
ATOM     11  C   UNL A   1      43.028  19.297  25.743  1.00  0.00     0.321 A 
ATOM     12  C   UNL A   1      43.265  21.548  25.454  1.00  0.00     0.321 A 
ATOM     13  O   UNL A   1      42.278  18.345  25.700  1.00  0.00    -0.256 OA
ATOM     14  S   UNL A   1      44.635  19.204  25.016  1.00  0.00    -0.014 S 
ATOM     15  S   UNL A   1      44.928  21.204  25.006  1.00  0.00    -0.014 S 
ATOM     16  O   UNL A   1      42.701  22.519  24.969  1.00  0.00    -0.256 OA
ENDBRANCH   8  10
ENDBRANCH   5   8
ENDBRANCH   3   4
ENDBRANCH   2   3
ENDBRANCH   1   2
BRANCH   1  17
ATOM     17  C   UNL A   1      44.131  25.783  27.276  1.00  0.00     0.116 C 
BRANCH  17  18
ATOM     18  N   UNL A   1      43.199  25.497  26.191  1.00  0.00    -0.352 N 
ATOM     19  C   UNL A   1      41.884  25.897  26.105  1.00  0.00     0.251 C 
ATOM     20  H   UNL A   1      43.547  24.961  25.442  1.00  0.00     0.163 HD
ATOM     21  O   UNL A   1      41.166  25.534  25.182  1.00  0.00    -0.269 OA
BRANCH  19  22
ATOM     22  C   UNL A   1      41.357  26.742  27.193  1.00  0.00     0.039 A 
ATOM     23  C   UNL A   1      40.483  26.182  28.127  1.00  0.00     0.014 A 
ATOM     24  C   UNL A   1      41.864  28.032  27.363  1.00  0.00     0.014 A 
ATOM     25  C   UNL A   1      40.178  26.896  29.286  1.00  0.00     0.010 A 
ATOM     26  C   UNL A   1      41.626  28.700  28.556  1.00  0.00     0.010 A 
ATOM     27  C   UNL A   1      40.783  28.139  29.530  1.00  0.00    -0.014 A 
BRANCH  27  28
ATOM     28  C   UNL A   1      40.553  28.896  30.785  1.00  0.00     0.031 A 
ATOM     29  C   UNL A   1      39.477  29.945  30.821  1.00  0.00     0.074 A 
ATOM     30  C   UNL A   1      41.373  28.727  31.841  1.00  0.00     0.049 A 
ATOM     31  N   UNL A   1      39.220  30.837  31.740  1.00  0.00    -0.248 NA
ATOM     32  C   UNL A   1      38.603  30.027  29.639  1.00  0.00     0.031 C 
ATOM     33  C   UNL A   1      42.481  27.772  31.912  1.00  0.00     0.029 A 
ATOM     34  N   UNL A   1      41.418  29.375  33.050  1.00  0.00    -0.354 N 
ATOM     35  C   UNL A   1      38.181  31.607  31.233  1.00  0.00     0.074 A 
ATOM     36  C   UNL A   1      37.895  31.113  29.904  1.00  0.00     0.031 C 
ATOM     37  C   UNL A   1      43.090  27.892  33.102  1.00  0.00     0.029 A 
ATOM     38  C   UNL A   1      42.447  28.961  33.862  1.00  0.00     0.049 A 
ATOM     39  H   UNL A   1      40.773  30.072  33.311  1.00  0.00     0.167 HD
ATOM     40  C   UNL A   1      37.512  32.623  31.829  1.00  0.00     0.037 A 
ATOM     41  C   UNL A   1      42.842  29.406  35.072  1.00  0.00     0.037 A 
ATOM     42  C   UNL A   1      37.785  33.085  33.164  1.00  0.00     0.049 A 
ATOM     43  C   UNL A   1      42.078  30.524  35.727  1.00  0.00     0.074 A 
ATOM     44  C   UNL A   1      37.125  34.061  33.887  1.00  0.00     0.029 A 
ATOM     45  N   UNL A   1      38.802  32.602  33.974  1.00  0.00    -0.354 N 
ATOM     46  N   UNL A   1      41.060  31.208  35.260  1.00  0.00    -0.248 NA
ATOM     47  C   UNL A   1      42.507  30.928  37.073  1.00  0.00     0.031 C 
ATOM     48  C   UNL A   1      37.772  34.201  35.119  1.00  0.00     0.029 A 
ATOM     49  C   UNL A   1      38.800  33.272  35.186  1.00  0.00     0.049 A 
ATOM     50  H   UNL A   1      39.433  31.888  33.725  1.00  0.00     0.167 HD
ATOM     51  C   UNL A   1      40.706  32.099  36.267  1.00  0.00     0.074 A 
ATOM     52  C   UNL A   1      41.619  31.870  37.367  1.00  0.00     0.031 C 
ATOM     53  C   UNL A   1      39.707  33.018  36.279  1.00  0.00     0.037 A 
BRANCH  40  54
ATOM     54  C   UNL A   1      36.435  33.302  31.028  1.00  0.00     0.058 A 
ATOM     55  C   UNL A   1      36.736  34.160  29.956  1.00  0.00     0.135 A 
ATOM     56  C   UNL A   1      35.082  33.108  31.347  1.00  0.00     0.135 A 
ATOM     57  F   UNL A   1      38.014  34.394  29.616  1.00  0.00    -0.206 F 
ATOM     58  C   UNL A   1      35.739  34.842  29.268  1.00  0.00     0.059 A 
ATOM     59  C   UNL A   1      34.066  33.754  30.649  1.00  0.00     0.059 A 
ATOM     60  F   UNL A   1      34.734  32.297  32.359  1.00  0.00    -0.206 F 
ATOM     61  C   UNL A   1      34.407  34.638  29.628  1.00  0.00     0.060 A 
BRANCH  61  62
ATOM     62  S   UNL A   1      33.127  35.561  28.750  1.00  0.00     0.124 S 
ATOM     63  O   UNL A   1      32.509  34.507  27.950  1.00  0.00    -0.237 OA
ATOM     64  O   UNL A   1      32.315  36.086  29.843  1.00  0.00    -0.237 OA
ATOM     65  O   UNL A   1      33.883  36.558  27.998  1.00  0.00    -0.744 OA
ENDBRANCH  61  62
ENDBRANCH  40  54
BRANCH  41  66
ATOM     66  C   UNL A   1      44.005  28.766  35.744  1.00  0.00     0.058 A 
ATOM     67  C   UNL A   1      45.304  29.268  35.568  1.00  0.00     0.135 A 
ATOM     68  C   UNL A   1      43.837  27.682  36.619  1.00  0.00     0.135 A 
ATOM     69  F   UNL A   1      45.516  30.298  34.734  1.00  0.00    -0.206 F 
ATOM     70  C   UNL A   1      46.394  28.721  36.237  1.00  0.00     0.059 A 
ATOM     71  C   UNL A   1      44.909  27.133  37.317  1.00  0.00     0.059 A 
ATOM     72  F   UNL A   1      42.614  27.176  36.835  1.00  0.00    -0.206 F 
ATOM     73  C   UNL A   1      46.184  27.659  37.119  1.00  0.00     0.060 A 
BRANCH  73  74
ATOM     74  S   UNL A   1      47.593  27.020  38.052  1.00  0.00     0.124 S 
ATOM     75  O   UNL A   1      48.593  26.858  37.003  1.00  0.00    -0.237 OA
ATOM     76  O   UNL A   1      47.838  28.095  39.009  1.00  0.00    -0.237 OA
ATOM     77  O   UNL A   1      47.078  25.783  38.631  1.00  0.00    -0.744 OA
ENDBRANCH  73  74
ENDBRANCH  41  66
BRANCH  53  78
ATOM     78  C   UNL A   1      39.504  33.816  37.536  1.00  0.00     0.058 A 
ATOM     79  C   UNL A   1      38.666  33.373  38.570  1.00  0.00     0.135 A 
ATOM     80  C   UNL A   1      40.240  34.995  37.747  1.00  0.00     0.135 A 
ATOM     81  F   UNL A   1      37.935  32.256  38.417  1.00  0.00    -0.206 F 
ATOM     82  C   UNL A   1      38.560  34.072  39.768  1.00  0.00     0.059 A 
ATOM     83  C   UNL A   1      40.169  35.695  38.946  1.00  0.00     0.059 A 
ATOM     84  F   UNL A   1      41.063  35.457  36.792  1.00  0.00    -0.206 F 
ATOM     85  C   UNL A   1      39.324  35.228  39.951  1.00  0.00     0.060 A 
BRANCH  85  86
ATOM     86  S   UNL A   1      39.230  36.086  41.536  1.00  0.00     0.124 S 
ATOM     87  O   UNL A   1      40.463  35.649  42.180  1.00  0.00    -0.237 OA
ATOM     88  O   UNL A   1      39.188  37.487  41.130  1.00  0.00    -0.237 OA
ATOM     89  O   UNL A   1      37.997  35.574  42.128  1.00  0.00    -0.744 OA
ENDBRANCH  85  86
ENDBRANCH  53  78
ENDBRANCH  27  28
ENDBRANCH  19  22
ENDBRANCH  17  18
ENDBRANCH   1  17
TORSDOF 15
ENDMDL
