MODEL 1
REMARK VINA RESULT:      -9.0      0.000      0.000
REMARK SMILES C[C@H](Cc1ccco1)[NH2+]Cc1cc(C(=O)NCCCCNC(=O)c2ccc(-c3c4nc(c(-c5c(F)cc(S(=O)(=O)[O-])cc5F)c5ccc([nH]5)c(-c5c(F)cc(S(=O)(=O)[O-])cc5F)c5nc(c(-c6c(F)cc(S(=O)(=O)[O-])cc6F)c6ccc3[nH]6)C=C5)C=C4)cc2)cs1
REMARK SMILES IDX 17 1 16 2 14 3 15 4 13 6 11 7 12 8 91 9 90 10 10 11 9 12
REMARK SMILES IDX 2 15 1 16 3 17 4 18 5 19 8 20 6 21 7 22 18 23 19 24 20 25
REMARK SMILES IDX 21 26 22 27 23 29 24 30 25 31 89 32 26 33 88 34 27 35 28 36
REMARK SMILES IDX 29 37 82 38 30 39 87 40 81 41 83 42 31 43 86 44 80 45 79 46
REMARK SMILES IDX 32 48 66 49 45 50 65 51 46 52 49 53 64 54 84 55 47 56 48 57
REMARK SMILES IDX 63 59 85 60 50 61 33 62 34 63 43 64 35 65 36 66 42 67 44 68
REMARK SMILES IDX 37 69 38 70 39 71 40 72 41 73 67 74 68 75 77 76 69 77 70 78
REMARK SMILES IDX 76 79 78 80 71 81 72 82 73 83 74 84 75 85 51 86 52 87 61 88
REMARK SMILES IDX 53 89 54 90 60 91 62 92 55 93 56 94 57 95 58 96 59 97
REMARK H PARENT 16 5 9 13 9 14 21 28 83 47 49 58
REMARK Flexibility Score: inf
ROOT
ATOM      1  C   UNL A   1      36.109  34.401  29.589  1.00  0.00     0.116 C 
ENDROOT
BRANCH   1   2
ATOM      2  N   UNL A   1      34.929  34.333  30.432  1.00  0.00    -0.352 N 
ATOM      3  C   UNL A   1      34.774  33.965  31.749  1.00  0.00     0.252 C 
ATOM      4  O   UNL A   1      33.630  33.904  32.199  1.00  0.00    -0.269 OA
ATOM      5  H   UNL A   1      34.094  34.597  29.983  1.00  0.00     0.163 HD
BRANCH   3   6
ATOM      6  C   UNL A   1      35.931  33.589  32.559  1.00  0.00     0.051 A 
ATOM      7  C   UNL A   1      37.414  32.303  33.855  1.00  0.00     0.059 A 
ATOM      8  C   UNL A   1      36.426  32.283  32.889  1.00  0.00     0.035 A 
ATOM      9  S   UNL A   1      37.973  33.900  34.117  1.00  0.00    -0.142 S 
ATOM     10  C   UNL A   1      36.786  34.549  33.074  1.00  0.00     0.079 A 
BRANCH   7  11
ATOM     11  C   UNL A   1      37.998  31.153  34.630  1.00  0.00     0.308 C 
BRANCH  11  12
ATOM     12  N   UNL A   1      38.008  29.921  33.841  1.00  0.00    -0.339 N 
ATOM     13  H   UNL A   1      37.945  29.139  34.492  1.00  0.00     0.346 HD
ATOM     14  H   UNL A   1      37.222  30.015  33.198  1.00  0.00     0.346 HD
BRANCH  12  15
ATOM     15  C   UNL A   1      39.178  29.684  32.977  1.00  0.00     0.187 C 
ATOM     16  C   UNL A   1      39.449  28.221  32.638  1.00  0.00     0.075 C 
BRANCH  15  17
ATOM     17  C   UNL A   1      40.448  30.332  33.592  1.00  0.00     0.140 C 
BRANCH  17  18
ATOM     18  C   UNL A   1      41.301  29.412  34.404  1.00  0.00     0.109 A 
ATOM     19  C   UNL A   1      42.613  28.998  34.292  1.00  0.00     0.046 A 
ATOM     20  O   UNL A   1      40.732  28.848  35.510  1.00  0.00    -0.469 OA
ATOM     21  C   UNL A   1      42.857  28.137  35.389  1.00  0.00     0.042 A 
ATOM     22  C   UNL A   1      41.681  28.075  36.097  1.00  0.00     0.195 A 
ENDBRANCH  17  18
ENDBRANCH  15  17
ENDBRANCH  12  15
ENDBRANCH  11  12
ENDBRANCH   7  11
ENDBRANCH   3   6
ENDBRANCH   1   2
BRANCH   1  23
ATOM     23  C   UNL A   1      36.230  33.230  28.611  1.00  0.00     0.023 C 
BRANCH  23  24
ATOM     24  C   UNL A   1      34.939  32.872  27.872  1.00  0.00     0.023 C 
BRANCH  24  25
ATOM     25  C   UNL A   1      34.021  31.871  28.578  1.00  0.00     0.116 C 
BRANCH  25  26
ATOM     26  N   UNL A   1      33.686  30.692  27.792  1.00  0.00    -0.352 N 
ATOM     27  C   UNL A   1      34.506  29.644  27.435  1.00  0.00     0.251 C 
ATOM     28  H   UNL A   1      32.755  30.638  27.476  1.00  0.00     0.163 HD
ATOM     29  O   UNL A   1      34.080  28.749  26.712  1.00  0.00    -0.269 OA
BRANCH  27  30
ATOM     30  C   UNL A   1      35.920  29.635  27.883  1.00  0.00     0.039 A 
ATOM     31  C   UNL A   1      36.207  29.279  29.204  1.00  0.00     0.014 A 
ATOM     32  C   UNL A   1      36.960  29.911  26.992  1.00  0.00     0.014 A 
ATOM     33  C   UNL A   1      37.536  29.098  29.599  1.00  0.00     0.010 A 
ATOM     34  C   UNL A   1      38.278  29.663  27.368  1.00  0.00     0.010 A 
ATOM     35  C   UNL A   1      38.580  29.234  28.669  1.00  0.00    -0.014 A 
BRANCH  35  36
ATOM     36  C   UNL A   1      39.981  28.881  29.019  1.00  0.00     0.031 A 
ATOM     37  C   UNL A   1      40.894  29.900  29.645  1.00  0.00     0.074 A 
ATOM     38  C   UNL A   1      40.463  27.665  28.686  1.00  0.00     0.049 A 
ATOM     39  N   UNL A   1      42.167  29.804  29.929  1.00  0.00    -0.248 NA
ATOM     40  C   UNL A   1      40.304  31.210  29.965  1.00  0.00     0.031 C 
ATOM     41  C   UNL A   1      39.704  26.607  28.014  1.00  0.00     0.029 A 
ATOM     42  N   UNL A   1      41.712  27.119  28.852  1.00  0.00    -0.354 N 
ATOM     43  C   UNL A   1      42.537  31.042  30.441  1.00  0.00     0.074 A 
ATOM     44  C   UNL A   1      41.363  31.886  30.389  1.00  0.00     0.031 C 
ATOM     45  C   UNL A   1      40.496  25.536  27.844  1.00  0.00     0.029 A 
ATOM     46  C   UNL A   1      41.825  25.838  28.363  1.00  0.00     0.049 A 
ATOM     47  H   UNL A   1      42.457  27.599  29.280  1.00  0.00     0.167 HD
ATOM     48  C   UNL A   1      43.740  31.434  30.928  1.00  0.00     0.037 A 
ATOM     49  C   UNL A   1      42.881  25.001  28.331  1.00  0.00     0.037 A 
ATOM     50  C   UNL A   1      44.898  30.582  31.015  1.00  0.00     0.049 A 
ATOM     51  C   UNL A   1      44.193  25.447  28.912  1.00  0.00     0.074 A 
ATOM     52  C   UNL A   1      46.138  30.870  31.559  1.00  0.00     0.029 A 
ATOM     53  N   UNL A   1      44.958  29.277  30.553  1.00  0.00    -0.354 N 
ATOM     54  N   UNL A   1      44.506  26.602  29.448  1.00  0.00    -0.248 NA
ATOM     55  C   UNL A   1      45.295  24.474  28.889  1.00  0.00     0.031 C 
ATOM     56  C   UNL A   1      46.957  29.746  31.401  1.00  0.00     0.029 A 
ATOM     57  C   UNL A   1      46.216  28.748  30.789  1.00  0.00     0.049 A 
ATOM     58  H   UNL A   1      44.215  28.796  30.120  1.00  0.00     0.167 HD
ATOM     59  C   UNL A   1      45.833  26.488  29.846  1.00  0.00     0.074 A 
ATOM     60  C   UNL A   1      46.261  25.148  29.499  1.00  0.00     0.031 C 
ATOM     61  C   UNL A   1      46.626  27.410  30.444  1.00  0.00     0.037 A 
BRANCH  48  62
ATOM     62  C   UNL A   1      43.859  32.848  31.421  1.00  0.00     0.058 A 
ATOM     63  C   UNL A   1      43.586  33.184  32.756  1.00  0.00     0.135 A 
ATOM     64  C   UNL A   1      44.279  33.874  30.559  1.00  0.00     0.135 A 
ATOM     65  F   UNL A   1      43.166  32.244  33.617  1.00  0.00    -0.206 F 
ATOM     66  C   UNL A   1      43.697  34.492  33.214  1.00  0.00     0.059 A 
ATOM     67  C   UNL A   1      44.421  35.186  31.001  1.00  0.00     0.059 A 
ATOM     68  F   UNL A   1      44.554  33.606  29.273  1.00  0.00    -0.206 F 
ATOM     69  C   UNL A   1      44.112  35.488  32.328  1.00  0.00     0.060 A 
BRANCH  69  70
ATOM     70  S   UNL A   1      44.251  37.182  32.934  1.00  0.00     0.124 S 
ATOM     71  O   UNL A   1      43.070  37.281  33.788  1.00  0.00    -0.237 OA
ATOM     72  O   UNL A   1      45.535  37.164  33.630  1.00  0.00    -0.237 OA
ATOM     73  O   UNL A   1      44.213  37.983  31.715  1.00  0.00    -0.744 OA
ENDBRANCH  69  70
ENDBRANCH  48  62
BRANCH  49  74
ATOM     74  C   UNL A   1      42.732  23.642  27.751  1.00  0.00     0.058 A 
ATOM     75  C   UNL A   1      42.490  22.532  28.576  1.00  0.00     0.135 A 
ATOM     76  C   UNL A   1      42.817  23.424  26.368  1.00  0.00     0.135 A 
ATOM     77  F   UNL A   1      42.406  22.693  29.906  1.00  0.00    -0.206 F 
ATOM     78  C   UNL A   1      42.353  21.252  28.054  1.00  0.00     0.059 A 
ATOM     79  C   UNL A   1      42.662  22.155  25.818  1.00  0.00     0.059 A 
ATOM     80  F   UNL A   1      43.029  24.455  25.537  1.00  0.00    -0.206 F 
ATOM     81  C   UNL A   1      42.441  21.073  26.672  1.00  0.00     0.060 A 
BRANCH  81  82
ATOM     82  S   UNL A   1      42.210  19.414  25.994  1.00  0.00     0.124 S 
ATOM     83  O   UNL A   1      42.720  18.582  27.076  1.00  0.00    -0.237 OA
ATOM     84  O   UNL A   1      40.767  19.367  25.778  1.00  0.00    -0.237 OA
ATOM     85  O   UNL A   1      43.016  19.437  24.777  1.00  0.00    -0.744 OA
ENDBRANCH  81  82
ENDBRANCH  49  74
BRANCH  61  86
ATOM     86  C   UNL A   1      48.028  26.995  30.786  1.00  0.00     0.058 A 
ATOM     87  C   UNL A   1      49.065  27.062  29.844  1.00  0.00     0.135 A 
ATOM     88  C   UNL A   1      48.345  26.563  32.085  1.00  0.00     0.135 A 
ATOM     89  F   UNL A   1      48.811  27.461  28.588  1.00  0.00    -0.206 F 
ATOM     90  C   UNL A   1      50.366  26.694  30.170  1.00  0.00     0.059 A 
ATOM     91  C   UNL A   1      49.643  26.211  32.438  1.00  0.00     0.059 A 
ATOM     92  F   UNL A   1      47.390  26.490  33.025  1.00  0.00    -0.206 F 
ATOM     93  C   UNL A   1      50.645  26.268  31.470  1.00  0.00     0.060 A 
BRANCH  93  94
ATOM     94  S   UNL A   1      52.343  25.820  31.893  1.00  0.00     0.124 S 
ATOM     95  O   UNL A   1      52.552  26.588  33.116  1.00  0.00    -0.237 OA
ATOM     96  O   UNL A   1      52.257  24.373  32.059  1.00  0.00    -0.237 OA
ATOM     97  O   UNL A   1      53.109  26.268  30.732  1.00  0.00    -0.744 OA
ENDBRANCH  93  94
ENDBRANCH  61  86
ENDBRANCH  35  36
ENDBRANCH  27  30
ENDBRANCH  25  26
ENDBRANCH  24  25
ENDBRANCH  23  24
ENDBRANCH   1  23
TORSDOF 19
ENDMDL
MODEL 2
REMARK VINA RESULT:      -8.9      1.310      8.410
REMARK SMILES C[C@H](Cc1ccco1)[NH2+]Cc1cc(C(=O)NCCCCNC(=O)c2ccc(-c3c4nc(c(-c5c(F)cc(S(=O)(=O)[O-])cc5F)c5ccc([nH]5)c(-c5c(F)cc(S(=O)(=O)[O-])cc5F)c5nc(c(-c6c(F)cc(S(=O)(=O)[O-])cc6F)c6ccc3[nH]6)C=C5)C=C4)cc2)cs1
REMARK SMILES IDX 17 1 16 2 14 3 15 4 13 6 11 7 12 8 91 9 90 10 10 11 9 12
REMARK SMILES IDX 2 15 1 16 3 17 4 18 5 19 8 20 6 21 7 22 18 23 19 24 20 25
REMARK SMILES IDX 21 26 22 27 23 29 24 30 25 31 89 32 26 33 88 34 27 35 28 36
REMARK SMILES IDX 29 37 82 38 30 39 87 40 81 41 83 42 31 43 86 44 80 45 79 46
REMARK SMILES IDX 32 48 66 49 45 50 65 51 46 52 49 53 64 54 84 55 47 56 48 57
REMARK SMILES IDX 63 59 85 60 50 61 33 62 34 63 43 64 35 65 36 66 42 67 44 68
REMARK SMILES IDX 37 69 38 70 39 71 40 72 41 73 67 74 68 75 77 76 69 77 70 78
REMARK SMILES IDX 76 79 78 80 71 81 72 82 73 83 74 84 75 85 51 86 52 87 61 88
REMARK SMILES IDX 53 89 54 90 60 91 62 92 55 93 56 94 57 95 58 96 59 97
REMARK H PARENT 16 5 9 13 9 14 21 28 83 47 49 58
REMARK Flexibility Score: inf
ROOT
ATOM      1  C   UNL A   1      33.237  34.914  29.337  1.00  0.00     0.116 C 
ENDROOT
BRANCH   1   2
ATOM      2  N   UNL A   1      33.027  36.119  30.117  1.00  0.00    -0.352 N 
ATOM      3  C   UNL A   1      33.349  36.425  31.420  1.00  0.00     0.252 C 
ATOM      4  O   UNL A   1      32.965  37.504  31.871  1.00  0.00    -0.269 OA
ATOM      5  H   UNL A   1      32.576  36.846  29.629  1.00  0.00     0.163 HD
BRANCH   3   6
ATOM      6  C   UNL A   1      34.061  35.462  32.258  1.00  0.00     0.051 A 
ATOM      7  C   UNL A   1      35.755  34.462  33.547  1.00  0.00     0.059 A 
ATOM      8  C   UNL A   1      35.235  35.647  33.061  1.00  0.00     0.035 A 
ATOM      9  S   UNL A   1      34.648  33.176  33.316  1.00  0.00    -0.142 S 
ATOM     10  C   UNL A   1      33.582  34.175  32.432  1.00  0.00     0.079 A 
BRANCH   7  11
ATOM     11  C   UNL A   1      37.084  34.216  34.208  1.00  0.00     0.308 C 
BRANCH  11  12
ATOM     12  N   UNL A   1      37.236  32.816  34.606  1.00  0.00    -0.339 N 
ATOM     13  H   UNL A   1      37.327  32.794  35.622  1.00  0.00     0.346 HD
ATOM     14  H   UNL A   1      36.411  32.346  34.234  1.00  0.00     0.346 HD
BRANCH  12  15
ATOM     15  C   UNL A   1      38.379  32.076  34.044  1.00  0.00     0.187 C 
ATOM     16  C   UNL A   1      39.618  32.920  33.750  1.00  0.00     0.075 C 
BRANCH  15  17
ATOM     17  C   UNL A   1      37.950  31.300  32.769  1.00  0.00     0.140 C 
BRANCH  17  18
ATOM     18  C   UNL A   1      38.368  29.865  32.729  1.00  0.00     0.109 A 
ATOM     19  C   UNL A   1      37.665  28.677  32.733  1.00  0.00     0.046 A 
ATOM     20  O   UNL A   1      39.707  29.609  32.648  1.00  0.00    -0.469 OA
ATOM     21  C   UNL A   1      38.627  27.642  32.648  1.00  0.00     0.042 A 
ATOM     22  C   UNL A   1      39.853  28.260  32.605  1.00  0.00     0.195 A 
ENDBRANCH  17  18
ENDBRANCH  15  17
ENDBRANCH  12  15
ENDBRANCH  11  12
ENDBRANCH   7  11
ENDBRANCH   3   6
ENDBRANCH   1   2
BRANCH   1  23
ATOM     23  C   UNL A   1      34.408  35.017  28.358  1.00  0.00     0.023 C 
BRANCH  23  24
ATOM     24  C   UNL A   1      35.339  33.803  28.335  1.00  0.00     0.023 C 
BRANCH  24  25
ATOM     25  C   UNL A   1      34.886  32.599  29.164  1.00  0.00     0.116 C 
BRANCH  25  26
ATOM     26  N   UNL A   1      34.016  31.668  28.460  1.00  0.00    -0.352 N 
ATOM     27  C   UNL A   1      34.331  30.427  27.948  1.00  0.00     0.251 C 
ATOM     28  H   UNL A   1      33.085  31.962  28.334  1.00  0.00     0.163 HD
ATOM     29  O   UNL A   1      33.490  29.788  27.323  1.00  0.00    -0.269 OA
BRANCH  27  30
ATOM     30  C   UNL A   1      35.707  29.898  28.106  1.00  0.00     0.039 A 
ATOM     31  C   UNL A   1      36.616  30.056  27.055  1.00  0.00     0.014 A 
ATOM     32  C   UNL A   1      36.121  29.310  29.304  1.00  0.00     0.014 A 
ATOM     33  C   UNL A   1      37.960  29.721  27.245  1.00  0.00     0.010 A 
ATOM     34  C   UNL A   1      37.472  29.043  29.514  1.00  0.00     0.010 A 
ATOM     35  C   UNL A   1      38.410  29.264  28.495  1.00  0.00    -0.014 A 
BRANCH  35  36
ATOM     36  C   UNL A   1      39.857  29.065  28.773  1.00  0.00     0.031 A 
ATOM     37  C   UNL A   1      40.521  27.750  28.468  1.00  0.00     0.074 A 
ATOM     38  C   UNL A   1      40.555  30.041  29.390  1.00  0.00     0.049 A 
ATOM     39  N   UNL A   1      41.743  27.362  28.729  1.00  0.00    -0.248 NA
ATOM     40  C   UNL A   1      39.694  26.726  27.810  1.00  0.00     0.031 C 
ATOM     41  C   UNL A   1      40.015  31.339  29.804  1.00  0.00     0.029 A 
ATOM     42  N   UNL A   1      41.867  30.087  29.794  1.00  0.00    -0.354 N 
ATOM     43  C   UNL A   1      41.827  26.047  28.288  1.00  0.00     0.074 A 
ATOM     44  C   UNL A   1      40.520  25.689  27.781  1.00  0.00     0.031 C 
ATOM     45  C   UNL A   1      40.989  32.059  30.382  1.00  0.00     0.029 A 
ATOM     46  C   UNL A   1      42.213  31.266  30.412  1.00  0.00     0.049 A 
ATOM     47  H   UNL A   1      42.499  29.346  29.655  1.00  0.00     0.167 HD
ATOM     48  C   UNL A   1      42.900  25.219  28.287  1.00  0.00     0.037 A 
ATOM     49  C   UNL A   1      43.384  31.665  30.948  1.00  0.00     0.037 A 
ATOM     50  C   UNL A   1      44.210  25.587  28.757  1.00  0.00     0.049 A 
ATOM     51  C   UNL A   1      44.570  30.741  30.900  1.00  0.00     0.074 A 
ATOM     52  C   UNL A   1      45.375  24.839  28.730  1.00  0.00     0.029 A 
ATOM     53  N   UNL A   1      44.532  26.806  29.332  1.00  0.00    -0.354 N 
ATOM     54  N   UNL A   1      44.645  29.522  30.423  1.00  0.00    -0.248 NA
ATOM     55  C   UNL A   1      45.830  31.248  31.460  1.00  0.00     0.031 C 
ATOM     56  C   UNL A   1      46.396  25.597  29.315  1.00  0.00     0.029 A 
ATOM     57  C   UNL A   1      45.874  26.829  29.674  1.00  0.00     0.049 A 
ATOM     58  H   UNL A   1      43.901  27.548  29.476  1.00  0.00     0.167 HD
ATOM     59  C   UNL A   1      45.964  29.125  30.604  1.00  0.00     0.074 A 
ATOM     60  C   UNL A   1      46.655  30.237  31.225  1.00  0.00     0.031 C 
ATOM     61  C   UNL A   1      46.550  27.945  30.285  1.00  0.00     0.037 A 
BRANCH  48  62
ATOM     62  C   UNL A   1      42.703  23.831  27.745  1.00  0.00     0.058 A 
ATOM     63  C   UNL A   1      42.448  22.743  28.594  1.00  0.00     0.135 A 
ATOM     64  C   UNL A   1      42.738  23.590  26.362  1.00  0.00     0.135 A 
ATOM     65  F   UNL A   1      42.419  22.916  29.925  1.00  0.00    -0.206 F 
ATOM     66  C   UNL A   1      42.264  21.458  28.094  1.00  0.00     0.059 A 
ATOM     67  C   UNL A   1      42.532  22.318  25.838  1.00  0.00     0.059 A 
ATOM     68  F   UNL A   1      42.977  24.597  25.507  1.00  0.00    -0.206 F 
ATOM     69  C   UNL A   1      42.311  21.255  26.714  1.00  0.00     0.060 A 
BRANCH  69  70
ATOM     70  S   UNL A   1      42.072  19.583  26.078  1.00  0.00     0.124 S 
ATOM     71  O   UNL A   1      40.630  19.564  25.848  1.00  0.00    -0.237 OA
ATOM     72  O   UNL A   1      42.904  19.579  24.878  1.00  0.00    -0.237 OA
ATOM     73  O   UNL A   1      42.546  18.734  27.167  1.00  0.00    -0.744 OA
ENDBRANCH  69  70
ENDBRANCH  48  62
BRANCH  49  74
ATOM     74  C   UNL A   1      43.502  33.017  31.551  1.00  0.00     0.058 A 
ATOM     75  C   UNL A   1      43.316  33.206  32.929  1.00  0.00     0.135 A 
ATOM     76  C   UNL A   1      43.811  34.140  30.771  1.00  0.00     0.135 A 
ATOM     77  F   UNL A   1      43.014  32.161  33.714  1.00  0.00    -0.206 F 
ATOM     78  C   UNL A   1      43.417  34.464  33.512  1.00  0.00     0.059 A 
ATOM     79  C   UNL A   1      43.939  35.407  31.333  1.00  0.00     0.059 A 
ATOM     80  F   UNL A   1      44.015  34.007  29.451  1.00  0.00    -0.206 F 
ATOM     81  C   UNL A   1      43.729  35.560  32.704  1.00  0.00     0.060 A 
BRANCH  81  82
ATOM     82  S   UNL A   1      43.911  37.184  33.475  1.00  0.00     0.124 S 
ATOM     83  O   UNL A   1      44.063  38.045  32.310  1.00  0.00    -0.237 OA
ATOM     84  O   UNL A   1      42.656  37.319  34.210  1.00  0.00    -0.237 OA
ATOM     85  O   UNL A   1      45.099  37.025  34.307  1.00  0.00    -0.744 OA
ENDBRANCH  81  82
ENDBRANCH  49  74
BRANCH  61  86
ATOM     86  C   UNL A   1      48.017  27.804  30.577  1.00  0.00     0.058 A 
ATOM     87  C   UNL A   1      48.992  28.188  29.644  1.00  0.00     0.135 A 
ATOM     88  C   UNL A   1      48.452  27.317  31.820  1.00  0.00     0.135 A 
ATOM     89  F   UNL A   1      48.626  28.653  28.438  1.00  0.00    -0.206 F 
ATOM     90  C   UNL A   1      50.349  28.073  29.924  1.00  0.00     0.059 A 
ATOM     91  C   UNL A   1      49.803  27.215  32.130  1.00  0.00     0.059 A 
ATOM     92  F   UNL A   1      47.558  26.945  32.750  1.00  0.00    -0.206 F 
ATOM     93  C   UNL A   1      50.745  27.584  31.171  1.00  0.00     0.060 A 
BRANCH  93  94
ATOM     94  S   UNL A   1      52.510  27.466  31.538  1.00  0.00     0.124 S 
ATOM     95  O   UNL A   1      52.841  26.164  30.969  1.00  0.00    -0.237 OA
ATOM     96  O   UNL A   1      53.056  28.623  30.835  1.00  0.00    -0.237 OA
ATOM     97  O   UNL A   1      52.557  27.546  32.995  1.00  0.00    -0.744 OA
ENDBRANCH  93  94
ENDBRANCH  61  86
ENDBRANCH  35  36
ENDBRANCH  27  30
ENDBRANCH  25  26
ENDBRANCH  24  25
ENDBRANCH  23  24
ENDBRANCH   1  23
TORSDOF 19
ENDMDL
MODEL 3
REMARK VINA RESULT:      -8.9      3.555     10.362
REMARK SMILES C[C@H](Cc1ccco1)[NH2+]Cc1cc(C(=O)NCCCCNC(=O)c2ccc(-c3c4nc(c(-c5c(F)cc(S(=O)(=O)[O-])cc5F)c5ccc([nH]5)c(-c5c(F)cc(S(=O)(=O)[O-])cc5F)c5nc(c(-c6c(F)cc(S(=O)(=O)[O-])cc6F)c6ccc3[nH]6)C=C5)C=C4)cc2)cs1
REMARK SMILES IDX 17 1 16 2 14 3 15 4 13 6 11 7 12 8 91 9 90 10 10 11 9 12
REMARK SMILES IDX 2 15 1 16 3 17 4 18 5 19 8 20 6 21 7 22 18 23 19 24 20 25
REMARK SMILES IDX 21 26 22 27 23 29 24 30 25 31 89 32 26 33 88 34 27 35 28 36
REMARK SMILES IDX 29 37 82 38 30 39 87 40 81 41 83 42 31 43 86 44 80 45 79 46
REMARK SMILES IDX 32 48 66 49 45 50 65 51 46 52 49 53 64 54 84 55 47 56 48 57
REMARK SMILES IDX 63 59 85 60 50 61 33 62 34 63 43 64 35 65 36 66 42 67 44 68
REMARK SMILES IDX 37 69 38 70 39 71 40 72 41 73 67 74 68 75 77 76 69 77 70 78
REMARK SMILES IDX 76 79 78 80 71 81 72 82 73 83 74 84 75 85 51 86 52 87 61 88
REMARK SMILES IDX 53 89 54 90 60 91 62 92 55 93 56 94 57 95 58 96 59 97
REMARK H PARENT 16 5 9 13 9 14 21 28 83 47 49 58
REMARK Flexibility Score: inf
ROOT
ATOM      1  C   UNL A   1      31.506  28.443  24.363  1.00  0.00     0.116 C 
ENDROOT
BRANCH   1   2
ATOM      2  N   UNL A   1      30.149  28.051  24.029  1.00  0.00    -0.352 N 
ATOM      3  C   UNL A   1      29.529  26.822  24.044  1.00  0.00     0.252 C 
ATOM      4  O   UNL A   1      28.378  26.752  23.614  1.00  0.00    -0.269 OA
ATOM      5  H   UNL A   1      29.570  28.794  23.742  1.00  0.00     0.163 HD
BRANCH   3   6
ATOM      6  C   UNL A   1      30.248  25.630  24.489  1.00  0.00     0.051 A 
ATOM      7  C   UNL A   1      31.408  23.584  24.434  1.00  0.00     0.059 A 
ATOM      8  C   UNL A   1      31.062  24.723  23.732  1.00  0.00     0.035 A 
ATOM      9  S   UNL A   1      31.036  23.764  26.097  1.00  0.00    -0.142 S 
ATOM     10  C   UNL A   1      30.277  25.269  25.825  1.00  0.00     0.079 A 
BRANCH   7  11
ATOM     11  C   UNL A   1      32.030  22.313  23.925  1.00  0.00     0.308 C 
BRANCH  11  12
ATOM     12  N   UNL A   1      31.913  21.228  24.899  1.00  0.00    -0.339 N 
ATOM     13  H   UNL A   1      31.694  21.648  25.802  1.00  0.00     0.346 HD
ATOM     14  H   UNL A   1      31.193  20.612  24.521  1.00  0.00     0.346 HD
BRANCH  12  15
ATOM     15  C   UNL A   1      33.090  20.362  25.088  1.00  0.00     0.187 C 
ATOM     16  C   UNL A   1      32.780  18.926  25.502  1.00  0.00     0.075 C 
BRANCH  15  17
ATOM     17  C   UNL A   1      34.081  21.005  26.096  1.00  0.00     0.140 C 
BRANCH  17  18
ATOM     18  C   UNL A   1      35.344  21.531  25.496  1.00  0.00     0.109 A 
ATOM     19  C   UNL A   1      36.481  20.921  25.003  1.00  0.00     0.046 A 
ATOM     20  O   UNL A   1      35.451  22.886  25.359  1.00  0.00    -0.469 OA
ATOM     21  C   UNL A   1      37.324  21.959  24.539  1.00  0.00     0.042 A 
ATOM     22  C   UNL A   1      36.656  23.134  24.783  1.00  0.00     0.195 A 
ENDBRANCH  17  18
ENDBRANCH  15  17
ENDBRANCH  12  15
ENDBRANCH  11  12
ENDBRANCH   7  11
ENDBRANCH   3   6
ENDBRANCH   1   2
BRANCH   1  23
ATOM     23  C   UNL A   1      31.661  28.939  25.802  1.00  0.00     0.023 C 
BRANCH  23  24
ATOM     24  C   UNL A   1      32.465  28.016  26.720  1.00  0.00     0.023 C 
BRANCH  24  25
ATOM     25  C   UNL A   1      33.811  28.561  27.201  1.00  0.00     0.116 C 
BRANCH  25  26
ATOM     26  N   UNL A   1      33.758  29.900  27.770  1.00  0.00    -0.352 N 
ATOM     27  C   UNL A   1      34.776  30.618  28.361  1.00  0.00     0.251 C 
ATOM     28  H   UNL A   1      32.883  30.350  27.726  1.00  0.00     0.163 HD
ATOM     29  O   UNL A   1      34.548  31.721  28.848  1.00  0.00    -0.269 OA
BRANCH  27  30
ATOM     30  C   UNL A   1      36.131  30.023  28.454  1.00  0.00     0.039 A 
ATOM     31  C   UNL A   1      36.968  30.073  27.336  1.00  0.00     0.014 A 
ATOM     32  C   UNL A   1      36.599  29.481  29.654  1.00  0.00     0.014 A 
ATOM     33  C   UNL A   1      38.304  29.675  27.452  1.00  0.00     0.010 A 
ATOM     34  C   UNL A   1      37.947  29.151  29.785  1.00  0.00     0.010 A 
ATOM     35  C   UNL A   1      38.818  29.264  28.693  1.00  0.00    -0.014 A 
BRANCH  35  36
ATOM     36  C   UNL A   1      40.270  29.001  28.881  1.00  0.00     0.031 A 
ATOM     37  C   UNL A   1      40.857  27.661  28.531  1.00  0.00     0.074 A 
ATOM     38  C   UNL A   1      41.046  29.943  29.458  1.00  0.00     0.049 A 
ATOM     39  N   UNL A   1      42.075  27.220  28.716  1.00  0.00    -0.248 NA
ATOM     40  C   UNL A   1      39.948  26.678  27.921  1.00  0.00     0.031 C 
ATOM     41  C   UNL A   1      40.588  31.260  29.908  1.00  0.00     0.029 A 
ATOM     42  N   UNL A   1      42.380  29.930  29.781  1.00  0.00    -0.354 N 
ATOM     43  C   UNL A   1      42.075  25.905  28.267  1.00  0.00     0.074 A 
ATOM     44  C   UNL A   1      40.725  25.606  27.839  1.00  0.00     0.031 C 
ATOM     45  C   UNL A   1      41.626  31.934  30.428  1.00  0.00     0.029 A 
ATOM     46  C   UNL A   1      42.815  31.089  30.381  1.00  0.00     0.049 A 
ATOM     47  H   UNL A   1      42.970  29.164  29.601  1.00  0.00     0.167 HD
ATOM     48  C   UNL A   1      43.109  25.031  28.198  1.00  0.00     0.037 A 
ATOM     49  C   UNL A   1      44.032  31.434  30.846  1.00  0.00     0.037 A 
ATOM     50  C   UNL A   1      44.460  25.340  28.588  1.00  0.00     0.049 A 
ATOM     51  C   UNL A   1      45.171  30.461  30.723  1.00  0.00     0.074 A 
ATOM     52  C   UNL A   1      45.587  24.543  28.488  1.00  0.00     0.029 A 
ATOM     53  N   UNL A   1      44.869  26.541  29.146  1.00  0.00    -0.354 N 
ATOM     54  N   UNL A   1      45.164  29.243  30.238  1.00  0.00    -0.248 NA
ATOM     55  C   UNL A   1      46.484  30.910  31.207  1.00  0.00     0.031 C 
ATOM     56  C   UNL A   1      46.674  25.253  29.011  1.00  0.00     0.029 A 
ATOM     57  C   UNL A   1      46.229  26.504  29.406  1.00  0.00     0.049 A 
ATOM     58  H   UNL A   1      44.280  27.308  29.331  1.00  0.00     0.167 HD
ATOM     59  C   UNL A   1      46.474  28.788  30.337  1.00  0.00     0.074 A 
ATOM     60  C   UNL A   1      47.249  29.866  30.918  1.00  0.00     0.031 C 
ATOM     61  C   UNL A   1      46.988  27.586  29.979  1.00  0.00     0.037 A 
BRANCH  48  62
ATOM     62  C   UNL A   1      42.820  23.657  27.664  1.00  0.00     0.058 A 
ATOM     63  C   UNL A   1      42.836  23.387  26.287  1.00  0.00     0.135 A 
ATOM     64  C   UNL A   1      42.553  22.590  28.538  1.00  0.00     0.135 A 
ATOM     65  F   UNL A   1      43.070  24.374  25.408  1.00  0.00    -0.206 F 
ATOM     66  C   UNL A   1      42.570  22.115  25.792  1.00  0.00     0.059 A 
ATOM     67  C   UNL A   1      42.307  21.304  28.067  1.00  0.00     0.059 A 
ATOM     68  F   UNL A   1      42.526  22.794  29.864  1.00  0.00    -0.206 F 
ATOM     69  C   UNL A   1      42.303  21.081  26.690  1.00  0.00     0.060 A 
BRANCH  69  70
ATOM     70  S   UNL A   1      41.957  19.434  26.034  1.00  0.00     0.124 S 
ATOM     71  O   UNL A   1      42.825  19.403  24.861  1.00  0.00    -0.237 OA
ATOM     72  O   UNL A   1      42.353  18.565  27.138  1.00  0.00    -0.237 OA
ATOM     73  O   UNL A   1      40.525  19.475  25.755  1.00  0.00    -0.744 OA
ENDBRANCH  69  70
ENDBRANCH  48  62
BRANCH  49  74
ATOM     74  C   UNL A   1      44.244  32.776  31.446  1.00  0.00     0.058 A 
ATOM     75  C   UNL A   1      44.642  33.863  30.651  1.00  0.00     0.135 A 
ATOM     76  C   UNL A   1      44.045  33.004  32.815  1.00  0.00     0.135 A 
ATOM     77  F   UNL A   1      44.849  33.690  29.337  1.00  0.00    -0.206 F 
ATOM     78  C   UNL A   1      44.850  35.125  31.195  1.00  0.00     0.059 A 
ATOM     79  C   UNL A   1      44.227  34.263  33.380  1.00  0.00     0.059 A 
ATOM     80  F   UNL A   1      43.647  32.001  33.613  1.00  0.00    -0.206 F 
ATOM     81  C   UNL A   1      44.640  35.315  32.562  1.00  0.00     0.060 A 
BRANCH  81  82
ATOM     82  S   UNL A   1      44.862  36.970  33.252  1.00  0.00     0.124 S 
ATOM     83  O   UNL A   1      43.489  37.340  33.571  1.00  0.00    -0.237 OA
ATOM     84  O   UNL A   1      45.735  36.714  34.394  1.00  0.00    -0.237 OA
ATOM     85  O   UNL A   1      45.480  37.708  32.155  1.00  0.00    -0.744 OA
ENDBRANCH  81  82
ENDBRANCH  49  74
BRANCH  61  86
ATOM     86  C   UNL A   1      48.463  27.381  30.180  1.00  0.00     0.058 A 
ATOM     87  C   UNL A   1      48.973  26.829  31.365  1.00  0.00     0.135 A 
ATOM     88  C   UNL A   1      49.372  27.703  29.159  1.00  0.00     0.135 A 
ATOM     89  F   UNL A   1      48.144  26.512  32.373  1.00  0.00    -0.206 F 
ATOM     90  C   UNL A   1      50.337  26.624  31.541  1.00  0.00     0.059 A 
ATOM     91  C   UNL A   1      50.737  27.485  29.305  1.00  0.00     0.059 A 
ATOM     92  F   UNL A   1      48.932  28.225  28.003  1.00  0.00    -0.206 F 
ATOM     93  C   UNL A   1      51.212  26.956  30.505  1.00  0.00     0.060 A 
BRANCH  93  94
ATOM     94  S   UNL A   1      52.979  26.658  30.730  1.00  0.00     0.124 S 
ATOM     95  O   UNL A   1      53.413  26.423  29.357  1.00  0.00    -0.237 OA
ATOM     96  O   UNL A   1      53.436  27.904  31.336  1.00  0.00    -0.237 OA
ATOM     97  O   UNL A   1      53.015  25.491  31.608  1.00  0.00    -0.744 OA
ENDBRANCH  93  94
ENDBRANCH  61  86
ENDBRANCH  35  36
ENDBRANCH  27  30
ENDBRANCH  25  26
ENDBRANCH  24  25
ENDBRANCH  23  24
ENDBRANCH   1  23
TORSDOF 19
ENDMDL
