MODEL 1
REMARK VINA RESULT:     -11.0      0.000      0.000
REMARK SMILES COC(CNS(=O)(=O)c1ccc(Cl)c(C(=O)NCCCCNC(=O)c2ccc(-c3c4nc(c(-c5c(F)cc(S(=O)(=O)[O-])cc5F)c5ccc([nH]5)c(-c5c(F)cc(S(=O)(=O)[O-])cc5F)c5nc(c(-c6c(F)cc(S(=O)(=O)[O-])cc6F)c6ccc3[nH]6)C=C5)C=C4)cc2)c1Cl)OC
REMARK SMILES IDX 18 1 17 2 15 3 16 4 14 6 9 7 10 8 91 9 11 10 92 11 12 12
REMARK SMILES IDX 13 13 6 14 7 15 8 16 5 17 4 19 3 20 2 21 1 22 93 23 94 24
REMARK SMILES IDX 19 25 20 26 21 27 22 28 23 29 24 31 25 32 26 33 90 34 27 35
REMARK SMILES IDX 89 36 28 37 29 38 30 39 83 40 31 41 88 42 82 43 84 44 32 45
REMARK SMILES IDX 87 46 81 47 80 48 33 50 67 51 46 52 66 53 47 54 50 55 65 56
REMARK SMILES IDX 85 57 48 58 49 59 64 61 86 62 51 63 34 64 35 65 44 66 36 67
REMARK SMILES IDX 37 68 43 69 45 70 38 71 39 72 40 73 41 74 42 75 68 76 69 77
REMARK SMILES IDX 78 78 70 79 71 80 77 81 79 82 72 83 73 84 74 85 75 86 76 87
REMARK SMILES IDX 52 88 53 89 62 90 54 91 55 92 61 93 63 94 56 95 57 96 58 97
REMARK SMILES IDX 59 98 60 99
REMARK H PARENT 17 5 5 18 22 30 84 49 50 60
REMARK Flexibility Score: inf
ROOT
ATOM      1  C   UNL A   1      36.383  22.190  24.425  1.00  0.00     0.116 C 
ENDROOT
BRANCH   1   2
ATOM      2  N   UNL A   1      35.698  23.108  23.537  1.00  0.00    -0.352 N 
ATOM      3  C   UNL A   1      34.358  23.242  23.272  1.00  0.00     0.254 C 
ATOM      4  O   UNL A   1      34.022  23.614  22.147  1.00  0.00    -0.269 OA
ATOM      5  H   UNL A   1      36.284  23.730  23.048  1.00  0.00     0.163 HD
BRANCH   3   6
ATOM      6  C   UNL A   1      33.290  23.086  24.294  1.00  0.00     0.078 A 
ATOM      7  C   UNL A   1      31.729  24.266  25.742  1.00  0.00     0.101 A 
ATOM      8  C   UNL A   1      31.046  23.073  25.999  1.00  0.00     0.025 A 
ATOM      9  C   UNL A   1      32.914  24.261  24.998  1.00  0.00     0.075 A 
ATOM     10  C   UNL A   1      31.441  21.912  25.360  1.00  0.00     0.023 A 
ATOM     11  Cl  UNL A   1      33.971  25.641  25.035  1.00  0.00    -0.082 Cl
ATOM     12  C   UNL A   1      32.491  21.940  24.435  1.00  0.00     0.055 A 
ATOM     13  Cl  UNL A   1      32.548  20.548  23.427  1.00  0.00    -0.083 Cl
BRANCH   7  14
ATOM     14  S   UNL A   1      30.845  25.748  26.157  1.00  0.00     0.242 S 
ATOM     15  O   UNL A   1      31.598  26.595  27.065  1.00  0.00    -0.207 OA
ATOM     16  O   UNL A   1      29.475  25.391  26.392  1.00  0.00    -0.207 OA
BRANCH  14  17
ATOM     17  N   UNL A   1      30.862  26.572  24.667  1.00  0.00    -0.206 NA
ATOM     18  H   UNL A   1      31.453  26.041  24.028  1.00  0.00     0.141 HD
BRANCH  17  19
ATOM     19  C   UNL A   1      31.359  27.976  24.676  1.00  0.00     0.161 C 
BRANCH  19  20
ATOM     20  C   UNL A   1      30.921  28.845  23.460  1.00  0.00     0.263 C 
BRANCH  20  21
ATOM     21  O   UNL A   1      31.903  29.196  22.483  1.00  0.00    -0.355 OA
ATOM     22  C   UNL A   1      33.183  28.610  22.575  1.00  0.00     0.198 C 
ENDBRANCH  20  21
BRANCH  20  23
ATOM     23  O   UNL A   1      29.989  29.890  23.747  1.00  0.00    -0.355 OA
ATOM     24  C   UNL A   1      29.199  30.359  22.677  1.00  0.00     0.198 C 
ENDBRANCH  20  23
ENDBRANCH  19  20
ENDBRANCH  17  19
ENDBRANCH  14  17
ENDBRANCH   7  14
ENDBRANCH   3   6
ENDBRANCH   1   2
BRANCH   1  25
ATOM     25  C   UNL A   1      36.648  22.899  25.762  1.00  0.00     0.023 C 
BRANCH  25  26
ATOM     26  C   UNL A   1      37.733  23.971  25.738  1.00  0.00     0.023 C 
BRANCH  26  27
ATOM     27  C   UNL A   1      38.811  23.809  26.796  1.00  0.00     0.116 C 
BRANCH  27  28
ATOM     28  N   UNL A   1      40.164  23.843  26.256  1.00  0.00    -0.352 N 
ATOM     29  C   UNL A   1      41.153  24.767  26.493  1.00  0.00     0.251 C 
ATOM     30  H   UNL A   1      40.399  23.111  25.641  1.00  0.00     0.163 HD
ATOM     31  O   UNL A   1      42.220  24.702  25.891  1.00  0.00    -0.269 OA
BRANCH  29  32
ATOM     32  C   UNL A   1      40.891  25.860  27.448  1.00  0.00     0.039 A 
ATOM     33  C   UNL A   1      39.922  25.674  28.436  1.00  0.00     0.014 A 
ATOM     34  C   UNL A   1      41.652  27.031  27.409  1.00  0.00     0.014 A 
ATOM     35  C   UNL A   1      39.767  26.638  29.433  1.00  0.00     0.010 A 
ATOM     36  C   UNL A   1      41.551  27.949  28.446  1.00  0.00     0.010 A 
ATOM     37  C   UNL A   1      40.609  27.761  29.467  1.00  0.00    -0.014 A 
BRANCH  37  38
ATOM     38  C   UNL A   1      40.518  28.758  30.561  1.00  0.00     0.031 A 
ATOM     39  C   UNL A   1      41.418  28.634  31.760  1.00  0.00     0.074 A 
ATOM     40  C   UNL A   1      39.581  29.725  30.507  1.00  0.00     0.049 A 
ATOM     41  N   UNL A   1      41.438  29.350  32.854  1.00  0.00    -0.248 NA
ATOM     42  C   UNL A   1      42.404  27.541  31.739  1.00  0.00     0.031 C 
ATOM     43  C   UNL A   1      38.613  29.908  29.421  1.00  0.00     0.029 A 
ATOM     44  N   UNL A   1      39.279  30.729  31.391  1.00  0.00    -0.354 N 
ATOM     45  C   UNL A   1      42.424  28.787  33.654  1.00  0.00     0.074 A 
ATOM     46  C   UNL A   1      42.942  27.638  32.946  1.00  0.00     0.031 C 
ATOM     47  C   UNL A   1      37.841  30.972  29.695  1.00  0.00     0.029 A 
ATOM     48  C   UNL A   1      38.234  31.526  30.986  1.00  0.00     0.049 A 
ATOM     49  H   UNL A   1      39.765  30.867  32.235  1.00  0.00     0.167 HD
ATOM     50  C   UNL A   1      42.876  29.208  34.859  1.00  0.00     0.037 A 
ATOM     51  C   UNL A   1      37.656  32.582  31.593  1.00  0.00     0.037 A 
ATOM     52  C   UNL A   1      42.380  30.374  35.540  1.00  0.00     0.049 A 
ATOM     53  C   UNL A   1      38.189  33.040  32.923  1.00  0.00     0.074 A 
ATOM     54  C   UNL A   1      42.811  30.920  36.736  1.00  0.00     0.029 A 
ATOM     55  N   UNL A   1      41.347  31.178  35.082  1.00  0.00    -0.354 N 
ATOM     56  N   UNL A   1      39.165  32.533  33.639  1.00  0.00    -0.248 NA
ATOM     57  C   UNL A   1      37.549  34.217  33.526  1.00  0.00     0.031 C 
ATOM     58  C   UNL A   1      42.016  32.036  37.017  1.00  0.00     0.029 A 
ATOM     59  C   UNL A   1      41.117  32.209  35.976  1.00  0.00     0.049 A 
ATOM     60  H   UNL A   1      40.850  31.036  34.243  1.00  0.00     0.167 HD
ATOM     61  C   UNL A   1      39.273  33.344  34.763  1.00  0.00     0.074 A 
ATOM     62  C   UNL A   1      38.272  34.382  34.626  1.00  0.00     0.031 C 
ATOM     63  C   UNL A   1      40.123  33.240  35.813  1.00  0.00     0.037 A 
BRANCH  50  64
ATOM     64  C   UNL A   1      43.974  28.413  35.507  1.00  0.00     0.058 A 
ATOM     65  C   UNL A   1      43.694  27.382  36.419  1.00  0.00     0.135 A 
ATOM     66  C   UNL A   1      45.319  28.658  35.190  1.00  0.00     0.135 A 
ATOM     67  F   UNL A   1      42.425  27.119  36.773  1.00  0.00    -0.206 F 
ATOM     68  C   UNL A   1      44.708  26.638  37.011  1.00  0.00     0.059 A 
ATOM     69  C   UNL A   1      46.350  27.907  35.749  1.00  0.00     0.059 A 
ATOM     70  F   UNL A   1      45.644  29.634  34.327  1.00  0.00    -0.206 F 
ATOM     71  C   UNL A   1      46.034  26.908  36.669  1.00  0.00     0.060 A 
BRANCH  71  72
ATOM     72  S   UNL A   1      47.338  25.922  37.435  1.00  0.00     0.124 S 
ATOM     73  O   UNL A   1      46.657  25.413  38.622  1.00  0.00    -0.237 OA
ATOM     74  O   UNL A   1      47.632  24.935  36.401  1.00  0.00    -0.237 OA
ATOM     75  O   UNL A   1      48.395  26.896  37.688  1.00  0.00    -0.744 OA
ENDBRANCH  71  72
ENDBRANCH  50  64
BRANCH  51  76
ATOM     76  C   UNL A   1      36.526  33.293  30.939  1.00  0.00     0.058 A 
ATOM     77  C   UNL A   1      36.743  34.124  29.830  1.00  0.00     0.135 A 
ATOM     78  C   UNL A   1      35.209  33.159  31.406  1.00  0.00     0.135 A 
ATOM     79  F   UNL A   1      37.985  34.288  29.349  1.00  0.00    -0.206 F 
ATOM     80  C   UNL A   1      35.702  34.818  29.223  1.00  0.00     0.059 A 
ATOM     81  C   UNL A   1      34.146  33.823  30.800  1.00  0.00     0.059 A 
ATOM     82  F   UNL A   1      34.945  32.360  32.453  1.00  0.00    -0.206 F 
ATOM     83  C   UNL A   1      34.406  34.662  29.718  1.00  0.00     0.060 A 
BRANCH  83  84
ATOM     84  S   UNL A   1      33.055  35.540  28.902  1.00  0.00     0.124 S 
ATOM     85  O   UNL A   1      32.301  36.044  30.045  1.00  0.00    -0.237 OA
ATOM     86  O   UNL A   1      33.768  36.542  28.115  1.00  0.00    -0.237 OA
ATOM     87  O   UNL A   1      32.399  34.494  28.123  1.00  0.00    -0.744 OA
ENDBRANCH  83  84
ENDBRANCH  51  76
BRANCH  63  88
ATOM     88  C   UNL A   1      40.033  34.293  36.881  1.00  0.00     0.058 A 
ATOM     89  C   UNL A   1      40.757  35.492  36.794  1.00  0.00     0.135 A 
ATOM     90  C   UNL A   1      39.170  34.123  37.975  1.00  0.00     0.135 A 
ATOM     91  F   UNL A   1      41.601  35.699  35.771  1.00  0.00    -0.206 F 
ATOM     92  C   UNL A   1      40.646  36.478  37.768  1.00  0.00     0.059 A 
ATOM     93  C   UNL A   1      39.023  35.106  38.947  1.00  0.00     0.059 A 
ATOM     94  F   UNL A   1      38.447  32.998  38.097  1.00  0.00    -0.206 F 
ATOM     95  C   UNL A   1      39.773  36.277  38.840  1.00  0.00     0.060 A 
BRANCH  95  96
ATOM     96  S   UNL A   1      39.607  37.580  40.078  1.00  0.00     0.124 S 
ATOM     97  O   UNL A   1      39.719  36.821  41.319  1.00  0.00    -0.237 OA
ATOM     98  O   UNL A   1      40.734  38.454  39.766  1.00  0.00    -0.237 OA
ATOM     99  O   UNL A   1      38.290  38.145  39.802  1.00  0.00    -0.744 OA
ENDBRANCH  95  96
ENDBRANCH  63  88
ENDBRANCH  37  38
ENDBRANCH  29  32
ENDBRANCH  27  28
ENDBRANCH  26  27
ENDBRANCH  25  26
ENDBRANCH   1  25
TORSDOF 20
ENDMDL
MODEL 2
REMARK VINA RESULT:     -10.9      1.295      2.020
REMARK SMILES COC(CNS(=O)(=O)c1ccc(Cl)c(C(=O)NCCCCNC(=O)c2ccc(-c3c4nc(c(-c5c(F)cc(S(=O)(=O)[O-])cc5F)c5ccc([nH]5)c(-c5c(F)cc(S(=O)(=O)[O-])cc5F)c5nc(c(-c6c(F)cc(S(=O)(=O)[O-])cc6F)c6ccc3[nH]6)C=C5)C=C4)cc2)c1Cl)OC
REMARK SMILES IDX 18 1 17 2 15 3 16 4 14 6 9 7 10 8 91 9 11 10 92 11 12 12
REMARK SMILES IDX 13 13 6 14 7 15 8 16 5 17 4 19 3 20 2 21 1 22 93 23 94 24
REMARK SMILES IDX 19 25 20 26 21 27 22 28 23 29 24 31 25 32 26 33 90 34 27 35
REMARK SMILES IDX 89 36 28 37 29 38 30 39 83 40 31 41 88 42 82 43 84 44 32 45
REMARK SMILES IDX 87 46 81 47 80 48 33 50 67 51 46 52 66 53 47 54 50 55 65 56
REMARK SMILES IDX 85 57 48 58 49 59 64 61 86 62 51 63 34 64 35 65 44 66 36 67
REMARK SMILES IDX 37 68 43 69 45 70 38 71 39 72 40 73 41 74 42 75 68 76 69 77
REMARK SMILES IDX 78 78 70 79 71 80 77 81 79 82 72 83 73 84 74 85 75 86 76 87
REMARK SMILES IDX 52 88 53 89 62 90 54 91 55 92 61 93 63 94 56 95 57 96 58 97
REMARK SMILES IDX 59 98 60 99
REMARK H PARENT 17 5 5 18 22 30 84 49 50 60
REMARK Flexibility Score: inf
ROOT
ATOM      1  C   UNL A   1      35.532  22.419  26.006  1.00  0.00     0.116 C 
ENDROOT
BRANCH   1   2
ATOM      2  N   UNL A   1      34.825  21.690  24.972  1.00  0.00    -0.352 N 
ATOM      3  C   UNL A   1      33.524  21.801  24.548  1.00  0.00     0.254 C 
ATOM      4  O   UNL A   1      32.961  20.790  24.127  1.00  0.00    -0.269 OA
ATOM      5  H   UNL A   1      35.359  21.009  24.501  1.00  0.00     0.163 HD
BRANCH   3   6
ATOM      6  C   UNL A   1      32.791  23.090  24.450  1.00  0.00     0.078 A 
ATOM      7  C   UNL A   1      32.422  25.075  23.089  1.00  0.00     0.101 A 
ATOM      8  C   UNL A   1      31.309  25.415  23.864  1.00  0.00     0.025 A 
ATOM      9  C   UNL A   1      33.234  23.994  23.447  1.00  0.00     0.075 A 
ATOM     10  C   UNL A   1      30.903  24.569  24.880  1.00  0.00     0.023 A 
ATOM     11  Cl  UNL A   1      34.820  23.829  22.753  1.00  0.00    -0.082 Cl
ATOM     12  C   UNL A   1      31.578  23.363  25.103  1.00  0.00     0.055 A 
ATOM     13  Cl  UNL A   1      30.690  22.255  26.072  1.00  0.00    -0.083 Cl
BRANCH   7  14
ATOM     14  S   UNL A   1      32.533  25.899  21.521  1.00  0.00     0.242 S 
ATOM     15  O   UNL A   1      31.296  26.576  21.173  1.00  0.00    -0.207 OA
ATOM     16  O   UNL A   1      33.213  25.022  20.612  1.00  0.00    -0.207 OA
BRANCH  14  17
ATOM     17  N   UNL A   1      33.635  27.146  21.878  1.00  0.00    -0.206 NA
ATOM     18  H   UNL A   1      34.328  26.769  22.524  1.00  0.00     0.141 HD
BRANCH  17  19
ATOM     19  C   UNL A   1      33.080  28.386  22.490  1.00  0.00     0.161 C 
BRANCH  19  20
ATOM     20  C   UNL A   1      33.460  28.620  23.981  1.00  0.00     0.263 C 
BRANCH  20  21
ATOM     21  O   UNL A   1      34.046  27.542  24.714  1.00  0.00    -0.355 OA
ATOM     22  C   UNL A   1      33.635  27.333  26.046  1.00  0.00     0.198 C 
ENDBRANCH  20  21
BRANCH  20  23
ATOM     23  O   UNL A   1      32.538  29.404  24.742  1.00  0.00    -0.355 OA
ATOM     24  C   UNL A   1      31.173  29.305  24.399  1.00  0.00     0.198 C 
ENDBRANCH  20  23
ENDBRANCH  19  20
ENDBRANCH  17  19
ENDBRANCH  14  17
ENDBRANCH   7  14
ENDBRANCH   3   6
ENDBRANCH   1   2
BRANCH   1  25
ATOM     25  C   UNL A   1      37.003  22.570  25.588  1.00  0.00     0.023 C 
BRANCH  25  26
ATOM     26  C   UNL A   1      37.664  23.893  25.964  1.00  0.00     0.023 C 
BRANCH  26  27
ATOM     27  C   UNL A   1      38.843  23.768  26.913  1.00  0.00     0.116 C 
BRANCH  27  28
ATOM     28  N   UNL A   1      40.134  23.932  26.258  1.00  0.00    -0.352 N 
ATOM     29  C   UNL A   1      41.049  24.944  26.419  1.00  0.00     0.251 C 
ATOM     30  H   UNL A   1      40.382  23.226  25.618  1.00  0.00     0.163 HD
ATOM     31  O   UNL A   1      42.061  24.981  25.727  1.00  0.00    -0.269 OA
BRANCH  29  32
ATOM     32  C   UNL A   1      40.769  26.006  27.403  1.00  0.00     0.039 A 
ATOM     33  C   UNL A   1      39.867  25.745  28.438  1.00  0.00     0.014 A 
ATOM     34  C   UNL A   1      41.451  27.224  27.343  1.00  0.00     0.014 A 
ATOM     35  C   UNL A   1      39.705  26.684  29.457  1.00  0.00     0.010 A 
ATOM     36  C   UNL A   1      41.347  28.120  28.399  1.00  0.00     0.010 A 
ATOM     37  C   UNL A   1      40.474  27.859  29.465  1.00  0.00    -0.014 A 
BRANCH  37  38
ATOM     38  C   UNL A   1      40.379  28.834  30.578  1.00  0.00     0.031 A 
ATOM     39  C   UNL A   1      41.268  28.682  31.782  1.00  0.00     0.074 A 
ATOM     40  C   UNL A   1      39.447  29.807  30.535  1.00  0.00     0.049 A 
ATOM     41  N   UNL A   1      41.282  29.375  32.890  1.00  0.00    -0.248 NA
ATOM     42  C   UNL A   1      42.250  27.585  31.747  1.00  0.00     0.031 C 
ATOM     43  C   UNL A   1      38.490  30.016  29.446  1.00  0.00     0.029 A 
ATOM     44  N   UNL A   1      39.142  30.794  31.437  1.00  0.00    -0.354 N 
ATOM     45  C   UNL A   1      42.259  28.792  33.687  1.00  0.00     0.074 A 
ATOM     46  C   UNL A   1      42.777  27.655  32.960  1.00  0.00     0.031 C 
ATOM     47  C   UNL A   1      37.720  31.078  29.734  1.00  0.00     0.029 A 
ATOM     48  C   UNL A   1      38.104  31.604  31.039  1.00  0.00     0.049 A 
ATOM     49  H   UNL A   1      39.621  30.912  32.288  1.00  0.00     0.167 HD
ATOM     50  C   UNL A   1      42.702  29.186  34.904  1.00  0.00     0.037 A 
ATOM     51  C   UNL A   1      37.526  32.650  31.663  1.00  0.00     0.037 A 
ATOM     52  C   UNL A   1      42.206  30.341  35.604  1.00  0.00     0.049 A 
ATOM     53  C   UNL A   1      38.050  33.079  33.006  1.00  0.00     0.074 A 
ATOM     54  C   UNL A   1      42.629  30.860  36.814  1.00  0.00     0.029 A 
ATOM     55  N   UNL A   1      41.180  31.158  35.153  1.00  0.00    -0.354 N 
ATOM     56  N   UNL A   1      39.017  32.552  33.720  1.00  0.00    -0.248 NA
ATOM     57  C   UNL A   1      37.410  34.247  33.628  1.00  0.00     0.031 C 
ATOM     58  C   UNL A   1      41.837  31.974  37.111  1.00  0.00     0.029 A 
ATOM     59  C   UNL A   1      40.948  32.172  36.066  1.00  0.00     0.049 A 
ATOM     60  H   UNL A   1      40.690  31.036  34.308  1.00  0.00     0.167 HD
ATOM     61  C   UNL A   1      39.119  33.340  34.861  1.00  0.00     0.074 A 
ATOM     62  C   UNL A   1      38.125  34.385  34.736  1.00  0.00     0.031 C 
ATOM     63  C   UNL A   1      39.960  33.211  35.916  1.00  0.00     0.037 A 
BRANCH  50  64
ATOM     64  C   UNL A   1      43.791  28.373  35.545  1.00  0.00     0.058 A 
ATOM     65  C   UNL A   1      45.147  28.619  35.275  1.00  0.00     0.135 A 
ATOM     66  C   UNL A   1      43.481  27.360  36.466  1.00  0.00     0.135 A 
ATOM     67  F   UNL A   1      45.498  29.563  34.386  1.00  0.00    -0.206 F 
ATOM     68  C   UNL A   1      46.156  27.875  35.876  1.00  0.00     0.059 A 
ATOM     69  C   UNL A   1      44.476  26.621  37.102  1.00  0.00     0.059 A 
ATOM     70  F   UNL A   1      42.201  27.081  36.759  1.00  0.00    -0.206 F 
ATOM     71  C   UNL A   1      45.810  26.878  36.788  1.00  0.00     0.060 A 
BRANCH  71  72
ATOM     72  S   UNL A   1      47.133  25.932  37.572  1.00  0.00     0.124 S 
ATOM     73  O   UNL A   1      46.786  24.569  37.181  1.00  0.00    -0.237 OA
ATOM     74  O   UNL A   1      48.328  26.486  36.943  1.00  0.00    -0.237 OA
ATOM     75  O   UNL A   1      46.975  26.238  38.990  1.00  0.00    -0.744 OA
ENDBRANCH  71  72
ENDBRANCH  50  64
BRANCH  51  76
ATOM     76  C   UNL A   1      36.404  33.379  31.014  1.00  0.00     0.058 A 
ATOM     77  C   UNL A   1      36.625  34.179  29.882  1.00  0.00     0.135 A 
ATOM     78  C   UNL A   1      35.094  33.296  31.509  1.00  0.00     0.135 A 
ATOM     79  F   UNL A   1      37.861  34.294  29.374  1.00  0.00    -0.206 F 
ATOM     80  C   UNL A   1      35.593  34.889  29.278  1.00  0.00     0.059 A 
ATOM     81  C   UNL A   1      34.040  33.976  30.907  1.00  0.00     0.059 A 
ATOM     82  F   UNL A   1      34.827  32.528  32.578  1.00  0.00    -0.206 F 
ATOM     83  C   UNL A   1      34.302  34.783  29.801  1.00  0.00     0.060 A 
BRANCH  83  84
ATOM     84  S   UNL A   1      32.962  35.683  28.990  1.00  0.00     0.124 S 
ATOM     85  O   UNL A   1      32.365  34.638  28.165  1.00  0.00    -0.237 OA
ATOM     86  O   UNL A   1      32.163  36.136  30.125  1.00  0.00    -0.237 OA
ATOM     87  O   UNL A   1      33.662  36.739  28.264  1.00  0.00    -0.744 OA
ENDBRANCH  83  84
ENDBRANCH  51  76
BRANCH  63  88
ATOM     88  C   UNL A   1      39.866  34.243  37.004  1.00  0.00     0.058 A 
ATOM     89  C   UNL A   1      40.458  35.508  36.871  1.00  0.00     0.135 A 
ATOM     90  C   UNL A   1      39.128  33.981  38.169  1.00  0.00     0.135 A 
ATOM     91  F   UNL A   1      41.179  35.805  35.778  1.00  0.00    -0.206 F 
ATOM     92  C   UNL A   1      40.340  36.472  37.866  1.00  0.00     0.059 A 
ATOM     93  C   UNL A   1      38.975  34.938  39.166  1.00  0.00     0.059 A 
ATOM     94  F   UNL A   1      38.533  32.789  38.338  1.00  0.00    -0.206 F 
ATOM     95  C   UNL A   1      39.594  36.178  39.010  1.00  0.00     0.060 A 
BRANCH  95  96
ATOM     96  S   UNL A   1      39.416  37.450  40.278  1.00  0.00     0.124 S 
ATOM     97  O   UNL A   1      38.636  38.461  39.572  1.00  0.00    -0.237 OA
ATOM     98  O   UNL A   1      38.715  36.736  41.342  1.00  0.00    -0.237 OA
ATOM     99  O   UNL A   1      40.794  37.819  40.584  1.00  0.00    -0.744 OA
ENDBRANCH  95  96
ENDBRANCH  63  88
ENDBRANCH  37  38
ENDBRANCH  29  32
ENDBRANCH  27  28
ENDBRANCH  26  27
ENDBRANCH  25  26
ENDBRANCH   1  25
TORSDOF 20
ENDMDL
MODEL 3
REMARK VINA RESULT:     -10.8      6.260      8.384
REMARK SMILES COC(CNS(=O)(=O)c1ccc(Cl)c(C(=O)NCCCCNC(=O)c2ccc(-c3c4nc(c(-c5c(F)cc(S(=O)(=O)[O-])cc5F)c5ccc([nH]5)c(-c5c(F)cc(S(=O)(=O)[O-])cc5F)c5nc(c(-c6c(F)cc(S(=O)(=O)[O-])cc6F)c6ccc3[nH]6)C=C5)C=C4)cc2)c1Cl)OC
REMARK SMILES IDX 18 1 17 2 15 3 16 4 14 6 9 7 10 8 91 9 11 10 92 11 12 12
REMARK SMILES IDX 13 13 6 14 7 15 8 16 5 17 4 19 3 20 2 21 1 22 93 23 94 24
REMARK SMILES IDX 19 25 20 26 21 27 22 28 23 29 24 31 25 32 26 33 90 34 27 35
REMARK SMILES IDX 89 36 28 37 29 38 30 39 83 40 31 41 88 42 82 43 84 44 32 45
REMARK SMILES IDX 87 46 81 47 80 48 33 50 67 51 46 52 66 53 47 54 50 55 65 56
REMARK SMILES IDX 85 57 48 58 49 59 64 61 86 62 51 63 34 64 35 65 44 66 36 67
REMARK SMILES IDX 37 68 43 69 45 70 38 71 39 72 40 73 41 74 42 75 68 76 69 77
REMARK SMILES IDX 78 78 70 79 71 80 77 81 79 82 72 83 73 84 74 85 75 86 76 87
REMARK SMILES IDX 52 88 53 89 62 90 54 91 55 92 61 93 63 94 56 95 57 96 58 97
REMARK SMILES IDX 59 98 60 99
REMARK H PARENT 17 5 5 18 22 30 84 49 50 60
REMARK Flexibility Score: inf
ROOT
ATOM      1  C   UNL A   1      36.476  22.004  25.534  1.00  0.00     0.116 C 
ENDROOT
BRANCH   1   2
ATOM      2  N   UNL A   1      35.381  21.675  26.425  1.00  0.00    -0.352 N 
ATOM      3  C   UNL A   1      34.103  22.173  26.471  1.00  0.00     0.254 C 
ATOM      4  O   UNL A   1      33.542  22.231  27.566  1.00  0.00    -0.269 OA
ATOM      5  H   UNL A   1      35.586  20.989  27.101  1.00  0.00     0.163 HD
BRANCH   3   6
ATOM      6  C   UNL A   1      33.308  22.532  25.269  1.00  0.00     0.078 A 
ATOM      7  C   UNL A   1      32.815  24.289  23.656  1.00  0.00     0.101 A 
ATOM      8  C   UNL A   1      32.167  23.366  22.830  1.00  0.00     0.025 A 
ATOM      9  C   UNL A   1      33.275  23.910  24.922  1.00  0.00     0.075 A 
ATOM     10  C   UNL A   1      32.145  22.030  23.187  1.00  0.00     0.023 A 
ATOM     11  Cl  UNL A   1      33.688  25.123  26.098  1.00  0.00    -0.082 Cl
ATOM     12  C   UNL A   1      32.801  21.602  24.347  1.00  0.00     0.055 A 
ATOM     13  Cl  UNL A   1      33.056  19.902  24.397  1.00  0.00    -0.083 Cl
BRANCH   7  14
ATOM     14  S   UNL A   1      33.258  25.822  22.879  1.00  0.00     0.242 S 
ATOM     15  O   UNL A   1      33.653  25.636  21.494  1.00  0.00    -0.207 OA
ATOM     16  O   UNL A   1      34.048  26.575  23.811  1.00  0.00    -0.207 OA
BRANCH  14  17
ATOM     17  N   UNL A   1      31.749  26.606  22.807  1.00  0.00    -0.206 NA
ATOM     18  H   UNL A   1      31.263  26.265  21.978  1.00  0.00     0.141 HD
BRANCH  17  19
ATOM     19  C   UNL A   1      31.762  28.094  22.738  1.00  0.00     0.161 C 
BRANCH  19  20
ATOM     20  C   UNL A   1      30.368  28.778  22.845  1.00  0.00     0.263 C 
BRANCH  20  21
ATOM     21  O   UNL A   1      29.718  29.197  21.643  1.00  0.00    -0.355 OA
ATOM     22  C   UNL A   1      29.087  30.457  21.624  1.00  0.00     0.198 C 
ENDBRANCH  20  21
BRANCH  20  23
ATOM     23  O   UNL A   1      30.202  29.683  23.939  1.00  0.00    -0.355 OA
ATOM     24  C   UNL A   1      31.224  29.714  24.910  1.00  0.00     0.198 C 
ENDBRANCH  20  23
ENDBRANCH  19  20
ENDBRANCH  17  19
ENDBRANCH  14  17
ENDBRANCH   7  14
ENDBRANCH   3   6
ENDBRANCH   1   2
BRANCH   1  25
ATOM     25  C   UNL A   1      37.316  20.741  25.293  1.00  0.00     0.023 C 
BRANCH  25  26
ATOM     26  C   UNL A   1      38.828  20.948  25.266  1.00  0.00     0.023 C 
BRANCH  26  27
ATOM     27  C   UNL A   1      39.559  20.455  26.503  1.00  0.00     0.116 C 
BRANCH  27  28
ATOM     28  N   UNL A   1      40.507  19.385  26.228  1.00  0.00    -0.352 N 
ATOM     29  C   UNL A   1      41.873  19.468  26.098  1.00  0.00     0.251 C 
ATOM     30  H   UNL A   1      40.120  18.486  26.121  1.00  0.00     0.163 HD
ATOM     31  O   UNL A   1      42.528  18.480  25.780  1.00  0.00    -0.269 OA
BRANCH  29  32
ATOM     32  C   UNL A   1      42.529  20.773  26.302  1.00  0.00     0.039 A 
ATOM     33  C   UNL A   1      42.857  21.544  25.184  1.00  0.00     0.014 A 
ATOM     34  C   UNL A   1      42.748  21.261  27.592  1.00  0.00     0.014 A 
ATOM     35  C   UNL A   1      43.341  22.840  25.365  1.00  0.00     0.010 A 
ATOM     36  C   UNL A   1      43.154  22.578  27.768  1.00  0.00     0.010 A 
ATOM     37  C   UNL A   1      43.454  23.379  26.657  1.00  0.00    -0.014 A 
BRANCH  37  38
ATOM     38  C   UNL A   1      43.889  24.780  26.871  1.00  0.00     0.031 A 
ATOM     39  C   UNL A   1      45.336  25.148  26.695  1.00  0.00     0.074 A 
ATOM     40  C   UNL A   1      42.996  25.699  27.291  1.00  0.00     0.049 A 
ATOM     41  N   UNL A   1      45.929  26.292  26.914  1.00  0.00    -0.248 NA
ATOM     42  C   UNL A   1      46.242  24.079  26.243  1.00  0.00     0.031 C 
ATOM     43  C   UNL A   1      41.577  25.444  27.553  1.00  0.00     0.029 A 
ATOM     44  N   UNL A   1      43.152  27.029  27.587  1.00  0.00    -0.354 N 
ATOM     45  C   UNL A   1      47.274  26.078  26.642  1.00  0.00     0.074 A 
ATOM     46  C   UNL A   1      47.421  24.681  26.296  1.00  0.00     0.031 C 
ATOM     47  C   UNL A   1      40.990  26.586  27.949  1.00  0.00     0.029 A 
ATOM     48  C   UNL A   1      41.994  27.643  28.001  1.00  0.00     0.049 A 
ATOM     49  H   UNL A   1      44.013  27.500  27.508  1.00  0.00     0.167 HD
ATOM     50  C   UNL A   1      48.291  26.971  26.654  1.00  0.00     0.037 A 
ATOM     51  C   UNL A   1      41.770  28.916  28.385  1.00  0.00     0.037 A 
ATOM     52  C   UNL A   1      48.131  28.366  26.964  1.00  0.00     0.049 A 
ATOM     53  C   UNL A   1      42.914  29.893  28.371  1.00  0.00     0.074 A 
ATOM     54  C   UNL A   1      49.086  29.367  26.946  1.00  0.00     0.029 A 
ATOM     55  N   UNL A   1      46.936  28.960  27.343  1.00  0.00    -0.354 N 
ATOM     56  N   UNL A   1      44.170  29.687  28.051  1.00  0.00    -0.248 NA
ATOM     57  C   UNL A   1      42.612  31.277  28.762  1.00  0.00     0.031 C 
ATOM     58  C   UNL A   1      48.474  30.560  27.345  1.00  0.00     0.029 A 
ATOM     59  C   UNL A   1      47.130  30.311  27.573  1.00  0.00     0.049 A 
ATOM     60  H   UNL A   1      46.075  28.490  27.434  1.00  0.00     0.167 HD
ATOM     61  C   UNL A   1      44.801  30.920  28.177  1.00  0.00     0.074 A 
ATOM     62  C   UNL A   1      43.787  31.867  28.590  1.00  0.00     0.031 C 
ATOM     63  C   UNL A   1      46.102  31.239  27.971  1.00  0.00     0.037 A 
BRANCH  50  64
ATOM     64  C   UNL A   1      49.663  26.469  26.302  1.00  0.00     0.058 A 
ATOM     65  C   UNL A   1      50.185  26.606  25.005  1.00  0.00     0.135 A 
ATOM     66  C   UNL A   1      50.481  25.876  27.277  1.00  0.00     0.135 A 
ATOM     67  F   UNL A   1      49.437  27.148  24.030  1.00  0.00    -0.206 F 
ATOM     68  C   UNL A   1      51.458  26.153  24.681  1.00  0.00     0.059 A 
ATOM     69  C   UNL A   1      51.770  25.439  26.982  1.00  0.00     0.059 A 
ATOM     70  F   UNL A   1      50.032  25.717  28.532  1.00  0.00    -0.206 F 
ATOM     71  C   UNL A   1      52.243  25.570  25.676  1.00  0.00     0.060 A 
BRANCH  71  72
ATOM     72  S   UNL A   1      53.901  25.001  25.242  1.00  0.00     0.124 S 
ATOM     73  O   UNL A   1      53.665  23.581  24.998  1.00  0.00    -0.237 OA
ATOM     74  O   UNL A   1      54.208  25.804  24.062  1.00  0.00    -0.237 OA
ATOM     75  O   UNL A   1      54.689  25.312  26.431  1.00  0.00    -0.744 OA
ENDBRANCH  71  72
ENDBRANCH  50  64
BRANCH  51  76
ATOM     76  C   UNL A   1      40.406  29.345  28.790  1.00  0.00     0.058 A 
ATOM     77  C   UNL A   1      39.398  29.538  27.833  1.00  0.00     0.135 A 
ATOM     78  C   UNL A   1      40.081  29.574  30.135  1.00  0.00     0.135 A 
ATOM     79  F   UNL A   1      39.661  29.336  26.533  1.00  0.00    -0.206 F 
ATOM     80  C   UNL A   1      38.124  29.965  28.191  1.00  0.00     0.059 A 
ATOM     81  C   UNL A   1      38.806  29.977  30.522  1.00  0.00     0.059 A 
ATOM     82  F   UNL A   1      41.004  29.385  31.092  1.00  0.00    -0.206 F 
ATOM     83  C   UNL A   1      37.839  30.184  29.540  1.00  0.00     0.060 A 
BRANCH  83  84
ATOM     84  S   UNL A   1      36.172  30.707  29.999  1.00  0.00     0.124 S 
ATOM     85  O   UNL A   1      35.933  29.908  31.196  1.00  0.00    -0.237 OA
ATOM     86  O   UNL A   1      36.344  32.141  30.211  1.00  0.00    -0.237 OA
ATOM     87  O   UNL A   1      35.375  30.346  28.829  1.00  0.00    -0.744 OA
ENDBRANCH  83  84
ENDBRANCH  51  76
BRANCH  63  88
ATOM     88  C   UNL A   1      46.497  32.677  28.154  1.00  0.00     0.058 A 
ATOM     89  C   UNL A   1      47.068  33.137  29.351  1.00  0.00     0.135 A 
ATOM     90  C   UNL A   1      46.354  33.593  27.099  1.00  0.00     0.135 A 
ATOM     91  F   UNL A   1      47.220  32.302  30.390  1.00  0.00    -0.206 F 
ATOM     92  C   UNL A   1      47.463  34.461  29.503  1.00  0.00     0.059 A 
ATOM     93  C   UNL A   1      46.765  34.915  27.220  1.00  0.00     0.059 A 
ATOM     94  F   UNL A   1      45.824  33.198  25.930  1.00  0.00    -0.206 F 
ATOM     95  C   UNL A   1      47.310  35.343  28.431  1.00  0.00     0.060 A 
BRANCH  95  96
ATOM     96  S   UNL A   1      47.862  37.050  28.627  1.00  0.00     0.124 S 
ATOM     97  O   UNL A   1      47.387  37.656  27.387  1.00  0.00    -0.237 OA
ATOM     98  O   UNL A   1      47.168  37.466  29.842  1.00  0.00    -0.237 OA
ATOM     99  O   UNL A   1      49.310  36.926  28.752  1.00  0.00    -0.744 OA
ENDBRANCH  95  96
ENDBRANCH  63  88
ENDBRANCH  37  38
ENDBRANCH  29  32
ENDBRANCH  27  28
ENDBRANCH  26  27
ENDBRANCH  25  26
ENDBRANCH   1  25
TORSDOF 20
ENDMDL
