MODEL 1
REMARK VINA RESULT:      -9.3      0.000      0.000
REMARK SMILES O=C(C[C@@H]1C(=O)NC(=S)N1c1ccccc1)NCCCCNC(=O)c1ccc(-c2c3nc(c(-c4c(F)cc(S(=O)(=O)[O-])cc4F)c4ccc([nH]4)c(-c4c(F)cc(S(=O)(=O)[O-])cc4F)c4nc(c(-c5c(F)cc(S(=O)(=O)[O-])cc5F)c5ccc2[nH]5)C=C4)C=C3)cc1
REMARK SMILES IDX 20 1 19 2 18 3 17 4 1 5 2 6 3 8 4 9 5 10 10 11 6 12 7 13
REMARK SMILES IDX 8 14 9 16 11 17 12 18 16 19 13 20 15 21 14 22 21 23 22 24
REMARK SMILES IDX 23 25 24 27 25 28 26 29 90 30 27 31 89 32 28 33 29 34 30 35
REMARK SMILES IDX 83 36 31 37 88 38 82 39 84 40 32 41 87 42 81 43 80 44 33 46
REMARK SMILES IDX 67 47 46 48 66 49 47 50 50 51 65 52 85 53 48 54 49 55 64 57
REMARK SMILES IDX 86 58 51 59 34 60 35 61 44 62 36 63 37 64 43 65 45 66 38 67
REMARK SMILES IDX 39 68 40 69 41 70 42 71 68 72 69 73 78 74 70 75 71 76 77 77
REMARK SMILES IDX 79 78 72 79 73 80 74 81 75 82 76 83 52 84 53 85 62 86 54 87
REMARK SMILES IDX 55 88 61 89 63 90 56 91 57 92 58 93 59 94 60 95
REMARK H PARENT 17 7 7 15 22 26 84 45 50 56
REMARK Flexibility Score: inf
ROOT
ATOM      1  C   UNL A   1      34.623  33.419  28.193  1.00  0.00     0.023 C 
ENDROOT
BRANCH   1   2
ATOM      2  C   UNL A   1      35.887  34.200  28.558  1.00  0.00     0.023 C 
BRANCH   2   3
ATOM      3  C   UNL A   1      37.089  33.340  28.943  1.00  0.00     0.116 C 
BRANCH   3   4
ATOM      4  N   UNL A   1      37.387  33.409  30.362  1.00  0.00    -0.356 N 
ATOM      5  O   UNL A   1      39.164  34.838  30.120  1.00  0.00    -0.275 OA
ATOM      6  C   UNL A   1      38.399  34.203  30.842  1.00  0.00     0.222 C 
ATOM      7  H   UNL A   1      36.852  32.875  30.993  1.00  0.00     0.163 HD
BRANCH   6   8
ATOM      8  C   UNL A   1      38.599  34.191  32.340  1.00  0.00     0.135 C 
BRANCH   8   9
ATOM      9  C   UNL A   1      37.622  33.384  33.183  1.00  0.00     0.188 C 
ATOM     10  C   UNL A   1      36.716  34.234  34.078  1.00  0.00     0.249 C 
ATOM     11  N   UNL A   1      38.241  32.516  34.199  1.00  0.00    -0.306 N 
ATOM     12  O   UNL A   1      35.895  35.056  33.704  1.00  0.00    -0.272 OA
ATOM     13  N   UNL A   1      36.938  33.907  35.377  1.00  0.00    -0.301 N 
ATOM     14  C   UNL A   1      37.821  32.878  35.490  1.00  0.00     0.180 C 
ATOM     15  H   UNL A   1      36.513  34.357  36.141  1.00  0.00     0.172 HD
ATOM     16  S   UNL A   1      38.278  32.297  36.978  1.00  0.00    -0.040 S 
BRANCH  11  17
ATOM     17  C   UNL A   1      38.970  31.347  33.859  1.00  0.00     0.044 A 
ATOM     18  C   UNL A   1      40.361  31.305  34.020  1.00  0.00     0.026 A 
ATOM     19  C   UNL A   1      38.330  30.222  33.327  1.00  0.00     0.026 A 
ATOM     20  C   UNL A   1      41.095  30.179  33.635  1.00  0.00     0.002 A 
ATOM     21  C   UNL A   1      39.065  29.103  32.924  1.00  0.00     0.002 A 
ATOM     22  C   UNL A   1      40.448  29.082  33.075  1.00  0.00     0.000 A 
ENDBRANCH  11  17
ENDBRANCH   8   9
ENDBRANCH   6   8
ENDBRANCH   3   4
ENDBRANCH   2   3
ENDBRANCH   1   2
BRANCH   1  23
ATOM     23  C   UNL A   1      34.322  32.210  29.072  1.00  0.00     0.116 C 
BRANCH  23  24
ATOM     24  N   UNL A   1      33.856  31.060  28.313  1.00  0.00    -0.352 N 
ATOM     25  C   UNL A   1      34.567  29.992  27.818  1.00  0.00     0.251 C 
ATOM     26  H   UNL A   1      32.890  31.044  28.126  1.00  0.00     0.163 HD
ATOM     27  O   UNL A   1      34.017  29.190  27.070  1.00  0.00    -0.269 OA
BRANCH  25  28
ATOM     28  C   UNL A   1      35.998  29.825  28.159  1.00  0.00     0.039 A 
ATOM     29  C   UNL A   1      36.338  29.380  29.441  1.00  0.00     0.014 A 
ATOM     30  C   UNL A   1      37.004  30.100  27.228  1.00  0.00     0.014 A 
ATOM     31  C   UNL A   1      37.678  29.143  29.761  1.00  0.00     0.010 A 
ATOM     32  C   UNL A   1      38.330  29.790  27.524  1.00  0.00     0.010 A 
ATOM     33  C   UNL A   1      38.682  29.306  28.793  1.00  0.00    -0.014 A 
BRANCH  33  34
ATOM     34  C   UNL A   1      40.101  28.962  29.087  1.00  0.00     0.031 A 
ATOM     35  C   UNL A   1      41.024  29.987  29.689  1.00  0.00     0.074 A 
ATOM     36  C   UNL A   1      40.575  27.744  28.752  1.00  0.00     0.049 A 
ATOM     37  N   UNL A   1      42.304  29.896  29.947  1.00  0.00    -0.248 NA
ATOM     38  C   UNL A   1      40.439  31.295  30.021  1.00  0.00     0.031 C 
ATOM     39  C   UNL A   1      39.795  26.678  28.120  1.00  0.00     0.029 A 
ATOM     40  N   UNL A   1      41.829  27.201  28.886  1.00  0.00    -0.354 N 
ATOM     41  C   UNL A   1      42.677  31.132  30.463  1.00  0.00     0.074 A 
ATOM     42  C   UNL A   1      41.502  31.975  30.427  1.00  0.00     0.031 C 
ATOM     43  C   UNL A   1      40.581  25.605  27.938  1.00  0.00     0.029 A 
ATOM     44  C   UNL A   1      41.931  25.918  28.399  1.00  0.00     0.049 A 
ATOM     45  H   UNL A   1      42.584  27.684  29.292  1.00  0.00     0.167 HD
ATOM     46  C   UNL A   1      43.881  31.521  30.947  1.00  0.00     0.037 A 
ATOM     47  C   UNL A   1      42.991  25.090  28.320  1.00  0.00     0.037 A 
ATOM     48  C   UNL A   1      45.045  30.672  30.996  1.00  0.00     0.049 A 
ATOM     49  C   UNL A   1      44.323  25.550  28.850  1.00  0.00     0.074 A 
ATOM     50  C   UNL A   1      46.297  30.960  31.509  1.00  0.00     0.029 A 
ATOM     51  N   UNL A   1      45.102  29.374  30.511  1.00  0.00    -0.354 N 
ATOM     52  N   UNL A   1      44.642  26.702  29.390  1.00  0.00    -0.248 NA
ATOM     53  C   UNL A   1      45.438  24.595  28.769  1.00  0.00     0.031 C 
ATOM     54  C   UNL A   1      47.125  29.854  31.291  1.00  0.00     0.029 A 
ATOM     55  C   UNL A   1      46.374  28.855  30.693  1.00  0.00     0.049 A 
ATOM     56  H   UNL A   1      44.349  28.892  30.097  1.00  0.00     0.167 HD
ATOM     57  C   UNL A   1      45.985  26.601  29.738  1.00  0.00     0.074 A 
ATOM     58  C   UNL A   1      46.414  25.269  29.359  1.00  0.00     0.031 C 
ATOM     59  C   UNL A   1      46.789  27.526  30.319  1.00  0.00     0.037 A 
BRANCH  46  60
ATOM     60  C   UNL A   1      44.002  32.928  31.470  1.00  0.00     0.058 A 
ATOM     61  C   UNL A   1      44.240  34.014  30.612  1.00  0.00     0.135 A 
ATOM     62  C   UNL A   1      43.840  33.202  32.838  1.00  0.00     0.135 A 
ATOM     63  F   UNL A   1      44.418  33.812  29.297  1.00  0.00    -0.206 F 
ATOM     64  C   UNL A   1      44.343  35.316  31.095  1.00  0.00     0.059 A 
ATOM     65  C   UNL A   1      43.907  34.498  33.339  1.00  0.00     0.059 A 
ATOM     66  F   UNL A   1      43.609  32.202  33.705  1.00  0.00    -0.206 F 
ATOM     67  C   UNL A   1      44.174  35.547  32.460  1.00  0.00     0.060 A 
BRANCH  67  68
ATOM     68  S   UNL A   1      44.305  37.242  33.068  1.00  0.00     0.124 S 
ATOM     69  O   UNL A   1      42.997  37.431  33.689  1.00  0.00    -0.237 OA
ATOM     70  O   UNL A   1      45.436  37.156  33.986  1.00  0.00    -0.237 OA
ATOM     71  O   UNL A   1      44.542  38.021  31.857  1.00  0.00    -0.744 OA
ENDBRANCH  67  68
ENDBRANCH  46  60
BRANCH  47  72
ATOM     72  C   UNL A   1      42.834  23.736  27.722  1.00  0.00     0.058 A 
ATOM     73  C   UNL A   1      42.991  23.528  26.344  1.00  0.00     0.135 A 
ATOM     74  C   UNL A   1      42.532  22.620  28.519  1.00  0.00     0.135 A 
ATOM     75  F   UNL A   1      43.273  24.563  25.538  1.00  0.00    -0.206 F 
ATOM     76  C   UNL A   1      42.838  22.268  25.774  1.00  0.00     0.059 A 
ATOM     77  C   UNL A   1      42.403  21.346  27.977  1.00  0.00     0.059 A 
ATOM     78  F   UNL A   1      42.387  22.760  29.846  1.00  0.00    -0.206 F 
ATOM     79  C   UNL A   1      42.547  21.181  26.600  1.00  0.00     0.060 A 
BRANCH  79  80
ATOM     80  S   UNL A   1      42.396  19.543  25.856  1.00  0.00     0.124 S 
ATOM     81  O   UNL A   1      42.689  18.677  26.992  1.00  0.00    -0.237 OA
ATOM     82  O   UNL A   1      41.012  19.543  25.393  1.00  0.00    -0.237 OA
ATOM     83  O   UNL A   1      43.403  19.561  24.799  1.00  0.00    -0.744 OA
ENDBRANCH  79  80
ENDBRANCH  47  72
BRANCH  59  84
ATOM     84  C   UNL A   1      48.208  27.125  30.618  1.00  0.00     0.058 A 
ATOM     85  C   UNL A   1      49.272  27.474  29.772  1.00  0.00     0.135 A 
ATOM     86  C   UNL A   1      48.513  26.425  31.798  1.00  0.00     0.135 A 
ATOM     87  F   UNL A   1      49.037  28.137  28.629  1.00  0.00    -0.206 F 
ATOM     88  C   UNL A   1      50.585  27.124  30.072  1.00  0.00     0.059 A 
ATOM     89  C   UNL A   1      49.821  26.091  32.133  1.00  0.00     0.059 A 
ATOM     90  F   UNL A   1      47.535  26.074  32.648  1.00  0.00    -0.206 F 
ATOM     91  C   UNL A   1      50.850  26.435  31.257  1.00  0.00     0.060 A 
BRANCH  91  92
ATOM     92  S   UNL A   1      52.561  26.018  31.651  1.00  0.00     0.124 S 
ATOM     93  O   UNL A   1      52.414  24.690  32.237  1.00  0.00    -0.237 OA
ATOM     94  O   UNL A   1      53.203  26.065  30.341  1.00  0.00    -0.237 OA
ATOM     95  O   UNL A   1      52.964  27.071  32.578  1.00  0.00    -0.744 OA
ENDBRANCH  91  92
ENDBRANCH  59  84
ENDBRANCH  33  34
ENDBRANCH  25  28
ENDBRANCH  23  24
ENDBRANCH   1  23
TORSDOF 16
ENDMDL
MODEL 2
REMARK VINA RESULT:      -9.3      4.877     11.754
REMARK SMILES O=C(C[C@@H]1C(=O)NC(=S)N1c1ccccc1)NCCCCNC(=O)c1ccc(-c2c3nc(c(-c4c(F)cc(S(=O)(=O)[O-])cc4F)c4ccc([nH]4)c(-c4c(F)cc(S(=O)(=O)[O-])cc4F)c4nc(c(-c5c(F)cc(S(=O)(=O)[O-])cc5F)c5ccc2[nH]5)C=C4)C=C3)cc1
REMARK SMILES IDX 20 1 19 2 18 3 17 4 1 5 2 6 3 8 4 9 5 10 10 11 6 12 7 13
REMARK SMILES IDX 8 14 9 16 11 17 12 18 16 19 13 20 15 21 14 22 21 23 22 24
REMARK SMILES IDX 23 25 24 27 25 28 26 29 90 30 27 31 89 32 28 33 29 34 30 35
REMARK SMILES IDX 83 36 31 37 88 38 82 39 84 40 32 41 87 42 81 43 80 44 33 46
REMARK SMILES IDX 67 47 46 48 66 49 47 50 50 51 65 52 85 53 48 54 49 55 64 57
REMARK SMILES IDX 86 58 51 59 34 60 35 61 44 62 36 63 37 64 43 65 45 66 38 67
REMARK SMILES IDX 39 68 40 69 41 70 42 71 68 72 69 73 78 74 70 75 71 76 77 77
REMARK SMILES IDX 79 78 72 79 73 80 74 81 75 82 76 83 52 84 53 85 62 86 54 87
REMARK SMILES IDX 55 88 61 89 63 90 56 91 57 92 58 93 59 94 60 95
REMARK H PARENT 17 7 7 15 22 26 84 45 50 56
REMARK Flexibility Score: inf
ROOT
ATOM      1  C   UNL A   1      40.262  22.139  26.903  1.00  0.00     0.023 C 
ENDROOT
BRANCH   1   2
ATOM      2  C   UNL A   1      38.997  22.911  26.524  1.00  0.00     0.023 C 
BRANCH   2   3
ATOM      3  C   UNL A   1      37.973  22.117  25.716  1.00  0.00     0.116 C 
BRANCH   3   4
ATOM      4  N   UNL A   1      36.624  22.267  26.233  1.00  0.00    -0.356 N 
ATOM      5  O   UNL A   1      36.122  24.095  24.942  1.00  0.00    -0.275 OA
ATOM      6  C   UNL A   1      35.782  23.243  25.760  1.00  0.00     0.222 C 
ATOM      7  H   UNL A   1      36.307  21.656  26.937  1.00  0.00     0.163 HD
BRANCH   6   8
ATOM      8  C   UNL A   1      34.402  23.285  26.375  1.00  0.00     0.135 C 
BRANCH   8   9
ATOM      9  C   UNL A   1      33.222  23.573  25.459  1.00  0.00     0.188 C 
ATOM     10  C   UNL A   1      33.231  22.770  24.155  1.00  0.00     0.249 C 
ATOM     11  N   UNL A   1      33.171  24.940  24.914  1.00  0.00    -0.306 N 
ATOM     12  O   UNL A   1      33.164  21.555  24.053  1.00  0.00    -0.272 OA
ATOM     13  N   UNL A   1      33.289  23.626  23.104  1.00  0.00    -0.301 N 
ATOM     14  C   UNL A   1      33.235  24.923  23.511  1.00  0.00     0.180 C 
ATOM     15  H   UNL A   1      33.361  23.344  22.164  1.00  0.00     0.172 HD
ATOM     16  S   UNL A   1      33.308  26.171  22.417  1.00  0.00    -0.040 S 
BRANCH  11  17
ATOM     17  C   UNL A   1      32.868  26.069  25.719  1.00  0.00     0.044 A 
ATOM     18  C   UNL A   1      31.552  26.317  26.130  1.00  0.00     0.026 A 
ATOM     19  C   UNL A   1      33.864  26.977  26.098  1.00  0.00     0.026 A 
ATOM     20  C   UNL A   1      31.235  27.456  26.876  1.00  0.00     0.002 A 
ATOM     21  C   UNL A   1      33.544  28.127  26.828  1.00  0.00     0.002 A 
ATOM     22  C   UNL A   1      32.230  28.368  27.215  1.00  0.00     0.000 A 
ENDBRANCH  11  17
ENDBRANCH   8   9
ENDBRANCH   6   8
ENDBRANCH   3   4
ENDBRANCH   2   3
ENDBRANCH   1   2
BRANCH   1  23
ATOM     23  C   UNL A   1      41.506  22.991  27.134  1.00  0.00     0.116 C 
BRANCH  23  24
ATOM     24  N   UNL A   1      41.812  23.861  26.009  1.00  0.00    -0.352 N 
ATOM     25  C   UNL A   1      41.865  25.234  25.955  1.00  0.00     0.251 C 
ATOM     26  H   UNL A   1      42.010  23.399  25.163  1.00  0.00     0.163 HD
ATOM     27  O   UNL A   1      41.997  25.795  24.871  1.00  0.00    -0.269 OA
BRANCH  25  28
ATOM     28  C   UNL A   1      41.734  26.037  27.192  1.00  0.00     0.039 A 
ATOM     29  C   UNL A   1      42.737  26.960  27.506  1.00  0.00     0.014 A 
ATOM     30  C   UNL A   1      40.634  25.887  28.042  1.00  0.00     0.014 A 
ATOM     31  C   UNL A   1      42.598  27.781  28.629  1.00  0.00     0.010 A 
ATOM     32  C   UNL A   1      40.461  26.759  29.116  1.00  0.00     0.010 A 
ATOM     33  C   UNL A   1      41.440  27.717  29.420  1.00  0.00    -0.014 A 
BRANCH  33  34
ATOM     34  C   UNL A   1      41.230  28.653  30.559  1.00  0.00     0.031 A 
ATOM     35  C   UNL A   1      42.066  28.534  31.806  1.00  0.00     0.074 A 
ATOM     36  C   UNL A   1      40.244  29.571  30.496  1.00  0.00     0.049 A 
ATOM     37  N   UNL A   1      41.981  29.209  32.924  1.00  0.00    -0.248 NA
ATOM     38  C   UNL A   1      43.118  27.506  31.805  1.00  0.00     0.031 C 
ATOM     39  C   UNL A   1      39.333  29.756  29.364  1.00  0.00     0.029 A 
ATOM     40  N   UNL A   1      39.833  30.511  31.408  1.00  0.00    -0.354 N 
ATOM     41  C   UNL A   1      42.960  28.683  33.760  1.00  0.00     0.074 A 
ATOM     42  C   UNL A   1      43.587  27.595  33.042  1.00  0.00     0.031 C 
ATOM     43  C   UNL A   1      38.485  30.760  29.640  1.00  0.00     0.029 A 
ATOM     44  C   UNL A   1      38.759  31.261  30.984  1.00  0.00     0.049 A 
ATOM     45  H   UNL A   1      40.265  30.638  32.283  1.00  0.00     0.167 HD
ATOM     46  C   UNL A   1      43.321  29.087  35.002  1.00  0.00     0.037 A 
ATOM     47  C   UNL A   1      38.065  32.234  31.607  1.00  0.00     0.037 A 
ATOM     48  C   UNL A   1      42.704  30.181  35.708  1.00  0.00     0.049 A 
ATOM     49  C   UNL A   1      38.476  32.655  32.993  1.00  0.00     0.074 A 
ATOM     50  C   UNL A   1      43.029  30.694  36.951  1.00  0.00     0.029 A 
ATOM     51  N   UNL A   1      41.634  30.927  35.236  1.00  0.00    -0.354 N 
ATOM     52  N   UNL A   1      39.443  32.186  33.745  1.00  0.00    -0.248 NA
ATOM     53  C   UNL A   1      37.705  33.742  33.615  1.00  0.00     0.031 C 
ATOM     54  C   UNL A   1      42.125  31.718  37.253  1.00  0.00     0.029 A 
ATOM     55  C   UNL A   1      41.272  31.882  36.173  1.00  0.00     0.049 A 
ATOM     56  H   UNL A   1      41.195  30.796  34.365  1.00  0.00     0.167 HD
ATOM     57  C   UNL A   1      39.416  32.939  34.914  1.00  0.00     0.074 A 
ATOM     58  C   UNL A   1      38.345  33.903  34.764  1.00  0.00     0.031 C 
ATOM     59  C   UNL A   1      40.208  32.842  36.011  1.00  0.00     0.037 A 
BRANCH  46  60
ATOM     60  C   UNL A   1      44.442  28.343  35.680  1.00  0.00     0.058 A 
ATOM     61  C   UNL A   1      45.785  28.709  35.497  1.00  0.00     0.135 A 
ATOM     62  C   UNL A   1      44.170  27.278  36.555  1.00  0.00     0.135 A 
ATOM     63  F   UNL A   1      46.106  29.710  34.662  1.00  0.00    -0.206 F 
ATOM     64  C   UNL A   1      46.819  28.026  36.132  1.00  0.00     0.059 A 
ATOM     65  C   UNL A   1      45.185  26.602  37.224  1.00  0.00     0.059 A 
ATOM     66  F   UNL A   1      42.903  26.886  36.769  1.00  0.00    -0.206 F 
ATOM     67  C   UNL A   1      46.509  26.975  36.994  1.00  0.00     0.060 A 
BRANCH  67  68
ATOM     68  S   UNL A   1      47.862  26.105  37.812  1.00  0.00     0.124 S 
ATOM     69  O   UNL A   1      48.852  27.170  37.949  1.00  0.00    -0.237 OA
ATOM     70  O   UNL A   1      47.240  25.656  39.053  1.00  0.00    -0.237 OA
ATOM     71  O   UNL A   1      48.207  25.046  36.868  1.00  0.00    -0.744 OA
ENDBRANCH  67  68
ENDBRANCH  46  60
BRANCH  47  72
ATOM     72  C   UNL A   1      36.915  32.883  30.921  1.00  0.00     0.058 A 
ATOM     73  C   UNL A   1      35.593  32.539  31.237  1.00  0.00     0.135 A 
ATOM     74  C   UNL A   1      37.116  33.869  29.941  1.00  0.00     0.135 A 
ATOM     75  F   UNL A   1      35.348  31.598  32.162  1.00  0.00    -0.206 F 
ATOM     76  C   UNL A   1      34.511  33.135  30.596  1.00  0.00     0.059 A 
ATOM     77  C   UNL A   1      36.050  34.499  29.306  1.00  0.00     0.059 A 
ATOM     78  F   UNL A   1      38.361  34.247  29.612  1.00  0.00    -0.206 F 
ATOM     79  C   UNL A   1      34.750  34.116  29.633  1.00  0.00     0.060 A 
BRANCH  79  80
ATOM     80  S   UNL A   1      33.339  34.915  28.841  1.00  0.00     0.124 S 
ATOM     81  O   UNL A   1      33.967  36.076  28.222  1.00  0.00    -0.237 OA
ATOM     82  O   UNL A   1      32.872  33.877  27.927  1.00  0.00    -0.237 OA
ATOM     83  O   UNL A   1      32.445  35.203  29.959  1.00  0.00    -0.744 OA
ENDBRANCH  79  80
ENDBRANCH  47  72
BRANCH  59  84
ATOM     84  C   UNL A   1      39.975  33.824  37.127  1.00  0.00     0.058 A 
ATOM     85  C   UNL A   1      40.569  35.095  37.132  1.00  0.00     0.135 A 
ATOM     86  C   UNL A   1      39.101  33.506  38.180  1.00  0.00     0.135 A 
ATOM     87  F   UNL A   1      41.416  35.449  36.153  1.00  0.00    -0.206 F 
ATOM     88  C   UNL A   1      40.324  36.008  38.153  1.00  0.00     0.059 A 
ATOM     89  C   UNL A   1      38.818  34.414  39.196  1.00  0.00     0.059 A 
ATOM     90  F   UNL A   1      38.499  32.307  38.220  1.00  0.00    -0.206 F 
ATOM     91  C   UNL A   1      39.445  35.659  39.180  1.00  0.00     0.060 A 
BRANCH  91  92
ATOM     92  S   UNL A   1      39.109  36.866  40.479  1.00  0.00     0.124 S 
ATOM     93  O   UNL A   1      38.278  36.091  41.394  1.00  0.00    -0.237 OA
ATOM     94  O   UNL A   1      40.450  37.188  40.959  1.00  0.00    -0.237 OA
ATOM     95  O   UNL A   1      38.427  37.946  39.773  1.00  0.00    -0.744 OA
ENDBRANCH  91  92
ENDBRANCH  59  84
ENDBRANCH  33  34
ENDBRANCH  25  28
ENDBRANCH  23  24
ENDBRANCH   1  23
TORSDOF 16
ENDMDL
MODEL 3
REMARK VINA RESULT:      -9.2      3.687     10.531
REMARK SMILES O=C(C[C@@H]1C(=O)NC(=S)N1c1ccccc1)NCCCCNC(=O)c1ccc(-c2c3nc(c(-c4c(F)cc(S(=O)(=O)[O-])cc4F)c4ccc([nH]4)c(-c4c(F)cc(S(=O)(=O)[O-])cc4F)c4nc(c(-c5c(F)cc(S(=O)(=O)[O-])cc5F)c5ccc2[nH]5)C=C4)C=C3)cc1
REMARK SMILES IDX 20 1 19 2 18 3 17 4 1 5 2 6 3 8 4 9 5 10 10 11 6 12 7 13
REMARK SMILES IDX 8 14 9 16 11 17 12 18 16 19 13 20 15 21 14 22 21 23 22 24
REMARK SMILES IDX 23 25 24 27 25 28 26 29 90 30 27 31 89 32 28 33 29 34 30 35
REMARK SMILES IDX 83 36 31 37 88 38 82 39 84 40 32 41 87 42 81 43 80 44 33 46
REMARK SMILES IDX 67 47 46 48 66 49 47 50 50 51 65 52 85 53 48 54 49 55 64 57
REMARK SMILES IDX 86 58 51 59 34 60 35 61 44 62 36 63 37 64 43 65 45 66 38 67
REMARK SMILES IDX 39 68 40 69 41 70 42 71 68 72 69 73 78 74 70 75 71 76 77 77
REMARK SMILES IDX 79 78 72 79 73 80 74 81 75 82 76 83 52 84 53 85 62 86 54 87
REMARK SMILES IDX 55 88 61 89 63 90 56 91 57 92 58 93 59 94 60 95
REMARK H PARENT 17 7 7 15 22 26 84 45 50 56
REMARK Flexibility Score: inf
ROOT
ATOM      1  C   UNL A   1      35.601  23.513  25.745  1.00  0.00     0.023 C 
ENDROOT
BRANCH   1   2
ATOM      2  C   UNL A   1      34.582  24.650  25.650  1.00  0.00     0.023 C 
BRANCH   2   3
ATOM      3  C   UNL A   1      33.176  24.299  26.133  1.00  0.00     0.116 C 
BRANCH   3   4
ATOM      4  N   UNL A   1      32.319  25.467  26.236  1.00  0.00    -0.356 N 
ATOM      5  O   UNL A   1      31.123  24.998  24.336  1.00  0.00    -0.275 OA
ATOM      6  C   UNL A   1      31.316  25.699  25.327  1.00  0.00     0.222 C 
ATOM      7  H   UNL A   1      32.460  26.105  26.972  1.00  0.00     0.163 HD
BRANCH   6   8
ATOM      8  C   UNL A   1      30.490  26.944  25.554  1.00  0.00     0.135 C 
BRANCH   8   9
ATOM      9  C   UNL A   1      30.747  28.143  24.652  1.00  0.00     0.188 C 
ATOM     10  C   UNL A   1      30.348  27.924  23.190  1.00  0.00     0.249 C 
ATOM     11  N   UNL A   1      32.164  28.503  24.478  1.00  0.00    -0.306 N 
ATOM     12  O   UNL A   1      29.223  27.703  22.772  1.00  0.00    -0.272 OA
ATOM     13  N   UNL A   1      31.448  28.050  22.404  1.00  0.00    -0.301 N 
ATOM     14  C   UNL A   1      32.541  28.413  23.128  1.00  0.00     0.180 C 
ATOM     15  H   UNL A   1      31.454  27.898  21.432  1.00  0.00     0.172 HD
ATOM     16  S   UNL A   1      34.023  28.615  22.404  1.00  0.00    -0.040 S 
BRANCH  11  17
ATOM     17  C   UNL A   1      32.937  29.075  25.521  1.00  0.00     0.044 A 
ATOM     18  C   UNL A   1      34.079  28.421  26.001  1.00  0.00     0.026 A 
ATOM     19  C   UNL A   1      32.566  30.286  26.119  1.00  0.00     0.026 A 
ATOM     20  C   UNL A   1      34.815  28.949  27.066  1.00  0.00     0.002 A 
ATOM     21  C   UNL A   1      33.291  30.804  27.196  1.00  0.00     0.002 A 
ATOM     22  C   UNL A   1      34.413  30.135  27.673  1.00  0.00     0.000 A 
ENDBRANCH  11  17
ENDBRANCH   8   9
ENDBRANCH   6   8
ENDBRANCH   3   4
ENDBRANCH   2   3
ENDBRANCH   1   2
BRANCH   1  23
ATOM     23  C   UNL A   1      36.923  23.757  25.023  1.00  0.00     0.116 C 
BRANCH  23  24
ATOM     24  N   UNL A   1      37.933  22.758  25.340  1.00  0.00    -0.352 N 
ATOM     25  C   UNL A   1      39.105  22.894  26.047  1.00  0.00     0.251 C 
ATOM     26  H   UNL A   1      37.751  21.854  24.999  1.00  0.00     0.163 HD
ATOM     27  O   UNL A   1      39.904  21.963  26.083  1.00  0.00    -0.269 OA
BRANCH  25  28
ATOM     28  C   UNL A   1      39.419  24.166  26.737  1.00  0.00     0.039 A 
ATOM     29  C   UNL A   1      38.937  24.366  28.034  1.00  0.00     0.014 A 
ATOM     30  C   UNL A   1      40.183  25.159  26.117  1.00  0.00     0.014 A 
ATOM     31  C   UNL A   1      39.284  25.526  28.733  1.00  0.00     0.010 A 
ATOM     32  C   UNL A   1      40.590  26.277  26.842  1.00  0.00     0.010 A 
ATOM     33  C   UNL A   1      40.147  26.473  28.159  1.00  0.00    -0.014 A 
BRANCH  33  34
ATOM     34  C   UNL A   1      40.607  27.663  28.926  1.00  0.00     0.031 A 
ATOM     35  C   UNL A   1      41.955  27.663  29.595  1.00  0.00     0.074 A 
ATOM     36  C   UNL A   1      39.784  28.722  29.072  1.00  0.00     0.049 A 
ATOM     37  N   UNL A   1      42.496  28.575  30.363  1.00  0.00    -0.248 NA
ATOM     38  C   UNL A   1      42.796  26.472  29.398  1.00  0.00     0.031 C 
ATOM     39  C   UNL A   1      38.434  28.826  28.513  1.00  0.00     0.029 A 
ATOM     40  N   UNL A   1      39.955  29.906  29.745  1.00  0.00    -0.354 N 
ATOM     41  C   UNL A   1      43.733  28.066  30.745  1.00  0.00     0.074 A 
ATOM     42  C   UNL A   1      43.837  26.742  30.172  1.00  0.00     0.031 C 
ATOM     43  C   UNL A   1      37.908  30.015  28.849  1.00  0.00     0.029 A 
ATOM     44  C   UNL A   1      38.862  30.741  29.683  1.00  0.00     0.049 A 
ATOM     45  H   UNL A   1      40.781  30.137  30.227  1.00  0.00     0.167 HD
ATOM     46  C   UNL A   1      44.703  28.658  31.482  1.00  0.00     0.037 A 
ATOM     47  C   UNL A   1      38.645  31.947  30.243  1.00  0.00     0.037 A 
ATOM     48  C   UNL A   1      44.600  29.984  32.037  1.00  0.00     0.049 A 
ATOM     49  C   UNL A   1      39.732  32.578  31.071  1.00  0.00     0.074 A 
ATOM     50  C   UNL A   1      45.547  30.688  32.760  1.00  0.00     0.029 A 
ATOM     51  N   UNL A   1      43.486  30.804  31.936  1.00  0.00    -0.354 N 
ATOM     52  N   UNL A   1      40.918  32.107  31.371  1.00  0.00    -0.248 NA
ATOM     53  C   UNL A   1      39.455  33.909  31.632  1.00  0.00     0.031 C 
ATOM     54  C   UNL A   1      44.988  31.913  33.138  1.00  0.00     0.029 A 
ATOM     55  C   UNL A   1      43.713  31.997  32.602  1.00  0.00     0.049 A 
ATOM     56  H   UNL A   1      42.655  30.571  31.461  1.00  0.00     0.167 HD
ATOM     57  C   UNL A   1      41.540  33.093  32.130  1.00  0.00     0.074 A 
ATOM     58  C   UNL A   1      40.602  34.193  32.232  1.00  0.00     0.031 C 
ATOM     59  C   UNL A   1      42.775  33.089  32.691  1.00  0.00     0.037 A 
BRANCH  46  60
ATOM     60  C   UNL A   1      45.967  27.877  31.730  1.00  0.00     0.058 A 
ATOM     61  C   UNL A   1      46.115  27.054  32.858  1.00  0.00     0.135 A 
ATOM     62  C   UNL A   1      47.028  27.919  30.809  1.00  0.00     0.135 A 
ATOM     63  F   UNL A   1      45.140  26.986  33.778  1.00  0.00    -0.206 F 
ATOM     64  C   UNL A   1      47.280  26.326  33.080  1.00  0.00     0.059 A 
ATOM     65  C   UNL A   1      48.188  27.175  30.996  1.00  0.00     0.059 A 
ATOM     66  F   UNL A   1      46.940  28.688  29.712  1.00  0.00    -0.206 F 
ATOM     67  C   UNL A   1      48.311  26.392  32.143  1.00  0.00     0.060 A 
BRANCH  67  68
ATOM     68  S   UNL A   1      49.812  25.437  32.446  1.00  0.00     0.124 S 
ATOM     69  O   UNL A   1      49.332  24.434  33.393  1.00  0.00    -0.237 OA
ATOM     70  O   UNL A   1      50.142  24.943  31.113  1.00  0.00    -0.237 OA
ATOM     71  O   UNL A   1      50.738  26.422  32.994  1.00  0.00    -0.744 OA
ENDBRANCH  67  68
ENDBRANCH  46  60
BRANCH  47  72
ATOM     72  C   UNL A   1      37.346  32.642  30.031  1.00  0.00     0.058 A 
ATOM     73  C   UNL A   1      36.228  32.350  30.825  1.00  0.00     0.135 A 
ATOM     74  C   UNL A   1      37.200  33.620  29.034  1.00  0.00     0.135 A 
ATOM     75  F   UNL A   1      36.313  31.418  31.786  1.00  0.00    -0.206 F 
ATOM     76  C   UNL A   1      35.007  32.988  30.629  1.00  0.00     0.059 A 
ATOM     77  C   UNL A   1      35.998  34.292  28.838  1.00  0.00     0.059 A 
ATOM     78  F   UNL A   1      38.242  33.950  28.256  1.00  0.00    -0.206 F 
ATOM     79  C   UNL A   1      34.902  33.961  29.634  1.00  0.00     0.060 A 
BRANCH  79  80
ATOM     80  S   UNL A   1      33.327  34.816  29.419  1.00  0.00     0.124 S 
ATOM     81  O   UNL A   1      33.756  36.083  28.840  1.00  0.00    -0.237 OA
ATOM     82  O   UNL A   1      32.609  33.914  28.524  1.00  0.00    -0.237 OA
ATOM     83  O   UNL A   1      32.798  34.890  30.778  1.00  0.00    -0.744 OA
ENDBRANCH  79  80
ENDBRANCH  47  72
BRANCH  59  84
ATOM     84  C   UNL A   1      43.205  34.324  33.436  1.00  0.00     0.058 A 
ATOM     85  C   UNL A   1      43.831  35.400  32.788  1.00  0.00     0.135 A 
ATOM     86  C   UNL A   1      42.940  34.452  34.809  1.00  0.00     0.135 A 
ATOM     87  F   UNL A   1      44.114  35.329  31.478  1.00  0.00    -0.206 F 
ATOM     88  C   UNL A   1      44.199  36.550  33.480  1.00  0.00     0.059 A 
ATOM     89  C   UNL A   1      43.271  35.604  35.515  1.00  0.00     0.059 A 
ATOM     90  F   UNL A   1      42.334  33.456  35.476  1.00  0.00    -0.206 F 
ATOM     91  C   UNL A   1      43.912  36.644  34.843  1.00  0.00     0.060 A 
BRANCH  91  92
ATOM     92  S   UNL A   1      44.363  38.155  35.720  1.00  0.00     0.124 S 
ATOM     93  O   UNL A   1      45.820  38.081  35.705  1.00  0.00    -0.237 OA
ATOM     94  O   UNL A   1      43.773  39.192  34.879  1.00  0.00    -0.237 OA
ATOM     95  O   UNL A   1      43.741  37.989  37.030  1.00  0.00    -0.744 OA
ENDBRANCH  91  92
ENDBRANCH  59  84
ENDBRANCH  33  34
ENDBRANCH  25  28
ENDBRANCH  23  24
ENDBRANCH   1  23
TORSDOF 16
ENDMDL
