MODEL 1
REMARK VINA RESULT:     -13.2      0.000      0.000
REMARK SMILES CC(C)CCn1nc(C(=O)NCCCCNC(=O)c2ccc(-c3c4nc(c(-c5c(F)cc(S(=O)(=O)[O-])cc5F)c5ccc([nH]5)c(-c5c(F)cc(S(=O)(=O)[O-])cc5F)c5nc(c(-c6c(F)cc(S(=O)(=O)[O-])cc6F)c6ccc3[nH]6)C=C5)C=C4)cc2)c2c1CCN(C(=O)[C@@H]1CCc3nn(C)c(=O)n3C1)C2
REMARK SMILES IDX 13 1 12 2 11 3 9 4 10 5 8 7 6 8 7 9 86 10 85 11 87 12 103 13
REMARK SMILES IDX 88 14 89 15 5 16 4 17 2 18 1 19 3 20 90 21 91 22 92 23 93 24
REMARK SMILES IDX 102 25 94 26 101 27 95 28 99 29 96 30 97 31 100 32 98 33
REMARK SMILES IDX 14 34 15 35 16 36 17 37 18 39 19 40 20 41 84 42 21 43 83 44
REMARK SMILES IDX 22 45 23 46 24 47 77 48 25 49 82 50 76 51 78 52 26 53 81 54
REMARK SMILES IDX 75 55 74 56 27 58 61 59 40 60 60 61 41 62 44 63 59 64 79 65
REMARK SMILES IDX 42 66 43 67 58 69 80 70 45 71 28 72 29 73 38 74 30 75 31 76
REMARK SMILES IDX 37 77 39 78 32 79 33 80 34 81 35 82 36 83 62 84 63 85 72 86
REMARK SMILES IDX 64 87 65 88 71 89 73 90 66 91 67 92 68 93 69 94 70 95 46 96
REMARK SMILES IDX 47 97 56 98 48 99 49 100 55 101 57 102 50 103 51 104 52 105
REMARK SMILES IDX 53 106 54 107
REMARK H PARENT 11 6 16 38 78 57 44 68
REMARK Flexibility Score: inf
ROOT
ATOM      1  C   UNL A   1      35.044  30.485  27.706  1.00  0.00     0.023 C 
ENDROOT
BRANCH   1   2
ATOM      2  C   UNL A   1      34.417  29.220  27.082  1.00  0.00     0.116 C 
BRANCH   2   3
ATOM      3  N   UNL A   1      33.099  28.920  27.633  1.00  0.00    -0.351 N 
ATOM      4  C   UNL A   1      31.908  28.390  27.172  1.00  0.00     0.272 C 
ATOM      5  O   UNL A   1      31.078  28.184  28.067  1.00  0.00    -0.267 OA
ATOM      6  H   UNL A   1      33.043  29.160  28.586  1.00  0.00     0.163 HD
BRANCH   4   7
ATOM      7  C   UNL A   1      31.589  28.068  25.752  1.00  0.00     0.155 A 
ATOM      8  N   UNL A   1      31.050  28.507  23.701  1.00  0.00    -0.268 N 
ATOM      9  N   UNL A   1      31.249  29.076  24.903  1.00  0.00    -0.167 NA
ATOM     10  C   UNL A   1      31.132  27.157  23.762  1.00  0.00     0.046 A 
ATOM     11  C   UNL A   1      31.651  26.861  25.003  1.00  0.00     0.026 A 
ATOM     12  C   UNL A   1      30.834  26.147  22.722  1.00  0.00     0.078 C 
ATOM     13  C   UNL A   1      32.132  25.510  25.348  1.00  0.00     0.159 C 
ATOM     14  C   UNL A   1      30.818  24.778  23.436  1.00  0.00     0.126 C 
ATOM     15  N   UNL A   1      32.028  24.559  24.240  1.00  0.00    -0.338 N 
BRANCH   8  16
ATOM     16  C   UNL A   1      30.992  29.326  22.502  1.00  0.00     0.145 C 
BRANCH  16  17
ATOM     17  C   UNL A   1      29.582  29.690  22.036  1.00  0.00     0.027 C 
BRANCH  17  18
ATOM     18  C   UNL A   1      28.586  29.958  23.175  1.00  0.00    -0.016 C 
ATOM     19  C   UNL A   1      28.045  31.388  23.131  1.00  0.00     0.007 C 
ATOM     20  C   UNL A   1      27.429  28.960  23.098  1.00  0.00     0.007 C 
ENDBRANCH  17  18
ENDBRANCH  16  17
ENDBRANCH   8  16
BRANCH  15  21
ATOM     21  C   UNL A   1      32.876  23.470  24.328  1.00  0.00     0.227 C 
ATOM     22  O   UNL A   1      33.252  22.911  23.284  1.00  0.00    -0.274 OA
BRANCH  21  23
ATOM     23  C   UNL A   1      33.362  22.819  25.630  1.00  0.00     0.099 C 
ATOM     24  C   UNL A   1      34.875  22.881  25.849  1.00  0.00     0.023 C 
ATOM     25  C   UNL A   1      32.767  21.473  26.000  1.00  0.00     0.142 C 
ATOM     26  C   UNL A   1      35.642  21.743  25.200  1.00  0.00     0.078 C 
ATOM     27  N   UNL A   1      33.621  20.369  25.629  1.00  0.00    -0.278 N 
ATOM     28  C   UNL A   1      34.893  20.442  25.188  1.00  0.00     0.133 A 
ATOM     29  C   UNL A   1      33.150  19.135  25.253  1.00  0.00     0.345 A 
ATOM     30  N   UNL A   1      35.319  19.377  24.573  1.00  0.00    -0.155 NA
ATOM     31  N   UNL A   1      34.225  18.532  24.587  1.00  0.00    -0.216 N 
ATOM     32  O   UNL A   1      32.002  18.731  25.328  1.00  0.00    -0.246 OA
ATOM     33  C   UNL A   1      34.073  17.456  23.645  1.00  0.00     0.179 C 
ENDBRANCH  21  23
ENDBRANCH  15  21
ENDBRANCH   4   7
ENDBRANCH   2   3
ENDBRANCH   1   2
BRANCH   1  34
ATOM     34  C   UNL A   1      34.144  31.708  27.887  1.00  0.00     0.023 C 
BRANCH  34  35
ATOM     35  C   UNL A   1      34.918  33.015  28.015  1.00  0.00     0.116 C 
BRANCH  35  36
ATOM     36  N   UNL A   1      34.384  33.921  29.038  1.00  0.00    -0.352 N 
ATOM     37  C   UNL A   1      34.591  33.836  30.409  1.00  0.00     0.251 C 
ATOM     38  H   UNL A   1      33.822  34.663  28.720  1.00  0.00     0.163 HD
ATOM     39  O   UNL A   1      33.849  34.367  31.210  1.00  0.00    -0.269 OA
BRANCH  37  40
ATOM     40  C   UNL A   1      35.775  33.076  30.855  1.00  0.00     0.039 A 
ATOM     41  C   UNL A   1      35.672  31.745  31.262  1.00  0.00     0.014 A 
ATOM     42  C   UNL A   1      37.013  33.702  30.716  1.00  0.00     0.014 A 
ATOM     43  C   UNL A   1      36.843  31.005  31.416  1.00  0.00     0.010 A 
ATOM     44  C   UNL A   1      38.155  32.937  30.753  1.00  0.00     0.010 A 
ATOM     45  C   UNL A   1      38.084  31.593  31.119  1.00  0.00    -0.014 A 
BRANCH  45  46
ATOM     46  C   UNL A   1      39.289  30.763  31.033  1.00  0.00     0.031 A 
ATOM     47  C   UNL A   1      39.961  30.476  32.336  1.00  0.00     0.074 A 
ATOM     48  C   UNL A   1      39.652  30.099  29.913  1.00  0.00     0.049 A 
ATOM     49  N   UNL A   1      41.138  30.849  32.722  1.00  0.00    -0.248 NA
ATOM     50  C   UNL A   1      39.190  29.791  33.386  1.00  0.00     0.031 C 
ATOM     51  C   UNL A   1      38.935  30.017  28.636  1.00  0.00     0.029 A 
ATOM     52  N   UNL A   1      40.698  29.247  29.721  1.00  0.00    -0.354 N 
ATOM     53  C   UNL A   1      41.348  30.254  33.965  1.00  0.00     0.074 A 
ATOM     54  C   UNL A   1      40.061  29.779  34.399  1.00  0.00     0.031 C 
ATOM     55  C   UNL A   1      39.422  28.992  27.907  1.00  0.00     0.029 A 
ATOM     56  C   UNL A   1      40.592  28.460  28.579  1.00  0.00     0.049 A 
ATOM     57  H   UNL A   1      41.463  29.192  30.338  1.00  0.00     0.167 HD
ATOM     58  C   UNL A   1      42.605  29.994  34.427  1.00  0.00     0.037 A 
ATOM     59  C   UNL A   1      41.393  27.425  28.217  1.00  0.00     0.037 A 
ATOM     60  C   UNL A   1      43.594  30.731  33.677  1.00  0.00     0.049 A 
ATOM     61  C   UNL A   1      42.679  27.607  28.935  1.00  0.00     0.074 A 
ATOM     62  C   UNL A   1      43.824  32.068  33.416  1.00  0.00     0.029 A 
ATOM     63  N   UNL A   1      44.331  30.041  32.745  1.00  0.00    -0.354 N 
ATOM     64  N   UNL A   1      43.498  28.601  28.720  1.00  0.00    -0.248 NA
ATOM     65  C   UNL A   1      42.855  26.921  30.204  1.00  0.00     0.031 C 
ATOM     66  C   UNL A   1      44.265  32.107  32.060  1.00  0.00     0.029 A 
ATOM     67  C   UNL A   1      44.347  30.793  31.599  1.00  0.00     0.049 A 
ATOM     68  H   UNL A   1      44.766  29.168  32.876  1.00  0.00     0.167 HD
ATOM     69  C   UNL A   1      43.970  28.946  29.978  1.00  0.00     0.074 A 
ATOM     70  C   UNL A   1      43.628  27.811  30.832  1.00  0.00     0.031 C 
ATOM     71  C   UNL A   1      44.341  30.230  30.265  1.00  0.00     0.037 A 
BRANCH  58  72
ATOM     72  C   UNL A   1      42.984  28.806  35.291  1.00  0.00     0.058 A 
ATOM     73  C   UNL A   1      43.744  29.019  36.463  1.00  0.00     0.135 A 
ATOM     74  C   UNL A   1      42.887  27.461  34.873  1.00  0.00     0.135 A 
ATOM     75  F   UNL A   1      43.907  30.256  36.959  1.00  0.00    -0.206 F 
ATOM     76  C   UNL A   1      44.429  27.989  37.111  1.00  0.00     0.059 A 
ATOM     77  C   UNL A   1      43.516  26.412  35.537  1.00  0.00     0.059 A 
ATOM     78  F   UNL A   1      42.259  27.103  33.747  1.00  0.00    -0.206 F 
ATOM     79  C   UNL A   1      44.323  26.690  36.626  1.00  0.00     0.060 A 
BRANCH  79  80
ATOM     80  S   UNL A   1      45.294  25.378  37.388  1.00  0.00     0.124 S 
ATOM     81  O   UNL A   1      44.596  25.202  38.657  1.00  0.00    -0.237 OA
ATOM     82  O   UNL A   1      45.149  24.294  36.422  1.00  0.00    -0.237 OA
ATOM     83  O   UNL A   1      46.630  25.958  37.475  1.00  0.00    -0.744 OA
ENDBRANCH  79  80
ENDBRANCH  58  72
BRANCH  59  84
ATOM     84  C   UNL A   1      40.998  26.141  27.577  1.00  0.00     0.058 A 
ATOM     85  C   UNL A   1      41.801  25.553  26.582  1.00  0.00     0.135 A 
ATOM     86  C   UNL A   1      39.991  25.320  28.126  1.00  0.00     0.135 A 
ATOM     87  F   UNL A   1      42.789  26.256  26.009  1.00  0.00    -0.206 F 
ATOM     88  C   UNL A   1      41.664  24.211  26.210  1.00  0.00     0.059 A 
ATOM     89  C   UNL A   1      39.828  23.985  27.761  1.00  0.00     0.059 A 
ATOM     90  F   UNL A   1      39.195  25.761  29.110  1.00  0.00    -0.206 F 
ATOM     91  C   UNL A   1      40.691  23.427  26.827  1.00  0.00     0.060 A 
BRANCH  91  92
ATOM     92  S   UNL A   1      40.647  21.647  26.508  1.00  0.00     0.124 S 
ATOM     93  O   UNL A   1      41.869  21.448  25.738  1.00  0.00    -0.237 OA
ATOM     94  O   UNL A   1      40.645  21.092  27.857  1.00  0.00    -0.237 OA
ATOM     95  O   UNL A   1      39.403  21.467  25.764  1.00  0.00    -0.744 OA
ENDBRANCH  91  92
ENDBRANCH  59  84
BRANCH  71  96
ATOM     96  C   UNL A   1      44.544  31.190  29.118  1.00  0.00     0.058 A 
ATOM     97  C   UNL A   1      45.696  31.250  28.313  1.00  0.00     0.135 A 
ATOM     98  C   UNL A   1      43.462  31.998  28.738  1.00  0.00     0.135 A 
ATOM     99  F   UNL A   1      46.738  30.437  28.533  1.00  0.00    -0.206 F 
ATOM    100  C   UNL A   1      45.786  32.111  27.217  1.00  0.00     0.059 A 
ATOM    101  C   UNL A   1      43.516  32.839  27.630  1.00  0.00     0.059 A 
ATOM    102  F   UNL A   1      42.309  31.944  29.425  1.00  0.00    -0.206 F 
ATOM    103  C   UNL A   1      44.689  32.904  26.883  1.00  0.00     0.060 A 
BRANCH 103 104
ATOM    104  S   UNL A   1      44.787  33.979  25.435  1.00  0.00     0.124 S 
ATOM    105  O   UNL A   1      46.213  34.277  25.369  1.00  0.00    -0.237 OA
ATOM    106  O   UNL A   1      44.266  33.125  24.370  1.00  0.00    -0.237 OA
ATOM    107  O   UNL A   1      43.929  35.107  25.790  1.00  0.00    -0.744 OA
ENDBRANCH 103 104
ENDBRANCH  71  96
ENDBRANCH  45  46
ENDBRANCH  37  40
ENDBRANCH  35  36
ENDBRANCH  34  35
ENDBRANCH   1  34
TORSDOF 19
ENDMDL
MODEL 2
REMARK VINA RESULT:     -12.5      1.548      2.301
REMARK SMILES CC(C)CCn1nc(C(=O)NCCCCNC(=O)c2ccc(-c3c4nc(c(-c5c(F)cc(S(=O)(=O)[O-])cc5F)c5ccc([nH]5)c(-c5c(F)cc(S(=O)(=O)[O-])cc5F)c5nc(c(-c6c(F)cc(S(=O)(=O)[O-])cc6F)c6ccc3[nH]6)C=C5)C=C4)cc2)c2c1CCN(C(=O)[C@@H]1CCc3nn(C)c(=O)n3C1)C2
REMARK SMILES IDX 13 1 12 2 11 3 9 4 10 5 8 7 6 8 7 9 86 10 85 11 87 12 103 13
REMARK SMILES IDX 88 14 89 15 5 16 4 17 2 18 1 19 3 20 90 21 91 22 92 23 93 24
REMARK SMILES IDX 102 25 94 26 101 27 95 28 99 29 96 30 97 31 100 32 98 33
REMARK SMILES IDX 14 34 15 35 16 36 17 37 18 39 19 40 20 41 84 42 21 43 83 44
REMARK SMILES IDX 22 45 23 46 24 47 77 48 25 49 82 50 76 51 78 52 26 53 81 54
REMARK SMILES IDX 75 55 74 56 27 58 61 59 40 60 60 61 41 62 44 63 59 64 79 65
REMARK SMILES IDX 42 66 43 67 58 69 80 70 45 71 28 72 29 73 38 74 30 75 31 76
REMARK SMILES IDX 37 77 39 78 32 79 33 80 34 81 35 82 36 83 62 84 63 85 72 86
REMARK SMILES IDX 64 87 65 88 71 89 73 90 66 91 67 92 68 93 69 94 70 95 46 96
REMARK SMILES IDX 47 97 56 98 48 99 49 100 55 101 57 102 50 103 51 104 52 105
REMARK SMILES IDX 53 106 54 107
REMARK H PARENT 11 6 16 38 78 57 44 68
REMARK Flexibility Score: inf
ROOT
ATOM      1  C   UNL A   1      32.930  32.906  27.623  1.00  0.00     0.023 C 
ENDROOT
BRANCH   1   2
ATOM      2  C   UNL A   1      32.188  31.634  27.158  1.00  0.00     0.116 C 
BRANCH   2   3
ATOM      3  N   UNL A   1      33.011  30.434  27.275  1.00  0.00    -0.351 N 
ATOM      4  C   UNL A   1      33.054  29.177  26.698  1.00  0.00     0.272 C 
ATOM      5  O   UNL A   1      34.052  28.519  27.017  1.00  0.00    -0.267 OA
ATOM      6  H   UNL A   1      33.726  30.549  27.942  1.00  0.00     0.163 HD
BRANCH   4   7
ATOM      7  C   UNL A   1      32.033  28.610  25.771  1.00  0.00     0.155 A 
ATOM      8  N   UNL A   1      30.774  28.563  24.010  1.00  0.00    -0.268 N 
ATOM      9  N   UNL A   1      31.671  29.320  24.668  1.00  0.00    -0.167 NA
ATOM     10  C   UNL A   1      30.451  27.446  24.703  1.00  0.00     0.046 A 
ATOM     11  C   UNL A   1      31.364  27.356  25.731  1.00  0.00     0.026 A 
ATOM     12  C   UNL A   1      29.409  26.432  24.424  1.00  0.00     0.078 C 
ATOM     13  C   UNL A   1      31.503  26.137  26.549  1.00  0.00     0.159 C 
ATOM     14  C   UNL A   1      29.301  25.559  25.692  1.00  0.00     0.126 C 
ATOM     15  N   UNL A   1      30.610  25.056  26.131  1.00  0.00    -0.338 N 
BRANCH   8  16
ATOM     16  C   UNL A   1      30.426  28.869  22.633  1.00  0.00     0.145 C 
BRANCH  16  17
ATOM     17  C   UNL A   1      29.562  30.118  22.446  1.00  0.00     0.027 C 
BRANCH  17  18
ATOM     18  C   UNL A   1      28.336  30.184  23.369  1.00  0.00    -0.016 C 
ATOM     19  C   UNL A   1      27.683  31.566  23.346  1.00  0.00     0.007 C 
ATOM     20  C   UNL A   1      27.317  29.119  22.955  1.00  0.00     0.007 C 
ENDBRANCH  17  18
ENDBRANCH  16  17
ENDBRANCH   8  16
BRANCH  15  21
ATOM     21  C   UNL A   1      31.016  23.788  26.507  1.00  0.00     0.227 C 
ATOM     22  O   UNL A   1      30.572  23.298  27.559  1.00  0.00    -0.274 OA
BRANCH  21  23
ATOM     23  C   UNL A   1      32.045  22.924  25.766  1.00  0.00     0.099 C 
ATOM     24  C   UNL A   1      33.458  22.970  26.351  1.00  0.00     0.023 C 
ATOM     25  C   UNL A   1      32.033  22.973  24.249  1.00  0.00     0.142 C 
ATOM     26  C   UNL A   1      34.307  24.116  25.830  1.00  0.00     0.078 C 
ATOM     27  N   UNL A   1      33.032  23.868  23.715  1.00  0.00    -0.278 N 
ATOM     28  C   UNL A   1      34.027  24.470  24.399  1.00  0.00     0.133 A 
ATOM     29  C   UNL A   1      32.874  24.580  22.552  1.00  0.00     0.345 A 
ATOM     30  N   UNL A   1      34.555  25.498  23.799  1.00  0.00    -0.155 NA
ATOM     31  N   UNL A   1      33.832  25.600  22.626  1.00  0.00    -0.216 N 
ATOM     32  O   UNL A   1      31.984  24.454  21.728  1.00  0.00    -0.246 OA
ATOM     33  C   UNL A   1      33.743  26.828  21.882  1.00  0.00     0.179 C 
ENDBRANCH  21  23
ENDBRANCH  15  21
ENDBRANCH   4   7
ENDBRANCH   2   3
ENDBRANCH   1   2
BRANCH   1  34
ATOM     34  C   UNL A   1      34.409  32.771  27.988  1.00  0.00     0.023 C 
BRANCH  34  35
ATOM     35  C   UNL A   1      35.045  34.084  28.430  1.00  0.00     0.116 C 
BRANCH  35  36
ATOM     36  N   UNL A   1      34.368  34.717  29.568  1.00  0.00    -0.352 N 
ATOM     37  C   UNL A   1      34.412  34.302  30.893  1.00  0.00     0.251 C 
ATOM     38  H   UNL A   1      33.827  35.515  29.371  1.00  0.00     0.163 HD
ATOM     39  O   UNL A   1      33.566  34.625  31.701  1.00  0.00    -0.269 OA
BRANCH  37  40
ATOM     40  C   UNL A   1      35.556  33.455  31.285  1.00  0.00     0.039 A 
ATOM     41  C   UNL A   1      35.418  32.074  31.434  1.00  0.00     0.014 A 
ATOM     42  C   UNL A   1      36.801  34.075  31.360  1.00  0.00     0.014 A 
ATOM     43  C   UNL A   1      36.571  31.299  31.542  1.00  0.00     0.010 A 
ATOM     44  C   UNL A   1      37.936  33.298  31.346  1.00  0.00     0.010 A 
ATOM     45  C   UNL A   1      37.833  31.911  31.455  1.00  0.00    -0.014 A 
BRANCH  45  46
ATOM     46  C   UNL A   1      39.040  31.091  31.314  1.00  0.00     0.031 A 
ATOM     47  C   UNL A   1      39.757  30.786  32.589  1.00  0.00     0.074 A 
ATOM     48  C   UNL A   1      39.369  30.448  30.172  1.00  0.00     0.049 A 
ATOM     49  N   UNL A   1      40.944  31.160  32.942  1.00  0.00    -0.248 NA
ATOM     50  C   UNL A   1      39.025  30.078  33.652  1.00  0.00     0.031 C 
ATOM     51  C   UNL A   1      38.610  30.384  28.918  1.00  0.00     0.029 A 
ATOM     52  N   UNL A   1      40.413  29.607  29.930  1.00  0.00    -0.354 N 
ATOM     53  C   UNL A   1      41.198  30.545  34.167  1.00  0.00     0.074 A 
ATOM     54  C   UNL A   1      39.929  30.054  34.635  1.00  0.00     0.031 C 
ATOM     55  C   UNL A   1      39.080  29.374  28.155  1.00  0.00     0.029 A 
ATOM     56  C   UNL A   1      40.274  28.839  28.778  1.00  0.00     0.049 A 
ATOM     57  H   UNL A   1      41.198  29.547  30.520  1.00  0.00     0.167 HD
ATOM     58  C   UNL A   1      42.471  30.286  34.582  1.00  0.00     0.037 A 
ATOM     59  C   UNL A   1      41.069  27.816  28.372  1.00  0.00     0.037 A 
ATOM     60  C   UNL A   1      43.430  31.042  33.813  1.00  0.00     0.049 A 
ATOM     61  C   UNL A   1      42.377  27.994  29.050  1.00  0.00     0.074 A 
ATOM     62  C   UNL A   1      43.643  32.385  33.568  1.00  0.00     0.029 A 
ATOM     63  N   UNL A   1      44.140  30.373  32.846  1.00  0.00    -0.354 N 
ATOM     64  N   UNL A   1      43.182  28.997  28.826  1.00  0.00    -0.248 NA
ATOM     65  C   UNL A   1      42.600  27.288  30.301  1.00  0.00     0.031 C 
ATOM     66  C   UNL A   1      44.038  32.450  32.199  1.00  0.00     0.029 A 
ATOM     67  C   UNL A   1      44.113  31.145  31.712  1.00  0.00     0.049 A 
ATOM     68  H   UNL A   1      44.585  29.501  32.947  1.00  0.00     0.167 HD
ATOM     69  C   UNL A   1      43.694  29.324  30.073  1.00  0.00     0.074 A 
ATOM     70  C   UNL A   1      43.387  28.172  30.918  1.00  0.00     0.031 C 
ATOM     71  C   UNL A   1      44.066  30.605  30.370  1.00  0.00     0.037 A 
BRANCH  58  72
ATOM     72  C   UNL A   1      42.886  29.086  35.412  1.00  0.00     0.058 A 
ATOM     73  C   UNL A   1      43.715  29.279  36.540  1.00  0.00     0.135 A 
ATOM     74  C   UNL A   1      42.750  27.745  34.989  1.00  0.00     0.135 A 
ATOM     75  F   UNL A   1      43.921  30.510  37.037  1.00  0.00    -0.206 F 
ATOM     76  C   UNL A   1      44.425  28.236  37.139  1.00  0.00     0.059 A 
ATOM     77  C   UNL A   1      43.405  26.684  35.606  1.00  0.00     0.059 A 
ATOM     78  F   UNL A   1      42.054  27.405  33.898  1.00  0.00    -0.206 F 
ATOM     79  C   UNL A   1      44.277  26.943  36.649  1.00  0.00     0.060 A 
BRANCH  79  80
ATOM     80  S   UNL A   1      45.275  25.613  37.342  1.00  0.00     0.124 S 
ATOM     81  O   UNL A   1      46.292  26.364  38.070  1.00  0.00    -0.237 OA
ATOM     82  O   UNL A   1      44.300  24.896  38.158  1.00  0.00    -0.237 OA
ATOM     83  O   UNL A   1      45.742  24.895  36.160  1.00  0.00    -0.744 OA
ENDBRANCH  79  80
ENDBRANCH  58  72
BRANCH  59  84
ATOM     84  C   UNL A   1      40.660  26.541  27.723  1.00  0.00     0.058 A 
ATOM     85  C   UNL A   1      41.371  26.032  26.620  1.00  0.00     0.135 A 
ATOM     86  C   UNL A   1      39.760  25.651  28.344  1.00  0.00     0.135 A 
ATOM     87  F   UNL A   1      42.255  26.805  25.972  1.00  0.00    -0.206 F 
ATOM     88  C   UNL A   1      41.252  24.701  26.206  1.00  0.00     0.059 A 
ATOM     89  C   UNL A   1      39.615  24.324  27.940  1.00  0.00     0.059 A 
ATOM     90  F   UNL A   1      39.061  26.013  29.430  1.00  0.00    -0.206 F 
ATOM     91  C   UNL A   1      40.390  23.846  26.891  1.00  0.00     0.060 A 
BRANCH  91  92
ATOM     92  S   UNL A   1      40.389  22.081  26.500  1.00  0.00     0.124 S 
ATOM     93  O   UNL A   1      40.492  21.478  27.824  1.00  0.00    -0.237 OA
ATOM     94  O   UNL A   1      39.108  21.915  25.822  1.00  0.00    -0.237 OA
ATOM     95  O   UNL A   1      41.565  21.922  25.648  1.00  0.00    -0.744 OA
ENDBRANCH  91  92
ENDBRANCH  59  84
BRANCH  71  96
ATOM     96  C   UNL A   1      44.225  31.586  29.234  1.00  0.00     0.058 A 
ATOM     97  C   UNL A   1      43.283  32.568  28.879  1.00  0.00     0.135 A 
ATOM     98  C   UNL A   1      45.455  31.613  28.556  1.00  0.00     0.135 A 
ATOM     99  F   UNL A   1      42.126  32.689  29.544  1.00  0.00    -0.206 F 
ATOM    100  C   UNL A   1      43.529  33.495  27.865  1.00  0.00     0.059 A 
ATOM    101  C   UNL A   1      45.736  32.549  27.565  1.00  0.00     0.059 A 
ATOM    102  F   UNL A   1      46.424  30.744  28.889  1.00  0.00    -0.206 F 
ATOM    103  C   UNL A   1      44.761  33.477  27.212  1.00  0.00     0.060 A 
BRANCH 103 104
ATOM    104  S   UNL A   1      45.099  34.710  25.936  1.00  0.00     0.124 S 
ATOM    105  O   UNL A   1      45.092  35.953  26.699  1.00  0.00    -0.237 OA
ATOM    106  O   UNL A   1      46.400  34.287  25.423  1.00  0.00    -0.237 OA
ATOM    107  O   UNL A   1      43.990  34.545  25.000  1.00  0.00    -0.744 OA
ENDBRANCH 103 104
ENDBRANCH  71  96
ENDBRANCH  45  46
ENDBRANCH  37  40
ENDBRANCH  35  36
ENDBRANCH  34  35
ENDBRANCH   1  34
TORSDOF 19
ENDMDL
MODEL 3
REMARK VINA RESULT:     -11.9      1.677      2.355
REMARK SMILES CC(C)CCn1nc(C(=O)NCCCCNC(=O)c2ccc(-c3c4nc(c(-c5c(F)cc(S(=O)(=O)[O-])cc5F)c5ccc([nH]5)c(-c5c(F)cc(S(=O)(=O)[O-])cc5F)c5nc(c(-c6c(F)cc(S(=O)(=O)[O-])cc6F)c6ccc3[nH]6)C=C5)C=C4)cc2)c2c1CCN(C(=O)[C@@H]1CCc3nn(C)c(=O)n3C1)C2
REMARK SMILES IDX 13 1 12 2 11 3 9 4 10 5 8 7 6 8 7 9 86 10 85 11 87 12 103 13
REMARK SMILES IDX 88 14 89 15 5 16 4 17 2 18 1 19 3 20 90 21 91 22 92 23 93 24
REMARK SMILES IDX 102 25 94 26 101 27 95 28 99 29 96 30 97 31 100 32 98 33
REMARK SMILES IDX 14 34 15 35 16 36 17 37 18 39 19 40 20 41 84 42 21 43 83 44
REMARK SMILES IDX 22 45 23 46 24 47 77 48 25 49 82 50 76 51 78 52 26 53 81 54
REMARK SMILES IDX 75 55 74 56 27 58 61 59 40 60 60 61 41 62 44 63 59 64 79 65
REMARK SMILES IDX 42 66 43 67 58 69 80 70 45 71 28 72 29 73 38 74 30 75 31 76
REMARK SMILES IDX 37 77 39 78 32 79 33 80 34 81 35 82 36 83 62 84 63 85 72 86
REMARK SMILES IDX 64 87 65 88 71 89 73 90 66 91 67 92 68 93 69 94 70 95 46 96
REMARK SMILES IDX 47 97 56 98 48 99 49 100 55 101 57 102 50 103 51 104 52 105
REMARK SMILES IDX 53 106 54 107
REMARK H PARENT 11 6 16 38 78 57 44 68
REMARK Flexibility Score: inf
ROOT
ATOM      1  C   UNL A   1      32.719  32.611  27.522  1.00  0.00     0.023 C 
ENDROOT
BRANCH   1   2
ATOM      2  C   UNL A   1      32.094  31.284  27.040  1.00  0.00     0.116 C 
BRANCH   2   3
ATOM      3  N   UNL A   1      33.100  30.307  26.636  1.00  0.00    -0.351 N 
ATOM      4  C   UNL A   1      33.162  29.204  25.803  1.00  0.00     0.272 C 
ATOM      5  O   UNL A   1      34.306  28.756  25.657  1.00  0.00    -0.267 OA
ATOM      6  H   UNL A   1      33.966  30.480  27.071  1.00  0.00     0.163 HD
BRANCH   4   7
ATOM      7  C   UNL A   1      32.002  28.568  25.114  1.00  0.00     0.155 A 
ATOM      8  N   UNL A   1      30.433  28.405  23.632  1.00  0.00    -0.268 N 
ATOM      9  N   UNL A   1      31.414  29.214  24.072  1.00  0.00    -0.167 NA
ATOM     10  C   UNL A   1      30.285  27.315  24.421  1.00  0.00     0.046 A 
ATOM     11  C   UNL A   1      31.379  27.298  25.258  1.00  0.00     0.026 A 
ATOM     12  C   UNL A   1      29.243  26.265  24.391  1.00  0.00     0.078 C 
ATOM     13  C   UNL A   1      31.712  26.124  26.085  1.00  0.00     0.159 C 
ATOM     14  C   UNL A   1      29.407  25.451  25.693  1.00  0.00     0.126 C 
ATOM     15  N   UNL A   1      30.792  25.002  25.894  1.00  0.00    -0.338 N 
BRANCH   8  16
ATOM     16  C   UNL A   1      29.819  28.636  22.335  1.00  0.00     0.145 C 
BRANCH  16  17
ATOM     17  C   UNL A   1      29.290  30.053  22.113  1.00  0.00     0.027 C 
BRANCH  17  18
ATOM     18  C   UNL A   1      27.815  30.247  22.498  1.00  0.00    -0.016 C 
ATOM     19  C   UNL A   1      27.177  28.942  22.973  1.00  0.00     0.007 C 
ATOM     20  C   UNL A   1      27.701  31.313  23.590  1.00  0.00     0.007 C 
ENDBRANCH  17  18
ENDBRANCH  16  17
ENDBRANCH   8  16
BRANCH  15  21
ATOM     21  C   UNL A   1      31.304  23.764  26.239  1.00  0.00     0.227 C 
ATOM     22  O   UNL A   1      31.651  23.560  27.414  1.00  0.00    -0.274 OA
BRANCH  21  23
ATOM     23  C   UNL A   1      31.557  22.601  25.271  1.00  0.00     0.099 C 
ATOM     24  C   UNL A   1      31.899  21.271  25.945  1.00  0.00     0.023 C 
ATOM     25  C   UNL A   1      32.418  22.883  24.053  1.00  0.00     0.142 C 
ATOM     26  C   UNL A   1      33.375  21.098  26.261  1.00  0.00     0.078 C 
ATOM     27  N   UNL A   1      33.789  22.470  24.235  1.00  0.00    -0.278 N 
ATOM     28  C   UNL A   1      34.284  21.735  25.252  1.00  0.00     0.133 A 
ATOM     29  C   UNL A   1      34.860  23.109  23.661  1.00  0.00     0.345 A 
ATOM     30  N   UNL A   1      35.576  21.808  25.398  1.00  0.00    -0.155 NA
ATOM     31  N   UNL A   1      35.969  22.687  24.406  1.00  0.00    -0.216 N 
ATOM     32  O   UNL A   1      34.826  23.980  22.808  1.00  0.00    -0.246 OA
ATOM     33  C   UNL A   1      37.206  23.418  24.473  1.00  0.00     0.179 C 
ENDBRANCH  21  23
ENDBRANCH  15  21
ENDBRANCH   4   7
ENDBRANCH   2   3
ENDBRANCH   1   2
BRANCH   1  34
ATOM     34  C   UNL A   1      34.187  32.590  27.948  1.00  0.00     0.023 C 
BRANCH  34  35
ATOM     35  C   UNL A   1      34.571  33.754  28.854  1.00  0.00     0.116 C 
BRANCH  35  36
ATOM     36  N   UNL A   1      34.339  33.496  30.279  1.00  0.00    -0.352 N 
ATOM     37  C   UNL A   1      34.939  32.509  31.051  1.00  0.00     0.251 C 
ATOM     38  H   UNL A   1      33.691  34.081  30.734  1.00  0.00     0.163 HD
ATOM     39  O   UNL A   1      34.452  32.113  32.090  1.00  0.00    -0.269 OA
BRANCH  37  40
ATOM     40  C   UNL A   1      36.219  31.966  30.555  1.00  0.00     0.039 A 
ATOM     41  C   UNL A   1      37.323  32.792  30.342  1.00  0.00     0.014 A 
ATOM     42  C   UNL A   1      36.314  30.580  30.446  1.00  0.00     0.014 A 
ATOM     43  C   UNL A   1      38.566  32.199  30.132  1.00  0.00     0.010 A 
ATOM     44  C   UNL A   1      37.558  30.001  30.358  1.00  0.00     0.010 A 
ATOM     45  C   UNL A   1      38.689  30.800  30.182  1.00  0.00    -0.014 A 
BRANCH  45  46
ATOM     46  C   UNL A   1      40.016  30.178  30.216  1.00  0.00     0.031 A 
ATOM     47  C   UNL A   1      40.598  29.989  31.579  1.00  0.00     0.074 A 
ATOM     48  C   UNL A   1      40.587  29.595  29.139  1.00  0.00     0.049 A 
ATOM     49  N   UNL A   1      41.657  30.544  32.074  1.00  0.00    -0.248 NA
ATOM     50  C   UNL A   1      39.851  29.176  32.553  1.00  0.00     0.031 C 
ATOM     51  C   UNL A   1      40.018  29.412  27.800  1.00  0.00     0.029 A 
ATOM     52  N   UNL A   1      41.771  28.926  29.052  1.00  0.00    -0.354 N 
ATOM     53  C   UNL A   1      41.841  29.977  33.334  1.00  0.00     0.074 A 
ATOM     54  C   UNL A   1      40.612  29.294  33.645  1.00  0.00     0.031 C 
ATOM     55  C   UNL A   1      40.733  28.488  27.125  1.00  0.00     0.029 A 
ATOM     56  C   UNL A   1      41.905  28.145  27.908  1.00  0.00     0.049 A 
ATOM     57  H   UNL A   1      42.472  28.989  29.740  1.00  0.00     0.167 HD
ATOM     58  C   UNL A   1      43.073  29.919  33.916  1.00  0.00     0.037 A 
ATOM     59  C   UNL A   1      42.894  27.259  27.629  1.00  0.00     0.037 A 
ATOM     60  C   UNL A   1      43.996  30.815  33.262  1.00  0.00     0.049 A 
ATOM     61  C   UNL A   1      44.059  27.639  28.467  1.00  0.00     0.074 A 
ATOM     62  C   UNL A   1      44.029  32.174  33.019  1.00  0.00     0.029 A 
ATOM     63  N   UNL A   1      44.920  30.264  32.408  1.00  0.00    -0.354 N 
ATOM     64  N   UNL A   1      44.721  28.754  28.328  1.00  0.00    -0.248 NA
ATOM     65  C   UNL A   1      44.222  26.976  29.750  1.00  0.00     0.031 C 
ATOM     66  C   UNL A   1      44.585  32.300  31.711  1.00  0.00     0.029 A 
ATOM     67  C   UNL A   1      44.924  31.022  31.265  1.00  0.00     0.049 A 
ATOM     68  H   UNL A   1      45.478  29.472  32.584  1.00  0.00     0.167 HD
ATOM     69  C   UNL A   1      45.009  29.158  29.623  1.00  0.00     0.074 A 
ATOM     70  C   UNL A   1      44.776  27.972  30.445  1.00  0.00     0.031 C 
ATOM     71  C   UNL A   1      45.137  30.481  29.940  1.00  0.00     0.037 A 
BRANCH  58  72
ATOM     72  C   UNL A   1      43.555  28.798  34.817  1.00  0.00     0.058 A 
ATOM     73  C   UNL A   1      44.169  29.118  36.050  1.00  0.00     0.135 A 
ATOM     74  C   UNL A   1      43.706  27.457  34.401  1.00  0.00     0.135 A 
ATOM     75  F   UNL A   1      44.094  30.363  36.550  1.00  0.00    -0.206 F 
ATOM     76  C   UNL A   1      44.948  28.203  36.762  1.00  0.00     0.059 A 
ATOM     77  C   UNL A   1      44.431  26.515  35.125  1.00  0.00     0.059 A 
ATOM     78  F   UNL A   1      43.241  27.014  33.228  1.00  0.00    -0.206 F 
ATOM     79  C   UNL A   1      45.087  26.907  36.278  1.00  0.00     0.060 A 
BRANCH  79  80
ATOM     80  S   UNL A   1      46.180  25.756  37.129  1.00  0.00     0.124 S 
ATOM     81  O   UNL A   1      45.358  25.366  38.269  1.00  0.00    -0.237 OA
ATOM     82  O   UNL A   1      46.393  24.732  36.112  1.00  0.00    -0.237 OA
ATOM     83  O   UNL A   1      47.349  26.574  37.442  1.00  0.00    -0.744 OA
ENDBRANCH  79  80
ENDBRANCH  58  72
BRANCH  59  84
ATOM     84  C   UNL A   1      42.775  25.935  26.959  1.00  0.00     0.058 A 
ATOM     85  C   UNL A   1      43.165  25.767  25.618  1.00  0.00     0.135 A 
ATOM     86  C   UNL A   1      42.561  24.751  27.695  1.00  0.00     0.135 A 
ATOM     87  F   UNL A   1      43.400  26.838  24.844  1.00  0.00    -0.206 F 
ATOM     88  C   UNL A   1      43.401  24.506  25.062  1.00  0.00     0.059 A 
ATOM     89  C   UNL A   1      42.777  23.483  27.158  1.00  0.00     0.059 A 
ATOM     90  F   UNL A   1      42.228  24.790  28.993  1.00  0.00    -0.206 F 
ATOM     91  C   UNL A   1      43.230  23.369  25.849  1.00  0.00     0.060 A 
BRANCH  91  92
ATOM     92  S   UNL A   1      43.735  21.755  25.208  1.00  0.00     0.124 S 
ATOM     93  O   UNL A   1      43.976  22.052  23.801  1.00  0.00    -0.237 OA
ATOM     94  O   UNL A   1      44.917  21.459  26.010  1.00  0.00    -0.237 OA
ATOM     95  O   UNL A   1      42.576  20.907  25.478  1.00  0.00    -0.744 OA
ENDBRANCH  91  92
ENDBRANCH  59  84
BRANCH  71  96
ATOM     96  C   UNL A   1      45.290  31.474  28.814  1.00  0.00     0.058 A 
ATOM     97  C   UNL A   1      44.226  32.129  28.166  1.00  0.00     0.135 A 
ATOM     98  C   UNL A   1      46.589  31.877  28.465  1.00  0.00     0.135 A 
ATOM     99  F   UNL A   1      42.954  31.889  28.510  1.00  0.00    -0.206 F 
ATOM    100  C   UNL A   1      44.444  33.097  27.183  1.00  0.00     0.059 A 
ATOM    101  C   UNL A   1      46.830  32.864  27.512  1.00  0.00     0.059 A 
ATOM    102  F   UNL A   1      47.650  31.339  29.089  1.00  0.00    -0.206 F 
ATOM    103  C   UNL A   1      45.752  33.457  26.862  1.00  0.00     0.060 A 
BRANCH 103 104
ATOM    104  S   UNL A   1      46.032  34.746  25.628  1.00  0.00     0.124 S 
ATOM    105  O   UNL A   1      45.079  34.387  24.585  1.00  0.00    -0.237 OA
ATOM    106  O   UNL A   1      45.731  35.967  26.370  1.00  0.00    -0.237 OA
ATOM    107  O   UNL A   1      47.440  34.577  25.273  1.00  0.00    -0.744 OA
ENDBRANCH 103 104
ENDBRANCH  71  96
ENDBRANCH  45  46
ENDBRANCH  37  40
ENDBRANCH  35  36
ENDBRANCH  34  35
ENDBRANCH   1  34
TORSDOF 19
ENDMDL
