MODEL 1
REMARK VINA RESULT:     -12.1      0.000      0.000
REMARK SMILES O=C(NCCCCNC(=O)[C@@H]1CC=CC[C@@H]1C(=O)Nc1ccc(O)cc1)c1ccc(-c2c3nc(c(-c4c(F)cc(S(=O)(=O)[O-])cc4F)c4ccc([nH]4)c(-c4c(F)cc(S(=O)(=O)[O-])cc4F)c4nc(c(-c5c(F)cc(S(=O)(=O)[O-])cc5F)c5ccc2[nH]5)C=C4)C=C3)cc1
REMARK SMILES IDX 5 1 4 2 3 3 1 4 2 5 27 7 28 8 92 9 29 10 91 11 30 12 31 13
REMARK SMILES IDX 32 14 85 15 33 16 90 17 84 18 86 19 34 20 89 21 83 22 82 23
REMARK SMILES IDX 35 25 69 26 48 27 68 28 49 29 52 30 67 31 87 32 50 33 51 34
REMARK SMILES IDX 66 36 88 37 53 38 36 39 37 40 46 41 38 42 39 43 45 44 47 45
REMARK SMILES IDX 40 46 41 47 42 48 43 49 44 50 70 51 71 52 80 53 72 54 73 55
REMARK SMILES IDX 79 56 81 57 74 58 75 59 76 60 77 61 78 62 54 63 55 64 64 65
REMARK SMILES IDX 56 66 57 67 63 68 65 69 58 70 59 71 60 72 61 73 62 74 6 75
REMARK SMILES IDX 7 76 8 77 9 78 10 80 11 81 12 82 16 83 13 84 15 85 14 86
REMARK SMILES IDX 17 87 18 88 19 89 20 91 21 92 26 93 22 94 25 95 23 96 24 97
REMARK H PARENT 3 6 86 24 52 35 8 79 19 90 24 98
REMARK Flexibility Score: inf
ROOT
ATOM      1  C   UNL A   1      31.638  32.194  26.788  1.00  0.00     0.023 C 
ENDROOT
BRANCH   1   2
ATOM      2  C   UNL A   1      32.762  32.867  27.562  1.00  0.00     0.116 C 
BRANCH   2   3
ATOM      3  N   UNL A   1      32.503  34.275  27.836  1.00  0.00    -0.352 N 
ATOM      4  O   UNL A   1      32.669  36.231  28.946  1.00  0.00    -0.269 OA
ATOM      5  C   UNL A   1      33.100  35.098  28.758  1.00  0.00     0.251 C 
ATOM      6  H   UNL A   1      31.803  34.693  27.283  1.00  0.00     0.163 HD
BRANCH   5   7
ATOM      7  C   UNL A   1      34.245  34.590  29.540  1.00  0.00     0.039 A 
ATOM      8  C   UNL A   1      35.535  34.628  29.006  1.00  0.00     0.014 A 
ATOM      9  C   UNL A   1      34.013  34.033  30.800  1.00  0.00     0.014 A 
ATOM     10  C   UNL A   1      36.569  33.974  29.662  1.00  0.00     0.010 A 
ATOM     11  C   UNL A   1      35.073  33.453  31.498  1.00  0.00     0.010 A 
ATOM     12  C   UNL A   1      36.350  33.387  30.918  1.00  0.00    -0.014 A 
BRANCH  12  13
ATOM     13  C   UNL A   1      37.482  32.751  31.635  1.00  0.00     0.031 A 
ATOM     14  C   UNL A   1      38.201  31.569  31.048  1.00  0.00     0.074 A 
ATOM     15  C   UNL A   1      37.857  33.256  32.825  1.00  0.00     0.049 A 
ATOM     16  N   UNL A   1      39.177  30.863  31.559  1.00  0.00    -0.248 NA
ATOM     17  C   UNL A   1      37.765  31.114  29.719  1.00  0.00     0.031 C 
ATOM     18  C   UNL A   1      37.228  34.401  33.488  1.00  0.00     0.029 A 
ATOM     19  N   UNL A   1      38.854  32.880  33.687  1.00  0.00    -0.354 N 
ATOM     20  C   UNL A   1      39.455  29.867  30.632  1.00  0.00     0.074 A 
ATOM     21  C   UNL A   1      38.531  30.048  29.531  1.00  0.00     0.031 C 
ATOM     22  C   UNL A   1      37.871  34.651  34.637  1.00  0.00     0.029 A 
ATOM     23  C   UNL A   1      38.911  33.647  34.824  1.00  0.00     0.049 A 
ATOM     24  H   UNL A   1      39.469  32.132  33.506  1.00  0.00     0.167 HD
ATOM     25  C   UNL A   1      40.397  28.894  30.693  1.00  0.00     0.037 A 
ATOM     26  C   UNL A   1      39.695  33.540  35.914  1.00  0.00     0.037 A 
ATOM     27  C   UNL A   1      41.318  28.735  31.790  1.00  0.00     0.049 A 
ATOM     28  C   UNL A   1      40.717  32.443  35.968  1.00  0.00     0.074 A 
ATOM     29  C   UNL A   1      42.329  27.801  31.936  1.00  0.00     0.029 A 
ATOM     30  N   UNL A   1      41.340  29.527  32.929  1.00  0.00    -0.354 N 
ATOM     31  N   UNL A   1      40.977  31.519  35.075  1.00  0.00    -0.248 NA
ATOM     32  C   UNL A   1      41.549  32.372  37.174  1.00  0.00     0.031 C 
ATOM     33  C   UNL A   1      42.935  28.002  33.182  1.00  0.00     0.029 A 
ATOM     34  C   UNL A   1      42.334  29.093  33.792  1.00  0.00     0.049 A 
ATOM     35  H   UNL A   1      40.739  30.288  33.100  1.00  0.00     0.167 HD
ATOM     36  C   UNL A   1      42.018  30.765  35.602  1.00  0.00     0.074 A 
ATOM     37  C   UNL A   1      42.344  31.348  36.889  1.00  0.00     0.031 C 
ATOM     38  C   UNL A   1      42.646  29.688  35.068  1.00  0.00     0.037 A 
BRANCH  25  39
ATOM     39  C   UNL A   1      40.458  27.909  29.557  1.00  0.00     0.058 A 
ATOM     40  C   UNL A   1      39.589  26.808  29.482  1.00  0.00     0.135 A 
ATOM     41  C   UNL A   1      41.386  28.079  28.517  1.00  0.00     0.135 A 
ATOM     42  F   UNL A   1      38.690  26.589  30.455  1.00  0.00    -0.206 F 
ATOM     43  C   UNL A   1      39.663  25.892  28.437  1.00  0.00     0.059 A 
ATOM     44  C   UNL A   1      41.461  27.190  27.450  1.00  0.00     0.059 A 
ATOM     45  F   UNL A   1      42.238  29.116  28.536  1.00  0.00    -0.206 F 
ATOM     46  C   UNL A   1      40.609  26.088  27.428  1.00  0.00     0.060 A 
BRANCH  46  47
ATOM     47  S   UNL A   1      40.712  24.878  26.091  1.00  0.00     0.124 S 
ATOM     48  O   UNL A   1      39.311  24.499  25.936  1.00  0.00    -0.237 OA
ATOM     49  O   UNL A   1      41.278  25.665  24.999  1.00  0.00    -0.237 OA
ATOM     50  O   UNL A   1      41.586  23.844  26.634  1.00  0.00    -0.744 OA
ENDBRANCH  46  47
ENDBRANCH  25  39
BRANCH  26  51
ATOM     51  C   UNL A   1      39.523  34.503  37.029  1.00  0.00     0.058 A 
ATOM     52  C   UNL A   1      38.774  34.168  38.164  1.00  0.00     0.135 A 
ATOM     53  C   UNL A   1      40.167  35.751  37.011  1.00  0.00     0.135 A 
ATOM     54  F   UNL A   1      38.140  32.987  38.225  1.00  0.00    -0.206 F 
ATOM     55  C   UNL A   1      38.667  35.035  39.246  1.00  0.00     0.059 A 
ATOM     56  C   UNL A   1      40.095  36.625  38.091  1.00  0.00     0.059 A 
ATOM     57  F   UNL A   1      40.914  36.109  35.954  1.00  0.00    -0.206 F 
ATOM     58  C   UNL A   1      39.338  36.259  39.203  1.00  0.00     0.060 A 
BRANCH  58  59
ATOM     59  S   UNL A   1      39.262  37.341  40.645  1.00  0.00     0.124 S 
ATOM     60  O   UNL A   1      38.475  38.457  40.133  1.00  0.00    -0.237 OA
ATOM     61  O   UNL A   1      38.600  36.492  41.632  1.00  0.00    -0.237 OA
ATOM     62  O   UNL A   1      40.666  37.632  40.922  1.00  0.00    -0.744 OA
ENDBRANCH  58  59
ENDBRANCH  26  51
BRANCH  38  63
ATOM     63  C   UNL A   1      43.775  29.092  35.859  1.00  0.00     0.058 A 
ATOM     64  C   UNL A   1      45.071  29.629  35.816  1.00  0.00     0.135 A 
ATOM     65  C   UNL A   1      43.542  28.001  36.713  1.00  0.00     0.135 A 
ATOM     66  F   UNL A   1      45.347  30.664  35.008  1.00  0.00    -0.206 F 
ATOM     67  C   UNL A   1      46.103  29.095  36.581  1.00  0.00     0.059 A 
ATOM     68  C   UNL A   1      44.552  27.467  37.505  1.00  0.00     0.059 A 
ATOM     69  F   UNL A   1      42.318  27.457  36.795  1.00  0.00    -0.206 F 
ATOM     70  C   UNL A   1      45.832  28.015  37.425  1.00  0.00     0.060 A 
BRANCH  70  71
ATOM     71  S   UNL A   1      47.168  27.358  38.446  1.00  0.00     0.124 S 
ATOM     72  O   UNL A   1      46.441  26.466  39.344  1.00  0.00    -0.237 OA
ATOM     73  O   UNL A   1      48.024  26.705  37.460  1.00  0.00    -0.237 OA
ATOM     74  O   UNL A   1      47.737  28.550  39.068  1.00  0.00    -0.744 OA
ENDBRANCH  70  71
ENDBRANCH  38  63
ENDBRANCH  12  13
ENDBRANCH   5   7
ENDBRANCH   2   3
ENDBRANCH   1   2
BRANCH   1  75
ATOM     75  C   UNL A   1      31.785  30.686  26.633  1.00  0.00     0.023 C 
BRANCH  75  76
ATOM     76  C   UNL A   1      33.184  30.145  26.916  1.00  0.00     0.116 C 
BRANCH  76  77
ATOM     77  N   UNL A   1      33.920  29.718  25.732  1.00  0.00    -0.356 N 
ATOM     78  C   UNL A   1      33.691  28.629  24.922  1.00  0.00     0.224 C 
ATOM     79  H   UNL A   1      34.683  30.285  25.478  1.00  0.00     0.163 HD
ATOM     80  O   UNL A   1      34.151  28.634  23.784  1.00  0.00    -0.275 OA
BRANCH  78  81
ATOM     81  C   UNL A   1      32.864  27.488  25.484  1.00  0.00     0.095 C 
ATOM     82  C   UNL A   1      33.588  26.137  25.403  1.00  0.00     0.041 C 
ATOM     83  C   UNL A   1      31.399  27.369  24.996  1.00  0.00     0.095 C 
ATOM     84  C   UNL A   1      32.796  25.068  26.102  1.00  0.00    -0.030 C 
ATOM     85  C   UNL A   1      30.715  26.457  26.058  1.00  0.00     0.041 C 
ATOM     86  C   UNL A   1      31.508  25.232  26.433  1.00  0.00    -0.030 C 
BRANCH  83  87
ATOM     87  C   UNL A   1      31.258  26.845  23.550  1.00  0.00     0.228 C 
ATOM     88  O   UNL A   1      31.867  25.852  23.146  1.00  0.00    -0.274 OA
ATOM     89  N   UNL A   1      30.408  27.431  22.647  1.00  0.00    -0.326 N 
ATOM     90  H   UNL A   1      30.368  26.987  21.769  1.00  0.00     0.169 HD
BRANCH  89  91
ATOM     91  C   UNL A   1      29.590  28.556  22.775  1.00  0.00     0.041 A 
ATOM     92  C   UNL A   1      30.093  29.825  23.072  1.00  0.00     0.030 A 
ATOM     93  C   UNL A   1      28.209  28.351  22.701  1.00  0.00     0.030 A 
ATOM     94  C   UNL A   1      29.217  30.857  23.419  1.00  0.00     0.048 A 
ATOM     95  C   UNL A   1      27.336  29.374  23.068  1.00  0.00     0.048 A 
ATOM     96  C   UNL A   1      27.849  30.608  23.452  1.00  0.00     0.115 A 
BRANCH  96  97
ATOM     97  O   UNL A   1      26.967  31.556  23.880  1.00  0.00    -0.508 OA
ATOM     98  H   UNL A   1      27.268  32.423  24.072  1.00  0.00     0.293 HD
ENDBRANCH  96  97
ENDBRANCH  89  91
ENDBRANCH  83  87
ENDBRANCH  78  81
ENDBRANCH  76  77
ENDBRANCH  75  76
ENDBRANCH   1  75
TORSDOF 17
ENDMDL
MODEL 2
REMARK VINA RESULT:     -12.1      7.051     12.416
REMARK SMILES O=C(NCCCCNC(=O)[C@@H]1CC=CC[C@@H]1C(=O)Nc1ccc(O)cc1)c1ccc(-c2c3nc(c(-c4c(F)cc(S(=O)(=O)[O-])cc4F)c4ccc([nH]4)c(-c4c(F)cc(S(=O)(=O)[O-])cc4F)c4nc(c(-c5c(F)cc(S(=O)(=O)[O-])cc5F)c5ccc2[nH]5)C=C4)C=C3)cc1
REMARK SMILES IDX 5 1 4 2 3 3 1 4 2 5 27 7 28 8 92 9 29 10 91 11 30 12 31 13
REMARK SMILES IDX 32 14 85 15 33 16 90 17 84 18 86 19 34 20 89 21 83 22 82 23
REMARK SMILES IDX 35 25 69 26 48 27 68 28 49 29 52 30 67 31 87 32 50 33 51 34
REMARK SMILES IDX 66 36 88 37 53 38 36 39 37 40 46 41 38 42 39 43 45 44 47 45
REMARK SMILES IDX 40 46 41 47 42 48 43 49 44 50 70 51 71 52 80 53 72 54 73 55
REMARK SMILES IDX 79 56 81 57 74 58 75 59 76 60 77 61 78 62 54 63 55 64 64 65
REMARK SMILES IDX 56 66 57 67 63 68 65 69 58 70 59 71 60 72 61 73 62 74 6 75
REMARK SMILES IDX 7 76 8 77 9 78 10 80 11 81 12 82 16 83 13 84 15 85 14 86
REMARK SMILES IDX 17 87 18 88 19 89 20 91 21 92 26 93 22 94 25 95 23 96 24 97
REMARK H PARENT 3 6 86 24 52 35 8 79 19 90 24 98
REMARK Flexibility Score: inf
ROOT
ATOM      1  C   UNL A   1      38.281  19.710  24.982  1.00  0.00     0.023 C 
ENDROOT
BRANCH   1   2
ATOM      2  C   UNL A   1      39.349  20.127  25.982  1.00  0.00     0.116 C 
BRANCH   2   3
ATOM      3  N   UNL A   1      40.479  19.207  26.025  1.00  0.00    -0.352 N 
ATOM      4  O   UNL A   1      42.650  18.598  26.064  1.00  0.00    -0.269 OA
ATOM      5  C   UNL A   1      41.814  19.488  26.180  1.00  0.00     0.251 C 
ATOM      6  H   UNL A   1      40.254  18.254  25.931  1.00  0.00     0.163 HD
BRANCH   5   7
ATOM      7  C   UNL A   1      42.229  20.878  26.455  1.00  0.00     0.039 A 
ATOM      8  C   UNL A   1      42.397  21.784  25.405  1.00  0.00     0.014 A 
ATOM      9  C   UNL A   1      42.491  21.261  27.772  1.00  0.00     0.014 A 
ATOM     10  C   UNL A   1      42.972  23.023  25.653  1.00  0.00     0.010 A 
ATOM     11  C   UNL A   1      42.987  22.540  28.028  1.00  0.00     0.010 A 
ATOM     12  C   UNL A   1      43.265  23.416  26.967  1.00  0.00    -0.014 A 
BRANCH  12  13
ATOM     13  C   UNL A   1      43.818  24.769  27.220  1.00  0.00     0.031 A 
ATOM     14  C   UNL A   1      42.942  25.879  27.730  1.00  0.00     0.074 A 
ATOM     15  C   UNL A   1      45.126  24.985  26.985  1.00  0.00     0.049 A 
ATOM     16  N   UNL A   1      43.249  27.129  27.959  1.00  0.00    -0.248 NA
ATOM     17  C   UNL A   1      41.538  25.544  28.013  1.00  0.00     0.031 C 
ATOM     18  C   UNL A   1      46.068  23.979  26.488  1.00  0.00     0.029 A 
ATOM     19  N   UNL A   1      45.891  26.112  27.134  1.00  0.00    -0.354 N 
ATOM     20  C   UNL A   1      42.076  27.739  28.386  1.00  0.00     0.074 A 
ATOM     21  C   UNL A   1      41.044  26.723  28.368  1.00  0.00     0.031 C 
ATOM     22  C   UNL A   1      47.289  24.526  26.400  1.00  0.00     0.029 A 
ATOM     23  C   UNL A   1      47.203  25.933  26.770  1.00  0.00     0.049 A 
ATOM     24  H   UNL A   1      45.534  26.966  27.470  1.00  0.00     0.167 HD
ATOM     25  C   UNL A   1      41.881  29.027  28.762  1.00  0.00     0.037 A 
ATOM     26  C   UNL A   1      48.223  26.811  26.711  1.00  0.00     0.037 A 
ATOM     27  C   UNL A   1      42.922  30.023  28.788  1.00  0.00     0.049 A 
ATOM     28  C   UNL A   1      47.978  28.235  27.113  1.00  0.00     0.074 A 
ATOM     29  C   UNL A   1      42.836  31.348  29.180  1.00  0.00     0.029 A 
ATOM     30  N   UNL A   1      44.239  29.806  28.404  1.00  0.00    -0.354 N 
ATOM     31  N   UNL A   1      46.867  28.792  27.529  1.00  0.00    -0.248 NA
ATOM     32  C   UNL A   1      49.122  29.151  27.036  1.00  0.00     0.031 C 
ATOM     33  C   UNL A   1      44.091  31.943  28.994  1.00  0.00     0.029 A 
ATOM     34  C   UNL A   1      44.970  30.976  28.531  1.00  0.00     0.049 A 
ATOM     35  H   UNL A   1      44.600  28.947  28.088  1.00  0.00     0.167 HD
ATOM     36  C   UNL A   1      47.180  30.120  27.784  1.00  0.00     0.074 A 
ATOM     37  C   UNL A   1      48.589  30.281  27.481  1.00  0.00     0.031 C 
ATOM     38  C   UNL A   1      46.374  31.116  28.229  1.00  0.00     0.037 A 
BRANCH  25  39
ATOM     39  C   UNL A   1      40.486  29.438  29.147  1.00  0.00     0.058 A 
ATOM     40  C   UNL A   1      39.479  29.632  28.188  1.00  0.00     0.135 A 
ATOM     41  C   UNL A   1      40.145  29.621  30.497  1.00  0.00     0.135 A 
ATOM     42  F   UNL A   1      39.752  29.484  26.882  1.00  0.00    -0.206 F 
ATOM     43  C   UNL A   1      38.195  30.030  28.551  1.00  0.00     0.059 A 
ATOM     44  C   UNL A   1      38.862  29.993  30.885  1.00  0.00     0.059 A 
ATOM     45  F   UNL A   1      41.067  29.445  31.456  1.00  0.00    -0.206 F 
ATOM     46  C   UNL A   1      37.898  30.214  29.903  1.00  0.00     0.060 A 
BRANCH  46  47
ATOM     47  S   UNL A   1      36.236  30.754  30.358  1.00  0.00     0.124 S 
ATOM     48  O   UNL A   1      35.458  30.292  29.213  1.00  0.00    -0.237 OA
ATOM     49  O   UNL A   1      36.005  30.038  31.610  1.00  0.00    -0.237 OA
ATOM     50  O   UNL A   1      36.370  32.202  30.483  1.00  0.00    -0.744 OA
ENDBRANCH  46  47
ENDBRANCH  25  39
BRANCH  26  51
ATOM     51  C   UNL A   1      49.554  26.347  26.247  1.00  0.00     0.058 A 
ATOM     52  C   UNL A   1      50.012  26.643  24.957  1.00  0.00     0.135 A 
ATOM     53  C   UNL A   1      50.422  25.661  27.112  1.00  0.00     0.135 A 
ATOM     54  F   UNL A   1      49.217  27.295  24.095  1.00  0.00    -0.206 F 
ATOM     55  C   UNL A   1      51.286  26.276  24.537  1.00  0.00     0.059 A 
ATOM     56  C   UNL A   1      51.709  25.306  26.724  1.00  0.00     0.059 A 
ATOM     57  F   UNL A   1      50.035  25.374  28.365  1.00  0.00    -0.206 F 
ATOM     58  C   UNL A   1      52.130  25.615  25.431  1.00  0.00     0.060 A 
BRANCH  58  59
ATOM     59  S   UNL A   1      53.811  25.217  24.905  1.00  0.00     0.124 S 
ATOM     60  O   UNL A   1      54.605  25.879  25.934  1.00  0.00    -0.237 OA
ATOM     61  O   UNL A   1      53.807  23.758  24.939  1.00  0.00    -0.237 OA
ATOM     62  O   UNL A   1      53.891  25.804  23.569  1.00  0.00    -0.744 OA
ENDBRANCH  58  59
ENDBRANCH  26  51
BRANCH  38  63
ATOM     63  C   UNL A   1      47.004  32.462  28.449  1.00  0.00     0.058 A 
ATOM     64  C   UNL A   1      47.632  32.792  29.659  1.00  0.00     0.135 A 
ATOM     65  C   UNL A   1      47.027  33.410  27.414  1.00  0.00     0.135 A 
ATOM     66  F   UNL A   1      47.628  31.924  30.682  1.00  0.00    -0.206 F 
ATOM     67  C   UNL A   1      48.248  34.027  29.843  1.00  0.00     0.059 A 
ATOM     68  C   UNL A   1      47.658  34.640  27.566  1.00  0.00     0.059 A 
ATOM     69  F   UNL A   1      46.447  33.138  26.234  1.00  0.00    -0.206 F 
ATOM     70  C   UNL A   1      48.258  34.943  28.788  1.00  0.00     0.060 A 
BRANCH  70  71
ATOM     71  S   UNL A   1      49.098  36.524  29.022  1.00  0.00     0.124 S 
ATOM     72  O   UNL A   1      48.469  37.013  30.245  1.00  0.00    -0.237 OA
ATOM     73  O   UNL A   1      50.495  36.121  29.145  1.00  0.00    -0.237 OA
ATOM     74  O   UNL A   1      48.770  37.264  27.807  1.00  0.00    -0.744 OA
ENDBRANCH  70  71
ENDBRANCH  38  63
ENDBRANCH  12  13
ENDBRANCH   5   7
ENDBRANCH   2   3
ENDBRANCH   1   2
BRANCH   1  75
ATOM     75  C   UNL A   1      37.079  20.643  24.908  1.00  0.00     0.023 C 
BRANCH  75  76
ATOM     76  C   UNL A   1      37.348  22.075  25.364  1.00  0.00     0.116 C 
BRANCH  76  77
ATOM     77  N   UNL A   1      36.509  22.528  26.466  1.00  0.00    -0.356 N 
ATOM     78  C   UNL A   1      35.232  23.039  26.423  1.00  0.00     0.224 C 
ATOM     79  H   UNL A   1      36.910  22.459  27.363  1.00  0.00     0.163 HD
ATOM     80  O   UNL A   1      34.549  23.009  27.443  1.00  0.00    -0.275 OA
BRANCH  78  81
ATOM     81  C   UNL A   1      34.736  23.597  25.102  1.00  0.00     0.095 C 
ATOM     82  C   UNL A   1      33.949  24.904  25.271  1.00  0.00     0.041 C 
ATOM     83  C   UNL A   1      34.001  22.619  24.152  1.00  0.00     0.095 C 
ATOM     84  C   UNL A   1      33.607  25.494  23.932  1.00  0.00    -0.030 C 
ATOM     85  C   UNL A   1      34.050  23.325  22.765  1.00  0.00     0.041 C 
ATOM     86  C   UNL A   1      33.692  24.788  22.796  1.00  0.00    -0.030 C 
BRANCH  83  87
ATOM     87  C   UNL A   1      32.572  22.252  24.609  1.00  0.00     0.228 C 
ATOM     88  O   UNL A   1      31.796  23.087  25.081  1.00  0.00    -0.274 OA
ATOM     89  N   UNL A   1      32.069  20.984  24.471  1.00  0.00    -0.326 N 
ATOM     90  H   UNL A   1      31.133  20.877  24.756  1.00  0.00     0.169 HD
BRANCH  89  91
ATOM     91  C   UNL A   1      32.674  19.821  23.988  1.00  0.00     0.041 A 
ATOM     92  C   UNL A   1      32.200  19.133  22.869  1.00  0.00     0.030 A 
ATOM     93  C   UNL A   1      33.729  19.293  24.739  1.00  0.00     0.030 A 
ATOM     94  C   UNL A   1      32.694  17.860  22.574  1.00  0.00     0.048 A 
ATOM     95  C   UNL A   1      34.206  18.013  24.457  1.00  0.00     0.048 A 
ATOM     96  C   UNL A   1      33.665  17.297  23.396  1.00  0.00     0.115 A 
BRANCH  96  97
ATOM     97  O   UNL A   1      34.102  16.020  23.203  1.00  0.00    -0.508 OA
ATOM     98  H   UNL A   1      33.691  15.476  22.560  1.00  0.00     0.293 HD
ENDBRANCH  96  97
ENDBRANCH  89  91
ENDBRANCH  83  87
ENDBRANCH  78  81
ENDBRANCH  76  77
ENDBRANCH  75  76
ENDBRANCH   1  75
TORSDOF 17
ENDMDL
MODEL 3
REMARK VINA RESULT:     -11.9      0.604      8.343
REMARK SMILES O=C(NCCCCNC(=O)[C@@H]1CC=CC[C@@H]1C(=O)Nc1ccc(O)cc1)c1ccc(-c2c3nc(c(-c4c(F)cc(S(=O)(=O)[O-])cc4F)c4ccc([nH]4)c(-c4c(F)cc(S(=O)(=O)[O-])cc4F)c4nc(c(-c5c(F)cc(S(=O)(=O)[O-])cc5F)c5ccc2[nH]5)C=C4)C=C3)cc1
REMARK SMILES IDX 5 1 4 2 3 3 1 4 2 5 27 7 28 8 92 9 29 10 91 11 30 12 31 13
REMARK SMILES IDX 32 14 85 15 33 16 90 17 84 18 86 19 34 20 89 21 83 22 82 23
REMARK SMILES IDX 35 25 69 26 48 27 68 28 49 29 52 30 67 31 87 32 50 33 51 34
REMARK SMILES IDX 66 36 88 37 53 38 36 39 37 40 46 41 38 42 39 43 45 44 47 45
REMARK SMILES IDX 40 46 41 47 42 48 43 49 44 50 70 51 71 52 80 53 72 54 73 55
REMARK SMILES IDX 79 56 81 57 74 58 75 59 76 60 77 61 78 62 54 63 55 64 64 65
REMARK SMILES IDX 56 66 57 67 63 68 65 69 58 70 59 71 60 72 61 73 62 74 6 75
REMARK SMILES IDX 7 76 8 77 9 78 10 80 11 81 12 82 16 83 13 84 15 85 14 86
REMARK SMILES IDX 17 87 18 88 19 89 20 91 21 92 26 93 22 94 25 95 23 96 24 97
REMARK H PARENT 3 6 86 24 52 35 8 79 19 90 24 98
REMARK Flexibility Score: inf
ROOT
ATOM      1  C   UNL A   1      31.518  32.597  26.660  1.00  0.00     0.023 C 
ENDROOT
BRANCH   1   2
ATOM      2  C   UNL A   1      32.761  33.024  27.426  1.00  0.00     0.116 C 
BRANCH   2   3
ATOM      3  N   UNL A   1      32.686  34.394  27.917  1.00  0.00    -0.352 N 
ATOM      4  O   UNL A   1      33.136  36.129  29.286  1.00  0.00    -0.269 OA
ATOM      5  C   UNL A   1      33.420  34.997  28.909  1.00  0.00     0.251 C 
ATOM      6  H   UNL A   1      32.016  34.966  27.477  1.00  0.00     0.163 HD
BRANCH   5   7
ATOM      7  C   UNL A   1      34.531  34.252  29.534  1.00  0.00     0.039 A 
ATOM      8  C   UNL A   1      34.276  33.332  30.553  1.00  0.00     0.014 A 
ATOM      9  C   UNL A   1      35.839  34.511  29.121  1.00  0.00     0.014 A 
ATOM     10  C   UNL A   1      35.336  32.785  31.264  1.00  0.00     0.010 A 
ATOM     11  C   UNL A   1      36.901  33.891  29.781  1.00  0.00     0.010 A 
ATOM     12  C   UNL A   1      36.658  33.052  30.880  1.00  0.00    -0.014 A 
BRANCH  12  13
ATOM     13  C   UNL A   1      37.777  32.407  31.610  1.00  0.00     0.031 A 
ATOM     14  C   UNL A   1      38.198  32.896  32.967  1.00  0.00     0.074 A 
ATOM     15  C   UNL A   1      38.408  31.367  31.032  1.00  0.00     0.049 A 
ATOM     16  N   UNL A   1      39.182  32.479  33.721  1.00  0.00    -0.248 NA
ATOM     17  C   UNL A   1      37.421  33.999  33.550  1.00  0.00     0.031 C 
ATOM     18  C   UNL A   1      38.081  30.811  29.716  1.00  0.00     0.029 A 
ATOM     19  N   UNL A   1      39.449  30.592  31.471  1.00  0.00    -0.354 N 
ATOM     20  C   UNL A   1      39.162  33.283  34.854  1.00  0.00     0.074 A 
ATOM     21  C   UNL A   1      38.076  34.226  34.680  1.00  0.00     0.031 C 
ATOM     22  C   UNL A   1      38.886  29.768  29.468  1.00  0.00     0.029 A 
ATOM     23  C   UNL A   1      39.825  29.623  30.574  1.00  0.00     0.049 A 
ATOM     24  H   UNL A   1      39.884  30.718  32.346  1.00  0.00     0.167 HD
ATOM     25  C   UNL A   1      39.972  33.235  35.940  1.00  0.00     0.037 A 
ATOM     26  C   UNL A   1      40.834  28.733  30.618  1.00  0.00     0.037 A 
ATOM     27  C   UNL A   1      41.040  32.281  36.104  1.00  0.00     0.049 A 
ATOM     28  C   UNL A   1      41.730  28.711  31.821  1.00  0.00     0.074 A 
ATOM     29  C   UNL A   1      41.900  32.129  37.177  1.00  0.00     0.029 A 
ATOM     30  N   UNL A   1      41.396  31.319  35.169  1.00  0.00    -0.354 N 
ATOM     31  N   UNL A   1      41.687  29.468  32.891  1.00  0.00    -0.248 NA
ATOM     32  C   UNL A   1      42.811  27.719  31.824  1.00  0.00     0.031 C 
ATOM     33  C   UNL A   1      42.803  31.102  36.874  1.00  0.00     0.029 A 
ATOM     34  C   UNL A   1      42.475  30.583  35.631  1.00  0.00     0.049 A 
ATOM     35  H   UNL A   1      40.948  31.180  34.303  1.00  0.00     0.167 HD
ATOM     36  C   UNL A   1      42.724  29.032  33.706  1.00  0.00     0.074 A 
ATOM     37  C   UNL A   1      43.371  27.938  33.007  1.00  0.00     0.031 C 
ATOM     38  C   UNL A   1      43.104  29.494  34.923  1.00  0.00     0.037 A 
BRANCH  25  39
ATOM     39  C   UNL A   1      39.754  34.260  37.019  1.00  0.00     0.058 A 
ATOM     40  C   UNL A   1      40.251  35.569  36.911  1.00  0.00     0.135 A 
ATOM     41  C   UNL A   1      39.020  33.934  38.172  1.00  0.00     0.135 A 
ATOM     42  F   UNL A   1      40.971  35.932  35.837  1.00  0.00    -0.206 F 
ATOM     43  C   UNL A   1      40.060  36.507  37.922  1.00  0.00     0.059 A 
ATOM     44  C   UNL A   1      38.795  34.863  39.183  1.00  0.00     0.059 A 
ATOM     45  F   UNL A   1      38.518  32.699  38.326  1.00  0.00    -0.206 F 
ATOM     46  C   UNL A   1      39.336  36.141  39.059  1.00  0.00     0.060 A 
BRANCH  46  47
ATOM     47  S   UNL A   1      39.116  37.359  40.375  1.00  0.00     0.124 S 
ATOM     48  O   UNL A   1      38.481  36.552  41.412  1.00  0.00    -0.237 OA
ATOM     49  O   UNL A   1      40.488  37.775  40.649  1.00  0.00    -0.237 OA
ATOM     50  O   UNL A   1      38.267  38.374  39.760  1.00  0.00    -0.744 OA
ENDBRANCH  46  47
ENDBRANCH  25  39
BRANCH  26  51
ATOM     51  C   UNL A   1      41.033  27.804  29.479  1.00  0.00     0.058 A 
ATOM     52  C   UNL A   1      42.090  27.983  28.578  1.00  0.00     0.135 A 
ATOM     53  C   UNL A   1      40.212  26.676  29.313  1.00  0.00     0.135 A 
ATOM     54  F   UNL A   1      42.900  29.046  28.696  1.00  0.00    -0.206 F 
ATOM     55  C   UNL A   1      42.329  27.077  27.549  1.00  0.00     0.059 A 
ATOM     56  C   UNL A   1      40.446  25.744  28.308  1.00  0.00     0.059 A 
ATOM     57  F   UNL A   1      39.199  26.450  30.165  1.00  0.00    -0.206 F 
ATOM     58  C   UNL A   1      41.506  25.956  27.428  1.00  0.00     0.060 A 
BRANCH  58  59
ATOM     59  S   UNL A   1      41.875  24.744  26.142  1.00  0.00     0.124 S 
ATOM     60  O   UNL A   1      40.646  23.960  26.117  1.00  0.00    -0.237 OA
ATOM     61  O   UNL A   1      42.115  25.593  24.979  1.00  0.00    -0.237 OA
ATOM     62  O   UNL A   1      43.054  24.055  26.659  1.00  0.00    -0.744 OA
ENDBRANCH  58  59
ENDBRANCH  26  51
BRANCH  38  63
ATOM     63  C   UNL A   1      44.252  28.796  35.593  1.00  0.00     0.058 A 
ATOM     64  C   UNL A   1      44.052  27.704  36.450  1.00  0.00     0.135 A 
ATOM     65  C   UNL A   1      45.573  29.193  35.329  1.00  0.00     0.135 A 
ATOM     66  F   UNL A   1      42.808  27.292  36.742  1.00  0.00    -0.206 F 
ATOM     67  C   UNL A   1      45.123  27.038  37.038  1.00  0.00     0.059 A 
ATOM     68  C   UNL A   1      46.660  28.527  35.885  1.00  0.00     0.059 A 
ATOM     69  F   UNL A   1      45.817  30.229  34.510  1.00  0.00    -0.206 F 
ATOM     70  C   UNL A   1      46.424  27.455  36.746  1.00  0.00     0.060 A 
BRANCH  70  71
ATOM     71  S   UNL A   1      47.808  26.556  37.479  1.00  0.00     0.124 S 
ATOM     72  O   UNL A   1      48.084  25.556  36.453  1.00  0.00    -0.237 OA
ATOM     73  O   UNL A   1      48.814  27.602  37.633  1.00  0.00    -0.237 OA
ATOM     74  O   UNL A   1      47.253  26.041  38.727  1.00  0.00    -0.744 OA
ENDBRANCH  70  71
ENDBRANCH  38  63
ENDBRANCH  12  13
ENDBRANCH   5   7
ENDBRANCH   2   3
ENDBRANCH   1   2
BRANCH   1  75
ATOM     75  C   UNL A   1      31.419  31.101  26.390  1.00  0.00     0.023 C 
BRANCH  75  76
ATOM     76  C   UNL A   1      32.632  30.287  26.831  1.00  0.00     0.116 C 
BRANCH  76  77
ATOM     77  N   UNL A   1      33.525  29.894  25.748  1.00  0.00    -0.356 N 
ATOM     78  C   UNL A   1      33.499  28.750  24.983  1.00  0.00     0.224 C 
ATOM     79  H   UNL A   1      34.242  30.533  25.534  1.00  0.00     0.163 HD
ATOM     80  O   UNL A   1      34.066  28.755  23.894  1.00  0.00    -0.275 OA
BRANCH  78  81
ATOM     81  C   UNL A   1      32.751  27.548  25.530  1.00  0.00     0.095 C 
ATOM     82  C   UNL A   1      33.564  26.250  25.429  1.00  0.00     0.041 C 
ATOM     83  C   UNL A   1      31.297  27.338  25.040  1.00  0.00     0.095 C 
ATOM     84  C   UNL A   1      32.847  25.121  26.113  1.00  0.00    -0.030 C 
ATOM     85  C   UNL A   1      30.678  26.367  26.090  1.00  0.00     0.041 C 
ATOM     86  C   UNL A   1      31.551  25.193  26.447  1.00  0.00    -0.030 C 
BRANCH  83  87
ATOM     87  C   UNL A   1      31.190  26.826  23.587  1.00  0.00     0.228 C 
ATOM     88  O   UNL A   1      31.806  25.835  23.190  1.00  0.00    -0.274 OA
ATOM     89  N   UNL A   1      30.363  27.420  22.668  1.00  0.00    -0.326 N 
ATOM     90  H   UNL A   1      30.343  26.984  21.787  1.00  0.00     0.169 HD
BRANCH  89  91
ATOM     91  C   UNL A   1      29.543  28.546  22.786  1.00  0.00     0.041 A 
ATOM     92  C   UNL A   1      30.049  29.824  23.040  1.00  0.00     0.030 A 
ATOM     93  C   UNL A   1      28.162  28.335  22.748  1.00  0.00     0.030 A 
ATOM     94  C   UNL A   1      29.178  30.862  23.379  1.00  0.00     0.048 A 
ATOM     95  C   UNL A   1      27.294  29.366  23.109  1.00  0.00     0.048 A 
ATOM     96  C   UNL A   1      27.811  30.611  23.449  1.00  0.00     0.115 A 
BRANCH  96  97
ATOM     97  O   UNL A   1      26.936  31.566  23.873  1.00  0.00    -0.508 OA
ATOM     98  H   UNL A   1      27.114  32.050  24.656  1.00  0.00     0.293 HD
ENDBRANCH  96  97
ENDBRANCH  89  91
ENDBRANCH  83  87
ENDBRANCH  78  81
ENDBRANCH  76  77
ENDBRANCH  75  76
ENDBRANCH   1  75
TORSDOF 17
ENDMDL
