MODEL 1
REMARK VINA RESULT:     -10.9      0.000      0.000
REMARK SMILES CS(=O)(=O)N1CCC[C@@H]1C(=O)N1CCC[C@@H]1C(=O)NCCCCNC(=O)c1ccc(-c2c3nc(c(-c4c(F)cc(S(=O)(=O)[O-])cc4F)c4ccc([nH]4)c(-c4c(F)cc(S(=O)(=O)[O-])cc4F)c4nc(c(-c5c(F)cc(S(=O)(=O)[O-])cc5F)c5ccc2[nH]5)C=C4)C=C3)cc1
REMARK SMILES IDX 21 1 20 2 19 3 17 4 18 5 16 7 12 8 13 9 14 10 15 11 10 12
REMARK SMILES IDX 11 13 9 14 5 15 6 16 7 17 8 18 2 19 1 20 3 21 4 22 22 23
REMARK SMILES IDX 23 24 24 25 25 26 26 28 27 29 28 30 92 31 29 32 91 33 30 34
REMARK SMILES IDX 31 35 32 36 85 37 33 38 90 39 84 40 86 41 34 42 89 43 83 44
REMARK SMILES IDX 82 45 35 47 69 48 48 49 68 50 49 51 52 52 67 53 87 54 50 55
REMARK SMILES IDX 51 56 66 58 88 59 53 60 36 61 37 62 46 63 38 64 39 65 45 66
REMARK SMILES IDX 47 67 40 68 41 69 42 70 43 71 44 72 70 73 71 74 80 75 72 76
REMARK SMILES IDX 73 77 79 78 81 79 74 80 75 81 76 82 77 83 78 84 54 85 55 86
REMARK SMILES IDX 64 87 56 88 57 89 63 90 65 91 58 92 59 93 60 94 61 95 62 96
REMARK H PARENT 19 6 24 27 86 46 52 57
REMARK Flexibility Score: inf
ROOT
ATOM      1  C   UNL A   1      35.518  21.976  26.442  1.00  0.00     0.023 C 
ENDROOT
BRANCH   1   2
ATOM      2  C   UNL A   1      34.028  21.684  26.614  1.00  0.00     0.116 C 
BRANCH   2   3
ATOM      3  N   UNL A   1      33.236  22.755  27.168  1.00  0.00    -0.354 N 
ATOM      4  C   UNL A   1      32.321  23.545  26.527  1.00  0.00     0.242 C 
ATOM      5  O   UNL A   1      31.477  24.093  27.247  1.00  0.00    -0.273 OA
ATOM      6  H   UNL A   1      33.370  22.939  28.126  1.00  0.00     0.163 HD
BRANCH   4   7
ATOM      7  C   UNL A   1      32.441  23.954  25.026  1.00  0.00     0.174 C 
ATOM      8  N   UNL A   1      31.949  25.236  24.444  1.00  0.00    -0.329 N 
ATOM      9  C   UNL A   1      31.312  24.946  23.175  1.00  0.00     0.120 C 
ATOM     10  C   UNL A   1      30.742  23.556  23.335  1.00  0.00     0.024 C 
ATOM     11  C   UNL A   1      31.775  22.845  24.188  1.00  0.00     0.037 C 
BRANCH   8  12
ATOM     12  C   UNL A   1      32.697  26.399  24.611  1.00  0.00     0.241 C 
ATOM     13  O   UNL A   1      33.783  26.502  24.023  1.00  0.00    -0.273 OA
BRANCH  12  14
ATOM     14  C   UNL A   1      32.305  27.532  25.591  1.00  0.00     0.162 C 
ATOM     15  N   UNL A   1      31.247  28.548  25.232  1.00  0.00    -0.190 NA
ATOM     16  C   UNL A   1      31.753  29.888  25.696  1.00  0.00     0.103 C 
ATOM     17  C   UNL A   1      33.263  29.718  25.727  1.00  0.00     0.019 C 
ATOM     18  C   UNL A   1      33.383  28.332  26.327  1.00  0.00     0.032 C 
BRANCH  15  19
ATOM     19  S   UNL A   1      30.552  28.683  23.717  1.00  0.00     0.211 S 
ATOM     20  C   UNL A   1      29.725  30.256  23.608  1.00  0.00     0.176 C 
ATOM     21  O   UNL A   1      29.579  27.617  23.668  1.00  0.00    -0.212 OA
ATOM     22  O   UNL A   1      31.639  28.698  22.755  1.00  0.00    -0.212 OA
ENDBRANCH  15  19
ENDBRANCH  12  14
ENDBRANCH   8  12
ENDBRANCH   4   7
ENDBRANCH   2   3
ENDBRANCH   1   2
BRANCH   1  23
ATOM     23  C   UNL A   1      35.842  23.400  25.954  1.00  0.00     0.023 C 
BRANCH  23  24
ATOM     24  C   UNL A   1      37.088  23.601  25.080  1.00  0.00     0.116 C 
BRANCH  24  25
ATOM     25  N   UNL A   1      38.188  22.694  25.370  1.00  0.00    -0.352 N 
ATOM     26  C   UNL A   1      39.308  22.928  26.139  1.00  0.00     0.251 C 
ATOM     27  H   UNL A   1      38.126  21.799  24.964  1.00  0.00     0.163 HD
ATOM     28  O   UNL A   1      40.180  22.072  26.258  1.00  0.00    -0.269 OA
BRANCH  26  29
ATOM     29  C   UNL A   1      39.464  24.243  26.800  1.00  0.00     0.039 A 
ATOM     30  C   UNL A   1      38.984  24.417  28.101  1.00  0.00     0.014 A 
ATOM     31  C   UNL A   1      40.139  25.281  26.153  1.00  0.00     0.014 A 
ATOM     32  C   UNL A   1      39.267  25.602  28.790  1.00  0.00     0.010 A 
ATOM     33  C   UNL A   1      40.466  26.438  26.861  1.00  0.00     0.010 A 
ATOM     34  C   UNL A   1      40.055  26.603  28.194  1.00  0.00    -0.014 A 
BRANCH  34  35
ATOM     35  C   UNL A   1      40.501  27.797  28.968  1.00  0.00     0.031 A 
ATOM     36  C   UNL A   1      41.829  27.799  29.676  1.00  0.00     0.074 A 
ATOM     37  C   UNL A   1      39.673  28.857  29.095  1.00  0.00     0.049 A 
ATOM     38  N   UNL A   1      42.348  28.713  30.456  1.00  0.00    -0.248 NA
ATOM     39  C   UNL A   1      42.679  26.610  29.500  1.00  0.00     0.031 C 
ATOM     40  C   UNL A   1      38.339  28.967  28.499  1.00  0.00     0.029 A 
ATOM     41  N   UNL A   1      39.822  30.040  29.782  1.00  0.00    -0.354 N 
ATOM     42  C   UNL A   1      43.575  28.208  30.873  1.00  0.00     0.074 A 
ATOM     43  C   UNL A   1      43.704  26.889  30.295  1.00  0.00     0.031 C 
ATOM     44  C   UNL A   1      37.801  30.151  28.832  1.00  0.00     0.029 A 
ATOM     45  C   UNL A   1      38.725  30.870  29.703  1.00  0.00     0.049 A 
ATOM     46  H   UNL A   1      40.636  30.272  30.284  1.00  0.00     0.167 HD
ATOM     47  C   UNL A   1      44.513  28.798  31.653  1.00  0.00     0.037 A 
ATOM     48  C   UNL A   1      38.480  32.065  30.278  1.00  0.00     0.037 A 
ATOM     49  C   UNL A   1      44.389  30.119  32.214  1.00  0.00     0.049 A 
ATOM     50  C   UNL A   1      39.535  32.688  31.157  1.00  0.00     0.074 A 
ATOM     51  C   UNL A   1      45.314  30.823  32.966  1.00  0.00     0.029 A 
ATOM     52  N   UNL A   1      43.273  30.934  32.093  1.00  0.00    -0.354 N 
ATOM     53  N   UNL A   1      40.721  32.227  31.476  1.00  0.00    -0.248 NA
ATOM     54  C   UNL A   1      39.223  33.998  31.749  1.00  0.00     0.031 C 
ATOM     55  C   UNL A   1      44.737  32.036  33.350  1.00  0.00     0.029 A 
ATOM     56  C   UNL A   1      43.477  32.120  32.781  1.00  0.00     0.049 A 
ATOM     57  H   UNL A   1      42.456  30.704  31.595  1.00  0.00     0.167 HD
ATOM     58  C   UNL A   1      41.309  33.204  32.274  1.00  0.00     0.074 A 
ATOM     59  C   UNL A   1      40.354  34.287  32.379  1.00  0.00     0.031 C 
ATOM     60  C   UNL A   1      42.529  33.204  32.863  1.00  0.00     0.037 A 
BRANCH  47  61
ATOM     61  C   UNL A   1      45.772  28.027  31.951  1.00  0.00     0.058 A 
ATOM     62  C   UNL A   1      45.817  27.049  32.957  1.00  0.00     0.135 A 
ATOM     63  C   UNL A   1      46.923  28.210  31.165  1.00  0.00     0.135 A 
ATOM     64  F   UNL A   1      44.752  26.839  33.746  1.00  0.00    -0.206 F 
ATOM     65  C   UNL A   1      46.961  26.289  33.182  1.00  0.00     0.059 A 
ATOM     66  C   UNL A   1      48.067  27.442  31.354  1.00  0.00     0.059 A 
ATOM     67  F   UNL A   1      46.935  29.131  30.189  1.00  0.00    -0.206 F 
ATOM     68  C   UNL A   1      48.079  26.488  32.370  1.00  0.00     0.060 A 
BRANCH  68  69
ATOM     69  S   UNL A   1      49.538  25.463  32.652  1.00  0.00     0.124 S 
ATOM     70  O   UNL A   1      49.806  24.959  31.308  1.00  0.00    -0.237 OA
ATOM     71  O   UNL A   1      50.502  26.430  33.167  1.00  0.00    -0.237 OA
ATOM     72  O   UNL A   1      49.076  24.467  33.614  1.00  0.00    -0.744 OA
ENDBRANCH  68  69
ENDBRANCH  47  61
BRANCH  48  73
ATOM     73  C   UNL A   1      37.181  32.760  30.052  1.00  0.00     0.058 A 
ATOM     74  C   UNL A   1      37.043  33.732  29.047  1.00  0.00     0.135 A 
ATOM     75  C   UNL A   1      36.062  32.494  30.856  1.00  0.00     0.135 A 
ATOM     76  F   UNL A   1      38.084  34.031  28.255  1.00  0.00    -0.206 F 
ATOM     77  C   UNL A   1      35.855  34.435  28.870  1.00  0.00     0.059 A 
ATOM     78  C   UNL A   1      34.854  33.161  30.676  1.00  0.00     0.059 A 
ATOM     79  F   UNL A   1      36.132  31.564  31.821  1.00  0.00    -0.206 F 
ATOM     80  C   UNL A   1      34.766  34.143  29.692  1.00  0.00     0.060 A 
BRANCH  80  81
ATOM     81  S   UNL A   1      33.225  35.052  29.444  1.00  0.00     0.124 S 
ATOM     82  O   UNL A   1      32.559  34.233  28.438  1.00  0.00    -0.237 OA
ATOM     83  O   UNL A   1      32.636  35.029  30.779  1.00  0.00    -0.237 OA
ATOM     84  O   UNL A   1      33.678  36.364  28.990  1.00  0.00    -0.744 OA
ENDBRANCH  80  81
ENDBRANCH  48  73
BRANCH  60  85
ATOM     85  C   UNL A   1      42.938  34.432  33.632  1.00  0.00     0.058 A 
ATOM     86  C   UNL A   1      42.770  34.531  35.022  1.00  0.00     0.135 A 
ATOM     87  C   UNL A   1      43.567  35.502  32.973  1.00  0.00     0.135 A 
ATOM     88  F   UNL A   1      42.170  33.542  35.703  1.00  0.00    -0.206 F 
ATOM     89  C   UNL A   1      43.193  35.654  35.727  1.00  0.00     0.059 A 
ATOM     90  C   UNL A   1      44.027  36.619  33.662  1.00  0.00     0.059 A 
ATOM     91  F   UNL A   1      43.761  35.457  31.645  1.00  0.00    -0.206 F 
ATOM     92  C   UNL A   1      43.826  36.691  35.039  1.00  0.00     0.060 A 
BRANCH  92  93
ATOM     93  S   UNL A   1      44.408  38.122  35.974  1.00  0.00     0.124 S 
ATOM     94  O   UNL A   1      45.837  37.845  36.077  1.00  0.00    -0.237 OA
ATOM     95  O   UNL A   1      44.038  39.234  35.104  1.00  0.00    -0.237 OA
ATOM     96  O   UNL A   1      43.661  38.038  37.226  1.00  0.00    -0.744 OA
ENDBRANCH  92  93
ENDBRANCH  60  85
ENDBRANCH  34  35
ENDBRANCH  26  29
ENDBRANCH  24  25
ENDBRANCH  23  24
ENDBRANCH   1  23
TORSDOF 17
ENDMDL
MODEL 2
REMARK VINA RESULT:     -10.9      3.445      9.241
REMARK SMILES CS(=O)(=O)N1CCC[C@@H]1C(=O)N1CCC[C@@H]1C(=O)NCCCCNC(=O)c1ccc(-c2c3nc(c(-c4c(F)cc(S(=O)(=O)[O-])cc4F)c4ccc([nH]4)c(-c4c(F)cc(S(=O)(=O)[O-])cc4F)c4nc(c(-c5c(F)cc(S(=O)(=O)[O-])cc5F)c5ccc2[nH]5)C=C4)C=C3)cc1
REMARK SMILES IDX 21 1 20 2 19 3 17 4 18 5 16 7 12 8 13 9 14 10 15 11 10 12
REMARK SMILES IDX 11 13 9 14 5 15 6 16 7 17 8 18 2 19 1 20 3 21 4 22 22 23
REMARK SMILES IDX 23 24 24 25 25 26 26 28 27 29 28 30 92 31 29 32 91 33 30 34
REMARK SMILES IDX 31 35 32 36 85 37 33 38 90 39 84 40 86 41 34 42 89 43 83 44
REMARK SMILES IDX 82 45 35 47 69 48 48 49 68 50 49 51 52 52 67 53 87 54 50 55
REMARK SMILES IDX 51 56 66 58 88 59 53 60 36 61 37 62 46 63 38 64 39 65 45 66
REMARK SMILES IDX 47 67 40 68 41 69 42 70 43 71 44 72 70 73 71 74 80 75 72 76
REMARK SMILES IDX 73 77 79 78 81 79 74 80 75 81 76 82 77 83 78 84 54 85 55 86
REMARK SMILES IDX 64 87 56 88 57 89 63 90 65 91 58 92 59 93 60 94 61 95 62 96
REMARK H PARENT 19 6 24 27 86 46 52 57
REMARK Flexibility Score: inf
ROOT
ATOM      1  C   UNL A   1      32.314  30.246  26.804  1.00  0.00     0.023 C 
ENDROOT
BRANCH   1   2
ATOM      2  C   UNL A   1      32.088  29.633  25.423  1.00  0.00     0.116 C 
BRANCH   2   3
ATOM      3  N   UNL A   1      33.265  29.476  24.602  1.00  0.00    -0.354 N 
ATOM      4  C   UNL A   1      33.445  28.633  23.540  1.00  0.00     0.242 C 
ATOM      5  O   UNL A   1      34.337  28.946  22.742  1.00  0.00    -0.273 OA
ATOM      6  H   UNL A   1      34.033  30.047  24.836  1.00  0.00     0.163 HD
BRANCH   4   7
ATOM      7  C   UNL A   1      32.767  27.232  23.430  1.00  0.00     0.174 C 
ATOM      8  N   UNL A   1      33.472  25.924  23.557  1.00  0.00    -0.329 N 
ATOM      9  C   UNL A   1      32.962  25.031  22.535  1.00  0.00     0.120 C 
ATOM     10  C   UNL A   1      32.580  25.933  21.385  1.00  0.00     0.024 C 
ATOM     11  C   UNL A   1      32.041  27.174  22.071  1.00  0.00     0.037 C 
BRANCH   8  12
ATOM     12  C   UNL A   1      33.801  25.440  24.820  1.00  0.00     0.241 C 
ATOM     13  O   UNL A   1      34.196  26.237  25.683  1.00  0.00    -0.273 OA
BRANCH  12  14
ATOM     14  C   UNL A   1      33.817  23.933  25.179  1.00  0.00     0.162 C 
ATOM     15  N   UNL A   1      32.570  23.227  25.654  1.00  0.00    -0.190 NA
ATOM     16  C   UNL A   1      32.985  22.323  26.785  1.00  0.00     0.103 C 
ATOM     17  C   UNL A   1      34.254  22.965  27.320  1.00  0.00     0.019 C 
ATOM     18  C   UNL A   1      34.948  23.348  26.030  1.00  0.00     0.032 C 
BRANCH  15  19
ATOM     19  S   UNL A   1      31.138  24.005  26.028  1.00  0.00     0.211 S 
ATOM     20  C   UNL A   1      30.082  22.865  26.900  1.00  0.00     0.176 C 
ATOM     21  O   UNL A   1      30.554  24.326  24.747  1.00  0.00    -0.212 OA
ATOM     22  O   UNL A   1      31.468  25.078  26.947  1.00  0.00    -0.212 OA
ENDBRANCH  15  19
ENDBRANCH  12  14
ENDBRANCH   8  12
ENDBRANCH   4   7
ENDBRANCH   2   3
ENDBRANCH   1   2
BRANCH   1  23
ATOM     23  C   UNL A   1      32.052  31.761  26.886  1.00  0.00     0.023 C 
BRANCH  23  24
ATOM     24  C   UNL A   1      33.123  32.648  27.535  1.00  0.00     0.116 C 
BRANCH  24  25
ATOM     25  N   UNL A   1      32.704  34.017  27.799  1.00  0.00    -0.352 N 
ATOM     26  C   UNL A   1      33.200  34.897  28.737  1.00  0.00     0.251 C 
ATOM     27  H   UNL A   1      31.972  34.357  27.236  1.00  0.00     0.163 HD
ATOM     28  O   UNL A   1      32.712  36.014  28.872  1.00  0.00    -0.269 OA
BRANCH  26  29
ATOM     29  C   UNL A   1      34.317  34.465  29.607  1.00  0.00     0.039 A 
ATOM     30  C   UNL A   1      34.034  33.895  30.852  1.00  0.00     0.014 A 
ATOM     31  C   UNL A   1      35.637  34.567  29.162  1.00  0.00     0.014 A 
ATOM     32  C   UNL A   1      35.071  33.340  31.609  1.00  0.00     0.010 A 
ATOM     33  C   UNL A   1      36.661  33.964  29.894  1.00  0.00     0.010 A 
ATOM     34  C   UNL A   1      36.388  33.323  31.114  1.00  0.00    -0.014 A 
BRANCH  34  35
ATOM     35  C   UNL A   1      37.474  32.595  31.831  1.00  0.00     0.031 A 
ATOM     36  C   UNL A   1      38.009  33.113  33.140  1.00  0.00     0.074 A 
ATOM     37  C   UNL A   1      38.033  31.504  31.264  1.00  0.00     0.049 A 
ATOM     38  N   UNL A   1      39.000  32.657  33.864  1.00  0.00    -0.248 NA
ATOM     39  C   UNL A   1      37.358  34.309  33.698  1.00  0.00     0.031 C 
ATOM     40  C   UNL A   1      37.641  30.923  29.977  1.00  0.00     0.029 A 
ATOM     41  N   UNL A   1      39.063  30.696  31.686  1.00  0.00    -0.354 N 
ATOM     42  C   UNL A   1      39.100  33.515  34.955  1.00  0.00     0.074 A 
ATOM     43  C   UNL A   1      38.097  34.542  34.774  1.00  0.00     0.031 C 
ATOM     44  C   UNL A   1      38.407  29.850  29.723  1.00  0.00     0.029 A 
ATOM     45  C   UNL A   1      39.377  29.688  30.801  1.00  0.00     0.049 A 
ATOM     46  H   UNL A   1      39.533  30.826  32.541  1.00  0.00     0.167 HD
ATOM     47  C   UNL A   1      39.938  33.441  36.016  1.00  0.00     0.037 A 
ATOM     48  C   UNL A   1      40.345  28.750  30.841  1.00  0.00     0.037 A 
ATOM     49  C   UNL A   1      40.924  32.406  36.202  1.00  0.00     0.049 A 
ATOM     50  C   UNL A   1      41.277  28.703  32.026  1.00  0.00     0.074 A 
ATOM     51  C   UNL A   1      41.777  32.216  37.275  1.00  0.00     0.029 A 
ATOM     52  N   UNL A   1      41.196  31.394  35.294  1.00  0.00    -0.354 N 
ATOM     53  N   UNL A   1      41.304  29.478  33.084  1.00  0.00    -0.248 NA
ATOM     54  C   UNL A   1      42.306  27.653  32.026  1.00  0.00     0.031 C 
ATOM     55  C   UNL A   1      42.605  31.127  36.992  1.00  0.00     0.029 A 
ATOM     56  C   UNL A   1      42.222  30.594  35.771  1.00  0.00     0.049 A 
ATOM     57  H   UNL A   1      40.730  31.263  34.436  1.00  0.00     0.167 HD
ATOM     58  C   UNL A   1      42.326  28.986  33.891  1.00  0.00     0.074 A 
ATOM     59  C   UNL A   1      42.885  27.840  33.205  1.00  0.00     0.031 C 
ATOM     60  C   UNL A   1      42.759  29.441  35.092  1.00  0.00     0.037 A 
BRANCH  47  61
ATOM     61  C   UNL A   1      39.834  34.506  37.076  1.00  0.00     0.058 A 
ATOM     62  C   UNL A   1      40.456  35.755  36.930  1.00  0.00     0.135 A 
ATOM     63  C   UNL A   1      39.033  34.303  38.213  1.00  0.00     0.135 A 
ATOM     64  F   UNL A   1      41.243  36.001  35.871  1.00  0.00    -0.206 F 
ATOM     65  C   UNL A   1      40.299  36.761  37.879  1.00  0.00     0.059 A 
ATOM     66  C   UNL A   1      38.838  35.304  39.159  1.00  0.00     0.059 A 
ATOM     67  F   UNL A   1      38.414  33.127  38.404  1.00  0.00    -0.206 F 
ATOM     68  C   UNL A   1      39.482  36.529  38.987  1.00  0.00     0.060 A 
BRANCH  68  69
ATOM     69  S   UNL A   1      39.258  37.861  40.184  1.00  0.00     0.124 S 
ATOM     70  O   UNL A   1      40.565  38.511  40.148  1.00  0.00    -0.237 OA
ATOM     71  O   UNL A   1      38.158  38.622  39.599  1.00  0.00    -0.237 OA
ATOM     72  O   UNL A   1      38.941  37.158  41.423  1.00  0.00    -0.744 OA
ENDBRANCH  68  69
ENDBRANCH  47  61
BRANCH  48  73
ATOM     73  C   UNL A   1      40.495  27.771  29.727  1.00  0.00     0.058 A 
ATOM     74  C   UNL A   1      41.506  27.916  28.763  1.00  0.00     0.135 A 
ATOM     75  C   UNL A   1      39.612  26.690  29.582  1.00  0.00     0.135 A 
ATOM     76  F   UNL A   1      42.373  28.937  28.849  1.00  0.00    -0.206 F 
ATOM     77  C   UNL A   1      41.616  27.048  27.681  1.00  0.00     0.059 A 
ATOM     78  C   UNL A   1      39.721  25.788  28.528  1.00  0.00     0.059 A 
ATOM     79  F   UNL A   1      38.636  26.493  30.482  1.00  0.00    -0.206 F 
ATOM     80  C   UNL A   1      40.715  25.987  27.572  1.00  0.00     0.060 A 
BRANCH  80  81
ATOM     81  S   UNL A   1      40.875  24.857  26.172  1.00  0.00     0.124 S 
ATOM     82  O   UNL A   1      39.536  24.284  26.101  1.00  0.00    -0.237 OA
ATOM     83  O   UNL A   1      41.241  25.762  25.087  1.00  0.00    -0.237 OA
ATOM     84  O   UNL A   1      41.931  23.942  26.597  1.00  0.00    -0.744 OA
ENDBRANCH  80  81
ENDBRANCH  48  73
BRANCH  60  85
ATOM     85  C   UNL A   1      43.857  28.673  35.780  1.00  0.00     0.058 A 
ATOM     86  C   UNL A   1      45.212  28.995  35.609  1.00  0.00     0.135 A 
ATOM     87  C   UNL A   1      43.540  27.637  36.674  1.00  0.00     0.135 A 
ATOM     88  F   UNL A   1      45.573  29.972  34.761  1.00  0.00    -0.206 F 
ATOM     89  C   UNL A   1      46.214  28.306  36.285  1.00  0.00     0.059 A 
ATOM     90  C   UNL A   1      44.523  26.957  37.386  1.00  0.00     0.059 A 
ATOM     91  F   UNL A   1      42.259  27.292  36.884  1.00  0.00    -0.206 F 
ATOM     92  C   UNL A   1      45.859  27.292  37.176  1.00  0.00     0.060 A 
BRANCH  92  93
ATOM     93  S   UNL A   1      47.168  26.436  38.079  1.00  0.00     0.124 S 
ATOM     94  O   UNL A   1      48.364  27.077  37.543  1.00  0.00    -0.237 OA
ATOM     95  O   UNL A   1      46.847  26.751  39.468  1.00  0.00    -0.237 OA
ATOM     96  O   UNL A   1      46.984  25.037  37.702  1.00  0.00    -0.744 OA
ENDBRANCH  92  93
ENDBRANCH  60  85
ENDBRANCH  34  35
ENDBRANCH  26  29
ENDBRANCH  24  25
ENDBRANCH  23  24
ENDBRANCH   1  23
TORSDOF 17
ENDMDL
MODEL 3
REMARK VINA RESULT:     -10.8      4.622     10.324
REMARK SMILES CS(=O)(=O)N1CCC[C@@H]1C(=O)N1CCC[C@@H]1C(=O)NCCCCNC(=O)c1ccc(-c2c3nc(c(-c4c(F)cc(S(=O)(=O)[O-])cc4F)c4ccc([nH]4)c(-c4c(F)cc(S(=O)(=O)[O-])cc4F)c4nc(c(-c5c(F)cc(S(=O)(=O)[O-])cc5F)c5ccc2[nH]5)C=C4)C=C3)cc1
REMARK SMILES IDX 21 1 20 2 19 3 17 4 18 5 16 7 12 8 13 9 14 10 15 11 10 12
REMARK SMILES IDX 11 13 9 14 5 15 6 16 7 17 8 18 2 19 1 20 3 21 4 22 22 23
REMARK SMILES IDX 23 24 24 25 25 26 26 28 27 29 28 30 92 31 29 32 91 33 30 34
REMARK SMILES IDX 31 35 32 36 85 37 33 38 90 39 84 40 86 41 34 42 89 43 83 44
REMARK SMILES IDX 82 45 35 47 69 48 48 49 68 50 49 51 52 52 67 53 87 54 50 55
REMARK SMILES IDX 51 56 66 58 88 59 53 60 36 61 37 62 46 63 38 64 39 65 45 66
REMARK SMILES IDX 47 67 40 68 41 69 42 70 43 71 44 72 70 73 71 74 80 75 72 76
REMARK SMILES IDX 73 77 79 78 81 79 74 80 75 81 76 82 77 83 78 84 54 85 55 86
REMARK SMILES IDX 64 87 56 88 57 89 63 90 65 91 58 92 59 93 60 94 61 95 62 96
REMARK H PARENT 19 6 24 27 86 46 52 57
REMARK Flexibility Score: inf
ROOT
ATOM      1  C   UNL A   1      33.888  31.189  27.701  1.00  0.00     0.023 C 
ENDROOT
BRANCH   1   2
ATOM      2  C   UNL A   1      32.862  30.469  26.827  1.00  0.00     0.116 C 
BRANCH   2   3
ATOM      3  N   UNL A   1      33.391  29.772  25.680  1.00  0.00    -0.354 N 
ATOM      4  C   UNL A   1      32.700  29.234  24.629  1.00  0.00     0.242 C 
ATOM      5  O   UNL A   1      33.342  29.066  23.584  1.00  0.00    -0.273 OA
ATOM      6  H   UNL A   1      34.370  29.672  25.649  1.00  0.00     0.163 HD
BRANCH   4   7
ATOM      7  C   UNL A   1      31.268  28.629  24.762  1.00  0.00     0.174 C 
ATOM      8  N   UNL A   1      30.962  27.184  24.967  1.00  0.00    -0.329 N 
ATOM      9  C   UNL A   1      29.839  26.831  24.120  1.00  0.00     0.120 C 
ATOM     10  C   UNL A   1      29.957  27.739  22.919  1.00  0.00     0.024 C 
ATOM     11  C   UNL A   1      30.473  29.039  23.506  1.00  0.00     0.037 C 
BRANCH   8  12
ATOM     12  C   UNL A   1      31.095  26.626  26.235  1.00  0.00     0.241 C 
ATOM     13  O   UNL A   1      31.029  27.368  27.226  1.00  0.00    -0.273 OA
BRANCH  12  14
ATOM     14  C   UNL A   1      31.443  25.137  26.480  1.00  0.00     0.162 C 
ATOM     15  N   UNL A   1      32.803  24.582  26.130  1.00  0.00    -0.190 NA
ATOM     16  C   UNL A   1      32.575  23.233  25.500  1.00  0.00     0.103 C 
ATOM     17  C   UNL A   1      31.160  23.319  24.954  1.00  0.00     0.019 C 
ATOM     18  C   UNL A   1      30.456  24.032  26.090  1.00  0.00     0.032 C 
BRANCH  15  19
ATOM     19  S   UNL A   1      33.971  25.427  25.284  1.00  0.00     0.211 S 
ATOM     20  C   UNL A   1      35.459  24.449  25.235  1.00  0.00     0.176 C 
ATOM     21  O   UNL A   1      34.198  26.617  26.070  1.00  0.00    -0.212 OA
ATOM     22  O   UNL A   1      33.493  25.557  23.920  1.00  0.00    -0.212 OA
ENDBRANCH  15  19
ENDBRANCH  12  14
ENDBRANCH   8  12
ENDBRANCH   4   7
ENDBRANCH   2   3
ENDBRANCH   1   2
BRANCH   1  23
ATOM     23  C   UNL A   1      35.322  30.638  27.596  1.00  0.00     0.023 C 
BRANCH  23  24
ATOM     24  C   UNL A   1      35.825  29.708  28.709  1.00  0.00     0.116 C 
BRANCH  24  25
ATOM     25  N   UNL A   1      35.654  30.225  30.059  1.00  0.00    -0.352 N 
ATOM     26  C   UNL A   1      36.628  30.543  30.981  1.00  0.00     0.251 C 
ATOM     27  H   UNL A   1      34.724  30.364  30.350  1.00  0.00     0.163 HD
ATOM     28  O   UNL A   1      36.327  30.931  32.106  1.00  0.00    -0.269 OA
BRANCH  26  29
ATOM     29  C   UNL A   1      38.051  30.380  30.608  1.00  0.00     0.039 A 
ATOM     30  C   UNL A   1      38.906  29.678  31.461  1.00  0.00     0.014 A 
ATOM     31  C   UNL A   1      38.519  30.869  29.386  1.00  0.00     0.014 A 
ATOM     32  C   UNL A   1      40.209  29.382  31.044  1.00  0.00     0.010 A 
ATOM     33  C   UNL A   1      39.800  30.526  28.951  1.00  0.00     0.010 A 
ATOM     34  C   UNL A   1      40.652  29.759  29.764  1.00  0.00    -0.014 A 
BRANCH  34  35
ATOM     35  C   UNL A   1      41.976  29.314  29.241  1.00  0.00     0.031 A 
ATOM     36  C   UNL A   1      43.108  30.294  29.089  1.00  0.00     0.074 A 
ATOM     37  C   UNL A   1      42.136  28.037  28.831  1.00  0.00     0.049 A 
ATOM     38  N   UNL A   1      44.300  30.105  28.582  1.00  0.00    -0.248 NA
ATOM     39  C   UNL A   1      42.864  31.670  29.549  1.00  0.00     0.031 C 
ATOM     40  C   UNL A   1      41.106  26.995  28.880  1.00  0.00     0.029 A 
ATOM     41  N   UNL A   1      43.220  27.397  28.276  1.00  0.00    -0.354 N 
ATOM     42  C   UNL A   1      44.943  31.337  28.651  1.00  0.00     0.074 A 
ATOM     43  C   UNL A   1      43.993  32.275  29.208  1.00  0.00     0.031 C 
ATOM     44  C   UNL A   1      41.609  25.851  28.391  1.00  0.00     0.029 A 
ATOM     45  C   UNL A   1      42.981  26.080  27.950  1.00  0.00     0.049 A 
ATOM     46  H   UNL A   1      44.086  27.839  28.125  1.00  0.00     0.167 HD
ATOM     47  C   UNL A   1      46.212  31.651  28.297  1.00  0.00     0.037 A 
ATOM     48  C   UNL A   1      43.768  25.164  27.350  1.00  0.00     0.037 A 
ATOM     49  C   UNL A   1      47.161  30.710  27.758  1.00  0.00     0.049 A 
ATOM     50  C   UNL A   1      45.170  25.547  26.949  1.00  0.00     0.074 A 
ATOM     51  C   UNL A   1      48.488  30.924  27.427  1.00  0.00     0.029 A 
ATOM     52  N   UNL A   1      46.887  29.383  27.463  1.00  0.00    -0.354 N 
ATOM     53  N   UNL A   1      45.784  26.698  27.093  1.00  0.00    -0.248 NA
ATOM     54  C   UNL A   1      45.990  24.508  26.309  1.00  0.00     0.031 C 
ATOM     55  C   UNL A   1      49.000  29.746  26.877  1.00  0.00     0.029 A 
ATOM     56  C   UNL A   1      48.012  28.775  26.928  1.00  0.00     0.049 A 
ATOM     57  H   UNL A   1      46.021  28.938  27.610  1.00  0.00     0.167 HD
ATOM     58  C   UNL A   1      47.070  26.509  26.598  1.00  0.00     0.074 A 
ATOM     59  C   UNL A   1      47.151  25.132  26.161  1.00  0.00     0.031 C 
ATOM     60  C   UNL A   1      48.091  27.396  26.515  1.00  0.00     0.037 A 
BRANCH  47  61
ATOM     61  C   UNL A   1      46.667  33.075  28.482  1.00  0.00     0.058 A 
ATOM     62  C   UNL A   1      46.525  34.033  27.466  1.00  0.00     0.135 A 
ATOM     63  C   UNL A   1      47.174  33.506  29.720  1.00  0.00     0.135 A 
ATOM     64  F   UNL A   1      46.058  33.676  26.260  1.00  0.00    -0.206 F 
ATOM     65  C   UNL A   1      46.881  35.363  27.666  1.00  0.00     0.059 A 
ATOM     66  C   UNL A   1      47.509  34.836  29.951  1.00  0.00     0.059 A 
ATOM     67  F   UNL A   1      47.330  32.632  30.728  1.00  0.00    -0.206 F 
ATOM     68  C   UNL A   1      47.365  35.757  28.914  1.00  0.00     0.060 A 
BRANCH  68  69
ATOM     69  S   UNL A   1      47.782  37.495  29.165  1.00  0.00     0.124 S 
ATOM     70  O   UNL A   1      48.738  37.412  30.265  1.00  0.00    -0.237 OA
ATOM     71  O   UNL A   1      48.339  37.871  27.870  1.00  0.00    -0.237 OA
ATOM     72  O   UNL A   1      46.499  38.110  29.495  1.00  0.00    -0.744 OA
ENDBRANCH  68  69
ENDBRANCH  47  61
BRANCH  48  73
ATOM     73  C   UNL A   1      43.258  23.790  27.081  1.00  0.00     0.058 A 
ATOM     74  C   UNL A   1      43.253  22.807  28.084  1.00  0.00     0.135 A 
ATOM     75  C   UNL A   1      42.795  23.419  25.809  1.00  0.00     0.135 A 
ATOM     76  F   UNL A   1      43.692  23.105  29.317  1.00  0.00    -0.206 F 
ATOM     77  C   UNL A   1      42.841  21.503  27.828  1.00  0.00     0.059 A 
ATOM     78  C   UNL A   1      42.347  22.130  25.536  1.00  0.00     0.059 A 
ATOM     79  F   UNL A   1      42.762  24.322  24.815  1.00  0.00    -0.206 F 
ATOM     80  C   UNL A   1      42.392  21.173  26.548  1.00  0.00     0.060 A 
BRANCH  80  81
ATOM     81  S   UNL A   1      41.846  19.481  26.231  1.00  0.00     0.124 S 
ATOM     82  O   UNL A   1      40.405  19.657  26.093  1.00  0.00    -0.237 OA
ATOM     83  O   UNL A   1      42.569  19.150  25.007  1.00  0.00    -0.237 OA
ATOM     84  O   UNL A   1      42.282  18.758  27.422  1.00  0.00    -0.744 OA
ENDBRANCH  80  81
ENDBRANCH  48  73
BRANCH  60  85
ATOM     85  C   UNL A   1      49.411  26.902  25.983  1.00  0.00     0.058 A 
ATOM     86  C   UNL A   1      49.791  27.087  24.645  1.00  0.00     0.135 A 
ATOM     87  C   UNL A   1      50.335  26.288  26.845  1.00  0.00     0.135 A 
ATOM     88  F   UNL A   1      48.946  27.661  23.775  1.00  0.00    -0.206 F 
ATOM     89  C   UNL A   1      51.032  26.664  24.177  1.00  0.00     0.059 A 
ATOM     90  C   UNL A   1      51.592  25.888  26.407  1.00  0.00     0.059 A 
ATOM     91  F   UNL A   1      50.027  26.093  28.138  1.00  0.00    -0.206 F 
ATOM     92  C   UNL A   1      51.928  26.070  25.067  1.00  0.00     0.060 A 
BRANCH  92  93
ATOM     93  S   UNL A   1      53.551  25.567  24.455  1.00  0.00     0.124 S 
ATOM     94  O   UNL A   1      53.533  24.132  24.718  1.00  0.00    -0.237 OA
ATOM     95  O   UNL A   1      53.488  25.955  23.049  1.00  0.00    -0.237 OA
ATOM     96  O   UNL A   1      54.479  26.343  25.272  1.00  0.00    -0.744 OA
ENDBRANCH  92  93
ENDBRANCH  60  85
ENDBRANCH  34  35
ENDBRANCH  26  29
ENDBRANCH  24  25
ENDBRANCH  23  24
ENDBRANCH   1  23
TORSDOF 17
ENDMDL
