MODEL 1
REMARK VINA RESULT:     -11.2      0.000      0.000
REMARK SMILES Cc1coc2c(C)c3oc(=O)c(CC(=O)NCC(=O)N[C@H](C(=O)NCCCCNC(=O)c4ccc(-c5c6nc(c(-c7c(F)cc(S(=O)(=O)[O-])cc7F)c7ccc([nH]7)c(-c7c(F)cc(S(=O)(=O)[O-])cc7F)c7nc(c(-c8c(F)cc(S(=O)(=O)[O-])cc8F)c8ccc5[nH]8)C=C7)C=C6)cc4)C(C)C)c(C)c3cc12
REMARK SMILES IDX 25 1 24 2 22 3 23 4 21 6 20 7 18 8 19 9 17 11 16 12 14 13
REMARK SMILES IDX 15 14 13 16 12 17 1 18 2 19 3 20 105 21 4 22 5 23 104 24
REMARK SMILES IDX 6 25 103 26 7 27 8 28 101 29 9 30 102 31 10 32 11 33 98 34
REMARK SMILES IDX 99 35 100 36 26 37 27 38 28 39 29 40 30 41 31 43 32 44 33 45
REMARK SMILES IDX 97 46 34 47 96 48 35 49 36 50 37 51 90 52 38 53 95 54 89 55
REMARK SMILES IDX 91 56 39 57 94 58 88 59 87 60 40 62 74 63 53 64 73 65 54 66
REMARK SMILES IDX 57 67 72 68 92 69 55 70 56 71 71 73 93 74 58 75 41 76 42 77
REMARK SMILES IDX 51 78 43 79 44 80 50 81 52 82 45 83 46 84 47 85 48 86 49 87
REMARK SMILES IDX 75 88 76 89 85 90 77 91 78 92 84 93 86 94 79 95 80 96 81 97
REMARK SMILES IDX 82 98 83 99 59 100 60 101 69 102 61 103 62 104 68 105 70 106
REMARK SMILES IDX 63 107 64 108 65 109 66 110 67 111
REMARK H PARENT 24 5 20 10 16 15 29 42 91 61 57 72
REMARK Flexibility Score: inf
ROOT
ATOM      1  C   UNL A   1      46.284  23.066  24.649  1.00  0.00     0.116 C 
ENDROOT
BRANCH   1   2
ATOM      2  N   UNL A   1      46.089  24.494  24.638  1.00  0.00    -0.354 N 
ATOM      3  C   UNL A   1      45.718  25.335  25.636  1.00  0.00     0.242 C 
ATOM      4  O   UNL A   1      45.064  26.312  25.301  1.00  0.00    -0.273 OA
ATOM      5  H   UNL A   1      46.250  24.929  23.770  1.00  0.00     0.163 HD
BRANCH   3   6
ATOM      6  C   UNL A   1      46.319  25.165  27.036  1.00  0.00     0.173 C 
BRANCH   6   7
ATOM      7  N   UNL A   1      46.956  26.473  27.367  1.00  0.00    -0.343 N 
ATOM      8  C   UNL A   1      48.309  26.689  27.271  1.00  0.00     0.240 C 
ATOM      9  O   UNL A   1      49.025  26.355  28.215  1.00  0.00    -0.273 OA
ATOM     10  H   UNL A   1      46.382  27.213  27.668  1.00  0.00     0.164 HD
BRANCH   8  11
ATOM     11  C   UNL A   1      48.809  27.631  26.147  1.00  0.00     0.216 C 
BRANCH  11  12
ATOM     12  N   UNL A   1      47.924  27.806  25.004  1.00  0.00    -0.347 N 
ATOM     13  C   UNL A   1      47.945  27.493  23.687  1.00  0.00     0.225 C 
ATOM     14  O   UNL A   1      46.973  27.927  23.049  1.00  0.00    -0.275 OA
ATOM     15  H   UNL A   1      47.094  28.274  25.254  1.00  0.00     0.164 HD
BRANCH  13  16
ATOM     16  C   UNL A   1      48.969  26.592  22.989  1.00  0.00     0.143 C 
BRANCH  16  17
ATOM     17  C   UNL A   1      49.870  27.165  21.917  1.00  0.00     0.051 A 
ATOM     18  C   UNL A   1      56.168  30.032  20.642  1.00  0.00     0.048 C 
ATOM     19  C   UNL A   1      55.113  29.733  19.646  1.00  0.00    -0.005 A 
ATOM     20  C   UNL A   1      55.256  29.741  18.273  1.00  0.00     0.199 A 
ATOM     21  C   UNL A   1      53.773  29.296  19.893  1.00  0.00     0.024 A 
ATOM     22  O   UNL A   1      54.146  29.253  17.669  1.00  0.00    -0.464 OA
ATOM     23  C   UNL A   1      53.260  28.935  18.654  1.00  0.00     0.140 A 
ATOM     24  C   UNL A   1      52.973  29.084  21.039  1.00  0.00     0.024 A 
ATOM     25  C   UNL A   1      52.039  28.292  18.456  1.00  0.00     0.036 A 
ATOM     26  C   UNL A   1      51.727  28.431  20.922  1.00  0.00     0.022 A 
ATOM     27  C   UNL A   1      51.587  27.836  17.104  1.00  0.00     0.052 C 
ATOM     28  C   UNL A   1      51.316  28.045  19.642  1.00  0.00     0.145 A 
ATOM     29  C   UNL A   1      50.915  28.013  22.096  1.00  0.00    -0.029 A 
ATOM     30  O   UNL A   1      50.126  27.314  19.482  1.00  0.00    -0.422 OA
ATOM     31  C   UNL A   1      51.348  28.544  23.444  1.00  0.00     0.046 C 
ATOM     32  C   UNL A   1      49.382  26.862  20.547  1.00  0.00     0.340 A 
ATOM     33  O   UNL A   1      48.341  26.243  20.351  1.00  0.00    -0.246 OA
ENDBRANCH  16  17
ENDBRANCH  13  16
ENDBRANCH  11  12
ENDBRANCH   8  11
ENDBRANCH   6   7
BRANCH   6  34
ATOM     34  C   UNL A   1      45.214  24.891  28.097  1.00  0.00     0.015 C 
ATOM     35  C   UNL A   1      44.968  23.422  28.462  1.00  0.00     0.010 C 
ATOM     36  C   UNL A   1      45.416  25.693  29.386  1.00  0.00     0.010 C 
ENDBRANCH   6  34
ENDBRANCH   3   6
ENDBRANCH   1   2
BRANCH   1  37
ATOM     37  C   UNL A   1      45.102  22.416  23.913  1.00  0.00     0.023 C 
BRANCH  37  38
ATOM     38  C   UNL A   1      43.712  22.990  24.267  1.00  0.00     0.023 C 
BRANCH  38  39
ATOM     39  C   UNL A   1      43.167  22.495  25.597  1.00  0.00     0.116 C 
BRANCH  39  40
ATOM     40  N   UNL A   1      41.765  22.133  25.491  1.00  0.00    -0.352 N 
ATOM     41  C   UNL A   1      40.697  22.641  26.197  1.00  0.00     0.251 C 
ATOM     42  H   UNL A   1      41.551  21.436  24.830  1.00  0.00     0.163 HD
ATOM     43  O   UNL A   1      39.651  22.016  26.243  1.00  0.00    -0.269 OA
BRANCH  41  44
ATOM     44  C   UNL A   1      40.836  23.942  26.882  1.00  0.00     0.039 A 
ATOM     45  C   UNL A   1      41.464  24.001  28.129  1.00  0.00     0.014 A 
ATOM     46  C   UNL A   1      40.287  25.092  26.307  1.00  0.00     0.014 A 
ATOM     47  C   UNL A   1      41.558  25.226  28.779  1.00  0.00     0.010 A 
ATOM     48  C   UNL A   1      40.467  26.320  26.902  1.00  0.00     0.010 A 
ATOM     49  C   UNL A   1      41.054  26.381  28.160  1.00  0.00    -0.014 A 
BRANCH  49  50
ATOM     50  C   UNL A   1      41.231  27.681  28.792  1.00  0.00     0.031 A 
ATOM     51  C   UNL A   1      42.510  28.355  28.443  1.00  0.00     0.074 A 
ATOM     52  C   UNL A   1      40.261  28.309  29.488  1.00  0.00     0.049 A 
ATOM     53  N   UNL A   1      43.535  28.549  29.205  1.00  0.00    -0.248 NA
ATOM     54  C   UNL A   1      42.742  28.710  27.034  1.00  0.00     0.031 C 
ATOM     55  C   UNL A   1      38.859  27.923  29.668  1.00  0.00     0.029 A 
ATOM     56  N   UNL A   1      40.326  29.502  30.137  1.00  0.00    -0.354 N 
ATOM     57  C   UNL A   1      44.456  29.259  28.438  1.00  0.00     0.074 A 
ATOM     58  C   UNL A   1      44.000  29.152  27.077  1.00  0.00     0.031 C 
ATOM     59  C   UNL A   1      38.165  28.960  30.192  1.00  0.00     0.029 A 
ATOM     60  C   UNL A   1      39.098  30.018  30.536  1.00  0.00     0.049 A 
ATOM     61  H   UNL A   1      41.177  29.965  30.311  1.00  0.00     0.167 HD
ATOM     62  C   UNL A   1      45.383  30.068  29.024  1.00  0.00     0.037 A 
ATOM     63  C   UNL A   1      38.874  31.234  31.099  1.00  0.00     0.037 A 
ATOM     64  C   UNL A   1      45.517  29.758  30.428  1.00  0.00     0.049 A 
ATOM     65  C   UNL A   1      40.168  31.668  31.691  1.00  0.00     0.074 A 
ATOM     66  C   UNL A   1      45.878  28.631  31.144  1.00  0.00     0.029 A 
ATOM     67  N   UNL A   1      44.878  30.578  31.329  1.00  0.00    -0.354 N 
ATOM     68  N   UNL A   1      40.751  31.056  32.688  1.00  0.00    -0.248 NA
ATOM     69  C   UNL A   1      41.042  32.489  30.867  1.00  0.00     0.031 C 
ATOM     70  C   UNL A   1      45.011  28.620  32.276  1.00  0.00     0.029 A 
ATOM     71  C   UNL A   1      44.223  29.773  32.225  1.00  0.00     0.049 A 
ATOM     72  H   UNL A   1      44.890  31.562  31.330  1.00  0.00     0.167 HD
ATOM     73  C   UNL A   1      42.103  31.069  32.375  1.00  0.00     0.074 A 
ATOM     74  C   UNL A   1      42.227  32.032  31.281  1.00  0.00     0.031 C 
ATOM     75  C   UNL A   1      42.952  30.105  32.837  1.00  0.00     0.037 A 
BRANCH  62  76
ATOM     76  C   UNL A   1      45.887  31.372  28.437  1.00  0.00     0.058 A 
ATOM     77  C   UNL A   1      44.954  32.387  28.130  1.00  0.00     0.135 A 
ATOM     78  C   UNL A   1      47.179  31.561  27.899  1.00  0.00     0.135 A 
ATOM     79  F   UNL A   1      43.697  32.330  28.600  1.00  0.00    -0.206 F 
ATOM     80  C   UNL A   1      45.250  33.442  27.267  1.00  0.00     0.059 A 
ATOM     81  C   UNL A   1      47.509  32.633  27.077  1.00  0.00     0.059 A 
ATOM     82  F   UNL A   1      48.166  30.674  28.057  1.00  0.00    -0.206 F 
ATOM     83  C   UNL A   1      46.527  33.543  26.727  1.00  0.00     0.060 A 
BRANCH  83  84
ATOM     84  S   UNL A   1      46.875  34.826  25.513  1.00  0.00     0.124 S 
ATOM     85  O   UNL A   1      46.786  36.031  26.330  1.00  0.00    -0.237 OA
ATOM     86  O   UNL A   1      48.211  34.456  25.061  1.00  0.00    -0.237 OA
ATOM     87  O   UNL A   1      45.814  34.651  24.526  1.00  0.00    -0.744 OA
ENDBRANCH  83  84
ENDBRANCH  62  76
BRANCH  63  88
ATOM     88  C   UNL A   1      37.752  32.177  30.833  1.00  0.00     0.058 A 
ATOM     89  C   UNL A   1      37.841  33.148  29.817  1.00  0.00     0.135 A 
ATOM     90  C   UNL A   1      36.465  31.961  31.366  1.00  0.00     0.135 A 
ATOM     91  F   UNL A   1      39.024  33.412  29.238  1.00  0.00    -0.206 F 
ATOM     92  C   UNL A   1      36.717  33.818  29.318  1.00  0.00     0.059 A 
ATOM     93  C   UNL A   1      35.330  32.621  30.889  1.00  0.00     0.059 A 
ATOM     94  F   UNL A   1      36.255  31.029  32.307  1.00  0.00    -0.206 F 
ATOM     95  C   UNL A   1      35.459  33.529  29.846  1.00  0.00     0.060 A 
BRANCH  95  96
ATOM     96  S   UNL A   1      33.987  34.263  29.090  1.00  0.00     0.124 S 
ATOM     97  O   UNL A   1      34.556  35.373  28.333  1.00  0.00    -0.237 OA
ATOM     98  O   UNL A   1      33.463  33.156  28.299  1.00  0.00    -0.237 OA
ATOM     99  O   UNL A   1      33.169  34.647  30.238  1.00  0.00    -0.744 OA
ENDBRANCH  95  96
ENDBRANCH  63  88
BRANCH  75 100
ATOM    100  C   UNL A   1      42.460  29.155  33.903  1.00  0.00     0.058 A 
ATOM    101  C   UNL A   1      41.776  27.953  33.640  1.00  0.00     0.135 A 
ATOM    102  C   UNL A   1      42.877  29.371  35.225  1.00  0.00     0.135 A 
ATOM    103  F   UNL A   1      41.418  27.623  32.392  1.00  0.00    -0.206 F 
ATOM    104  C   UNL A   1      41.510  27.018  34.646  1.00  0.00     0.059 A 
ATOM    105  C   UNL A   1      42.649  28.442  36.237  1.00  0.00     0.059 A 
ATOM    106  F   UNL A   1      43.583  30.472  35.534  1.00  0.00    -0.206 F 
ATOM    107  C   UNL A   1      41.962  27.267  35.940  1.00  0.00     0.060 A 
BRANCH 107 108
ATOM    108  S   UNL A   1      41.721  26.007  37.214  1.00  0.00     0.124 S 
ATOM    109  O   UNL A   1      41.943  24.770  36.471  1.00  0.00    -0.237 OA
ATOM    110  O   UNL A   1      42.745  26.349  38.196  1.00  0.00    -0.237 OA
ATOM    111  O   UNL A   1      40.347  26.227  37.658  1.00  0.00    -0.744 OA
ENDBRANCH 107 108
ENDBRANCH  75 100
ENDBRANCH  49  50
ENDBRANCH  41  44
ENDBRANCH  39  40
ENDBRANCH  38  39
ENDBRANCH  37  38
ENDBRANCH   1  37
TORSDOF 20
ENDMDL
MODEL 2
REMARK VINA RESULT:     -11.1      1.988      2.945
REMARK SMILES Cc1coc2c(C)c3oc(=O)c(CC(=O)NCC(=O)N[C@H](C(=O)NCCCCNC(=O)c4ccc(-c5c6nc(c(-c7c(F)cc(S(=O)(=O)[O-])cc7F)c7ccc([nH]7)c(-c7c(F)cc(S(=O)(=O)[O-])cc7F)c7nc(c(-c8c(F)cc(S(=O)(=O)[O-])cc8F)c8ccc5[nH]8)C=C7)C=C6)cc4)C(C)C)c(C)c3cc12
REMARK SMILES IDX 25 1 24 2 22 3 23 4 21 6 20 7 18 8 19 9 17 11 16 12 14 13
REMARK SMILES IDX 15 14 13 16 12 17 1 18 2 19 3 20 105 21 4 22 5 23 104 24
REMARK SMILES IDX 6 25 103 26 7 27 8 28 101 29 9 30 102 31 10 32 11 33 98 34
REMARK SMILES IDX 99 35 100 36 26 37 27 38 28 39 29 40 30 41 31 43 32 44 33 45
REMARK SMILES IDX 97 46 34 47 96 48 35 49 36 50 37 51 90 52 38 53 95 54 89 55
REMARK SMILES IDX 91 56 39 57 94 58 88 59 87 60 40 62 74 63 53 64 73 65 54 66
REMARK SMILES IDX 57 67 72 68 92 69 55 70 56 71 71 73 93 74 58 75 41 76 42 77
REMARK SMILES IDX 51 78 43 79 44 80 50 81 52 82 45 83 46 84 47 85 48 86 49 87
REMARK SMILES IDX 75 88 76 89 85 90 77 91 78 92 84 93 86 94 79 95 80 96 81 97
REMARK SMILES IDX 82 98 83 99 59 100 60 101 69 102 61 103 62 104 68 105 70 106
REMARK SMILES IDX 63 107 64 108 65 109 66 110 67 111
REMARK H PARENT 24 5 20 10 16 15 29 42 91 61 57 72
REMARK Flexibility Score: inf
ROOT
ATOM      1  C   UNL A   1      46.080  23.491  25.050  1.00  0.00     0.116 C 
ENDROOT
BRANCH   1   2
ATOM      2  N   UNL A   1      45.704  24.881  25.125  1.00  0.00    -0.354 N 
ATOM      3  C   UNL A   1      45.306  25.625  26.188  1.00  0.00     0.242 C 
ATOM      4  O   UNL A   1      44.509  26.520  25.950  1.00  0.00    -0.273 OA
ATOM      5  H   UNL A   1      45.741  25.368  24.270  1.00  0.00     0.163 HD
BRANCH   3   6
ATOM      6  C   UNL A   1      46.030  25.478  27.531  1.00  0.00     0.173 C 
BRANCH   6   7
ATOM      7  N   UNL A   1      46.426  26.859  27.933  1.00  0.00    -0.343 N 
ATOM      8  C   UNL A   1      47.737  27.246  28.077  1.00  0.00     0.240 C 
ATOM      9  O   UNL A   1      48.302  27.014  29.145  1.00  0.00    -0.273 OA
ATOM     10  H   UNL A   1      45.719  27.521  28.103  1.00  0.00     0.164 HD
BRANCH   8  11
ATOM     11  C   UNL A   1      48.312  28.238  27.035  1.00  0.00     0.216 C 
BRANCH  11  12
ATOM     12  N   UNL A   1      47.541  28.416  25.813  1.00  0.00    -0.347 N 
ATOM     13  C   UNL A   1      47.549  27.901  24.561  1.00  0.00     0.225 C 
ATOM     14  O   UNL A   1      46.729  28.428  23.792  1.00  0.00    -0.275 OA
ATOM     15  H   UNL A   1      46.829  29.086  25.926  1.00  0.00     0.164 HD
BRANCH  13  16
ATOM     16  C   UNL A   1      48.372  26.699  24.084  1.00  0.00     0.143 C 
BRANCH  16  17
ATOM     17  C   UNL A   1      49.884  26.760  24.117  1.00  0.00     0.051 A 
ATOM     18  C   UNL A   1      55.698  23.691  26.622  1.00  0.00     0.048 C 
ATOM     19  C   UNL A   1      55.634  24.869  25.727  1.00  0.00    -0.005 A 
ATOM     20  C   UNL A   1      56.688  25.431  25.035  1.00  0.00     0.199 A 
ATOM     21  C   UNL A   1      54.474  25.604  25.326  1.00  0.00     0.024 A 
ATOM     22  O   UNL A   1      56.251  26.383  24.176  1.00  0.00    -0.464 OA
ATOM     23  C   UNL A   1      54.898  26.456  24.316  1.00  0.00     0.140 A 
ATOM     24  C   UNL A   1      53.098  25.577  25.650  1.00  0.00     0.024 A 
ATOM     25  C   UNL A   1      54.052  27.233  23.524  1.00  0.00     0.036 A 
ATOM     26  C   UNL A   1      52.177  26.329  24.889  1.00  0.00     0.022 A 
ATOM     27  C   UNL A   1      54.560  28.055  22.381  1.00  0.00     0.052 C 
ATOM     28  C   UNL A   1      52.684  27.112  23.847  1.00  0.00     0.145 A 
ATOM     29  C   UNL A   1      50.703  26.213  25.051  1.00  0.00    -0.029 A 
ATOM     30  O   UNL A   1      51.801  27.810  23.005  1.00  0.00    -0.422 OA
ATOM     31  C   UNL A   1      50.211  25.438  26.253  1.00  0.00     0.046 C 
ATOM     32  C   UNL A   1      50.435  27.681  23.089  1.00  0.00     0.340 A 
ATOM     33  O   UNL A   1      49.708  28.327  22.341  1.00  0.00    -0.246 OA
ENDBRANCH  16  17
ENDBRANCH  13  16
ENDBRANCH  11  12
ENDBRANCH   8  11
ENDBRANCH   6   7
BRANCH   6  34
ATOM     34  C   UNL A   1      45.079  24.917  28.629  1.00  0.00     0.015 C 
ATOM     35  C   UNL A   1      45.015  23.391  28.760  1.00  0.00     0.010 C 
ATOM     36  C   UNL A   1      45.344  25.521  30.011  1.00  0.00     0.010 C 
ENDBRANCH   6  34
ENDBRANCH   3   6
ENDBRANCH   1   2
BRANCH   1  37
ATOM     37  C   UNL A   1      45.008  22.749  24.237  1.00  0.00     0.023 C 
BRANCH  37  38
ATOM     38  C   UNL A   1      43.550  23.141  24.560  1.00  0.00     0.023 C 
BRANCH  38  39
ATOM     39  C   UNL A   1      43.008  22.495  25.824  1.00  0.00     0.116 C 
BRANCH  39  40
ATOM     40  N   UNL A   1      41.614  22.123  25.671  1.00  0.00    -0.352 N 
ATOM     41  C   UNL A   1      40.519  22.618  26.345  1.00  0.00     0.251 C 
ATOM     42  H   UNL A   1      41.426  21.428  25.000  1.00  0.00     0.163 HD
ATOM     43  O   UNL A   1      39.478  21.986  26.355  1.00  0.00    -0.269 OA
BRANCH  41  44
ATOM     44  C   UNL A   1      40.625  23.917  27.042  1.00  0.00     0.039 A 
ATOM     45  C   UNL A   1      41.507  24.052  28.117  1.00  0.00     0.014 A 
ATOM     46  C   UNL A   1      39.804  24.981  26.658  1.00  0.00     0.014 A 
ATOM     47  C   UNL A   1      41.573  25.269  28.786  1.00  0.00     0.010 A 
ATOM     48  C   UNL A   1      39.940  26.213  27.254  1.00  0.00     0.010 A 
ATOM     49  C   UNL A   1      40.784  26.344  28.350  1.00  0.00    -0.014 A 
BRANCH  49  50
ATOM     50  C   UNL A   1      40.915  27.648  28.986  1.00  0.00     0.031 A 
ATOM     51  C   UNL A   1      41.986  28.500  28.404  1.00  0.00     0.074 A 
ATOM     52  C   UNL A   1      40.042  28.124  29.897  1.00  0.00     0.049 A 
ATOM     53  N   UNL A   1      43.115  28.827  28.941  1.00  0.00    -0.248 NA
ATOM     54  C   UNL A   1      41.860  28.903  26.995  1.00  0.00     0.031 C 
ATOM     55  C   UNL A   1      38.776  27.541  30.351  1.00  0.00     0.029 A 
ATOM     56  N   UNL A   1      40.082  29.306  30.568  1.00  0.00    -0.354 N 
ATOM     57  C   UNL A   1      43.745  29.670  28.028  1.00  0.00     0.074 A 
ATOM     58  C   UNL A   1      43.027  29.518  26.791  1.00  0.00     0.031 C 
ATOM     59  C   UNL A   1      38.077  28.463  31.054  1.00  0.00     0.029 A 
ATOM     60  C   UNL A   1      38.910  29.638  31.239  1.00  0.00     0.049 A 
ATOM     61  H   UNL A   1      40.880  29.882  30.578  1.00  0.00     0.167 HD
ATOM     62  C   UNL A   1      44.659  30.594  28.440  1.00  0.00     0.037 A 
ATOM     63  C   UNL A   1      38.650  30.802  31.888  1.00  0.00     0.037 A 
ATOM     64  C   UNL A   1      45.132  30.287  29.770  1.00  0.00     0.049 A 
ATOM     65  C   UNL A   1      39.971  31.407  32.212  1.00  0.00     0.074 A 
ATOM     66  C   UNL A   1      45.786  29.213  30.344  1.00  0.00     0.029 A 
ATOM     67  N   UNL A   1      44.596  30.997  30.819  1.00  0.00    -0.354 N 
ATOM     68  N   UNL A   1      40.831  30.870  33.037  1.00  0.00    -0.248 NA
ATOM     69  C   UNL A   1      40.529  32.354  31.259  1.00  0.00     0.031 C 
ATOM     70  C   UNL A   1      45.192  29.065  31.632  1.00  0.00     0.029 A 
ATOM     71  C   UNL A   1      44.264  30.096  31.798  1.00  0.00     0.049 A 
ATOM     72  H   UNL A   1      44.475  31.973  30.861  1.00  0.00     0.167 HD
ATOM     73  C   UNL A   1      42.070  31.078  32.447  1.00  0.00     0.074 A 
ATOM     74  C   UNL A   1      41.825  32.063  31.393  1.00  0.00     0.031 C 
ATOM     75  C   UNL A   1      43.120  30.237  32.678  1.00  0.00     0.037 A 
BRANCH  62  76
ATOM     76  C   UNL A   1      44.844  31.963  27.817  1.00  0.00     0.058 A 
ATOM     77  C   UNL A   1      46.071  32.266  27.187  1.00  0.00     0.135 A 
ATOM     78  C   UNL A   1      44.004  33.072  28.059  1.00  0.00     0.135 A 
ATOM     79  F   UNL A   1      46.948  31.293  26.887  1.00  0.00    -0.206 F 
ATOM     80  C   UNL A   1      46.477  33.574  26.923  1.00  0.00     0.059 A 
ATOM     81  C   UNL A   1      44.368  34.381  27.756  1.00  0.00     0.059 A 
ATOM     82  F   UNL A   1      42.828  32.967  28.685  1.00  0.00    -0.206 F 
ATOM     83  C   UNL A   1      45.624  34.628  27.233  1.00  0.00     0.060 A 
BRANCH  83  84
ATOM     84  S   UNL A   1      46.195  36.321  27.015  1.00  0.00     0.124 S 
ATOM     85  O   UNL A   1      47.124  36.460  28.132  1.00  0.00    -0.237 OA
ATOM     86  O   UNL A   1      46.795  36.266  25.687  1.00  0.00    -0.237 OA
ATOM     87  O   UNL A   1      44.968  37.105  27.112  1.00  0.00    -0.744 OA
ENDBRANCH  83  84
ENDBRANCH  62  76
BRANCH  63  88
ATOM     88  C   UNL A   1      37.380  31.581  31.906  1.00  0.00     0.058 A 
ATOM     89  C   UNL A   1      36.755  31.930  33.118  1.00  0.00     0.135 A 
ATOM     90  C   UNL A   1      36.910  32.249  30.757  1.00  0.00     0.135 A 
ATOM     91  F   UNL A   1      37.148  31.358  34.268  1.00  0.00    -0.206 F 
ATOM     92  C   UNL A   1      35.769  32.921  33.196  1.00  0.00     0.059 A 
ATOM     93  C   UNL A   1      35.923  33.236  30.809  1.00  0.00     0.059 A 
ATOM     94  F   UNL A   1      37.463  32.028  29.555  1.00  0.00    -0.206 F 
ATOM     95  C   UNL A   1      35.377  33.588  32.036  1.00  0.00     0.060 A 
BRANCH  95  96
ATOM     96  S   UNL A   1      34.231  34.984  32.157  1.00  0.00     0.124 S 
ATOM     97  O   UNL A   1      33.121  34.402  32.905  1.00  0.00    -0.237 OA
ATOM     98  O   UNL A   1      35.027  35.976  32.870  1.00  0.00    -0.237 OA
ATOM     99  O   UNL A   1      33.939  35.308  30.763  1.00  0.00    -0.744 OA
ENDBRANCH  95  96
ENDBRANCH  63  88
BRANCH  75 100
ATOM    100  C   UNL A   1      43.001  29.213  33.782  1.00  0.00     0.058 A 
ATOM    101  C   UNL A   1      43.220  29.487  35.145  1.00  0.00     0.135 A 
ATOM    102  C   UNL A   1      42.447  27.963  33.467  1.00  0.00     0.135 A 
ATOM    103  F   UNL A   1      43.663  30.686  35.543  1.00  0.00    -0.206 F 
ATOM    104  C   UNL A   1      42.914  28.559  36.144  1.00  0.00     0.059 A 
ATOM    105  C   UNL A   1      42.107  27.034  34.447  1.00  0.00     0.059 A 
ATOM    106  F   UNL A   1      42.160  27.659  32.190  1.00  0.00    -0.206 F 
ATOM    107  C   UNL A   1      42.345  27.338  35.785  1.00  0.00     0.060 A 
BRANCH 107 108
ATOM    108  S   UNL A   1      41.842  26.186  37.084  1.00  0.00     0.124 S 
ATOM    109  O   UNL A   1      41.789  24.915  36.368  1.00  0.00    -0.237 OA
ATOM    110  O   UNL A   1      42.920  26.318  38.060  1.00  0.00    -0.237 OA
ATOM    111  O   UNL A   1      40.550  26.707  37.523  1.00  0.00    -0.744 OA
ENDBRANCH 107 108
ENDBRANCH  75 100
ENDBRANCH  49  50
ENDBRANCH  41  44
ENDBRANCH  39  40
ENDBRANCH  38  39
ENDBRANCH  37  38
ENDBRANCH   1  37
TORSDOF 20
ENDMDL
MODEL 3
REMARK VINA RESULT:     -10.9      1.269      2.312
REMARK SMILES Cc1coc2c(C)c3oc(=O)c(CC(=O)NCC(=O)N[C@H](C(=O)NCCCCNC(=O)c4ccc(-c5c6nc(c(-c7c(F)cc(S(=O)(=O)[O-])cc7F)c7ccc([nH]7)c(-c7c(F)cc(S(=O)(=O)[O-])cc7F)c7nc(c(-c8c(F)cc(S(=O)(=O)[O-])cc8F)c8ccc5[nH]8)C=C7)C=C6)cc4)C(C)C)c(C)c3cc12
REMARK SMILES IDX 25 1 24 2 22 3 23 4 21 6 20 7 18 8 19 9 17 11 16 12 14 13
REMARK SMILES IDX 15 14 13 16 12 17 1 18 2 19 3 20 105 21 4 22 5 23 104 24
REMARK SMILES IDX 6 25 103 26 7 27 8 28 101 29 9 30 102 31 10 32 11 33 98 34
REMARK SMILES IDX 99 35 100 36 26 37 27 38 28 39 29 40 30 41 31 43 32 44 33 45
REMARK SMILES IDX 97 46 34 47 96 48 35 49 36 50 37 51 90 52 38 53 95 54 89 55
REMARK SMILES IDX 91 56 39 57 94 58 88 59 87 60 40 62 74 63 53 64 73 65 54 66
REMARK SMILES IDX 57 67 72 68 92 69 55 70 56 71 71 73 93 74 58 75 41 76 42 77
REMARK SMILES IDX 51 78 43 79 44 80 50 81 52 82 45 83 46 84 47 85 48 86 49 87
REMARK SMILES IDX 75 88 76 89 85 90 77 91 78 92 84 93 86 94 79 95 80 96 81 97
REMARK SMILES IDX 82 98 83 99 59 100 60 101 69 102 61 103 62 104 68 105 70 106
REMARK SMILES IDX 63 107 64 108 65 109 66 110 67 111
REMARK H PARENT 24 5 20 10 16 15 29 42 91 61 57 72
REMARK Flexibility Score: inf
ROOT
ATOM      1  C   UNL A   1      45.948  23.266  25.080  1.00  0.00     0.116 C 
ENDROOT
BRANCH   1   2
ATOM      2  N   UNL A   1      45.685  24.676  25.225  1.00  0.00    -0.354 N 
ATOM      3  C   UNL A   1      45.573  25.436  26.344  1.00  0.00     0.242 C 
ATOM      4  O   UNL A   1      44.801  26.381  26.277  1.00  0.00    -0.273 OA
ATOM      5  H   UNL A   1      45.567  25.166  24.379  1.00  0.00     0.163 HD
BRANCH   3   6
ATOM      6  C   UNL A   1      46.559  25.234  27.500  1.00  0.00     0.173 C 
BRANCH   6   7
ATOM      7  N   UNL A   1      47.067  26.594  27.844  1.00  0.00    -0.343 N 
ATOM      8  C   UNL A   1      48.372  26.975  27.643  1.00  0.00     0.240 C 
ATOM      9  O   UNL A   1      49.204  26.690  28.505  1.00  0.00    -0.273 OA
ATOM     10  H   UNL A   1      46.441  27.247  28.230  1.00  0.00     0.164 HD
BRANCH   8  11
ATOM     11  C   UNL A   1      48.655  28.016  26.532  1.00  0.00     0.216 C 
BRANCH  11  12
ATOM     12  N   UNL A   1      47.718  28.048  25.418  1.00  0.00    -0.347 N 
ATOM     13  C   UNL A   1      47.672  27.559  24.157  1.00  0.00     0.225 C 
ATOM     14  O   UNL A   1      46.675  27.918  23.511  1.00  0.00    -0.275 OA
ATOM     15  H   UNL A   1      46.906  28.560  25.639  1.00  0.00     0.164 HD
BRANCH  13  16
ATOM     16  C   UNL A   1      48.652  26.554  23.542  1.00  0.00     0.143 C 
BRANCH  16  17
ATOM     17  C   UNL A   1      49.906  27.048  22.854  1.00  0.00     0.051 A 
ATOM     18  C   UNL A   1      52.388  30.728  17.395  1.00  0.00     0.048 C 
ATOM     19  C   UNL A   1      53.184  30.089  18.468  1.00  0.00    -0.005 A 
ATOM     20  C   UNL A   1      54.525  30.294  18.725  1.00  0.00     0.199 A 
ATOM     21  C   UNL A   1      52.722  29.212  19.499  1.00  0.00     0.024 A 
ATOM     22  O   UNL A   1      54.892  29.690  19.881  1.00  0.00    -0.464 OA
ATOM     23  C   UNL A   1      53.785  29.072  20.380  1.00  0.00     0.140 A 
ATOM     24  C   UNL A   1      51.493  28.594  19.825  1.00  0.00     0.024 A 
ATOM     25  C   UNL A   1      53.713  28.437  21.619  1.00  0.00     0.036 A 
ATOM     26  C   UNL A   1      51.338  27.938  21.066  1.00  0.00     0.022 A 
ATOM     27  C   UNL A   1      54.869  28.408  22.570  1.00  0.00     0.052 C 
ATOM     28  C   UNL A   1      52.444  27.899  21.921  1.00  0.00     0.145 A 
ATOM     29  C   UNL A   1      50.031  27.424  21.555  1.00  0.00    -0.029 A 
ATOM     30  O   UNL A   1      52.317  27.337  23.202  1.00  0.00    -0.422 OA
ATOM     31  C   UNL A   1      48.896  27.396  20.557  1.00  0.00     0.046 C 
ATOM     32  C   UNL A   1      51.113  26.905  23.709  1.00  0.00     0.340 A 
ATOM     33  O   UNL A   1      51.060  26.405  24.828  1.00  0.00    -0.246 OA
ENDBRANCH  16  17
ENDBRANCH  13  16
ENDBRANCH  11  12
ENDBRANCH   8  11
ENDBRANCH   6   7
BRANCH   6  34
ATOM     34  C   UNL A   1      45.845  24.661  28.759  1.00  0.00     0.015 C 
ATOM     35  C   UNL A   1      44.959  25.636  29.543  1.00  0.00     0.010 C 
ATOM     36  C   UNL A   1      45.040  23.393  28.460  1.00  0.00     0.010 C 
ENDBRANCH   6  34
ENDBRANCH   3   6
ENDBRANCH   1   2
BRANCH   1  37
ATOM     37  C   UNL A   1      44.829  22.657  24.222  1.00  0.00     0.023 C 
BRANCH  37  38
ATOM     38  C   UNL A   1      43.396  23.074  24.618  1.00  0.00     0.023 C 
BRANCH  38  39
ATOM     39  C   UNL A   1      42.856  22.333  25.830  1.00  0.00     0.116 C 
BRANCH  39  40
ATOM     40  N   UNL A   1      41.454  21.998  25.663  1.00  0.00    -0.352 N 
ATOM     41  C   UNL A   1      40.366  22.522  26.325  1.00  0.00     0.251 C 
ATOM     42  H   UNL A   1      41.255  21.308  24.989  1.00  0.00     0.163 HD
ATOM     43  O   UNL A   1      39.308  21.917  26.324  1.00  0.00    -0.269 OA
BRANCH  41  44
ATOM     44  C   UNL A   1      40.499  23.818  27.023  1.00  0.00     0.039 A 
ATOM     45  C   UNL A   1      41.413  23.944  28.072  1.00  0.00     0.014 A 
ATOM     46  C   UNL A   1      39.672  24.886  26.668  1.00  0.00     0.014 A 
ATOM     47  C   UNL A   1      41.504  25.158  28.744  1.00  0.00     0.010 A 
ATOM     48  C   UNL A   1      39.831  26.116  27.264  1.00  0.00     0.010 A 
ATOM     49  C   UNL A   1      40.708  26.239  28.335  1.00  0.00    -0.014 A 
BRANCH  49  50
ATOM     50  C   UNL A   1      40.864  27.539  28.971  1.00  0.00     0.031 A 
ATOM     51  C   UNL A   1      41.928  28.385  28.367  1.00  0.00     0.074 A 
ATOM     52  C   UNL A   1      40.016  28.020  29.903  1.00  0.00     0.049 A 
ATOM     53  N   UNL A   1      43.072  28.701  28.878  1.00  0.00    -0.248 NA
ATOM     54  C   UNL A   1      41.773  28.793  26.962  1.00  0.00     0.031 C 
ATOM     55  C   UNL A   1      38.756  27.446  30.385  1.00  0.00     0.029 A 
ATOM     56  N   UNL A   1      40.081  29.199  30.577  1.00  0.00    -0.354 N 
ATOM     57  C   UNL A   1      43.688  29.542  27.953  1.00  0.00     0.074 A 
ATOM     58  C   UNL A   1      42.940  29.399  26.733  1.00  0.00     0.031 C 
ATOM     59  C   UNL A   1      38.081  28.371  31.106  1.00  0.00     0.029 A 
ATOM     60  C   UNL A   1      38.928  29.538  31.275  1.00  0.00     0.049 A 
ATOM     61  H   UNL A   1      40.884  29.769  30.570  1.00  0.00     0.167 HD
ATOM     62  C   UNL A   1      44.618  30.457  28.347  1.00  0.00     0.037 A 
ATOM     63  C   UNL A   1      38.692  30.703  31.934  1.00  0.00     0.037 A 
ATOM     64  C   UNL A   1      45.118  30.143  29.664  1.00  0.00     0.049 A 
ATOM     65  C   UNL A   1      40.024  31.296  32.229  1.00  0.00     0.074 A 
ATOM     66  C   UNL A   1      45.778  29.062  30.220  1.00  0.00     0.029 A 
ATOM     67  N   UNL A   1      44.613  30.853  30.728  1.00  0.00    -0.354 N 
ATOM     68  N   UNL A   1      40.899  30.750  33.032  1.00  0.00    -0.248 NA
ATOM     69  C   UNL A   1      40.568  32.242  31.266  1.00  0.00     0.031 C 
ATOM     70  C   UNL A   1      45.212  28.915  31.521  1.00  0.00     0.029 A 
ATOM     71  C   UNL A   1      44.296  29.952  31.711  1.00  0.00     0.049 A 
ATOM     72  H   UNL A   1      44.501  31.830  30.775  1.00  0.00     0.167 HD
ATOM     73  C   UNL A   1      42.126  30.950  32.414  1.00  0.00     0.074 A 
ATOM     74  C   UNL A   1      41.864  31.940  31.369  1.00  0.00     0.031 C 
ATOM     75  C   UNL A   1      43.175  30.100  32.618  1.00  0.00     0.037 A 
BRANCH  62  76
ATOM     76  C   UNL A   1      44.799  31.827  27.724  1.00  0.00     0.058 A 
ATOM     77  C   UNL A   1      45.962  32.082  26.964  1.00  0.00     0.135 A 
ATOM     78  C   UNL A   1      44.047  32.970  28.071  1.00  0.00     0.135 A 
ATOM     79  F   UNL A   1      46.752  31.074  26.557  1.00  0.00    -0.206 F 
ATOM     80  C   UNL A   1      46.400  33.375  26.672  1.00  0.00     0.059 A 
ATOM     81  C   UNL A   1      44.438  34.265  27.745  1.00  0.00     0.059 A 
ATOM     82  F   UNL A   1      42.944  32.910  28.823  1.00  0.00    -0.206 F 
ATOM     83  C   UNL A   1      45.639  34.461  27.088  1.00  0.00     0.060 A 
BRANCH  83  84
ATOM     84  S   UNL A   1      46.265  36.129  26.828  1.00  0.00     0.124 S 
ATOM     85  O   UNL A   1      46.939  35.989  25.542  1.00  0.00    -0.237 OA
ATOM     86  O   UNL A   1      45.035  36.913  26.826  1.00  0.00    -0.237 OA
ATOM     87  O   UNL A   1      47.137  36.344  27.979  1.00  0.00    -0.744 OA
ENDBRANCH  83  84
ENDBRANCH  62  76
BRANCH  63  88
ATOM     88  C   UNL A   1      37.429  31.492  31.982  1.00  0.00     0.058 A 
ATOM     89  C   UNL A   1      36.881  31.915  33.208  1.00  0.00     0.135 A 
ATOM     90  C   UNL A   1      36.893  32.096  30.828  1.00  0.00     0.135 A 
ATOM     91  F   UNL A   1      37.339  31.407  34.363  1.00  0.00    -0.206 F 
ATOM     92  C   UNL A   1      35.906  32.917  33.289  1.00  0.00     0.059 A 
ATOM     93  C   UNL A   1      35.916  33.093  30.882  1.00  0.00     0.059 A 
ATOM     94  F   UNL A   1      37.371  31.803  29.609  1.00  0.00    -0.206 F 
ATOM     95  C   UNL A   1      35.446  33.520  32.118  1.00  0.00     0.060 A 
BRANCH  95  96
ATOM     96  S   UNL A   1      34.316  34.929  32.226  1.00  0.00     0.124 S 
ATOM     97  O   UNL A   1      35.107  35.896  32.980  1.00  0.00    -0.237 OA
ATOM     98  O   UNL A   1      34.091  35.251  30.821  1.00  0.00    -0.237 OA
ATOM     99  O   UNL A   1      33.159  34.386  32.932  1.00  0.00    -0.744 OA
ENDBRANCH  95  96
ENDBRANCH  63  88
BRANCH  75 100
ATOM    100  C   UNL A   1      43.073  29.074  33.721  1.00  0.00     0.058 A 
ATOM    101  C   UNL A   1      43.591  29.250  35.018  1.00  0.00     0.135 A 
ATOM    102  C   UNL A   1      42.243  27.961  33.515  1.00  0.00     0.135 A 
ATOM    103  F   UNL A   1      44.320  30.330  35.328  1.00  0.00    -0.206 F 
ATOM    104  C   UNL A   1      43.307  28.356  36.055  1.00  0.00     0.059 A 
ATOM    105  C   UNL A   1      41.923  27.074  34.540  1.00  0.00     0.059 A 
ATOM    106  F   UNL A   1      41.670  27.765  32.315  1.00  0.00    -0.206 F 
ATOM    107  C   UNL A   1      42.461  27.276  35.809  1.00  0.00     0.060 A 
BRANCH 107 108
ATOM    108  S   UNL A   1      42.001  26.188  37.177  1.00  0.00     0.124 S 
ATOM    109  O   UNL A   1      40.627  26.597  37.449  1.00  0.00    -0.237 OA
ATOM    110  O   UNL A   1      42.162  24.860  36.593  1.00  0.00    -0.237 OA
ATOM    111  O   UNL A   1      42.968  26.522  38.220  1.00  0.00    -0.744 OA
ENDBRANCH 107 108
ENDBRANCH  75 100
ENDBRANCH  49  50
ENDBRANCH  41  44
ENDBRANCH  39  40
ENDBRANCH  38  39
ENDBRANCH  37  38
ENDBRANCH   1  37
TORSDOF 20
ENDMDL
