MODEL 1
REMARK VINA RESULT:     -12.2      0.000      0.000
REMARK SMILES Cc1ccn2c([C@H]3C[C@@H]3C(=O)NCCCCNC(=O)c3ccc(-c4c5nc(c(-c6c(F)cc(S(=O)(=O)[O-])cc6F)c6ccc([nH]6)c(-c6c(F)cc(S(=O)(=O)[O-])cc6F)c6nc(c(-c7c(F)cc(S(=O)(=O)[O-])cc7F)c7ccc4[nH]7)C=C6)C=C5)cc3)nnc2c1
REMARK SMILES IDX 15 1 14 2 13 3 12 4 10 5 11 6 9 8 7 9 8 10 6 11 1 12 2 13
REMARK SMILES IDX 3 14 89 15 4 16 88 17 5 18 87 19 86 20 16 21 17 22 18 23
REMARK SMILES IDX 19 25 20 26 21 27 85 28 22 29 84 30 23 31 24 32 25 33 78 34
REMARK SMILES IDX 26 35 83 36 77 37 79 38 27 39 82 40 76 41 75 42 28 44 62 45
REMARK SMILES IDX 41 46 61 47 42 48 45 49 60 50 80 51 43 52 44 53 59 55 81 56
REMARK SMILES IDX 46 57 29 58 30 59 39 60 31 61 32 62 38 63 40 64 33 65 34 66
REMARK SMILES IDX 35 67 36 68 37 69 63 70 64 71 73 72 65 73 66 74 72 75 74 76
REMARK SMILES IDX 67 77 68 78 69 79 70 80 71 81 47 82 48 83 57 84 49 85 50 86
REMARK SMILES IDX 56 87 58 88 51 89 52 90 53 91 54 92 55 93
REMARK H PARENT 12 7 17 24 79 43 45 54
REMARK Flexibility Score: inf
ROOT
ATOM      1  C   UNL A   1      40.968  19.657  26.098  1.00  0.00     0.023 C 
ENDROOT
BRANCH   1   2
ATOM      2  C   UNL A   1      40.567  21.070  26.547  1.00  0.00     0.023 C 
BRANCH   2   3
ATOM      3  C   UNL A   1      39.255  21.562  25.941  1.00  0.00     0.116 C 
BRANCH   3   4
ATOM      4  N   UNL A   1      38.796  22.792  26.560  1.00  0.00    -0.356 N 
ATOM      5  C   UNL A   1      37.735  23.569  26.165  1.00  0.00     0.223 C 
ATOM      6  O   UNL A   1      37.425  24.586  26.756  1.00  0.00    -0.275 OA
ATOM      7  H   UNL A   1      39.300  23.103  27.347  1.00  0.00     0.163 HD
BRANCH   5   8
ATOM      8  C   UNL A   1      36.958  23.089  25.004  1.00  0.00     0.090 C 
ATOM      9  C   UNL A   1      35.449  23.003  25.121  1.00  0.00     0.071 C 
ATOM     10  C   UNL A   1      36.261  21.755  24.951  1.00  0.00     0.026 C 
BRANCH   9  11
ATOM     11  C   UNL A   1      34.651  23.632  23.998  1.00  0.00     0.141 A 
ATOM     12  C   UNL A   1      32.431  28.600  22.773  1.00  0.00     0.044 C 
ATOM     13  C   UNL A   1      33.065  27.286  23.116  1.00  0.00    -0.046 A 
ATOM     14  C   UNL A   1      33.541  27.109  24.490  1.00  0.00     0.022 A 
ATOM     15  C   UNL A   1      33.192  26.293  22.209  1.00  0.00     0.053 A 
ATOM     16  C   UNL A   1      34.129  25.950  24.841  1.00  0.00     0.095 A 
ATOM     17  C   UNL A   1      33.725  25.040  22.608  1.00  0.00     0.161 A 
ATOM     18  N   UNL A   1      34.218  24.931  23.899  1.00  0.00    -0.286 N 
ATOM     19  N   UNL A   1      33.783  23.870  22.011  1.00  0.00    -0.130 NA
ATOM     20  N   UNL A   1      34.311  22.974  22.908  1.00  0.00    -0.134 NA
ENDBRANCH   9  11
ENDBRANCH   5   8
ENDBRANCH   3   4
ENDBRANCH   2   3
ENDBRANCH   1   2
BRANCH   1  21
ATOM     21  C   UNL A   1      42.434  19.307  26.366  1.00  0.00     0.116 C 
BRANCH  21  22
ATOM     22  N   UNL A   1      43.300  19.546  25.228  1.00  0.00    -0.352 N 
ATOM     23  C   UNL A   1      44.111  20.574  24.839  1.00  0.00     0.251 C 
ATOM     24  H   UNL A   1      43.304  18.796  24.591  1.00  0.00     0.163 HD
ATOM     25  O   UNL A   1      44.865  20.335  23.890  1.00  0.00    -0.269 OA
BRANCH  23  26
ATOM     26  C   UNL A   1      44.097  21.945  25.417  1.00  0.00     0.039 A 
ATOM     27  C   UNL A   1      44.760  22.345  26.577  1.00  0.00     0.014 A 
ATOM     28  C   UNL A   1      43.257  22.872  24.768  1.00  0.00     0.014 A 
ATOM     29  C   UNL A   1      44.509  23.593  27.132  1.00  0.00     0.010 A 
ATOM     30  C   UNL A   1      43.011  24.125  25.313  1.00  0.00     0.010 A 
ATOM     31  C   UNL A   1      43.593  24.459  26.529  1.00  0.00    -0.014 A 
BRANCH  31  32
ATOM     32  C   UNL A   1      43.341  25.737  27.187  1.00  0.00     0.031 A 
ATOM     33  C   UNL A   1      44.391  26.763  26.938  1.00  0.00     0.074 A 
ATOM     34  C   UNL A   1      42.228  25.990  27.907  1.00  0.00     0.049 A 
ATOM     35  N   UNL A   1      45.236  27.257  27.783  1.00  0.00    -0.248 NA
ATOM     36  C   UNL A   1      44.637  27.168  25.544  1.00  0.00     0.031 C 
ATOM     37  C   UNL A   1      41.019  25.167  28.014  1.00  0.00     0.029 A 
ATOM     38  N   UNL A   1      41.902  27.097  28.634  1.00  0.00    -0.354 N 
ATOM     39  C   UNL A   1      45.979  28.197  27.073  1.00  0.00     0.074 A 
ATOM     40  C   UNL A   1      45.681  27.989  25.680  1.00  0.00     0.031 C 
ATOM     41  C   UNL A   1      40.017  25.904  28.546  1.00  0.00     0.029 A 
ATOM     42  C   UNL A   1      40.553  27.189  28.961  1.00  0.00     0.049 A 
ATOM     43  H   UNL A   1      42.564  27.774  28.904  1.00  0.00     0.167 HD
ATOM     44  C   UNL A   1      46.604  29.233  27.696  1.00  0.00     0.037 A 
ATOM     45  C   UNL A   1      39.920  28.267  29.491  1.00  0.00     0.037 A 
ATOM     46  C   UNL A   1      46.660  29.035  29.119  1.00  0.00     0.049 A 
ATOM     47  C   UNL A   1      40.958  29.098  30.146  1.00  0.00     0.074 A 
ATOM     48  C   UNL A   1      47.364  28.230  29.986  1.00  0.00     0.029 A 
ATOM     49  N   UNL A   1      45.576  29.519  29.802  1.00  0.00    -0.354 N 
ATOM     50  N   UNL A   1      41.634  28.721  31.197  1.00  0.00    -0.248 NA
ATOM     51  C   UNL A   1      41.515  30.231  29.421  1.00  0.00     0.031 C 
ATOM     52  C   UNL A   1      46.501  28.019  31.101  1.00  0.00     0.029 A 
ATOM     53  C   UNL A   1      45.323  28.739  30.896  1.00  0.00     0.049 A 
ATOM     54  H   UNL A   1      45.055  30.313  29.542  1.00  0.00     0.167 HD
ATOM     55  C   UNL A   1      42.891  29.270  31.018  1.00  0.00     0.074 A 
ATOM     56  C   UNL A   1      42.710  30.309  30.011  1.00  0.00     0.031 C 
ATOM     57  C   UNL A   1      44.003  28.631  31.484  1.00  0.00     0.037 A 
BRANCH  44  58
ATOM     58  C   UNL A   1      46.766  30.607  27.092  1.00  0.00     0.058 A 
ATOM     59  C   UNL A   1      48.029  31.231  27.072  1.00  0.00     0.135 A 
ATOM     60  C   UNL A   1      45.666  31.445  26.799  1.00  0.00     0.135 A 
ATOM     61  F   UNL A   1      49.137  30.536  27.379  1.00  0.00    -0.206 F 
ATOM     62  C   UNL A   1      48.185  32.593  26.798  1.00  0.00     0.059 A 
ATOM     63  C   UNL A   1      45.802  32.790  26.474  1.00  0.00     0.059 A 
ATOM     64  F   UNL A   1      44.402  31.014  26.912  1.00  0.00    -0.206 F 
ATOM     65  C   UNL A   1      47.063  33.363  26.502  1.00  0.00     0.060 A 
BRANCH  65  66
ATOM     66  S   UNL A   1      47.255  35.130  26.195  1.00  0.00     0.124 S 
ATOM     67  O   UNL A   1      48.319  35.143  25.198  1.00  0.00    -0.237 OA
ATOM     68  O   UNL A   1      45.926  35.498  25.717  1.00  0.00    -0.237 OA
ATOM     69  O   UNL A   1      47.612  35.663  27.506  1.00  0.00    -0.744 OA
ENDBRANCH  65  66
ENDBRANCH  44  58
BRANCH  45  70
ATOM     70  C   UNL A   1      38.576  28.812  29.159  1.00  0.00     0.058 A 
ATOM     71  C   UNL A   1      37.622  29.045  30.169  1.00  0.00     0.135 A 
ATOM     72  C   UNL A   1      38.321  29.419  27.914  1.00  0.00     0.135 A 
ATOM     73  F   UNL A   1      37.788  28.512  31.390  1.00  0.00    -0.206 F 
ATOM     74  C   UNL A   1      36.527  29.895  29.982  1.00  0.00     0.059 A 
ATOM     75  C   UNL A   1      37.233  30.266  27.701  1.00  0.00     0.059 A 
ATOM     76  F   UNL A   1      39.184  29.290  26.895  1.00  0.00    -0.206 F 
ATOM     77  C   UNL A   1      36.358  30.527  28.751  1.00  0.00     0.060 A 
BRANCH  77  78
ATOM     78  S   UNL A   1      35.070  31.784  28.570  1.00  0.00     0.124 S 
ATOM     79  O   UNL A   1      33.997  31.030  27.932  1.00  0.00    -0.237 OA
ATOM     80  O   UNL A   1      34.834  32.182  29.954  1.00  0.00    -0.237 OA
ATOM     81  O   UNL A   1      35.702  32.800  27.732  1.00  0.00    -0.744 OA
ENDBRANCH  77  78
ENDBRANCH  45  70
BRANCH  57  82
ATOM     82  C   UNL A   1      43.814  27.638  32.598  1.00  0.00     0.058 A 
ATOM     83  C   UNL A   1      43.559  27.960  33.942  1.00  0.00     0.135 A 
ATOM     84  C   UNL A   1      43.815  26.278  32.250  1.00  0.00     0.135 A 
ATOM     85  F   UNL A   1      43.456  29.237  34.339  1.00  0.00    -0.206 F 
ATOM     86  C   UNL A   1      43.358  26.968  34.905  1.00  0.00     0.059 A 
ATOM     87  C   UNL A   1      43.584  25.276  33.185  1.00  0.00     0.059 A 
ATOM     88  F   UNL A   1      44.003  25.910  30.973  1.00  0.00    -0.206 F 
ATOM     89  C   UNL A   1      43.373  25.627  34.515  1.00  0.00     0.060 A 
BRANCH  89  90
ATOM     90  S   UNL A   1      43.070  24.343  35.749  1.00  0.00     0.124 S 
ATOM     91  O   UNL A   1      41.619  24.392  35.897  1.00  0.00    -0.237 OA
ATOM     92  O   UNL A   1      43.601  23.149  35.098  1.00  0.00    -0.237 OA
ATOM     93  O   UNL A   1      43.829  24.799  36.912  1.00  0.00    -0.744 OA
ENDBRANCH  89  90
ENDBRANCH  57  82
ENDBRANCH  31  32
ENDBRANCH  23  26
ENDBRANCH  21  22
ENDBRANCH   1  21
TORSDOF 15
ENDMDL
MODEL 2
REMARK VINA RESULT:     -12.2      2.509      3.535
REMARK SMILES Cc1ccn2c([C@H]3C[C@@H]3C(=O)NCCCCNC(=O)c3ccc(-c4c5nc(c(-c6c(F)cc(S(=O)(=O)[O-])cc6F)c6ccc([nH]6)c(-c6c(F)cc(S(=O)(=O)[O-])cc6F)c6nc(c(-c7c(F)cc(S(=O)(=O)[O-])cc7F)c7ccc4[nH]7)C=C6)C=C5)cc3)nnc2c1
REMARK SMILES IDX 15 1 14 2 13 3 12 4 10 5 11 6 9 8 7 9 8 10 6 11 1 12 2 13
REMARK SMILES IDX 3 14 89 15 4 16 88 17 5 18 87 19 86 20 16 21 17 22 18 23
REMARK SMILES IDX 19 25 20 26 21 27 85 28 22 29 84 30 23 31 24 32 25 33 78 34
REMARK SMILES IDX 26 35 83 36 77 37 79 38 27 39 82 40 76 41 75 42 28 44 62 45
REMARK SMILES IDX 41 46 61 47 42 48 45 49 60 50 80 51 43 52 44 53 59 55 81 56
REMARK SMILES IDX 46 57 29 58 30 59 39 60 31 61 32 62 38 63 40 64 33 65 34 66
REMARK SMILES IDX 35 67 36 68 37 69 63 70 64 71 73 72 65 73 66 74 72 75 74 76
REMARK SMILES IDX 67 77 68 78 69 79 70 80 71 81 47 82 48 83 57 84 49 85 50 86
REMARK SMILES IDX 56 87 58 88 51 89 52 90 53 91 54 92 55 93
REMARK H PARENT 12 7 17 24 79 43 45 54
REMARK Flexibility Score: inf
ROOT
ATOM      1  C   UNL A   1      37.070  21.992  24.528  1.00  0.00     0.023 C 
ENDROOT
BRANCH   1   2
ATOM      2  C   UNL A   1      36.213  20.855  25.102  1.00  0.00     0.023 C 
BRANCH   2   3
ATOM      3  C   UNL A   1      34.993  21.334  25.883  1.00  0.00     0.116 C 
BRANCH   3   4
ATOM      4  N   UNL A   1      33.915  20.362  25.862  1.00  0.00    -0.356 N 
ATOM      5  C   UNL A   1      32.950  20.218  24.895  1.00  0.00     0.223 C 
ATOM      6  O   UNL A   1      32.087  19.365  24.967  1.00  0.00    -0.275 OA
ATOM      7  H   UNL A   1      33.870  19.739  26.624  1.00  0.00     0.163 HD
BRANCH   5   8
ATOM      8  C   UNL A   1      33.033  21.131  23.737  1.00  0.00     0.090 C 
ATOM      9  C   UNL A   1      32.028  22.262  23.625  1.00  0.00     0.071 C 
ATOM     10  C   UNL A   1      32.030  21.157  22.612  1.00  0.00     0.026 C 
BRANCH   9  11
ATOM     11  C   UNL A   1      32.595  23.639  23.352  1.00  0.00     0.141 A 
ATOM     12  C   UNL A   1      33.831  28.256  26.225  1.00  0.00     0.044 C 
ATOM     13  C   UNL A   1      33.518  26.991  25.486  1.00  0.00    -0.046 A 
ATOM     14  C   UNL A   1      32.726  25.980  26.191  1.00  0.00     0.022 A 
ATOM     15  C   UNL A   1      33.934  26.780  24.218  1.00  0.00     0.053 A 
ATOM     16  C   UNL A   1      32.430  24.823  25.571  1.00  0.00     0.095 A 
ATOM     17  C   UNL A   1      33.540  25.600  23.536  1.00  0.00     0.161 A 
ATOM     18  N   UNL A   1      32.842  24.643  24.255  1.00  0.00    -0.286 N 
ATOM     19  N   UNL A   1      33.629  25.232  22.277  1.00  0.00    -0.130 NA
ATOM     20  N   UNL A   1      32.982  24.027  22.153  1.00  0.00    -0.134 NA
ENDBRANCH   9  11
ENDBRANCH   5   8
ENDBRANCH   3   4
ENDBRANCH   2   3
ENDBRANCH   1   2
BRANCH   1  21
ATOM     21  C   UNL A   1      37.916  22.727  25.572  1.00  0.00     0.116 C 
BRANCH  21  22
ATOM     22  N   UNL A   1      39.185  22.082  25.842  1.00  0.00    -0.352 N 
ATOM     23  C   UNL A   1      40.298  22.417  26.561  1.00  0.00     0.251 C 
ATOM     24  H   UNL A   1      39.263  21.202  25.408  1.00  0.00     0.163 HD
ATOM     25  O   UNL A   1      41.121  21.512  26.730  1.00  0.00    -0.269 OA
BRANCH  23  26
ATOM     26  C   UNL A   1      40.608  23.776  27.077  1.00  0.00     0.039 A 
ATOM     27  C   UNL A   1      41.737  24.127  27.818  1.00  0.00     0.014 A 
ATOM     28  C   UNL A   1      39.613  24.752  26.866  1.00  0.00     0.014 A 
ATOM     29  C   UNL A   1      41.820  25.376  28.420  1.00  0.00     0.010 A 
ATOM     30  C   UNL A   1      39.696  26.005  27.457  1.00  0.00     0.010 A 
ATOM     31  C   UNL A   1      40.775  26.292  28.283  1.00  0.00    -0.014 A 
BRANCH  31  32
ATOM     32  C   UNL A   1      40.904  27.569  28.978  1.00  0.00     0.031 A 
ATOM     33  C   UNL A   1      42.002  28.431  28.460  1.00  0.00     0.074 A 
ATOM     34  C   UNL A   1      40.067  27.964  29.961  1.00  0.00     0.049 A 
ATOM     35  N   UNL A   1      43.102  28.760  29.053  1.00  0.00    -0.248 NA
ATOM     36  C   UNL A   1      41.941  28.844  27.048  1.00  0.00     0.031 C 
ATOM     37  C   UNL A   1      38.813  27.331  30.382  1.00  0.00     0.029 A 
ATOM     38  N   UNL A   1      40.117  29.081  30.742  1.00  0.00    -0.354 N 
ATOM     39  C   UNL A   1      43.776  29.600  28.169  1.00  0.00     0.074 A 
ATOM     40  C   UNL A   1      43.100  29.490  26.904  1.00  0.00     0.031 C 
ATOM     41  C   UNL A   1      38.111  28.194  31.153  1.00  0.00     0.029 A 
ATOM     42  C   UNL A   1      38.930  29.366  31.408  1.00  0.00     0.049 A 
ATOM     43  H   UNL A   1      40.924  29.638  30.827  1.00  0.00     0.167 HD
ATOM     44  C   UNL A   1      44.695  30.506  28.604  1.00  0.00     0.037 A 
ATOM     45  C   UNL A   1      38.632  30.508  32.078  1.00  0.00     0.037 A 
ATOM     46  C   UNL A   1      45.083  30.251  29.964  1.00  0.00     0.049 A 
ATOM     47  C   UNL A   1      39.920  31.147  32.437  1.00  0.00     0.074 A 
ATOM     48  C   UNL A   1      45.851  29.317  30.623  1.00  0.00     0.029 A 
ATOM     49  N   UNL A   1      44.301  30.870  30.903  1.00  0.00    -0.354 N 
ATOM     50  N   UNL A   1      40.776  30.633  33.278  1.00  0.00    -0.248 NA
ATOM     51  C   UNL A   1      40.442  32.207  31.587  1.00  0.00     0.031 C 
ATOM     52  C   UNL A   1      45.282  29.201  31.925  1.00  0.00     0.029 A 
ATOM     53  C   UNL A   1      44.219  30.098  32.029  1.00  0.00     0.049 A 
ATOM     54  H   UNL A   1      43.862  31.743  30.783  1.00  0.00     0.167 HD
ATOM     55  C   UNL A   1      42.015  30.990  32.776  1.00  0.00     0.074 A 
ATOM     56  C   UNL A   1      41.745  32.080  31.846  1.00  0.00     0.031 C 
ATOM     57  C   UNL A   1      43.094  30.173  32.941  1.00  0.00     0.037 A 
BRANCH  44  58
ATOM     58  C   UNL A   1      44.908  31.860  27.971  1.00  0.00     0.058 A 
ATOM     59  C   UNL A   1      46.138  32.172  27.359  1.00  0.00     0.135 A 
ATOM     60  C   UNL A   1      44.048  32.956  28.207  1.00  0.00     0.135 A 
ATOM     61  F   UNL A   1      47.049  31.211  27.131  1.00  0.00    -0.206 F 
ATOM     62  C   UNL A   1      46.494  33.481  27.023  1.00  0.00     0.059 A 
ATOM     63  C   UNL A   1      44.359  34.258  27.834  1.00  0.00     0.059 A 
ATOM     64  F   UNL A   1      42.907  32.821  28.898  1.00  0.00    -0.206 F 
ATOM     65  C   UNL A   1      45.596  34.517  27.266  1.00  0.00     0.060 A 
BRANCH  65  66
ATOM     66  S   UNL A   1      46.069  36.213  26.877  1.00  0.00     0.124 S 
ATOM     67  O   UNL A   1      46.978  36.526  27.975  1.00  0.00    -0.237 OA
ATOM     68  O   UNL A   1      46.684  36.059  25.563  1.00  0.00    -0.237 OA
ATOM     69  O   UNL A   1      44.797  36.929  26.887  1.00  0.00    -0.744 OA
ENDBRANCH  65  66
ENDBRANCH  44  58
BRANCH  45  70
ATOM     70  C   UNL A   1      37.350  31.264  32.104  1.00  0.00     0.058 A 
ATOM     71  C   UNL A   1      36.842  31.783  33.311  1.00  0.00     0.135 A 
ATOM     72  C   UNL A   1      36.778  31.773  30.922  1.00  0.00     0.135 A 
ATOM     73  F   UNL A   1      37.335  31.361  34.487  1.00  0.00    -0.206 F 
ATOM     74  C   UNL A   1      35.885  32.803  33.343  1.00  0.00     0.059 A 
ATOM     75  C   UNL A   1      35.818  32.785  30.929  1.00  0.00     0.059 A 
ATOM     76  F   UNL A   1      37.213  31.372  29.718  1.00  0.00    -0.206 F 
ATOM     77  C   UNL A   1      35.402  33.321  32.143  1.00  0.00     0.060 A 
BRANCH  77  78
ATOM     78  S   UNL A   1      34.328  34.776  32.175  1.00  0.00     0.124 S 
ATOM     79  O   UNL A   1      35.134  35.731  32.926  1.00  0.00    -0.237 OA
ATOM     80  O   UNL A   1      34.159  35.063  30.754  1.00  0.00    -0.237 OA
ATOM     81  O   UNL A   1      33.128  34.298  32.858  1.00  0.00    -0.744 OA
ENDBRANCH  77  78
ENDBRANCH  45  70
BRANCH  57  82
ATOM     82  C   UNL A   1      43.045  29.181  34.070  1.00  0.00     0.058 A 
ATOM     83  C   UNL A   1      43.393  29.449  35.405  1.00  0.00     0.135 A 
ATOM     84  C   UNL A   1      42.535  27.906  33.781  1.00  0.00     0.135 A 
ATOM     85  F   UNL A   1      43.806  30.669  35.780  1.00  0.00    -0.206 F 
ATOM     86  C   UNL A   1      43.280  28.474  36.399  1.00  0.00     0.059 A 
ATOM     87  C   UNL A   1      42.381  26.931  34.760  1.00  0.00     0.059 A 
ATOM     88  F   UNL A   1      42.139  27.606  32.534  1.00  0.00    -0.206 F 
ATOM     89  C   UNL A   1      42.772  27.217  36.065  1.00  0.00     0.060 A 
BRANCH  89  90
ATOM     90  S   UNL A   1      42.583  25.967  37.356  1.00  0.00     0.124 S 
ATOM     91  O   UNL A   1      41.132  25.869  37.481  1.00  0.00    -0.237 OA
ATOM     92  O   UNL A   1      43.249  24.807  36.771  1.00  0.00    -0.237 OA
ATOM     93  O   UNL A   1      43.267  26.554  38.505  1.00  0.00    -0.744 OA
ENDBRANCH  89  90
ENDBRANCH  57  82
ENDBRANCH  31  32
ENDBRANCH  23  26
ENDBRANCH  21  22
ENDBRANCH   1  21
TORSDOF 15
ENDMDL
MODEL 3
REMARK VINA RESULT:     -12.2      2.812      9.602
REMARK SMILES Cc1ccn2c([C@H]3C[C@@H]3C(=O)NCCCCNC(=O)c3ccc(-c4c5nc(c(-c6c(F)cc(S(=O)(=O)[O-])cc6F)c6ccc([nH]6)c(-c6c(F)cc(S(=O)(=O)[O-])cc6F)c6nc(c(-c7c(F)cc(S(=O)(=O)[O-])cc7F)c7ccc4[nH]7)C=C6)C=C5)cc3)nnc2c1
REMARK SMILES IDX 15 1 14 2 13 3 12 4 10 5 11 6 9 8 7 9 8 10 6 11 1 12 2 13
REMARK SMILES IDX 3 14 89 15 4 16 88 17 5 18 87 19 86 20 16 21 17 22 18 23
REMARK SMILES IDX 19 25 20 26 21 27 85 28 22 29 84 30 23 31 24 32 25 33 78 34
REMARK SMILES IDX 26 35 83 36 77 37 79 38 27 39 82 40 76 41 75 42 28 44 62 45
REMARK SMILES IDX 41 46 61 47 42 48 45 49 60 50 80 51 43 52 44 53 59 55 81 56
REMARK SMILES IDX 46 57 29 58 30 59 39 60 31 61 32 62 38 63 40 64 33 65 34 66
REMARK SMILES IDX 35 67 36 68 37 69 63 70 64 71 73 72 65 73 66 74 72 75 74 76
REMARK SMILES IDX 67 77 68 78 69 79 70 80 71 81 47 82 48 83 57 84 49 85 50 86
REMARK SMILES IDX 56 87 58 88 51 89 52 90 53 91 54 92 55 93
REMARK H PARENT 12 7 17 24 79 43 45 54
REMARK Flexibility Score: inf
ROOT
ATOM      1  C   UNL A   1      32.220  29.979  26.931  1.00  0.00     0.023 C 
ENDROOT
BRANCH   1   2
ATOM      2  C   UNL A   1      31.570  30.206  25.558  1.00  0.00     0.023 C 
BRANCH   2   3
ATOM      3  C   UNL A   1      32.153  29.338  24.447  1.00  0.00     0.116 C 
BRANCH   3   4
ATOM      4  N   UNL A   1      31.327  29.352  23.253  1.00  0.00    -0.356 N 
ATOM      5  C   UNL A   1      30.279  28.513  22.964  1.00  0.00     0.223 C 
ATOM      6  O   UNL A   1      29.642  28.609  21.932  1.00  0.00    -0.275 OA
ATOM      7  H   UNL A   1      31.542  30.036  22.578  1.00  0.00     0.163 HD
BRANCH   5   8
ATOM      8  C   UNL A   1      29.934  27.506  23.987  1.00  0.00     0.090 C 
ATOM      9  C   UNL A   1      30.216  26.045  23.698  1.00  0.00     0.071 C 
ATOM     10  C   UNL A   1      28.803  26.520  23.851  1.00  0.00     0.026 C 
BRANCH   9  11
ATOM     11  C   UNL A   1      30.955  25.277  24.774  1.00  0.00     0.141 A 
ATOM     12  C   UNL A   1      36.170  23.612  25.837  1.00  0.00     0.044 C 
ATOM     13  C   UNL A   1      34.785  24.100  25.540  1.00  0.00    -0.046 A 
ATOM     14  C   UNL A   1      34.530  24.615  24.192  1.00  0.00     0.022 A 
ATOM     15  C   UNL A   1      33.798  24.065  26.462  1.00  0.00     0.053 A 
ATOM     16  C   UNL A   1      33.303  25.075  23.882  1.00  0.00     0.095 A 
ATOM     17  C   UNL A   1      32.484  24.462  26.103  1.00  0.00     0.161 A 
ATOM     18  N   UNL A   1      32.297  24.998  24.839  1.00  0.00    -0.286 N 
ATOM     19  N   UNL A   1      31.327  24.352  26.715  1.00  0.00    -0.130 NA
ATOM     20  N   UNL A   1      30.360  24.810  25.854  1.00  0.00    -0.134 NA
ENDBRANCH   9  11
ENDBRANCH   5   8
ENDBRANCH   3   4
ENDBRANCH   2   3
ENDBRANCH   1   2
BRANCH   1  21
ATOM     21  C   UNL A   1      33.635  30.551  27.056  1.00  0.00     0.116 C 
BRANCH  21  22
ATOM     22  N   UNL A   1      33.848  31.294  28.282  1.00  0.00    -0.352 N 
ATOM     23  C   UNL A   1      34.943  31.604  29.039  1.00  0.00     0.251 C 
ATOM     24  H   UNL A   1      33.013  31.659  28.655  1.00  0.00     0.163 HD
ATOM     25  O   UNL A   1      34.763  32.441  29.928  1.00  0.00    -0.269 OA
BRANCH  23  26
ATOM     26  C   UNL A   1      36.281  30.966  28.912  1.00  0.00     0.039 A 
ATOM     27  C   UNL A   1      36.519  29.639  28.554  1.00  0.00     0.014 A 
ATOM     28  C   UNL A   1      37.378  31.770  29.284  1.00  0.00     0.014 A 
ATOM     29  C   UNL A   1      37.794  29.101  28.668  1.00  0.00     0.010 A 
ATOM     30  C   UNL A   1      38.656  31.238  29.389  1.00  0.00     0.010 A 
ATOM     31  C   UNL A   1      38.849  29.886  29.137  1.00  0.00    -0.014 A 
BRANCH  31  32
ATOM     32  C   UNL A   1      40.154  29.248  29.276  1.00  0.00     0.031 A 
ATOM     33  C   UNL A   1      40.582  29.050  30.689  1.00  0.00     0.074 A 
ATOM     34  C   UNL A   1      40.884  28.820  28.224  1.00  0.00     0.049 A 
ATOM     35  N   UNL A   1      41.549  29.635  31.317  1.00  0.00    -0.248 NA
ATOM     36  C   UNL A   1      39.730  28.217  31.553  1.00  0.00     0.031 C 
ATOM     37  C   UNL A   1      40.468  28.725  26.821  1.00  0.00     0.029 A 
ATOM     38  N   UNL A   1      42.138  28.285  28.203  1.00  0.00    -0.354 N 
ATOM     39  C   UNL A   1      41.561  29.085  32.596  1.00  0.00     0.074 A 
ATOM     40  C   UNL A   1      40.336  28.344  32.735  1.00  0.00     0.031 C 
ATOM     41  C   UNL A   1      41.345  27.949  26.143  1.00  0.00     0.029 A 
ATOM     42  C   UNL A   1      42.459  27.628  27.019  1.00  0.00     0.049 A 
ATOM     43  H   UNL A   1      42.763  28.358  28.960  1.00  0.00     0.167 HD
ATOM     44  C   UNL A   1      42.687  29.082  33.362  1.00  0.00     0.037 A 
ATOM     45  C   UNL A   1      43.542  26.840  26.799  1.00  0.00     0.037 A 
ATOM     46  C   UNL A   1      43.688  29.965  32.830  1.00  0.00     0.049 A 
ATOM     47  C   UNL A   1      44.564  27.220  27.802  1.00  0.00     0.074 A 
ATOM     48  C   UNL A   1      43.876  31.327  32.750  1.00  0.00     0.029 A 
ATOM     49  N   UNL A   1      44.529  29.384  31.918  1.00  0.00    -0.354 N 
ATOM     50  N   UNL A   1      45.159  28.381  27.829  1.00  0.00    -0.248 NA
ATOM     51  C   UNL A   1      44.684  26.431  29.020  1.00  0.00     0.031 C 
ATOM     52  C   UNL A   1      44.631  31.542  31.560  1.00  0.00     0.029 A 
ATOM     53  C   UNL A   1      44.916  30.304  30.982  1.00  0.00     0.049 A 
ATOM     54  H   UNL A   1      44.814  28.442  31.934  1.00  0.00     0.167 HD
ATOM     55  C   UNL A   1      45.349  28.645  29.174  1.00  0.00     0.074 A 
ATOM     56  C   UNL A   1      45.193  27.356  29.837  1.00  0.00     0.031 C 
ATOM     57  C   UNL A   1      45.320  29.926  29.643  1.00  0.00     0.037 A 
BRANCH  44  58
ATOM     58  C   UNL A   1      43.052  27.974  34.320  1.00  0.00     0.058 A 
ATOM     59  C   UNL A   1      43.239  28.251  35.689  1.00  0.00     0.135 A 
ATOM     60  C   UNL A   1      43.508  26.709  33.884  1.00  0.00     0.135 A 
ATOM     61  F   UNL A   1      42.882  29.441  36.198  1.00  0.00    -0.206 F 
ATOM     62  C   UNL A   1      43.852  27.343  36.557  1.00  0.00     0.059 A 
ATOM     63  C   UNL A   1      44.074  25.771  34.740  1.00  0.00     0.059 A 
ATOM     64  F   UNL A   1      43.512  26.369  32.588  1.00  0.00    -0.206 F 
ATOM     65  C   UNL A   1      44.267  26.106  36.071  1.00  0.00     0.060 A 
BRANCH  65  66
ATOM     66  S   UNL A   1      45.101  24.951  37.177  1.00  0.00     0.124 S 
ATOM     67  O   UNL A   1      44.762  23.667  36.574  1.00  0.00    -0.237 OA
ATOM     68  O   UNL A   1      46.494  25.368  37.051  1.00  0.00    -0.237 OA
ATOM     69  O   UNL A   1      44.486  25.222  38.472  1.00  0.00    -0.744 OA
ENDBRANCH  65  66
ENDBRANCH  44  58
BRANCH  45  70
ATOM     70  C   UNL A   1      43.620  25.556  26.049  1.00  0.00     0.058 A 
ATOM     71  C   UNL A   1      44.715  25.278  25.207  1.00  0.00     0.135 A 
ATOM     72  C   UNL A   1      42.809  24.458  26.395  1.00  0.00     0.135 A 
ATOM     73  F   UNL A   1      45.546  26.264  24.834  1.00  0.00    -0.206 F 
ATOM     74  C   UNL A   1      45.034  23.978  24.801  1.00  0.00     0.059 A 
ATOM     75  C   UNL A   1      43.103  23.154  25.997  1.00  0.00     0.059 A 
ATOM     76  F   UNL A   1      41.762  24.607  27.220  1.00  0.00    -0.206 F 
ATOM     77  C   UNL A   1      44.238  22.916  25.228  1.00  0.00     0.060 A 
BRANCH  77  78
ATOM     78  S   UNL A   1      44.764  21.220  24.882  1.00  0.00     0.124 S 
ATOM     79  O   UNL A   1      44.595  21.140  23.436  1.00  0.00    -0.237 OA
ATOM     80  O   UNL A   1      46.142  21.223  25.364  1.00  0.00    -0.237 OA
ATOM     81  O   UNL A   1      43.835  20.410  25.666  1.00  0.00    -0.744 OA
ENDBRANCH  77  78
ENDBRANCH  45  70
BRANCH  57  82
ATOM     82  C   UNL A   1      45.591  31.030  28.658  1.00  0.00     0.058 A 
ATOM     83  C   UNL A   1      44.633  31.628  27.822  1.00  0.00     0.135 A 
ATOM     84  C   UNL A   1      46.890  31.559  28.630  1.00  0.00     0.135 A 
ATOM     85  F   UNL A   1      43.349  31.239  27.852  1.00  0.00    -0.206 F 
ATOM     86  C   UNL A   1      44.967  32.677  26.962  1.00  0.00     0.059 A 
ATOM     87  C   UNL A   1      47.238  32.625  27.808  1.00  0.00     0.059 A 
ATOM     88  F   UNL A   1      47.837  31.062  29.442  1.00  0.00    -0.206 F 
ATOM     89  C   UNL A   1      46.274  33.169  26.963  1.00  0.00     0.060 A 
BRANCH  89  90
ATOM     90  S   UNL A   1      46.700  34.554  25.886  1.00  0.00     0.124 S 
ATOM     91  O   UNL A   1      48.055  34.215  25.466  1.00  0.00    -0.237 OA
ATOM     92  O   UNL A   1      45.676  34.473  24.848  1.00  0.00    -0.237 OA
ATOM     93  O   UNL A   1      46.594  35.717  26.764  1.00  0.00    -0.744 OA
ENDBRANCH  89  90
ENDBRANCH  57  82
ENDBRANCH  31  32
ENDBRANCH  23  26
ENDBRANCH  21  22
ENDBRANCH   1  21
TORSDOF 15
ENDMDL
