MODEL 1
REMARK VINA RESULT:     -12.2      0.000      0.000
REMARK SMILES Cc1nn(Cc2ccc(Cl)cc2Cl)c(C)c1NC(=O)c1c(C(=O)NCCCCNC(=O)c2ccc(-c3c4nc(c(-c5c(F)cc(S(=O)(=O)[O-])cc5F)c5ccc([nH]5)c(-c5c(F)cc(S(=O)(=O)[O-])cc5F)c5nc(c(-c6c(F)cc(S(=O)(=O)[O-])cc6F)c6ccc3[nH]6)C=C5)C=C4)cc2)cnn1C
REMARK SMILES IDX 26 1 25 2 24 3 22 4 23 5 21 7 20 8 100 9 98 10 99 11 101 12
REMARK SMILES IDX 18 13 17 14 19 16 16 17 1 18 2 19 3 20 4 21 14 22 15 23 5 24
REMARK SMILES IDX 6 25 7 26 12 27 8 28 11 29 13 30 9 31 10 32 27 33 28 34
REMARK SMILES IDX 29 35 30 36 31 38 32 39 33 40 97 41 34 42 96 43 35 44 36 45
REMARK SMILES IDX 37 46 90 47 38 48 95 49 89 50 91 51 39 52 94 53 88 54 87 55
REMARK SMILES IDX 40 57 74 58 53 59 73 60 54 61 57 62 72 63 92 64 55 65 56 66
REMARK SMILES IDX 71 68 93 69 58 70 41 71 42 72 51 73 43 74 44 75 50 76 52 77
REMARK SMILES IDX 45 78 46 79 47 80 48 81 49 82 75 83 76 84 85 85 77 86 78 87
REMARK SMILES IDX 84 88 86 89 79 90 80 91 81 92 82 93 83 94 59 95 60 96 69 97
REMARK SMILES IDX 61 98 62 99 68 100 70 101 63 102 64 103 65 104 66 105 67 106
REMARK H PARENT 24 6 17 15 29 37 91 56 57 67
REMARK Flexibility Score: inf
ROOT
ATOM      1  C   UNL A   1      39.371  21.016  25.787  1.00  0.00     0.023 C 
ENDROOT
BRANCH   1   2
ATOM      2  C   UNL A   1      38.123  20.468  25.076  1.00  0.00     0.116 C 
BRANCH   2   3
ATOM      3  N   UNL A   1      37.535  21.293  24.030  1.00  0.00    -0.352 N 
ATOM      4  C   UNL A   1      36.640  22.351  24.056  1.00  0.00     0.255 C 
ATOM      5  O   UNL A   1      36.477  22.957  22.998  1.00  0.00    -0.269 OA
ATOM      6  H   UNL A   1      37.831  21.050  23.123  1.00  0.00     0.163 HD
BRANCH   4   7
ATOM      7  C   UNL A   1      35.873  22.684  25.248  1.00  0.00     0.090 A 
ATOM      8  C   UNL A   1      34.703  22.049  25.695  1.00  0.00     0.138 A 
ATOM      9  N   UNL A   1      34.379  22.674  26.880  1.00  0.00    -0.262 N 
ATOM     10  C   UNL A   1      36.042  23.743  26.170  1.00  0.00     0.149 A 
ATOM     11  N   UNL A   1      35.209  23.680  27.206  1.00  0.00    -0.180 NA
ATOM     12  C   UNL A   1      33.403  22.264  27.866  1.00  0.00     0.174 C 
BRANCH   8  13
ATOM     13  C   UNL A   1      33.871  21.011  25.121  1.00  0.00     0.274 C 
ATOM     14  N   UNL A   1      32.615  21.248  24.618  1.00  0.00    -0.317 N 
ATOM     15  H   UNL A   1      32.075  20.435  24.487  1.00  0.00     0.170 HD
ATOM     16  O   UNL A   1      34.271  19.846  25.049  1.00  0.00    -0.267 OA
BRANCH  14  17
ATOM     17  C   UNL A   1      31.969  22.412  24.262  1.00  0.00     0.085 A 
ATOM     18  C   UNL A   1      30.208  22.548  26.195  1.00  0.00     0.071 C 
ATOM     19  C   UNL A   1      30.923  23.047  24.994  1.00  0.00     0.083 A 
ATOM     20  N   UNL A   1      30.605  24.239  24.468  1.00  0.00    -0.175 NA
ATOM     21  N   UNL A   1      31.446  24.349  23.422  1.00  0.00    -0.263 N 
ATOM     22  C   UNL A   1      32.076  23.166  23.115  1.00  0.00     0.060 A 
ATOM     23  C   UNL A   1      32.687  22.924  21.790  1.00  0.00     0.069 C 
BRANCH  21  24
ATOM     24  C   UNL A   1      31.861  25.671  22.963  1.00  0.00     0.181 C 
BRANCH  24  25
ATOM     25  C   UNL A   1      32.407  26.554  24.050  1.00  0.00    -0.008 A 
ATOM     26  C   UNL A   1      33.583  26.137  24.697  1.00  0.00     0.009 A 
ATOM     27  C   UNL A   1      31.824  27.772  24.445  1.00  0.00     0.047 A 
ATOM     28  C   UNL A   1      34.137  26.891  25.730  1.00  0.00     0.021 A 
ATOM     29  C   UNL A   1      32.365  28.512  25.498  1.00  0.00     0.041 A 
ATOM     30  Cl  UNL A   1      30.452  28.476  23.669  1.00  0.00    -0.084 Cl
ATOM     31  C   UNL A   1      33.513  28.065  26.139  1.00  0.00     0.042 A 
ATOM     32  Cl  UNL A   1      34.165  28.975  27.443  1.00  0.00    -0.084 Cl
ENDBRANCH  24  25
ENDBRANCH  21  24
ENDBRANCH  14  17
ENDBRANCH   8  13
ENDBRANCH   4   7
ENDBRANCH   2   3
ENDBRANCH   1   2
BRANCH   1  33
ATOM     33  C   UNL A   1      39.292  22.345  26.548  1.00  0.00     0.023 C 
BRANCH  33  34
ATOM     34  C   UNL A   1      40.542  22.654  27.354  1.00  0.00     0.116 C 
BRANCH  34  35
ATOM     35  N   UNL A   1      41.781  22.524  26.561  1.00  0.00    -0.352 N 
ATOM     36  C   UNL A   1      42.513  23.500  25.881  1.00  0.00     0.251 C 
ATOM     37  H   UNL A   1      42.146  21.612  26.501  1.00  0.00     0.163 HD
ATOM     38  O   UNL A   1      43.315  23.209  25.021  1.00  0.00    -0.269 OA
BRANCH  36  39
ATOM     39  C   UNL A   1      42.291  24.902  26.278  1.00  0.00     0.039 A 
ATOM     40  C   UNL A   1      41.248  25.707  25.809  1.00  0.00     0.014 A 
ATOM     41  C   UNL A   1      43.125  25.337  27.284  1.00  0.00     0.014 A 
ATOM     42  C   UNL A   1      41.033  26.933  26.446  1.00  0.00     0.010 A 
ATOM     43  C   UNL A   1      42.638  26.274  28.130  1.00  0.00     0.010 A 
ATOM     44  C   UNL A   1      41.745  27.196  27.620  1.00  0.00    -0.014 A 
BRANCH  44  45
ATOM     45  C   UNL A   1      41.643  28.400  28.425  1.00  0.00     0.031 A 
ATOM     46  C   UNL A   1      42.699  29.407  28.175  1.00  0.00     0.074 A 
ATOM     47  C   UNL A   1      40.473  28.702  29.039  1.00  0.00     0.049 A 
ATOM     48  N   UNL A   1      43.670  29.748  28.954  1.00  0.00    -0.248 NA
ATOM     49  C   UNL A   1      42.785  29.991  26.826  1.00  0.00     0.031 C 
ATOM     50  C   UNL A   1      39.200  27.952  29.040  1.00  0.00     0.029 A 
ATOM     51  N   UNL A   1      40.132  29.833  29.705  1.00  0.00    -0.354 N 
ATOM     52  C   UNL A   1      44.326  30.781  28.293  1.00  0.00     0.074 A 
ATOM     53  C   UNL A   1      43.909  30.704  26.919  1.00  0.00     0.031 C 
ATOM     54  C   UNL A   1      38.195  28.745  29.469  1.00  0.00     0.029 A 
ATOM     55  C   UNL A   1      38.771  29.981  29.956  1.00  0.00     0.049 A 
ATOM     56  H   UNL A   1      40.798  30.500  29.991  1.00  0.00     0.167 HD
ATOM     57  C   UNL A   1      44.928  31.793  28.979  1.00  0.00     0.037 A 
ATOM     58  C   UNL A   1      38.170  31.058  30.519  1.00  0.00     0.037 A 
ATOM     59  C   UNL A   1      45.033  31.479  30.384  1.00  0.00     0.049 A 
ATOM     60  C   UNL A   1      39.242  31.797  31.242  1.00  0.00     0.074 A 
ATOM     61  C   UNL A   1      45.635  30.469  31.112  1.00  0.00     0.029 A 
ATOM     62  N   UNL A   1      44.099  32.037  31.227  1.00  0.00    -0.354 N 
ATOM     63  N   UNL A   1      39.903  31.301  32.256  1.00  0.00    -0.248 NA
ATOM     64  C   UNL A   1      39.914  32.873  30.531  1.00  0.00     0.031 C 
ATOM     65  C   UNL A   1      44.705  30.159  32.150  1.00  0.00     0.029 A 
ATOM     66  C   UNL A   1      43.627  31.040  32.048  1.00  0.00     0.049 A 
ATOM     67  H   UNL A   1      43.818  32.980  31.240  1.00  0.00     0.167 HD
ATOM     68  C   UNL A   1      41.219  31.704  32.065  1.00  0.00     0.074 A 
ATOM     69  C   UNL A   1      41.147  32.735  31.029  1.00  0.00     0.031 C 
ATOM     70  C   UNL A   1      42.268  30.968  32.546  1.00  0.00     0.037 A 
BRANCH  57  71
ATOM     71  C   UNL A   1      45.076  33.204  28.462  1.00  0.00     0.058 A 
ATOM     72  C   UNL A   1      46.364  33.761  28.338  1.00  0.00     0.135 A 
ATOM     73  C   UNL A   1      44.004  34.117  28.328  1.00  0.00     0.135 A 
ATOM     74  F   UNL A   1      47.456  32.987  28.458  1.00  0.00    -0.206 F 
ATOM     75  C   UNL A   1      46.573  35.128  28.159  1.00  0.00     0.059 A 
ATOM     76  C   UNL A   1      44.188  35.473  28.090  1.00  0.00     0.059 A 
ATOM     77  F   UNL A   1      42.729  33.759  28.525  1.00  0.00    -0.206 F 
ATOM     78  C   UNL A   1      45.476  35.978  28.052  1.00  0.00     0.060 A 
BRANCH  78  79
ATOM     79  S   UNL A   1      45.737  37.756  27.938  1.00  0.00     0.124 S 
ATOM     80  O   UNL A   1      46.911  37.929  28.788  1.00  0.00    -0.237 OA
ATOM     81  O   UNL A   1      45.951  37.940  26.506  1.00  0.00    -0.237 OA
ATOM     82  O   UNL A   1      44.492  38.313  28.456  1.00  0.00    -0.744 OA
ENDBRANCH  78  79
ENDBRANCH  57  71
BRANCH  58  83
ATOM     83  C   UNL A   1      36.862  31.662  30.147  1.00  0.00     0.058 A 
ATOM     84  C   UNL A   1      36.017  32.233  31.114  1.00  0.00     0.135 A 
ATOM     85  C   UNL A   1      36.542  31.943  28.801  1.00  0.00     0.135 A 
ATOM     86  F   UNL A   1      36.259  32.032  32.419  1.00  0.00    -0.206 F 
ATOM     87  C   UNL A   1      34.948  33.070  30.771  1.00  0.00     0.059 A 
ATOM     88  C   UNL A   1      35.480  32.769  28.436  1.00  0.00     0.059 A 
ATOM     89  F   UNL A   1      37.313  31.489  27.801  1.00  0.00    -0.206 F 
ATOM     90  C   UNL A   1      34.701  33.351  29.428  1.00  0.00     0.060 A 
BRANCH  90  91
ATOM     91  S   UNL A   1      33.434  34.570  28.993  1.00  0.00     0.124 S 
ATOM     92  O   UNL A   1      32.623  33.832  28.033  1.00  0.00    -0.237 OA
ATOM     93  O   UNL A   1      32.809  34.837  30.284  1.00  0.00    -0.237 OA
ATOM     94  O   UNL A   1      34.206  35.679  28.438  1.00  0.00    -0.744 OA
ENDBRANCH  90  91
ENDBRANCH  58  83
BRANCH  70  95
ATOM     95  C   UNL A   1      41.961  29.835  33.502  1.00  0.00     0.058 A 
ATOM     96  C   UNL A   1      41.773  28.495  33.110  1.00  0.00     0.135 A 
ATOM     97  C   UNL A   1      42.034  30.081  34.880  1.00  0.00     0.135 A 
ATOM     98  F   UNL A   1      41.792  28.149  31.820  1.00  0.00    -0.206 F 
ATOM     99  C   UNL A   1      41.636  27.459  34.036  1.00  0.00     0.059 A 
ATOM    100  C   UNL A   1      41.926  29.059  35.823  1.00  0.00     0.059 A 
ATOM    101  F   UNL A   1      42.276  31.325  35.325  1.00  0.00    -0.206 F 
ATOM    102  C   UNL A   1      41.718  27.749  35.394  1.00  0.00     0.060 A 
BRANCH 102 103
ATOM    103  S   UNL A   1      41.633  26.396  36.588  1.00  0.00     0.124 S 
ATOM    104  O   UNL A   1      42.975  26.405  37.160  1.00  0.00    -0.237 OA
ATOM    105  O   UNL A   1      40.562  26.827  37.483  1.00  0.00    -0.237 OA
ATOM    106  O   UNL A   1      41.313  25.234  35.764  1.00  0.00    -0.744 OA
ENDBRANCH 102 103
ENDBRANCH  70  95
ENDBRANCH  44  45
ENDBRANCH  36  39
ENDBRANCH  34  35
ENDBRANCH  33  34
ENDBRANCH   1  33
TORSDOF 18
ENDMDL
MODEL 2
REMARK VINA RESULT:     -12.1      3.244      9.311
REMARK SMILES Cc1nn(Cc2ccc(Cl)cc2Cl)c(C)c1NC(=O)c1c(C(=O)NCCCCNC(=O)c2ccc(-c3c4nc(c(-c5c(F)cc(S(=O)(=O)[O-])cc5F)c5ccc([nH]5)c(-c5c(F)cc(S(=O)(=O)[O-])cc5F)c5nc(c(-c6c(F)cc(S(=O)(=O)[O-])cc6F)c6ccc3[nH]6)C=C5)C=C4)cc2)cnn1C
REMARK SMILES IDX 26 1 25 2 24 3 22 4 23 5 21 7 20 8 100 9 98 10 99 11 101 12
REMARK SMILES IDX 18 13 17 14 19 16 16 17 1 18 2 19 3 20 4 21 14 22 15 23 5 24
REMARK SMILES IDX 6 25 7 26 12 27 8 28 11 29 13 30 9 31 10 32 27 33 28 34
REMARK SMILES IDX 29 35 30 36 31 38 32 39 33 40 97 41 34 42 96 43 35 44 36 45
REMARK SMILES IDX 37 46 90 47 38 48 95 49 89 50 91 51 39 52 94 53 88 54 87 55
REMARK SMILES IDX 40 57 74 58 53 59 73 60 54 61 57 62 72 63 92 64 55 65 56 66
REMARK SMILES IDX 71 68 93 69 58 70 41 71 42 72 51 73 43 74 44 75 50 76 52 77
REMARK SMILES IDX 45 78 46 79 47 80 48 81 49 82 75 83 76 84 85 85 77 86 78 87
REMARK SMILES IDX 84 88 86 89 79 90 80 91 81 92 82 93 83 94 59 95 60 96 69 97
REMARK SMILES IDX 61 98 62 99 68 100 70 101 63 102 64 103 65 104 66 105 67 106
REMARK H PARENT 24 6 17 15 29 37 91 56 57 67
REMARK Flexibility Score: inf
ROOT
ATOM      1  C   UNL A   1      33.118  30.828  26.952  1.00  0.00     0.023 C 
ENDROOT
BRANCH   1   2
ATOM      2  C   UNL A   1      32.638  29.996  25.752  1.00  0.00     0.116 C 
BRANCH   2   3
ATOM      3  N   UNL A   1      33.560  29.002  25.218  1.00  0.00    -0.352 N 
ATOM      4  C   UNL A   1      33.392  27.925  24.363  1.00  0.00     0.255 C 
ATOM      5  O   UNL A   1      34.419  27.379  23.962  1.00  0.00    -0.269 OA
ATOM      6  H   UNL A   1      34.487  29.118  25.528  1.00  0.00     0.163 HD
BRANCH   4   7
ATOM      7  C   UNL A   1      32.074  27.412  24.015  1.00  0.00     0.090 A 
ATOM      8  C   UNL A   1      31.101  26.933  24.906  1.00  0.00     0.138 A 
ATOM      9  N   UNL A   1      30.014  26.613  24.121  1.00  0.00    -0.262 N 
ATOM     10  C   UNL A   1      31.495  27.186  22.746  1.00  0.00     0.149 A 
ATOM     11  N   UNL A   1      30.222  26.801  22.806  1.00  0.00    -0.180 NA
ATOM     12  C   UNL A   1      28.669  26.294  24.547  1.00  0.00     0.174 C 
BRANCH   8  13
ATOM     13  C   UNL A   1      31.110  26.702  26.336  1.00  0.00     0.274 C 
ATOM     14  N   UNL A   1      31.144  25.447  26.893  1.00  0.00    -0.317 N 
ATOM     15  H   UNL A   1      30.904  25.425  27.848  1.00  0.00     0.170 HD
ATOM     16  O   UNL A   1      31.099  27.645  27.131  1.00  0.00    -0.267 OA
BRANCH  14  17
ATOM     17  C   UNL A   1      31.452  24.211  26.365  1.00  0.00     0.085 A 
ATOM     18  C   UNL A   1      29.384  22.844  27.208  1.00  0.00     0.071 C 
ATOM     19  C   UNL A   1      30.641  23.041  26.444  1.00  0.00     0.083 A 
ATOM     20  N   UNL A   1      31.143  22.041  25.706  1.00  0.00    -0.175 NA
ATOM     21  N   UNL A   1      32.254  22.582  25.170  1.00  0.00    -0.263 N 
ATOM     22  C   UNL A   1      32.607  23.774  25.757  1.00  0.00     0.060 A 
ATOM     23  C   UNL A   1      33.976  24.324  25.654  1.00  0.00     0.069 C 
BRANCH  21  24
ATOM     24  C   UNL A   1      32.751  22.092  23.887  1.00  0.00     0.181 C 
BRANCH  24  25
ATOM     25  C   UNL A   1      33.064  20.623  23.873  1.00  0.00    -0.008 A 
ATOM     26  C   UNL A   1      32.259  19.794  23.072  1.00  0.00     0.009 A 
ATOM     27  C   UNL A   1      34.118  20.032  24.594  1.00  0.00     0.047 A 
ATOM     28  C   UNL A   1      32.474  18.417  23.025  1.00  0.00     0.021 A 
ATOM     29  C   UNL A   1      34.315  18.650  24.567  1.00  0.00     0.041 A 
ATOM     30  Cl  UNL A   1      35.265  20.928  25.523  1.00  0.00    -0.084 Cl
ATOM     31  C   UNL A   1      33.489  17.850  23.789  1.00  0.00     0.042 A 
ATOM     32  Cl  UNL A   1      33.729  16.148  23.770  1.00  0.00    -0.084 Cl
ENDBRANCH  24  25
ENDBRANCH  21  24
ENDBRANCH  14  17
ENDBRANCH   8  13
ENDBRANCH   4   7
ENDBRANCH   2   3
ENDBRANCH   1   2
BRANCH   1  33
ATOM     33  C   UNL A   1      34.520  30.596  27.528  1.00  0.00     0.023 C 
BRANCH  33  34
ATOM     34  C   UNL A   1      35.255  31.881  27.866  1.00  0.00     0.116 C 
BRANCH  34  35
ATOM     35  N   UNL A   1      34.801  32.482  29.137  1.00  0.00    -0.352 N 
ATOM     36  C   UNL A   1      35.105  32.126  30.452  1.00  0.00     0.251 C 
ATOM     37  H   UNL A   1      34.191  33.249  29.042  1.00  0.00     0.163 HD
ATOM     38  O   UNL A   1      34.422  32.494  31.384  1.00  0.00    -0.269 OA
BRANCH  36  39
ATOM     39  C   UNL A   1      36.312  31.309  30.663  1.00  0.00     0.039 A 
ATOM     40  C   UNL A   1      36.376  29.922  30.494  1.00  0.00     0.014 A 
ATOM     41  C   UNL A   1      37.451  32.045  30.911  1.00  0.00     0.014 A 
ATOM     42  C   UNL A   1      37.637  29.319  30.506  1.00  0.00     0.010 A 
ATOM     43  C   UNL A   1      38.627  31.526  30.490  1.00  0.00     0.010 A 
ATOM     44  C   UNL A   1      38.761  30.151  30.501  1.00  0.00    -0.014 A 
BRANCH  44  45
ATOM     45  C   UNL A   1      40.144  29.710  30.495  1.00  0.00     0.031 A 
ATOM     46  C   UNL A   1      40.697  29.382  31.829  1.00  0.00     0.074 A 
ATOM     47  C   UNL A   1      40.710  29.280  29.342  1.00  0.00     0.049 A 
ATOM     48  N   UNL A   1      41.587  30.033  32.501  1.00  0.00    -0.248 NA
ATOM     49  C   UNL A   1      40.068  28.284  32.582  1.00  0.00     0.031 C 
ATOM     50  C   UNL A   1      40.119  29.192  27.990  1.00  0.00     0.029 A 
ATOM     51  N   UNL A   1      41.921  28.700  29.155  1.00  0.00    -0.354 N 
ATOM     52  C   UNL A   1      41.814  29.273  33.643  1.00  0.00     0.074 A 
ATOM     53  C   UNL A   1      40.694  28.378  33.757  1.00  0.00     0.031 C 
ATOM     54  C   UNL A   1      40.878  28.401  27.202  1.00  0.00     0.029 A 
ATOM     55  C   UNL A   1      42.097  28.087  27.918  1.00  0.00     0.049 A 
ATOM     56  H   UNL A   1      42.625  28.713  29.844  1.00  0.00     0.167 HD
ATOM     57  C   UNL A   1      43.040  29.235  34.238  1.00  0.00     0.037 A 
ATOM     58  C   UNL A   1      43.175  27.365  27.524  1.00  0.00     0.037 A 
ATOM     59  C   UNL A   1      43.903  30.268  33.716  1.00  0.00     0.049 A 
ATOM     60  C   UNL A   1      44.288  27.760  28.431  1.00  0.00     0.074 A 
ATOM     61  C   UNL A   1      43.842  31.648  33.659  1.00  0.00     0.029 A 
ATOM     62  N   UNL A   1      44.827  29.898  32.765  1.00  0.00    -0.354 N 
ATOM     63  N   UNL A   1      44.783  28.970  28.483  1.00  0.00    -0.248 NA
ATOM     64  C   UNL A   1      44.508  26.949  29.618  1.00  0.00     0.031 C 
ATOM     65  C   UNL A   1      44.348  31.986  32.367  1.00  0.00     0.029 A 
ATOM     66  C   UNL A   1      44.758  30.809  31.738  1.00  0.00     0.049 A 
ATOM     67  H   UNL A   1      45.428  29.121  32.812  1.00  0.00     0.167 HD
ATOM     68  C   UNL A   1      45.009  29.214  29.832  1.00  0.00     0.074 A 
ATOM     69  C   UNL A   1      44.893  27.903  30.473  1.00  0.00     0.031 C 
ATOM     70  C   UNL A   1      44.977  30.483  30.342  1.00  0.00     0.037 A 
BRANCH  57  71
ATOM     71  C   UNL A   1      43.582  28.050  35.001  1.00  0.00     0.058 A 
ATOM     72  C   UNL A   1      44.087  28.240  36.302  1.00  0.00     0.135 A 
ATOM     73  C   UNL A   1      43.862  26.792  34.419  1.00  0.00     0.135 A 
ATOM     74  F   UNL A   1      43.888  29.402  36.947  1.00  0.00    -0.206 F 
ATOM     75  C   UNL A   1      44.865  27.281  36.949  1.00  0.00     0.059 A 
ATOM     76  C   UNL A   1      44.584  25.799  35.068  1.00  0.00     0.059 A 
ATOM     77  F   UNL A   1      43.540  26.501  33.152  1.00  0.00    -0.206 F 
ATOM     78  C   UNL A   1      45.120  26.068  36.316  1.00  0.00     0.060 A 
BRANCH  78  79
ATOM     79  S   UNL A   1      46.219  24.873  37.095  1.00  0.00     0.124 S 
ATOM     80  O   UNL A   1      46.035  25.191  38.507  1.00  0.00    -0.237 OA
ATOM     81  O   UNL A   1      45.653  23.604  36.646  1.00  0.00    -0.237 OA
ATOM     82  O   UNL A   1      47.526  25.203  36.536  1.00  0.00    -0.744 OA
ENDBRANCH  78  79
ENDBRANCH  57  71
BRANCH  58  83
ATOM     83  C   UNL A   1      43.182  26.123  26.706  1.00  0.00     0.058 A 
ATOM     84  C   UNL A   1      44.022  25.988  25.587  1.00  0.00     0.135 A 
ATOM     85  C   UNL A   1      42.570  24.938  27.168  1.00  0.00     0.135 A 
ATOM     86  F   UNL A   1      44.659  27.060  25.092  1.00  0.00    -0.206 F 
ATOM     87  C   UNL A   1      44.279  24.747  24.991  1.00  0.00     0.059 A 
ATOM     88  C   UNL A   1      42.807  23.692  26.588  1.00  0.00     0.059 A 
ATOM     89  F   UNL A   1      41.789  24.947  28.259  1.00  0.00    -0.206 F 
ATOM     90  C   UNL A   1      43.683  23.599  25.514  1.00  0.00     0.060 A 
BRANCH  90  91
ATOM     91  S   UNL A   1      44.152  21.977  24.859  1.00  0.00     0.124 S 
ATOM     92  O   UNL A   1      44.180  22.228  23.423  1.00  0.00    -0.237 OA
ATOM     93  O   UNL A   1      45.447  21.753  25.492  1.00  0.00    -0.237 OA
ATOM     94  O   UNL A   1      43.078  21.102  25.320  1.00  0.00    -0.744 OA
ENDBRANCH  90  91
ENDBRANCH  58  83
BRANCH  70  95
ATOM     95  C   UNL A   1      44.934  31.640  29.367  1.00  0.00     0.058 A 
ATOM     96  C   UNL A   1      46.050  32.119  28.655  1.00  0.00     0.135 A 
ATOM     97  C   UNL A   1      43.687  32.169  29.007  1.00  0.00     0.135 A 
ATOM     98  F   UNL A   1      47.266  31.602  28.857  1.00  0.00    -0.206 F 
ATOM     99  C   UNL A   1      45.940  33.093  27.660  1.00  0.00     0.059 A 
ATOM    100  C   UNL A   1      43.548  33.122  27.999  1.00  0.00     0.059 A 
ATOM    101  F   UNL A   1      42.571  31.712  29.599  1.00  0.00    -0.206 F 
ATOM    102  C   UNL A   1      44.681  33.587  27.334  1.00  0.00     0.060 A 
BRANCH 102 103
ATOM    103  S   UNL A   1      44.528  34.777  25.983  1.00  0.00     0.124 S 
ATOM    104  O   UNL A   1      45.055  35.996  26.586  1.00  0.00    -0.237 OA
ATOM    105  O   UNL A   1      45.356  34.180  24.938  1.00  0.00    -0.237 OA
ATOM    106  O   UNL A   1      43.096  34.789  25.699  1.00  0.00    -0.744 OA
ENDBRANCH 102 103
ENDBRANCH  70  95
ENDBRANCH  44  45
ENDBRANCH  36  39
ENDBRANCH  34  35
ENDBRANCH  33  34
ENDBRANCH   1  33
TORSDOF 18
ENDMDL
MODEL 3
REMARK VINA RESULT:     -11.8      3.326      8.544
REMARK SMILES Cc1nn(Cc2ccc(Cl)cc2Cl)c(C)c1NC(=O)c1c(C(=O)NCCCCNC(=O)c2ccc(-c3c4nc(c(-c5c(F)cc(S(=O)(=O)[O-])cc5F)c5ccc([nH]5)c(-c5c(F)cc(S(=O)(=O)[O-])cc5F)c5nc(c(-c6c(F)cc(S(=O)(=O)[O-])cc6F)c6ccc3[nH]6)C=C5)C=C4)cc2)cnn1C
REMARK SMILES IDX 26 1 25 2 24 3 22 4 23 5 21 7 20 8 100 9 98 10 99 11 101 12
REMARK SMILES IDX 18 13 17 14 19 16 16 17 1 18 2 19 3 20 4 21 14 22 15 23 5 24
REMARK SMILES IDX 6 25 7 26 12 27 8 28 11 29 13 30 9 31 10 32 27 33 28 34
REMARK SMILES IDX 29 35 30 36 31 38 32 39 33 40 97 41 34 42 96 43 35 44 36 45
REMARK SMILES IDX 37 46 90 47 38 48 95 49 89 50 91 51 39 52 94 53 88 54 87 55
REMARK SMILES IDX 40 57 74 58 53 59 73 60 54 61 57 62 72 63 92 64 55 65 56 66
REMARK SMILES IDX 71 68 93 69 58 70 41 71 42 72 51 73 43 74 44 75 50 76 52 77
REMARK SMILES IDX 45 78 46 79 47 80 48 81 49 82 75 83 76 84 85 85 77 86 78 87
REMARK SMILES IDX 84 88 86 89 79 90 80 91 81 92 82 93 83 94 59 95 60 96 69 97
REMARK SMILES IDX 61 98 62 99 68 100 70 101 63 102 64 103 65 104 66 105 67 106
REMARK H PARENT 24 6 17 15 29 37 91 56 57 67
REMARK Flexibility Score: inf
ROOT
ATOM      1  C   UNL A   1      32.463  30.880  26.877  1.00  0.00     0.023 C 
ENDROOT
BRANCH   1   2
ATOM      2  C   UNL A   1      32.415  30.255  25.473  1.00  0.00     0.116 C 
BRANCH   2   3
ATOM      3  N   UNL A   1      33.411  29.240  25.161  1.00  0.00    -0.352 N 
ATOM      4  C   UNL A   1      33.359  28.058  24.441  1.00  0.00     0.255 C 
ATOM      5  O   UNL A   1      34.435  27.507  24.211  1.00  0.00    -0.269 OA
ATOM      6  H   UNL A   1      34.301  29.431  25.539  1.00  0.00     0.163 HD
BRANCH   4   7
ATOM      7  C   UNL A   1      32.096  27.453  24.040  1.00  0.00     0.090 A 
ATOM      8  C   UNL A   1      31.124  26.905  24.892  1.00  0.00     0.138 A 
ATOM      9  N   UNL A   1      30.095  26.508  24.063  1.00  0.00    -0.262 N 
ATOM     10  C   UNL A   1      31.587  27.187  22.748  1.00  0.00     0.149 A 
ATOM     11  N   UNL A   1      30.343  26.712  22.757  1.00  0.00    -0.180 NA
ATOM     12  C   UNL A   1      28.760  26.094  24.435  1.00  0.00     0.174 C 
BRANCH   8  13
ATOM     13  C   UNL A   1      31.091  26.672  26.321  1.00  0.00     0.274 C 
ATOM     14  N   UNL A   1      31.102  25.417  26.878  1.00  0.00    -0.317 N 
ATOM     15  H   UNL A   1      30.835  25.396  27.826  1.00  0.00     0.170 HD
ATOM     16  O   UNL A   1      31.063  27.616  27.116  1.00  0.00    -0.267 OA
BRANCH  14  17
ATOM     17  C   UNL A   1      31.417  24.180  26.358  1.00  0.00     0.085 A 
ATOM     18  C   UNL A   1      29.373  22.799  27.237  1.00  0.00     0.071 C 
ATOM     19  C   UNL A   1      30.619  23.002  26.457  1.00  0.00     0.083 A 
ATOM     20  N   UNL A   1      31.125  22.000  25.723  1.00  0.00    -0.175 NA
ATOM     21  N   UNL A   1      32.223  22.547  25.170  1.00  0.00    -0.263 N 
ATOM     22  C   UNL A   1      32.570  23.749  25.742  1.00  0.00     0.060 A 
ATOM     23  C   UNL A   1      33.931  24.313  25.619  1.00  0.00     0.069 C 
BRANCH  21  24
ATOM     24  C   UNL A   1      32.711  22.051  23.887  1.00  0.00     0.181 C 
BRANCH  24  25
ATOM     25  C   UNL A   1      33.057  20.589  23.887  1.00  0.00    -0.008 A 
ATOM     26  C   UNL A   1      32.257  19.732  23.110  1.00  0.00     0.009 A 
ATOM     27  C   UNL A   1      34.134  20.031  24.600  1.00  0.00     0.047 A 
ATOM     28  C   UNL A   1      32.501  18.359  23.079  1.00  0.00     0.021 A 
ATOM     29  C   UNL A   1      34.360  18.654  24.589  1.00  0.00     0.041 A 
ATOM     30  Cl  UNL A   1      35.274  20.964  25.499  1.00  0.00    -0.084 Cl
ATOM     31  C   UNL A   1      33.540  17.825  23.835  1.00  0.00     0.042 A 
ATOM     32  Cl  UNL A   1      33.817  16.129  23.835  1.00  0.00    -0.084 Cl
ENDBRANCH  24  25
ENDBRANCH  21  24
ENDBRANCH  14  17
ENDBRANCH   8  13
ENDBRANCH   4   7
ENDBRANCH   2   3
ENDBRANCH   1   2
BRANCH   1  33
ATOM     33  C   UNL A   1      31.550  32.065  27.215  1.00  0.00     0.023 C 
BRANCH  33  34
ATOM     34  C   UNL A   1      32.144  33.412  26.841  1.00  0.00     0.116 C 
BRANCH  34  35
ATOM     35  N   UNL A   1      32.170  34.359  27.973  1.00  0.00    -0.352 N 
ATOM     36  C   UNL A   1      33.037  34.421  29.066  1.00  0.00     0.251 C 
ATOM     37  H   UNL A   1      31.471  35.051  27.956  1.00  0.00     0.163 HD
ATOM     38  O   UNL A   1      32.753  35.041  30.069  1.00  0.00    -0.269 OA
BRANCH  36  39
ATOM     39  C   UNL A   1      34.330  33.726  28.936  1.00  0.00     0.039 A 
ATOM     40  C   UNL A   1      35.293  34.010  27.962  1.00  0.00     0.014 A 
ATOM     41  C   UNL A   1      34.596  32.843  29.960  1.00  0.00     0.014 A 
ATOM     42  C   UNL A   1      36.557  33.430  28.105  1.00  0.00     0.010 A 
ATOM     43  C   UNL A   1      35.893  32.664  30.301  1.00  0.00     0.010 A 
ATOM     44  C   UNL A   1      36.838  32.757  29.298  1.00  0.00    -0.014 A 
BRANCH  44  45
ATOM     45  C   UNL A   1      38.094  32.109  29.634  1.00  0.00     0.031 A 
ATOM     46  C   UNL A   1      38.217  30.711  29.162  1.00  0.00     0.074 A 
ATOM     47  C   UNL A   1      39.165  32.859  29.991  1.00  0.00     0.049 A 
ATOM     48  N   UNL A   1      38.220  29.632  29.872  1.00  0.00    -0.248 NA
ATOM     49  C   UNL A   1      38.169  30.469  27.710  1.00  0.00     0.031 C 
ATOM     50  C   UNL A   1      39.272  34.327  30.121  1.00  0.00     0.029 A 
ATOM     51  N   UNL A   1      40.446  32.466  30.197  1.00  0.00    -0.354 N 
ATOM     52  C   UNL A   1      38.440  28.599  28.968  1.00  0.00     0.074 A 
ATOM     53  C   UNL A   1      38.144  29.135  27.667  1.00  0.00     0.031 C 
ATOM     54  C   UNL A   1      40.571  34.696  30.155  1.00  0.00     0.029 A 
ATOM     55  C   UNL A   1      41.378  33.497  30.248  1.00  0.00     0.049 A 
ATOM     56  H   UNL A   1      40.697  31.519  30.304  1.00  0.00     0.167 HD
ATOM     57  C   UNL A   1      39.129  27.477  29.326  1.00  0.00     0.037 A 
ATOM     58  C   UNL A   1      42.723  33.361  30.351  1.00  0.00     0.037 A 
ATOM     59  C   UNL A   1      39.302  27.409  30.757  1.00  0.00     0.049 A 
ATOM     60  C   UNL A   1      42.959  31.990  30.882  1.00  0.00     0.074 A 
ATOM     61  C   UNL A   1      38.442  27.371  31.839  1.00  0.00     0.029 A 
ATOM     62  N   UNL A   1      40.519  27.800  31.265  1.00  0.00    -0.354 N 
ATOM     63  N   UNL A   1      42.559  31.595  32.064  1.00  0.00    -0.248 NA
ATOM     64  C   UNL A   1      43.188  30.926  29.919  1.00  0.00     0.031 C 
ATOM     65  C   UNL A   1      39.053  28.204  32.825  1.00  0.00     0.029 A 
ATOM     66  C   UNL A   1      40.280  28.643  32.324  1.00  0.00     0.049 A 
ATOM     67  H   UNL A   1      41.403  27.527  30.930  1.00  0.00     0.167 HD
ATOM     68  C   UNL A   1      42.097  30.298  31.879  1.00  0.00     0.074 A 
ATOM     69  C   UNL A   1      42.584  29.915  30.553  1.00  0.00     0.031 C 
ATOM     70  C   UNL A   1      41.125  29.766  32.681  1.00  0.00     0.037 A 
BRANCH  57  71
ATOM     71  C   UNL A   1      39.964  26.650  28.378  1.00  0.00     0.058 A 
ATOM     72  C   UNL A   1      39.682  25.279  28.229  1.00  0.00     0.135 A 
ATOM     73  C   UNL A   1      41.184  27.085  27.810  1.00  0.00     0.135 A 
ATOM     74  F   UNL A   1      38.555  24.755  28.740  1.00  0.00    -0.206 F 
ATOM     75  C   UNL A   1      40.573  24.394  27.620  1.00  0.00     0.059 A 
ATOM     76  C   UNL A   1      42.057  26.234  27.145  1.00  0.00     0.059 A 
ATOM     77  F   UNL A   1      41.639  28.335  27.959  1.00  0.00    -0.206 F 
ATOM     78  C   UNL A   1      41.765  24.882  27.094  1.00  0.00     0.060 A 
BRANCH  78  79
ATOM     79  S   UNL A   1      42.971  23.731  26.410  1.00  0.00     0.124 S 
ATOM     80  O   UNL A   1      42.229  22.475  26.460  1.00  0.00    -0.237 OA
ATOM     81  O   UNL A   1      43.200  24.288  25.081  1.00  0.00    -0.237 OA
ATOM     82  O   UNL A   1      44.098  23.838  27.331  1.00  0.00    -0.744 OA
ENDBRANCH  78  79
ENDBRANCH  57  71
BRANCH  58  83
ATOM     83  C   UNL A   1      43.769  34.170  29.669  1.00  0.00     0.058 A 
ATOM     84  C   UNL A   1      43.985  34.069  28.284  1.00  0.00     0.135 A 
ATOM     85  C   UNL A   1      44.387  35.262  30.315  1.00  0.00     0.135 A 
ATOM     86  F   UNL A   1      43.421  33.071  27.587  1.00  0.00    -0.206 F 
ATOM     87  C   UNL A   1      44.729  35.019  27.573  1.00  0.00     0.059 A 
ATOM     88  C   UNL A   1      45.136  36.218  29.629  1.00  0.00     0.059 A 
ATOM     89  F   UNL A   1      44.204  35.480  31.627  1.00  0.00    -0.206 F 
ATOM     90  C   UNL A   1      45.283  36.104  28.252  1.00  0.00     0.060 A 
BRANCH  90  91
ATOM     91  S   UNL A   1      46.091  37.424  27.311  1.00  0.00     0.124 S 
ATOM     92  O   UNL A   1      46.901  38.071  28.336  1.00  0.00    -0.237 OA
ATOM     93  O   UNL A   1      46.826  36.673  26.299  1.00  0.00    -0.237 OA
ATOM     94  O   UNL A   1      44.973  38.215  26.805  1.00  0.00    -0.744 OA
ENDBRANCH  90  91
ENDBRANCH  58  83
BRANCH  70  95
ATOM     95  C   UNL A   1      40.737  30.529  33.930  1.00  0.00     0.058 A 
ATOM     96  C   UNL A   1      41.478  30.521  35.127  1.00  0.00     0.135 A 
ATOM     97  C   UNL A   1      39.675  31.441  33.856  1.00  0.00     0.135 A 
ATOM     98  F   UNL A   1      42.569  29.760  35.253  1.00  0.00    -0.206 F 
ATOM     99  C   UNL A   1      41.164  31.351  36.205  1.00  0.00     0.059 A 
ATOM    100  C   UNL A   1      39.358  32.298  34.909  1.00  0.00     0.059 A 
ATOM    101  F   UNL A   1      38.965  31.549  32.721  1.00  0.00    -0.206 F 
ATOM    102  C   UNL A   1      40.102  32.243  36.086  1.00  0.00     0.060 A 
BRANCH 102 103
ATOM    103  S   UNL A   1      39.755  33.381  37.445  1.00  0.00     0.124 S 
ATOM    104  O   UNL A   1      40.443  34.593  37.015  1.00  0.00    -0.237 OA
ATOM    105  O   UNL A   1      38.295  33.448  37.439  1.00  0.00    -0.237 OA
ATOM    106  O   UNL A   1      40.333  32.712  38.607  1.00  0.00    -0.744 OA
ENDBRANCH 102 103
ENDBRANCH  70  95
ENDBRANCH  44  45
ENDBRANCH  36  39
ENDBRANCH  34  35
ENDBRANCH  33  34
ENDBRANCH   1  33
TORSDOF 18
ENDMDL
