MODEL 1
REMARK VINA RESULT:     -12.5      0.000      0.000
REMARK SMILES Cc1ccc(NC(=O)NC2(C(=O)NCCCCNC(=O)c3ccc(-c4c5nc(c(-c6c(F)cc(S(=O)(=O)[O-])cc6F)c6ccc([nH]6)c(-c6c(F)cc(S(=O)(=O)[O-])cc6F)c6nc(c(-c7c(F)cc(S(=O)(=O)[O-])cc7F)c7ccc4[nH]7)C=C6)C=C5)cc3)CC2)c(C)n1
REMARK SMILES IDX 16 1 15 2 14 3 13 4 11 5 12 6 10 8 87 9 88 10 9 11 6 12 7 13
REMARK SMILES IDX 8 15 5 17 1 18 2 19 3 20 91 21 4 22 89 23 90 24 17 25 18 26
REMARK SMILES IDX 19 27 20 29 21 30 22 31 86 32 23 33 85 34 24 35 25 36 26 37
REMARK SMILES IDX 79 38 27 39 84 40 78 41 80 42 28 43 83 44 77 45 76 46 29 48
REMARK SMILES IDX 63 49 42 50 62 51 43 52 46 53 61 54 81 55 44 56 45 57 60 59
REMARK SMILES IDX 82 60 47 61 30 62 31 63 40 64 32 65 33 66 39 67 41 68 34 69
REMARK SMILES IDX 35 70 36 71 37 72 38 73 64 74 65 75 74 76 66 77 67 78 73 79
REMARK SMILES IDX 75 80 68 81 69 82 70 83 71 84 72 85 48 86 49 87 58 88 50 89
REMARK SMILES IDX 51 90 57 91 59 92 52 93 53 94 54 95 55 96 56 97
REMARK H PARENT 13 7 6 14 9 16 18 28 80 47 46 58
REMARK Flexibility Score: inf
ROOT
ATOM      1  C   UNL A   1      40.007  22.425  27.345  1.00  0.00     0.023 C 
ENDROOT
BRANCH   1   2
ATOM      2  C   UNL A   1      39.291  21.785  26.162  1.00  0.00     0.023 C 
BRANCH   2   3
ATOM      3  C   UNL A   1      38.113  22.575  25.557  1.00  0.00     0.116 C 
BRANCH   3   4
ATOM      4  N   UNL A   1      36.877  22.295  26.286  1.00  0.00    -0.354 N 
ATOM      5  C   UNL A   1      35.928  21.353  25.913  1.00  0.00     0.245 C 
ATOM      6  O   UNL A   1      36.149  20.454  25.111  1.00  0.00    -0.272 OA
ATOM      7  H   UNL A   1      36.704  22.813  27.104  1.00  0.00     0.163 HD
BRANCH   5   8
ATOM      8  C   UNL A   1      34.513  21.552  26.524  1.00  0.00     0.120 C 
ATOM      9  C   UNL A   1      34.113  23.029  26.658  1.00  0.00     0.041 C 
ATOM     10  C   UNL A   1      34.081  22.188  27.868  1.00  0.00     0.041 C 
BRANCH   8  11
ATOM     11  N   UNL A   1      33.605  20.525  26.194  1.00  0.00    -0.323 N 
ATOM     12  N   UNL A   1      32.707  21.318  24.117  1.00  0.00    -0.306 N 
ATOM     13  C   UNL A   1      32.854  20.425  25.102  1.00  0.00     0.320 C 
ATOM     14  H   UNL A   1      32.018  20.914  23.541  1.00  0.00     0.171 HD
ATOM     15  O   UNL A   1      32.167  19.399  24.998  1.00  0.00    -0.248 OA
ATOM     16  H   UNL A   1      33.518  19.795  26.851  1.00  0.00     0.166 HD
BRANCH  12  17
ATOM     17  C   UNL A   1      33.020  22.552  23.451  1.00  0.00     0.064 A 
ATOM     18  C   UNL A   1      32.949  26.491  21.679  1.00  0.00     0.067 C 
ATOM     19  C   UNL A   1      32.857  25.119  22.251  1.00  0.00     0.038 A 
ATOM     20  C   UNL A   1      31.717  24.572  22.759  1.00  0.00     0.025 A 
ATOM     21  N   UNL A   1      34.011  24.456  22.312  1.00  0.00    -0.256 NA
ATOM     22  C   UNL A   1      31.809  23.299  23.323  1.00  0.00     0.030 A 
ATOM     23  C   UNL A   1      34.140  23.238  22.933  1.00  0.00     0.061 A 
ATOM     24  C   UNL A   1      35.616  23.062  22.923  1.00  0.00     0.069 C 
ENDBRANCH  12  17
ENDBRANCH   8  11
ENDBRANCH   5   8
ENDBRANCH   3   4
ENDBRANCH   2   3
ENDBRANCH   1   2
BRANCH   1  25
ATOM     25  C   UNL A   1      41.393  22.978  27.058  1.00  0.00     0.116 C 
BRANCH  25  26
ATOM     26  N   UNL A   1      41.452  23.942  25.963  1.00  0.00    -0.352 N 
ATOM     27  C   UNL A   1      41.477  25.324  26.027  1.00  0.00     0.251 C 
ATOM     28  H   UNL A   1      41.477  23.557  25.058  1.00  0.00     0.163 HD
ATOM     29  O   UNL A   1      41.480  25.993  24.996  1.00  0.00    -0.269 OA
BRANCH  27  30
ATOM     30  C   UNL A   1      41.432  26.002  27.348  1.00  0.00     0.039 A 
ATOM     31  C   UNL A   1      42.544  26.732  27.782  1.00  0.00     0.014 A 
ATOM     32  C   UNL A   1      40.269  25.994  28.118  1.00  0.00     0.014 A 
ATOM     33  C   UNL A   1      42.439  27.549  28.913  1.00  0.00     0.010 A 
ATOM     34  C   UNL A   1      40.131  26.892  29.172  1.00  0.00     0.010 A 
ATOM     35  C   UNL A   1      41.211  27.691  29.580  1.00  0.00    -0.014 A 
BRANCH  35  36
ATOM     36  C   UNL A   1      41.021  28.676  30.683  1.00  0.00     0.031 A 
ATOM     37  C   UNL A   1      41.855  28.580  31.936  1.00  0.00     0.074 A 
ATOM     38  C   UNL A   1      40.037  29.595  30.604  1.00  0.00     0.049 A 
ATOM     39  N   UNL A   1      41.778  29.283  33.036  1.00  0.00    -0.248 NA
ATOM     40  C   UNL A   1      42.884  27.529  31.970  1.00  0.00     0.031 C 
ATOM     41  C   UNL A   1      39.101  29.744  29.487  1.00  0.00     0.029 A 
ATOM     42  N   UNL A   1      39.646  30.572  31.489  1.00  0.00    -0.354 N 
ATOM     43  C   UNL A   1      42.724  28.741  33.900  1.00  0.00     0.074 A 
ATOM     44  C   UNL A   1      43.317  27.611  33.219  1.00  0.00     0.031 C 
ATOM     45  C   UNL A   1      38.267  30.766  29.740  1.00  0.00     0.029 A 
ATOM     46  C   UNL A   1      38.578  31.324  31.051  1.00  0.00     0.049 A 
ATOM     47  H   UNL A   1      40.088  30.720  32.355  1.00  0.00     0.167 HD
ATOM     48  C   UNL A   1      43.091  29.162  35.135  1.00  0.00     0.037 A 
ATOM     49  C   UNL A   1      37.921  32.344  31.640  1.00  0.00     0.037 A 
ATOM     50  C   UNL A   1      42.528  30.312  35.792  1.00  0.00     0.049 A 
ATOM     51  C   UNL A   1      38.374  32.824  32.993  1.00  0.00     0.074 A 
ATOM     52  C   UNL A   1      42.889  30.871  37.005  1.00  0.00     0.029 A 
ATOM     53  N   UNL A   1      41.487  31.081  35.292  1.00  0.00    -0.354 N 
ATOM     54  N   UNL A   1      39.329  32.352  33.757  1.00  0.00    -0.248 NA
ATOM     55  C   UNL A   1      37.667  33.981  33.560  1.00  0.00     0.031 C 
ATOM     56  C   UNL A   1      42.037  31.952  37.259  1.00  0.00     0.029 A 
ATOM     57  C   UNL A   1      41.179  32.097  36.181  1.00  0.00     0.049 A 
ATOM     58  H   UNL A   1      41.033  30.925  34.432  1.00  0.00     0.167 HD
ATOM     59  C   UNL A   1      39.355  33.169  34.883  1.00  0.00     0.074 A 
ATOM     60  C   UNL A   1      38.330  34.173  34.692  1.00  0.00     0.031 C 
ATOM     61  C   UNL A   1      40.155  33.093  35.976  1.00  0.00     0.037 A 
BRANCH  48  62
ATOM     62  C   UNL A   1      44.159  28.375  35.847  1.00  0.00     0.058 A 
ATOM     63  C   UNL A   1      43.842  27.330  36.730  1.00  0.00     0.135 A 
ATOM     64  C   UNL A   1      45.518  28.660  35.634  1.00  0.00     0.135 A 
ATOM     65  F   UNL A   1      42.559  27.023  36.983  1.00  0.00    -0.206 F 
ATOM     66  C   UNL A   1      44.829  26.625  37.410  1.00  0.00     0.059 A 
ATOM     67  C   UNL A   1      46.524  27.944  36.279  1.00  0.00     0.059 A 
ATOM     68  F   UNL A   1      45.880  29.645  34.799  1.00  0.00    -0.206 F 
ATOM     69  C   UNL A   1      46.169  26.942  37.179  1.00  0.00     0.060 A 
BRANCH  69  70
ATOM     70  S   UNL A   1      47.437  26.022  38.076  1.00  0.00     0.124 S 
ATOM     71  O   UNL A   1      46.679  24.866  38.546  1.00  0.00    -0.237 OA
ATOM     72  O   UNL A   1      48.423  25.752  37.035  1.00  0.00    -0.237 OA
ATOM     73  O   UNL A   1      47.864  26.956  39.114  1.00  0.00    -0.744 OA
ENDBRANCH  69  70
ENDBRANCH  48  62
BRANCH  49  74
ATOM     74  C   UNL A   1      36.784  33.000  30.937  1.00  0.00     0.058 A 
ATOM     75  C   UNL A   1      35.455  32.736  31.306  1.00  0.00     0.135 A 
ATOM     76  C   UNL A   1      37.001  33.918  29.897  1.00  0.00     0.135 A 
ATOM     77  F   UNL A   1      35.194  31.861  32.288  1.00  0.00    -0.206 F 
ATOM     78  C   UNL A   1      34.383  33.347  30.663  1.00  0.00     0.059 A 
ATOM     79  C   UNL A   1      35.946  34.560  29.256  1.00  0.00     0.059 A 
ATOM     80  F   UNL A   1      38.252  34.218  29.516  1.00  0.00    -0.206 F 
ATOM     81  C   UNL A   1      34.639  34.262  29.640  1.00  0.00     0.060 A 
BRANCH  81  82
ATOM     82  S   UNL A   1      33.243  35.096  28.853  1.00  0.00     0.124 S 
ATOM     83  O   UNL A   1      32.416  35.435  30.005  1.00  0.00    -0.237 OA
ATOM     84  O   UNL A   1      33.894  36.216  28.181  1.00  0.00    -0.237 OA
ATOM     85  O   UNL A   1      32.700  34.072  27.965  1.00  0.00    -0.744 OA
ENDBRANCH  81  82
ENDBRANCH  49  74
BRANCH  61  86
ATOM     86  C   UNL A   1      39.975  34.142  37.038  1.00  0.00     0.058 A 
ATOM     87  C   UNL A   1      40.559  35.413  36.929  1.00  0.00     0.135 A 
ATOM     88  C   UNL A   1      39.170  33.884  38.160  1.00  0.00     0.135 A 
ATOM     89  F   UNL A   1      41.340  35.710  35.879  1.00  0.00    -0.206 F 
ATOM     90  C   UNL A   1      40.376  36.383  37.909  1.00  0.00     0.059 A 
ATOM     91  C   UNL A   1      38.950  34.849  39.138  1.00  0.00     0.059 A 
ATOM     92  F   UNL A   1      38.578  32.689  38.308  1.00  0.00    -0.206 F 
ATOM     93  C   UNL A   1      39.570  36.091  39.012  1.00  0.00     0.060 A 
BRANCH  93  94
ATOM     94  S   UNL A   1      39.325  37.364  40.267  1.00  0.00     0.124 S 
ATOM     95  O   UNL A   1      38.481  38.319  39.558  1.00  0.00    -0.237 OA
ATOM     96  O   UNL A   1      38.677  36.621  41.343  1.00  0.00    -0.237 OA
ATOM     97  O   UNL A   1      40.683  37.820  40.558  1.00  0.00    -0.744 OA
ENDBRANCH  93  94
ENDBRANCH  61  86
ENDBRANCH  35  36
ENDBRANCH  27  30
ENDBRANCH  25  26
ENDBRANCH   1  25
TORSDOF 16
ENDMDL
MODEL 2
REMARK VINA RESULT:     -12.2      1.081      2.315
REMARK SMILES Cc1ccc(NC(=O)NC2(C(=O)NCCCCNC(=O)c3ccc(-c4c5nc(c(-c6c(F)cc(S(=O)(=O)[O-])cc6F)c6ccc([nH]6)c(-c6c(F)cc(S(=O)(=O)[O-])cc6F)c6nc(c(-c7c(F)cc(S(=O)(=O)[O-])cc7F)c7ccc4[nH]7)C=C6)C=C5)cc3)CC2)c(C)n1
REMARK SMILES IDX 16 1 15 2 14 3 13 4 11 5 12 6 10 8 87 9 88 10 9 11 6 12 7 13
REMARK SMILES IDX 8 15 5 17 1 18 2 19 3 20 91 21 4 22 89 23 90 24 17 25 18 26
REMARK SMILES IDX 19 27 20 29 21 30 22 31 86 32 23 33 85 34 24 35 25 36 26 37
REMARK SMILES IDX 79 38 27 39 84 40 78 41 80 42 28 43 83 44 77 45 76 46 29 48
REMARK SMILES IDX 63 49 42 50 62 51 43 52 46 53 61 54 81 55 44 56 45 57 60 59
REMARK SMILES IDX 82 60 47 61 30 62 31 63 40 64 32 65 33 66 39 67 41 68 34 69
REMARK SMILES IDX 35 70 36 71 37 72 38 73 64 74 65 75 74 76 66 77 67 78 73 79
REMARK SMILES IDX 75 80 68 81 69 82 70 83 71 84 72 85 48 86 49 87 58 88 50 89
REMARK SMILES IDX 51 90 57 91 59 92 52 93 53 94 54 95 55 96 56 97
REMARK H PARENT 13 7 6 14 9 16 18 28 80 47 46 58
REMARK Flexibility Score: inf
ROOT
ATOM      1  C   UNL A   1      41.508  21.790  26.896  1.00  0.00     0.023 C 
ENDROOT
BRANCH   1   2
ATOM      2  C   UNL A   1      40.008  21.735  27.155  1.00  0.00     0.023 C 
BRANCH   2   3
ATOM      3  C   UNL A   1      39.088  21.824  25.921  1.00  0.00     0.116 C 
BRANCH   3   4
ATOM      4  N   UNL A   1      37.834  22.496  26.260  1.00  0.00    -0.354 N 
ATOM      5  C   UNL A   1      36.568  22.035  25.930  1.00  0.00     0.245 C 
ATOM      6  O   UNL A   1      36.340  20.882  25.582  1.00  0.00    -0.272 OA
ATOM      7  H   UNL A   1      37.892  23.341  26.762  1.00  0.00     0.163 HD
BRANCH   5   8
ATOM      8  C   UNL A   1      35.441  23.104  25.950  1.00  0.00     0.120 C 
ATOM      9  C   UNL A   1      34.855  23.393  24.559  1.00  0.00     0.041 C 
ATOM     10  C   UNL A   1      35.394  24.524  25.336  1.00  0.00     0.041 C 
BRANCH   8  11
ATOM     11  N   UNL A   1      34.674  23.095  27.133  1.00  0.00    -0.323 N 
ATOM     12  N   UNL A   1      32.941  21.532  26.577  1.00  0.00    -0.306 N 
ATOM     13  C   UNL A   1      33.601  22.357  27.399  1.00  0.00     0.320 C 
ATOM     14  H   UNL A   1      32.170  21.239  27.115  1.00  0.00     0.171 HD
ATOM     15  O   UNL A   1      33.119  22.475  28.535  1.00  0.00    -0.248 OA
ATOM     16  H   UNL A   1      34.968  23.707  27.847  1.00  0.00     0.166 HD
BRANCH  12  17
ATOM     17  C   UNL A   1      32.758  20.848  25.327  1.00  0.00     0.064 A 
ATOM     18  C   UNL A   1      32.366  17.927  22.169  1.00  0.00     0.067 C 
ATOM     19  C   UNL A   1      32.589  18.862  23.306  1.00  0.00     0.038 A 
ATOM     20  C   UNL A   1      32.942  18.473  24.564  1.00  0.00     0.025 A 
ATOM     21  N   UNL A   1      32.340  20.143  23.040  1.00  0.00    -0.256 NA
ATOM     22  C   UNL A   1      33.046  19.465  25.540  1.00  0.00     0.030 A 
ATOM     23  C   UNL A   1      32.357  21.122  24.002  1.00  0.00     0.061 A 
ATOM     24  C   UNL A   1      31.800  22.278  23.250  1.00  0.00     0.069 C 
ENDBRANCH  12  17
ENDBRANCH   8  11
ENDBRANCH   5   8
ENDBRANCH   3   4
ENDBRANCH   2   3
ENDBRANCH   1   2
BRANCH   1  25
ATOM     25  C   UNL A   1      42.156  23.155  27.052  1.00  0.00     0.116 C 
BRANCH  25  26
ATOM     26  N   UNL A   1      41.876  24.093  25.968  1.00  0.00    -0.352 N 
ATOM     27  C   UNL A   1      41.606  25.448  26.044  1.00  0.00     0.251 C 
ATOM     28  H   UNL A   1      41.878  23.709  25.062  1.00  0.00     0.163 HD
ATOM     29  O   UNL A   1      41.343  26.086  25.027  1.00  0.00    -0.269 OA
BRANCH  27  30
ATOM     30  C   UNL A   1      41.569  26.119  27.369  1.00  0.00     0.039 A 
ATOM     31  C   UNL A   1      42.627  26.953  27.745  1.00  0.00     0.014 A 
ATOM     32  C   UNL A   1      40.455  25.999  28.201  1.00  0.00     0.014 A 
ATOM     33  C   UNL A   1      42.506  27.757  28.884  1.00  0.00     0.010 A 
ATOM     34  C   UNL A   1      40.290  26.881  29.264  1.00  0.00     0.010 A 
ATOM     35  C   UNL A   1      41.308  27.781  29.617  1.00  0.00    -0.014 A 
BRANCH  35  36
ATOM     36  C   UNL A   1      41.085  28.743  30.733  1.00  0.00     0.031 A 
ATOM     37  C   UNL A   1      41.900  28.640  31.997  1.00  0.00     0.074 A 
ATOM     38  C   UNL A   1      40.088  29.649  30.653  1.00  0.00     0.049 A 
ATOM     39  N   UNL A   1      41.794  29.322  33.108  1.00  0.00    -0.248 NA
ATOM     40  C   UNL A   1      42.944  27.603  32.031  1.00  0.00     0.031 C 
ATOM     41  C   UNL A   1      39.168  29.802  29.524  1.00  0.00     0.029 A 
ATOM     42  N   UNL A   1      39.667  30.604  31.548  1.00  0.00    -0.354 N 
ATOM     43  C   UNL A   1      42.734  28.780  33.979  1.00  0.00     0.074 A 
ATOM     44  C   UNL A   1      43.355  27.671  33.288  1.00  0.00     0.031 C 
ATOM     45  C   UNL A   1      38.314  30.807  29.780  1.00  0.00     0.029 A 
ATOM     46  C   UNL A   1      38.595  31.347  31.105  1.00  0.00     0.049 A 
ATOM     47  H   UNL A   1      40.093  30.745  32.424  1.00  0.00     0.167 HD
ATOM     48  C   UNL A   1      43.074  29.186  35.226  1.00  0.00     0.037 A 
ATOM     49  C   UNL A   1      37.912  32.346  31.700  1.00  0.00     0.037 A 
ATOM     50  C   UNL A   1      42.483  30.316  35.892  1.00  0.00     0.049 A 
ATOM     51  C   UNL A   1      38.335  32.810  33.068  1.00  0.00     0.074 A 
ATOM     52  C   UNL A   1      42.815  30.860  37.121  1.00  0.00     0.029 A 
ATOM     53  N   UNL A   1      41.438  31.077  35.389  1.00  0.00    -0.354 N 
ATOM     54  N   UNL A   1      39.286  32.340  33.840  1.00  0.00    -0.248 NA
ATOM     55  C   UNL A   1      37.601  33.946  33.643  1.00  0.00     0.031 C 
ATOM     56  C   UNL A   1      41.942  31.923  37.379  1.00  0.00     0.029 A 
ATOM     57  C   UNL A   1      41.099  32.073  36.289  1.00  0.00     0.049 A 
ATOM     58  H   UNL A   1      41.000  30.929  34.518  1.00  0.00     0.167 HD
ATOM     59  C   UNL A   1      39.281  33.138  34.980  1.00  0.00     0.074 A 
ATOM     60  C   UNL A   1      38.243  34.130  34.788  1.00  0.00     0.031 C 
ATOM     61  C   UNL A   1      40.064  33.056  36.084  1.00  0.00     0.037 A 
BRANCH  48  62
ATOM     62  C   UNL A   1      44.143  28.404  35.943  1.00  0.00     0.058 A 
ATOM     63  C   UNL A   1      45.507  28.700  35.783  1.00  0.00     0.135 A 
ATOM     64  C   UNL A   1      43.801  27.356  36.812  1.00  0.00     0.135 A 
ATOM     65  F   UNL A   1      45.894  29.682  34.953  1.00  0.00    -0.206 F 
ATOM     66  C   UNL A   1      46.494  27.957  36.423  1.00  0.00     0.059 A 
ATOM     67  C   UNL A   1      44.771  26.621  37.490  1.00  0.00     0.059 A 
ATOM     68  F   UNL A   1      42.513  27.031  37.007  1.00  0.00    -0.206 F 
ATOM     69  C   UNL A   1      46.115  26.917  37.272  1.00  0.00     0.060 A 
BRANCH  69  70
ATOM     70  S   UNL A   1      47.409  25.959  38.088  1.00  0.00     0.124 S 
ATOM     71  O   UNL A   1      46.685  25.404  39.228  1.00  0.00    -0.237 OA
ATOM     72  O   UNL A   1      47.791  25.003  37.055  1.00  0.00    -0.237 OA
ATOM     73  O   UNL A   1      48.419  26.961  38.415  1.00  0.00    -0.744 OA
ENDBRANCH  69  70
ENDBRANCH  48  62
BRANCH  49  74
ATOM     74  C   UNL A   1      36.777  32.997  30.990  1.00  0.00     0.058 A 
ATOM     75  C   UNL A   1      35.447  32.723  31.347  1.00  0.00     0.135 A 
ATOM     76  C   UNL A   1      36.996  33.919  29.954  1.00  0.00     0.135 A 
ATOM     77  F   UNL A   1      35.183  31.843  32.325  1.00  0.00    -0.206 F 
ATOM     78  C   UNL A   1      34.376  33.328  30.697  1.00  0.00     0.059 A 
ATOM     79  C   UNL A   1      35.941  34.556  29.305  1.00  0.00     0.059 A 
ATOM     80  F   UNL A   1      38.248  34.228  29.584  1.00  0.00    -0.206 F 
ATOM     81  C   UNL A   1      34.634  34.248  29.678  1.00  0.00     0.060 A 
BRANCH  81  82
ATOM     82  S   UNL A   1      33.239  35.074  28.883  1.00  0.00     0.124 S 
ATOM     83  O   UNL A   1      32.723  34.018  28.020  1.00  0.00    -0.237 OA
ATOM     84  O   UNL A   1      32.403  35.433  30.024  1.00  0.00    -0.237 OA
ATOM     85  O   UNL A   1      33.865  36.201  28.196  1.00  0.00    -0.744 OA
ENDBRANCH  81  82
ENDBRANCH  49  74
BRANCH  61  86
ATOM     86  C   UNL A   1      39.850  34.084  37.161  1.00  0.00     0.058 A 
ATOM     87  C   UNL A   1      38.975  33.859  38.234  1.00  0.00     0.135 A 
ATOM     88  C   UNL A   1      40.566  35.292  37.140  1.00  0.00     0.135 A 
ATOM     89  F   UNL A   1      38.264  32.722  38.301  1.00  0.00    -0.206 F 
ATOM     90  C   UNL A   1      38.793  34.809  39.234  1.00  0.00     0.059 A 
ATOM     91  C   UNL A   1      40.421  36.244  38.144  1.00  0.00     0.059 A 
ATOM     92  F   UNL A   1      41.425  35.553  36.143  1.00  0.00    -0.206 F 
ATOM     93  C   UNL A   1      39.520  36.000  39.180  1.00  0.00     0.060 A 
BRANCH  93  94
ATOM     94  S   UNL A   1      39.289  37.217  40.493  1.00  0.00     0.124 S 
ATOM     95  O   UNL A   1      38.906  36.368  41.616  1.00  0.00    -0.237 OA
ATOM     96  O   UNL A   1      40.610  37.832  40.585  1.00  0.00    -0.237 OA
ATOM     97  O   UNL A   1      38.235  38.084  39.971  1.00  0.00    -0.744 OA
ENDBRANCH  93  94
ENDBRANCH  61  86
ENDBRANCH  35  36
ENDBRANCH  27  30
ENDBRANCH  25  26
ENDBRANCH   1  25
TORSDOF 16
ENDMDL
MODEL 3
REMARK VINA RESULT:     -12.2      6.629     12.009
REMARK SMILES Cc1ccc(NC(=O)NC2(C(=O)NCCCCNC(=O)c3ccc(-c4c5nc(c(-c6c(F)cc(S(=O)(=O)[O-])cc6F)c6ccc([nH]6)c(-c6c(F)cc(S(=O)(=O)[O-])cc6F)c6nc(c(-c7c(F)cc(S(=O)(=O)[O-])cc7F)c7ccc4[nH]7)C=C6)C=C5)cc3)CC2)c(C)n1
REMARK SMILES IDX 16 1 15 2 14 3 13 4 11 5 12 6 10 8 87 9 88 10 9 11 6 12 7 13
REMARK SMILES IDX 8 15 5 17 1 18 2 19 3 20 91 21 4 22 89 23 90 24 17 25 18 26
REMARK SMILES IDX 19 27 20 29 21 30 22 31 86 32 23 33 85 34 24 35 25 36 26 37
REMARK SMILES IDX 79 38 27 39 84 40 78 41 80 42 28 43 83 44 77 45 76 46 29 48
REMARK SMILES IDX 63 49 42 50 62 51 43 52 46 53 61 54 81 55 44 56 45 57 60 59
REMARK SMILES IDX 82 60 47 61 30 62 31 63 40 64 32 65 33 66 39 67 41 68 34 69
REMARK SMILES IDX 35 70 36 71 37 72 38 73 64 74 65 75 74 76 66 77 67 78 73 79
REMARK SMILES IDX 75 80 68 81 69 82 70 83 71 84 72 85 48 86 49 87 58 88 50 89
REMARK SMILES IDX 51 90 57 91 59 92 52 93 53 94 54 95 55 96 56 97
REMARK H PARENT 13 7 6 14 9 16 18 28 80 47 46 58
REMARK Flexibility Score: inf
ROOT
ATOM      1  C   UNL A   1      34.573  29.440  26.955  1.00  0.00     0.023 C 
ENDROOT
BRANCH   1   2
ATOM      2  C   UNL A   1      33.384  28.543  27.280  1.00  0.00     0.023 C 
BRANCH   2   3
ATOM      3  C   UNL A   1      32.055  28.870  26.571  1.00  0.00     0.116 C 
BRANCH   3   4
ATOM      4  N   UNL A   1      31.275  27.653  26.353  1.00  0.00    -0.354 N 
ATOM      5  C   UNL A   1      31.500  26.733  25.339  1.00  0.00     0.245 C 
ATOM      6  O   UNL A   1      32.544  26.676  24.700  1.00  0.00    -0.272 OA
ATOM      7  H   UNL A   1      30.532  27.472  26.973  1.00  0.00     0.163 HD
BRANCH   5   8
ATOM      8  C   UNL A   1      30.300  25.806  24.998  1.00  0.00     0.120 C 
ATOM      9  C   UNL A   1      30.290  25.343  23.533  1.00  0.00     0.041 C 
ATOM     10  C   UNL A   1      29.095  26.032  24.053  1.00  0.00     0.041 C 
BRANCH   8  11
ATOM     11  N   UNL A   1      29.887  24.996  26.076  1.00  0.00    -0.323 N 
ATOM     12  N   UNL A   1      31.567  23.285  26.069  1.00  0.00    -0.306 N 
ATOM     13  C   UNL A   1      30.491  23.914  26.556  1.00  0.00     0.320 C 
ATOM     14  H   UNL A   1      31.655  22.495  26.651  1.00  0.00     0.171 HD
ATOM     15  O   UNL A   1      29.973  23.391  27.552  1.00  0.00    -0.248 OA
ATOM     16  H   UNL A   1      29.053  25.264  26.526  1.00  0.00     0.166 HD
BRANCH  12  17
ATOM     17  C   UNL A   1      32.663  23.148  25.151  1.00  0.00     0.064 A 
ATOM     18  C   UNL A   1      36.533  23.021  23.234  1.00  0.00     0.067 C 
ATOM     19  C   UNL A   1      35.240  23.162  23.959  1.00  0.00     0.038 A 
ATOM     20  C   UNL A   1      35.121  23.603  25.243  1.00  0.00     0.025 A 
ATOM     21  N   UNL A   1      34.168  22.746  23.286  1.00  0.00    -0.256 NA
ATOM     22  C   UNL A   1      33.844  23.613  25.806  1.00  0.00     0.030 A 
ATOM     23  C   UNL A   1      32.917  22.672  23.846  1.00  0.00     0.061 A 
ATOM     24  C   UNL A   1      32.166  21.950  22.785  1.00  0.00     0.069 C 
ENDBRANCH  12  17
ENDBRANCH   8  11
ENDBRANCH   5   8
ENDBRANCH   3   4
ENDBRANCH   2   3
ENDBRANCH   1   2
BRANCH   1  25
ATOM     25  C   UNL A   1      35.755  29.339  27.904  1.00  0.00     0.116 C 
BRANCH  25  26
ATOM     26  N   UNL A   1      35.507  29.852  29.248  1.00  0.00    -0.352 N 
ATOM     27  C   UNL A   1      36.423  30.247  30.206  1.00  0.00     0.251 C 
ATOM     28  H   UNL A   1      34.560  29.925  29.507  1.00  0.00     0.163 HD
ATOM     29  O   UNL A   1      36.041  30.614  31.316  1.00  0.00    -0.269 OA
BRANCH  27  30
ATOM     30  C   UNL A   1      37.877  30.165  29.915  1.00  0.00     0.039 A 
ATOM     31  C   UNL A   1      38.756  29.752  30.921  1.00  0.00     0.014 A 
ATOM     32  C   UNL A   1      38.364  30.407  28.630  1.00  0.00     0.014 A 
ATOM     33  C   UNL A   1      40.087  29.461  30.604  1.00  0.00     0.010 A 
ATOM     34  C   UNL A   1      39.654  30.009  28.294  1.00  0.00     0.010 A 
ATOM     35  C   UNL A   1      40.533  29.520  29.273  1.00  0.00    -0.014 A 
BRANCH  35  36
ATOM     36  C   UNL A   1      41.894  29.060  28.876  1.00  0.00     0.031 A 
ATOM     37  C   UNL A   1      43.037  30.041  28.807  1.00  0.00     0.074 A 
ATOM     38  C   UNL A   1      42.086  27.783  28.483  1.00  0.00     0.049 A 
ATOM     39  N   UNL A   1      44.265  29.854  28.399  1.00  0.00    -0.248 NA
ATOM     40  C   UNL A   1      42.747  31.426  29.211  1.00  0.00     0.031 C 
ATOM     41  C   UNL A   1      41.050  26.749  28.419  1.00  0.00     0.029 A 
ATOM     42  N   UNL A   1      43.218  27.137  28.045  1.00  0.00    -0.354 N 
ATOM     43  C   UNL A   1      44.884  31.098  28.470  1.00  0.00     0.074 A 
ATOM     44  C   UNL A   1      43.876  32.043  28.899  1.00  0.00     0.031 C 
ATOM     45  C   UNL A   1      41.598  25.597  27.998  1.00  0.00     0.029 A 
ATOM     46  C   UNL A   1      43.014  25.814  27.724  1.00  0.00     0.049 A 
ATOM     47  H   UNL A   1      44.094  27.580  27.970  1.00  0.00     0.167 HD
ATOM     48  C   UNL A   1      46.177  31.421  28.233  1.00  0.00     0.037 A 
ATOM     49  C   UNL A   1      43.869  24.880  27.257  1.00  0.00     0.037 A 
ATOM     50  C   UNL A   1      47.186  30.470  27.848  1.00  0.00     0.049 A 
ATOM     51  C   UNL A   1      45.312  25.250  27.043  1.00  0.00     0.074 A 
ATOM     52  C   UNL A   1      48.542  30.680  27.665  1.00  0.00     0.029 A 
ATOM     53  N   UNL A   1      46.951  29.127  27.585  1.00  0.00    -0.354 N 
ATOM     54  N   UNL A   1      45.897  26.413  27.200  1.00  0.00    -0.248 NA
ATOM     55  C   UNL A   1      46.215  24.179  26.597  1.00  0.00     0.031 C 
ATOM     56  C   UNL A   1      49.119  29.474  27.251  1.00  0.00     0.029 A 
ATOM     57  C   UNL A   1      48.133  28.501  27.224  1.00  0.00     0.049 A 
ATOM     58  H   UNL A   1      46.073  28.685  27.647  1.00  0.00     0.167 HD
ATOM     59  C   UNL A   1      47.239  26.209  26.897  1.00  0.00     0.074 A 
ATOM     60  C   UNL A   1      47.382  24.807  26.563  1.00  0.00     0.031 C 
ATOM     61  C   UNL A   1      48.260  27.103  26.896  1.00  0.00     0.037 A 
BRANCH  48  62
ATOM     62  C   UNL A   1      46.573  32.865  28.395  1.00  0.00     0.058 A 
ATOM     63  C   UNL A   1      47.045  33.369  29.619  1.00  0.00     0.135 A 
ATOM     64  C   UNL A   1      46.496  33.754  27.311  1.00  0.00     0.135 A 
ATOM     65  F   UNL A   1      47.127  32.568  30.694  1.00  0.00    -0.206 F 
ATOM     66  C   UNL A   1      47.381  34.709  29.774  1.00  0.00     0.059 A 
ATOM     67  C   UNL A   1      46.860  35.093  27.434  1.00  0.00     0.059 A 
ATOM     68  F   UNL A   1      46.057  33.328  26.116  1.00  0.00    -0.206 F 
ATOM     69  C   UNL A   1      47.282  35.564  28.676  1.00  0.00     0.060 A 
BRANCH  69  70
ATOM     70  S   UNL A   1      47.716  37.302  28.897  1.00  0.00     0.124 S 
ATOM     71  O   UNL A   1      47.026  37.920  27.768  1.00  0.00    -0.237 OA
ATOM     72  O   UNL A   1      47.164  37.598  30.215  1.00  0.00    -0.237 OA
ATOM     73  O   UNL A   1      49.174  37.302  28.817  1.00  0.00    -0.744 OA
ENDBRANCH  69  70
ENDBRANCH  48  62
BRANCH  49  74
ATOM     74  C   UNL A   1      43.387  23.497  26.993  1.00  0.00     0.058 A 
ATOM     75  C   UNL A   1      43.193  23.036  25.681  1.00  0.00     0.135 A 
ATOM     76  C   UNL A   1      43.129  22.600  28.041  1.00  0.00     0.135 A 
ATOM     77  F   UNL A   1      43.418  23.856  24.642  1.00  0.00    -0.206 F 
ATOM     78  C   UNL A   1      42.749  21.744  25.418  1.00  0.00     0.059 A 
ATOM     79  C   UNL A   1      42.708  21.295  27.803  1.00  0.00     0.059 A 
ATOM     80  F   UNL A   1      43.313  22.985  29.314  1.00  0.00    -0.206 F 
ATOM     81  C   UNL A   1      42.513  20.878  26.487  1.00  0.00     0.060 A 
BRANCH  81  82
ATOM     82  S   UNL A   1      41.997  19.184  26.133  1.00  0.00     0.124 S 
ATOM     83  O   UNL A   1      42.840  18.851  24.991  1.00  0.00    -0.237 OA
ATOM     84  O   UNL A   1      42.313  18.499  27.382  1.00  0.00    -0.237 OA
ATOM     85  O   UNL A   1      40.572  19.321  25.847  1.00  0.00    -0.744 OA
ENDBRANCH  81  82
ENDBRANCH  49  74
BRANCH  61  86
ATOM     86  C   UNL A   1      49.629  26.586  26.550  1.00  0.00     0.058 A 
ATOM     87  C   UNL A   1      50.476  26.028  27.520  1.00  0.00     0.135 A 
ATOM     88  C   UNL A   1      50.082  26.610  25.220  1.00  0.00     0.135 A 
ATOM     89  F   UNL A   1      50.094  25.984  28.806  1.00  0.00    -0.206 F 
ATOM     90  C   UNL A   1      51.736  25.539  27.190  1.00  0.00     0.059 A 
ATOM     91  C   UNL A   1      51.326  26.100  24.863  1.00  0.00     0.059 A 
ATOM     92  F   UNL A   1      49.307  27.121  24.251  1.00  0.00    -0.206 F 
ATOM     93  C   UNL A   1      52.153  25.580  25.858  1.00  0.00     0.060 A 
BRANCH  93  94
ATOM     94  S   UNL A   1      53.782  24.926  25.439  1.00  0.00     0.124 S 
ATOM     95  O   UNL A   1      54.514  25.141  26.683  1.00  0.00    -0.237 OA
ATOM     96  O   UNL A   1      53.485  23.535  25.110  1.00  0.00    -0.237 OA
ATOM     97  O   UNL A   1      54.202  25.754  24.312  1.00  0.00    -0.744 OA
ENDBRANCH  93  94
ENDBRANCH  61  86
ENDBRANCH  35  36
ENDBRANCH  27  30
ENDBRANCH  25  26
ENDBRANCH   1  25
TORSDOF 16
ENDMDL
