MODEL 1
REMARK VINA RESULT:     -11.4      0.000      0.000
REMARK SMILES Nc1cc(C(=O)NCCCCNC(=O)c2ccc(-c3c4nc(c(-c5c(F)cc(S(=O)(=O)[O-])cc5F)c5ccc([nH]5)c(-c5c(F)cc(S(=O)(=O)[O-])cc5F)c5nc(c(-c6c(F)cc(S(=O)(=O)[O-])cc6F)c6ccc3[nH]6)C=C5)C=C4)cc2)nc2ccccc12
REMARK SMILES IDX 10 1 9 2 8 3 7 4 5 5 6 6 4 8 2 9 3 10 87 11 82 12 86 13
REMARK SMILES IDX 81 14 83 15 85 16 84 17 1 18 11 21 12 22 13 23 14 25 15 26
REMARK SMILES IDX 16 27 80 28 17 29 79 30 18 31 19 32 20 33 73 34 21 35 78 36
REMARK SMILES IDX 72 37 74 38 22 39 77 40 71 41 70 42 23 44 57 45 36 46 56 47
REMARK SMILES IDX 37 48 40 49 55 50 75 51 38 52 39 53 54 55 76 56 41 57 24 58
REMARK SMILES IDX 25 59 34 60 26 61 27 62 33 63 35 64 28 65 29 66 30 67 31 68
REMARK SMILES IDX 32 69 58 70 59 71 68 72 60 73 61 74 67 75 69 76 62 77 63 78
REMARK SMILES IDX 64 79 65 80 66 81 42 82 43 83 52 84 44 85 45 86 51 87 53 88
REMARK SMILES IDX 46 89 47 90 48 91 49 92 50 93
REMARK H PARENT 7 7 1 19 1 20 12 24 74 43 40 54
REMARK Flexibility Score: inf
ROOT
ATOM      1  C   UNL A   1      33.631  28.592  25.613  1.00  0.00     0.023 C 
ENDROOT
BRANCH   1   2
ATOM      2  C   UNL A   1      33.610  27.206  24.967  1.00  0.00     0.023 C 
BRANCH   2   3
ATOM      3  C   UNL A   1      32.357  26.895  24.142  1.00  0.00     0.116 C 
BRANCH   3   4
ATOM      4  N   UNL A   1      32.683  26.576  22.768  1.00  0.00    -0.351 N 
ATOM      5  C   UNL A   1      33.130  25.430  22.147  1.00  0.00     0.269 C 
ATOM      6  O   UNL A   1      33.213  25.488  20.916  1.00  0.00    -0.268 OA
ATOM      7  H   UNL A   1      32.560  27.333  22.150  1.00  0.00     0.163 HD
BRANCH   5   8
ATOM      8  C   UNL A   1      33.510  24.148  22.854  1.00  0.00     0.130 A 
ATOM      9  C   UNL A   1      33.075  22.115  24.071  1.00  0.00     0.043 A 
ATOM     10  C   UNL A   1      32.612  23.230  23.369  1.00  0.00     0.060 A 
ATOM     11  C   UNL A   1      34.467  21.921  24.205  1.00  0.00     0.023 A 
ATOM     12  C   UNL A   1      35.310  22.911  23.660  1.00  0.00     0.073 A 
ATOM     13  C   UNL A   1      35.057  20.813  24.862  1.00  0.00     0.012 A 
ATOM     14  N   UNL A   1      34.848  23.984  23.006  1.00  0.00    -0.242 NA
ATOM     15  C   UNL A   1      36.685  22.780  23.803  1.00  0.00     0.029 A 
ATOM     16  C   UNL A   1      36.441  20.702  24.991  1.00  0.00     0.001 A 
ATOM     17  C   UNL A   1      37.258  21.691  24.464  1.00  0.00     0.002 A 
BRANCH   9  18
ATOM     18  N   UNL A   1      32.134  21.183  24.516  1.00  0.00    -0.398 N 
ATOM     19  H   UNL A   1      32.341  20.221  24.483  1.00  0.00     0.156 HD
ATOM     20  H   UNL A   1      31.265  21.489  24.863  1.00  0.00     0.156 HD
ENDBRANCH   9  18
ENDBRANCH   5   8
ENDBRANCH   3   4
ENDBRANCH   2   3
ENDBRANCH   1   2
BRANCH   1  21
ATOM     21  C   UNL A   1      33.835  28.594  27.122  1.00  0.00     0.116 C 
BRANCH  21  22
ATOM     22  N   UNL A   1      33.782  29.921  27.720  1.00  0.00    -0.352 N 
ATOM     23  C   UNL A   1      34.800  30.588  28.368  1.00  0.00     0.251 C 
ATOM     24  H   UNL A   1      32.923  30.396  27.653  1.00  0.00     0.163 HD
ATOM     25  O   UNL A   1      34.603  31.674  28.900  1.00  0.00    -0.269 OA
BRANCH  23  26
ATOM     26  C   UNL A   1      36.118  29.927  28.460  1.00  0.00     0.039 A 
ATOM     27  C   UNL A   1      36.530  29.353  29.664  1.00  0.00     0.014 A 
ATOM     28  C   UNL A   1      36.985  30.000  27.368  1.00  0.00     0.014 A 
ATOM     29  C   UNL A   1      37.864  29.001  29.828  1.00  0.00     0.010 A 
ATOM     30  C   UNL A   1      38.311  29.590  27.518  1.00  0.00     0.010 A 
ATOM     31  C   UNL A   1      38.773  29.145  28.766  1.00  0.00    -0.014 A 
BRANCH  31  32
ATOM     32  C   UNL A   1      40.215  28.893  29.007  1.00  0.00     0.031 A 
ATOM     33  C   UNL A   1      40.823  27.567  28.633  1.00  0.00     0.074 A 
ATOM     34  C   UNL A   1      40.990  29.885  29.481  1.00  0.00     0.049 A 
ATOM     35  N   UNL A   1      42.064  27.168  28.752  1.00  0.00    -0.248 NA
ATOM     36  C   UNL A   1      39.924  26.559  28.049  1.00  0.00     0.031 C 
ATOM     37  C   UNL A   1      40.520  31.224  29.841  1.00  0.00     0.029 A 
ATOM     38  N   UNL A   1      42.341  29.932  29.704  1.00  0.00    -0.354 N 
ATOM     39  C   UNL A   1      42.091  25.862  28.278  1.00  0.00     0.074 A 
ATOM     40  C   UNL A   1      40.740  25.528  27.882  1.00  0.00     0.031 C 
ATOM     41  C   UNL A   1      41.574  31.979  30.185  1.00  0.00     0.029 A 
ATOM     42  C   UNL A   1      42.785  31.166  30.114  1.00  0.00     0.049 A 
ATOM     43  H   UNL A   1      42.936  29.157  29.584  1.00  0.00     0.167 HD
ATOM     44  C   UNL A   1      43.147  25.020  28.176  1.00  0.00     0.037 A 
ATOM     45  C   UNL A   1      44.028  31.595  30.401  1.00  0.00     0.037 A 
ATOM     46  C   UNL A   1      44.495  25.360  28.545  1.00  0.00     0.049 A 
ATOM     47  C   UNL A   1      45.178  30.638  30.300  1.00  0.00     0.074 A 
ATOM     48  C   UNL A   1      45.630  24.569  28.495  1.00  0.00     0.029 A 
ATOM     49  N   UNL A   1      44.893  26.600  29.020  1.00  0.00    -0.354 N 
ATOM     50  N   UNL A   1      45.175  29.387  29.907  1.00  0.00    -0.248 NA
ATOM     51  C   UNL A   1      46.497  31.143  30.703  1.00  0.00     0.031 C 
ATOM     52  C   UNL A   1      46.713  25.328  28.956  1.00  0.00     0.029 A 
ATOM     53  C   UNL A   1      46.254  26.597  29.271  1.00  0.00     0.049 A 
ATOM     54  H   UNL A   1      44.296  27.371  29.157  1.00  0.00     0.167 HD
ATOM     55  C   UNL A   1      46.488  28.951  30.023  1.00  0.00     0.074 A 
ATOM     56  C   UNL A   1      47.263  30.078  30.501  1.00  0.00     0.031 C 
ATOM     57  C   UNL A   1      47.003  27.724  29.763  1.00  0.00     0.037 A 
BRANCH  44  58
ATOM     58  C   UNL A   1      42.878  23.638  27.655  1.00  0.00     0.058 A 
ATOM     59  C   UNL A   1      42.520  22.588  28.514  1.00  0.00     0.135 A 
ATOM     60  C   UNL A   1      42.959  23.366  26.280  1.00  0.00     0.135 A 
ATOM     61  F   UNL A   1      42.450  22.793  29.838  1.00  0.00    -0.206 F 
ATOM     62  C   UNL A   1      42.269  21.308  28.029  1.00  0.00     0.059 A 
ATOM     63  C   UNL A   1      42.698  22.097  25.772  1.00  0.00     0.059 A 
ATOM     64  F   UNL A   1      43.303  24.336  25.419  1.00  0.00    -0.206 F 
ATOM     65  C   UNL A   1      42.366  21.071  26.657  1.00  0.00     0.060 A 
BRANCH  65  66
ATOM     66  S   UNL A   1      42.048  19.404  26.038  1.00  0.00     0.124 S 
ATOM     67  O   UNL A   1      42.922  19.358  24.869  1.00  0.00    -0.237 OA
ATOM     68  O   UNL A   1      42.449  18.566  27.162  1.00  0.00    -0.237 OA
ATOM     69  O   UNL A   1      40.617  19.419  25.751  1.00  0.00    -0.744 OA
ENDBRANCH  65  66
ENDBRANCH  44  58
BRANCH  45  70
ATOM     70  C   UNL A   1      44.235  33.007  30.798  1.00  0.00     0.058 A 
ATOM     71  C   UNL A   1      44.590  33.973  29.848  1.00  0.00     0.135 A 
ATOM     72  C   UNL A   1      44.017  33.429  32.118  1.00  0.00     0.135 A 
ATOM     73  F   UNL A   1      44.812  33.612  28.574  1.00  0.00    -0.206 F 
ATOM     74  C   UNL A   1      44.712  35.315  30.188  1.00  0.00     0.059 A 
ATOM     75  C   UNL A   1      44.119  34.768  32.480  1.00  0.00     0.059 A 
ATOM     76  F   UNL A   1      43.663  32.539  33.059  1.00  0.00    -0.206 F 
ATOM     77  C   UNL A   1      44.466  35.704  31.506  1.00  0.00     0.060 A 
BRANCH  77  78
ATOM     78  S   UNL A   1      44.527  37.460  31.925  1.00  0.00     0.124 S 
ATOM     79  O   UNL A   1      43.963  37.460  33.270  1.00  0.00    -0.237 OA
ATOM     80  O   UNL A   1      45.954  37.754  31.831  1.00  0.00    -0.237 OA
ATOM     81  O   UNL A   1      43.702  38.076  30.891  1.00  0.00    -0.744 OA
ENDBRANCH  77  78
ENDBRANCH  45  70
BRANCH  57  82
ATOM     82  C   UNL A   1      48.470  27.536  30.010  1.00  0.00     0.058 A 
ATOM     83  C   UNL A   1      48.945  27.143  31.269  1.00  0.00     0.135 A 
ATOM     84  C   UNL A   1      49.401  27.710  28.975  1.00  0.00     0.135 A 
ATOM     85  F   UNL A   1      48.092  26.970  32.291  1.00  0.00    -0.206 F 
ATOM     86  C   UNL A   1      50.302  26.939  31.499  1.00  0.00     0.059 A 
ATOM     87  C   UNL A   1      50.759  27.500  29.180  1.00  0.00     0.059 A 
ATOM     88  F   UNL A   1      48.990  28.081  27.752  1.00  0.00    -0.206 F 
ATOM     89  C   UNL A   1      51.202  27.123  30.448  1.00  0.00     0.060 A 
BRANCH  89  90
ATOM     90  S   UNL A   1      52.958  26.832  30.747  1.00  0.00     0.124 S 
ATOM     91  O   UNL A   1      53.394  28.136  31.232  1.00  0.00    -0.237 OA
ATOM     92  O   UNL A   1      52.937  25.761  31.740  1.00  0.00    -0.237 OA
ATOM     93  O   UNL A   1      53.464  26.446  29.433  1.00  0.00    -0.744 OA
ENDBRANCH  89  90
ENDBRANCH  57  82
ENDBRANCH  31  32
ENDBRANCH  23  26
ENDBRANCH  21  22
ENDBRANCH   1  21
TORSDOF 15
ENDMDL
MODEL 2
REMARK VINA RESULT:     -11.4      1.358      1.821
REMARK SMILES Nc1cc(C(=O)NCCCCNC(=O)c2ccc(-c3c4nc(c(-c5c(F)cc(S(=O)(=O)[O-])cc5F)c5ccc([nH]5)c(-c5c(F)cc(S(=O)(=O)[O-])cc5F)c5nc(c(-c6c(F)cc(S(=O)(=O)[O-])cc6F)c6ccc3[nH]6)C=C5)C=C4)cc2)nc2ccccc12
REMARK SMILES IDX 10 1 9 2 8 3 7 4 5 5 6 6 4 8 2 9 3 10 87 11 82 12 86 13
REMARK SMILES IDX 81 14 83 15 85 16 84 17 1 18 11 21 12 22 13 23 14 25 15 26
REMARK SMILES IDX 16 27 80 28 17 29 79 30 18 31 19 32 20 33 73 34 21 35 78 36
REMARK SMILES IDX 72 37 74 38 22 39 77 40 71 41 70 42 23 44 57 45 36 46 56 47
REMARK SMILES IDX 37 48 40 49 55 50 75 51 38 52 39 53 54 55 76 56 41 57 24 58
REMARK SMILES IDX 25 59 34 60 26 61 27 62 33 63 35 64 28 65 29 66 30 67 31 68
REMARK SMILES IDX 32 69 58 70 59 71 68 72 60 73 61 74 67 75 69 76 62 77 63 78
REMARK SMILES IDX 64 79 65 80 66 81 42 82 43 83 52 84 44 85 45 86 51 87 53 88
REMARK SMILES IDX 46 89 47 90 48 91 49 92 50 93
REMARK H PARENT 7 7 1 19 1 20 12 24 74 43 40 54
REMARK Flexibility Score: inf
ROOT
ATOM      1  C   UNL A   1      32.217  27.936  27.249  1.00  0.00     0.023 C 
ENDROOT
BRANCH   1   2
ATOM      2  C   UNL A   1      31.773  27.469  25.862  1.00  0.00     0.023 C 
BRANCH   2   3
ATOM      3  C   UNL A   1      32.166  26.032  25.506  1.00  0.00     0.116 C 
BRANCH   3   4
ATOM      4  N   UNL A   1      31.499  25.066  26.352  1.00  0.00    -0.351 N 
ATOM      5  C   UNL A   1      31.835  23.802  26.788  1.00  0.00     0.269 C 
ATOM      6  O   UNL A   1      31.055  23.292  27.597  1.00  0.00    -0.268 OA
ATOM      7  H   UNL A   1      30.625  25.375  26.685  1.00  0.00     0.163 HD
BRANCH   5   8
ATOM      8  C   UNL A   1      33.060  23.029  26.353  1.00  0.00     0.130 A 
ATOM      9  C   UNL A   1      34.271  21.058  25.679  1.00  0.00     0.043 A 
ATOM     10  C   UNL A   1      33.067  21.693  25.992  1.00  0.00     0.060 A 
ATOM     11  C   UNL A   1      35.465  21.811  25.694  1.00  0.00     0.023 A 
ATOM     12  C   UNL A   1      35.368  23.163  26.084  1.00  0.00     0.073 A 
ATOM     13  C   UNL A   1      36.739  21.289  25.361  1.00  0.00     0.012 A 
ATOM     14  N   UNL A   1      34.207  23.749  26.400  1.00  0.00    -0.242 NA
ATOM     15  C   UNL A   1      36.524  23.929  26.151  1.00  0.00     0.029 A 
ATOM     16  C   UNL A   1      37.885  22.080  25.434  1.00  0.00     0.001 A 
ATOM     17  C   UNL A   1      37.778  23.403  25.835  1.00  0.00     0.002 A 
BRANCH   9  18
ATOM     18  N   UNL A   1      34.220  19.727  25.258  1.00  0.00    -0.398 N 
ATOM     19  H   UNL A   1      34.854  19.401  24.578  1.00  0.00     0.156 HD
ATOM     20  H   UNL A   1      33.550  19.115  25.641  1.00  0.00     0.156 HD
ENDBRANCH   9  18
ENDBRANCH   5   8
ENDBRANCH   3   4
ENDBRANCH   2   3
ENDBRANCH   1   2
BRANCH   1  21
ATOM     21  C   UNL A   1      33.592  28.588  27.298  1.00  0.00     0.116 C 
BRANCH  21  22
ATOM     22  N   UNL A   1      33.568  29.972  27.753  1.00  0.00    -0.352 N 
ATOM     23  C   UNL A   1      34.608  30.690  28.304  1.00  0.00     0.251 C 
ATOM     24  H   UNL A   1      32.712  30.448  27.657  1.00  0.00     0.163 HD
ATOM     25  O   UNL A   1      34.436  31.827  28.723  1.00  0.00    -0.269 OA
BRANCH  23  26
ATOM     26  C   UNL A   1      35.921  30.024  28.434  1.00  0.00     0.039 A 
ATOM     27  C   UNL A   1      36.316  29.493  29.664  1.00  0.00     0.014 A 
ATOM     28  C   UNL A   1      36.800  30.050  27.350  1.00  0.00     0.014 A 
ATOM     29  C   UNL A   1      37.646  29.139  29.855  1.00  0.00     0.010 A 
ATOM     30  C   UNL A   1      38.121  29.637  27.529  1.00  0.00     0.010 A 
ATOM     31  C   UNL A   1      38.567  29.237  28.798  1.00  0.00    -0.014 A 
BRANCH  31  32
ATOM     32  C   UNL A   1      40.004  28.985  29.064  1.00  0.00     0.031 A 
ATOM     33  C   UNL A   1      40.623  27.665  28.686  1.00  0.00     0.074 A 
ATOM     34  C   UNL A   1      40.769  29.972  29.564  1.00  0.00     0.049 A 
ATOM     35  N   UNL A   1      41.862  27.267  28.823  1.00  0.00    -0.248 NA
ATOM     36  C   UNL A   1      39.737  26.662  28.071  1.00  0.00     0.031 C 
ATOM     37  C   UNL A   1      40.288  31.306  29.932  1.00  0.00     0.029 A 
ATOM     38  N   UNL A   1      42.115  30.020  29.815  1.00  0.00    -0.354 N 
ATOM     39  C   UNL A   1      41.902  25.967  28.334  1.00  0.00     0.074 A 
ATOM     40  C   UNL A   1      40.559  25.635  27.908  1.00  0.00     0.031 C 
ATOM     41  C   UNL A   1      41.333  32.059  30.305  1.00  0.00     0.029 A 
ATOM     42  C   UNL A   1      42.547  31.249  30.248  1.00  0.00     0.049 A 
ATOM     43  H   UNL A   1      42.714  29.248  29.696  1.00  0.00     0.167 HD
ATOM     44  C   UNL A   1      42.961  25.129  28.241  1.00  0.00     0.037 A 
ATOM     45  C   UNL A   1      43.784  31.677  30.563  1.00  0.00     0.037 A 
ATOM     46  C   UNL A   1      44.301  25.467  28.641  1.00  0.00     0.049 A 
ATOM     47  C   UNL A   1      44.938  30.724  30.474  1.00  0.00     0.074 A 
ATOM     48  C   UNL A   1      45.439  24.679  28.603  1.00  0.00     0.029 A 
ATOM     49  N   UNL A   1      44.687  26.702  29.138  1.00  0.00    -0.354 N 
ATOM     50  N   UNL A   1      44.946  29.478  30.065  1.00  0.00    -0.248 NA
ATOM     51  C   UNL A   1      46.248  31.226  30.908  1.00  0.00     0.031 C 
ATOM     52  C   UNL A   1      46.510  25.434  29.094  1.00  0.00     0.029 A 
ATOM     53  C   UNL A   1      46.043  26.698  29.416  1.00  0.00     0.049 A 
ATOM     54  H   UNL A   1      44.086  27.469  29.273  1.00  0.00     0.167 HD
ATOM     55  C   UNL A   1      46.257  29.043  30.201  1.00  0.00     0.074 A 
ATOM     56  C   UNL A   1      47.020  30.166  30.708  1.00  0.00     0.031 C 
ATOM     57  C   UNL A   1      46.780  27.821  29.936  1.00  0.00     0.037 A 
BRANCH  44  58
ATOM     58  C   UNL A   1      42.706  23.752  27.699  1.00  0.00     0.058 A 
ATOM     59  C   UNL A   1      42.715  23.495  26.319  1.00  0.00     0.135 A 
ATOM     60  C   UNL A   1      42.471  22.675  28.569  1.00  0.00     0.135 A 
ATOM     61  F   UNL A   1      42.914  24.495  25.447  1.00  0.00    -0.206 F 
ATOM     62  C   UNL A   1      42.481  22.218  25.819  1.00  0.00     0.059 A 
ATOM     63  C   UNL A   1      42.249  21.388  28.090  1.00  0.00     0.059 A 
ATOM     64  F   UNL A   1      42.447  22.872  29.896  1.00  0.00    -0.206 F 
ATOM     65  C   UNL A   1      42.243  21.171  26.712  1.00  0.00     0.060 A 
BRANCH  65  66
ATOM     66  S   UNL A   1      41.931  19.520  26.052  1.00  0.00     0.124 S 
ATOM     67  O   UNL A   1      42.765  19.524  24.854  1.00  0.00    -0.237 OA
ATOM     68  O   UNL A   1      42.384  18.654  27.136  1.00  0.00    -0.237 OA
ATOM     69  O   UNL A   1      40.491  19.517  25.815  1.00  0.00    -0.744 OA
ENDBRANCH  65  66
ENDBRANCH  44  58
BRANCH  45  70
ATOM     70  C   UNL A   1      43.980  33.085  30.983  1.00  0.00     0.058 A 
ATOM     71  C   UNL A   1      44.185  34.092  30.031  1.00  0.00     0.135 A 
ATOM     72  C   UNL A   1      43.899  33.459  32.332  1.00  0.00     0.135 A 
ATOM     73  F   UNL A   1      44.273  33.778  28.729  1.00  0.00    -0.206 F 
ATOM     74  C   UNL A   1      44.293  35.428  30.399  1.00  0.00     0.059 A 
ATOM     75  C   UNL A   1      43.990  34.789  32.725  1.00  0.00     0.059 A 
ATOM     76  F   UNL A   1      43.691  32.527  33.276  1.00  0.00    -0.206 F 
ATOM     77  C   UNL A   1      44.186  35.768  31.750  1.00  0.00     0.060 A 
BRANCH  77  78
ATOM     78  S   UNL A   1      44.226  37.512  32.218  1.00  0.00     0.124 S 
ATOM     79  O   UNL A   1      45.614  37.672  32.632  1.00  0.00    -0.237 OA
ATOM     80  O   UNL A   1      43.849  38.177  30.974  1.00  0.00    -0.237 OA
ATOM     81  O   UNL A   1      43.232  37.591  33.284  1.00  0.00    -0.744 OA
ENDBRANCH  77  78
ENDBRANCH  45  70
BRANCH  57  82
ATOM     82  C   UNL A   1      48.242  27.633  30.208  1.00  0.00     0.058 A 
ATOM     83  C   UNL A   1      48.695  27.231  31.473  1.00  0.00     0.135 A 
ATOM     84  C   UNL A   1      49.192  27.815  29.192  1.00  0.00     0.135 A 
ATOM     85  F   UNL A   1      47.823  27.050  32.478  1.00  0.00    -0.206 F 
ATOM     86  C   UNL A   1      50.047  27.027  31.727  1.00  0.00     0.059 A 
ATOM     87  C   UNL A   1      50.547  27.605  29.421  1.00  0.00     0.059 A 
ATOM     88  F   UNL A   1      48.803  28.195  27.965  1.00  0.00    -0.206 F 
ATOM     89  C   UNL A   1      50.966  27.220  30.694  1.00  0.00     0.060 A 
BRANCH  89  90
ATOM     90  S   UNL A   1      52.717  26.928  31.024  1.00  0.00     0.124 S 
ATOM     91  O   UNL A   1      52.658  26.163  32.265  1.00  0.00    -0.237 OA
ATOM     92  O   UNL A   1      53.143  26.186  29.841  1.00  0.00    -0.237 OA
ATOM     93  O   UNL A   1      53.267  28.276  31.139  1.00  0.00    -0.744 OA
ENDBRANCH  89  90
ENDBRANCH  57  82
ENDBRANCH  31  32
ENDBRANCH  23  26
ENDBRANCH  21  22
ENDBRANCH   1  21
TORSDOF 15
ENDMDL
MODEL 3
REMARK VINA RESULT:     -11.3      1.629      3.312
REMARK SMILES Nc1cc(C(=O)NCCCCNC(=O)c2ccc(-c3c4nc(c(-c5c(F)cc(S(=O)(=O)[O-])cc5F)c5ccc([nH]5)c(-c5c(F)cc(S(=O)(=O)[O-])cc5F)c5nc(c(-c6c(F)cc(S(=O)(=O)[O-])cc6F)c6ccc3[nH]6)C=C5)C=C4)cc2)nc2ccccc12
REMARK SMILES IDX 10 1 9 2 8 3 7 4 5 5 6 6 4 8 2 9 3 10 87 11 82 12 86 13
REMARK SMILES IDX 81 14 83 15 85 16 84 17 1 18 11 21 12 22 13 23 14 25 15 26
REMARK SMILES IDX 16 27 80 28 17 29 79 30 18 31 19 32 20 33 73 34 21 35 78 36
REMARK SMILES IDX 72 37 74 38 22 39 77 40 71 41 70 42 23 44 57 45 36 46 56 47
REMARK SMILES IDX 37 48 40 49 55 50 75 51 38 52 39 53 54 55 76 56 41 57 24 58
REMARK SMILES IDX 25 59 34 60 26 61 27 62 33 63 35 64 28 65 29 66 30 67 31 68
REMARK SMILES IDX 32 69 58 70 59 71 68 72 60 73 61 74 67 75 69 76 62 77 63 78
REMARK SMILES IDX 64 79 65 80 66 81 42 82 43 83 52 84 44 85 45 86 51 87 53 88
REMARK SMILES IDX 46 89 47 90 48 91 49 92 50 93
REMARK H PARENT 7 7 1 19 1 20 12 24 74 43 40 54
REMARK Flexibility Score: inf
ROOT
ATOM      1  C   UNL A   1      33.324  29.002  25.527  1.00  0.00     0.023 C 
ENDROOT
BRANCH   1   2
ATOM      2  C   UNL A   1      33.997  28.024  24.563  1.00  0.00     0.023 C 
BRANCH   2   3
ATOM      3  C   UNL A   1      33.733  26.543  24.854  1.00  0.00     0.116 C 
BRANCH   3   4
ATOM      4  N   UNL A   1      33.465  25.796  23.644  1.00  0.00    -0.351 N 
ATOM      5  C   UNL A   1      32.400  25.766  22.770  1.00  0.00     0.269 C 
ATOM      6  O   UNL A   1      32.553  25.065  21.766  1.00  0.00    -0.268 OA
ATOM      7  H   UNL A   1      34.194  25.183  23.393  1.00  0.00     0.163 HD
BRANCH   5   8
ATOM      8  C   UNL A   1      31.099  26.515  22.958  1.00  0.00     0.130 A 
ATOM      9  C   UNL A   1      28.793  26.753  23.613  1.00  0.00     0.043 A 
ATOM     10  C   UNL A   1      29.966  25.997  23.560  1.00  0.00     0.060 A 
ATOM     11  C   UNL A   1      28.799  28.062  23.084  1.00  0.00     0.023 A 
ATOM     12  C   UNL A   1      29.993  28.506  22.478  1.00  0.00     0.073 A 
ATOM     13  C   UNL A   1      27.685  28.937  23.111  1.00  0.00     0.012 A 
ATOM     14  N   UNL A   1      31.103  27.760  22.420  1.00  0.00    -0.242 NA
ATOM     15  C   UNL A   1      30.031  29.772  21.911  1.00  0.00     0.029 A 
ATOM     16  C   UNL A   1      27.748  30.205  22.535  1.00  0.00     0.001 A 
ATOM     17  C   UNL A   1      28.923  30.623  21.929  1.00  0.00     0.002 A 
BRANCH   9  18
ATOM     18  N   UNL A   1      27.696  26.214  24.287  1.00  0.00    -0.398 N 
ATOM     19  H   UNL A   1      26.862  26.022  23.798  1.00  0.00     0.156 HD
ATOM     20  H   UNL A   1      27.755  26.024  25.252  1.00  0.00     0.156 HD
ENDBRANCH   9  18
ENDBRANCH   5   8
ENDBRANCH   3   4
ENDBRANCH   2   3
ENDBRANCH   1   2
BRANCH   1  21
ATOM     21  C   UNL A   1      33.824  28.934  26.964  1.00  0.00     0.116 C 
BRANCH  21  22
ATOM     22  N   UNL A   1      33.744  30.204  27.674  1.00  0.00    -0.352 N 
ATOM     23  C   UNL A   1      34.728  30.802  28.432  1.00  0.00     0.251 C 
ATOM     24  H   UNL A   1      32.891  30.689  27.605  1.00  0.00     0.163 HD
ATOM     25  O   UNL A   1      34.506  31.838  29.047  1.00  0.00    -0.269 OA
BRANCH  23  26
ATOM     26  C   UNL A   1      36.037  30.124  28.534  1.00  0.00     0.039 A 
ATOM     27  C   UNL A   1      36.435  29.551  29.743  1.00  0.00     0.014 A 
ATOM     28  C   UNL A   1      36.910  30.180  27.446  1.00  0.00     0.014 A 
ATOM     29  C   UNL A   1      37.763  29.182  29.916  1.00  0.00     0.010 A 
ATOM     30  C   UNL A   1      38.230  29.754  27.605  1.00  0.00     0.010 A 
ATOM     31  C   UNL A   1      38.679  29.310  28.858  1.00  0.00    -0.014 A 
BRANCH  31  32
ATOM     32  C   UNL A   1      40.117  29.041  29.109  1.00  0.00     0.031 A 
ATOM     33  C   UNL A   1      40.714  27.712  28.726  1.00  0.00     0.074 A 
ATOM     34  C   UNL A   1      40.899  30.019  29.599  1.00  0.00     0.049 A 
ATOM     35  N   UNL A   1      41.950  27.299  28.850  1.00  0.00    -0.248 NA
ATOM     36  C   UNL A   1      39.810  26.720  28.123  1.00  0.00     0.031 C 
ATOM     37  C   UNL A   1      40.439  31.358  29.970  1.00  0.00     0.029 A 
ATOM     38  N   UNL A   1      42.248  30.050  29.834  1.00  0.00    -0.354 N 
ATOM     39  C   UNL A   1      41.968  25.998  28.362  1.00  0.00     0.074 A 
ATOM     40  C   UNL A   1      40.617  25.682  27.952  1.00  0.00     0.031 C 
ATOM     41  C   UNL A   1      41.497  32.099  30.330  1.00  0.00     0.029 A 
ATOM     42  C   UNL A   1      42.701  31.274  30.261  1.00  0.00     0.049 A 
ATOM     43  H   UNL A   1      42.836  29.270  29.710  1.00  0.00     0.167 HD
ATOM     44  C   UNL A   1      43.016  25.146  28.259  1.00  0.00     0.037 A 
ATOM     45  C   UNL A   1      43.946  31.688  30.562  1.00  0.00     0.037 A 
ATOM     46  C   UNL A   1      44.364  25.468  28.644  1.00  0.00     0.049 A 
ATOM     47  C   UNL A   1      45.087  30.719  30.461  1.00  0.00     0.074 A 
ATOM     48  C   UNL A   1      45.491  24.666  28.595  1.00  0.00     0.029 A 
ATOM     49  N   UNL A   1      44.771  26.699  29.135  1.00  0.00    -0.354 N 
ATOM     50  N   UNL A   1      45.074  29.473  30.054  1.00  0.00    -0.248 NA
ATOM     51  C   UNL A   1      46.408  31.207  30.880  1.00  0.00     0.031 C 
ATOM     52  C   UNL A   1      46.578  25.409  29.072  1.00  0.00     0.029 A 
ATOM     53  C   UNL A   1      46.130  26.679  29.397  1.00  0.00     0.049 A 
ATOM     54  H   UNL A   1      44.181  27.474  29.275  1.00  0.00     0.167 HD
ATOM     55  C   UNL A   1      46.382  29.022  30.176  1.00  0.00     0.074 A 
ATOM     56  C   UNL A   1      47.164  30.136  30.673  1.00  0.00     0.031 C 
ATOM     57  C   UNL A   1      46.886  27.793  29.908  1.00  0.00     0.037 A 
BRANCH  44  58
ATOM     58  C   UNL A   1      42.737  23.772  27.722  1.00  0.00     0.058 A 
ATOM     59  C   UNL A   1      42.664  23.526  26.342  1.00  0.00     0.135 A 
ATOM     60  C   UNL A   1      42.565  22.687  28.595  1.00  0.00     0.135 A 
ATOM     61  F   UNL A   1      42.802  24.535  25.468  1.00  0.00    -0.206 F 
ATOM     62  C   UNL A   1      42.409  22.252  25.846  1.00  0.00     0.059 A 
ATOM     63  C   UNL A   1      42.323  21.401  28.120  1.00  0.00     0.059 A 
ATOM     64  F   UNL A   1      42.621  22.873  29.923  1.00  0.00    -0.206 F 
ATOM     65  C   UNL A   1      42.233  21.196  26.743  1.00  0.00     0.060 A 
BRANCH  65  66
ATOM     66  S   UNL A   1      41.893  19.547  26.090  1.00  0.00     0.124 S 
ATOM     67  O   UNL A   1      42.275  18.705  27.219  1.00  0.00    -0.237 OA
ATOM     68  O   UNL A   1      40.465  19.609  25.801  1.00  0.00    -0.237 OA
ATOM     69  O   UNL A   1      42.762  19.462  24.920  1.00  0.00    -0.744 OA
ENDBRANCH  65  66
ENDBRANCH  44  58
BRANCH  45  70
ATOM     70  C   UNL A   1      44.164  33.093  30.976  1.00  0.00     0.058 A 
ATOM     71  C   UNL A   1      44.491  34.075  30.032  1.00  0.00     0.135 A 
ATOM     72  C   UNL A   1      43.984  33.493  32.309  1.00  0.00     0.135 A 
ATOM     73  F   UNL A   1      44.676  33.734  28.746  1.00  0.00    -0.206 F 
ATOM     74  C   UNL A   1      44.623  35.412  30.390  1.00  0.00     0.059 A 
ATOM     75  C   UNL A   1      44.096  34.826  32.689  1.00  0.00     0.059 A 
ATOM     76  F   UNL A   1      43.658  32.588  33.244  1.00  0.00    -0.206 F 
ATOM     77  C   UNL A   1      44.415  35.779  31.721  1.00  0.00     0.060 A 
BRANCH  77  78
ATOM     78  S   UNL A   1      44.487  37.528  32.167  1.00  0.00     0.124 S 
ATOM     79  O   UNL A   1      45.896  37.685  32.505  1.00  0.00    -0.237 OA
ATOM     80  O   UNL A   1      44.049  38.181  30.937  1.00  0.00    -0.237 OA
ATOM     81  O   UNL A   1      43.552  37.623  33.283  1.00  0.00    -0.744 OA
ENDBRANCH  77  78
ENDBRANCH  45  70
BRANCH  57  82
ATOM     82  C   UNL A   1      48.349  27.588  30.164  1.00  0.00     0.058 A 
ATOM     83  C   UNL A   1      48.810  27.171  31.421  1.00  0.00     0.135 A 
ATOM     84  C   UNL A   1      49.290  27.767  29.139  1.00  0.00     0.135 A 
ATOM     85  F   UNL A   1      47.946  26.991  32.433  1.00  0.00    -0.206 F 
ATOM     86  C   UNL A   1      50.162  26.951  31.660  1.00  0.00     0.059 A 
ATOM     87  C   UNL A   1      50.645  27.542  29.353  1.00  0.00     0.059 A 
ATOM     88  F   UNL A   1      48.894  28.161  27.919  1.00  0.00    -0.206 F 
ATOM     89  C   UNL A   1      51.073  27.142  30.619  1.00  0.00     0.060 A 
BRANCH  89  90
ATOM     90  S   UNL A   1      52.824  26.829  30.930  1.00  0.00     0.124 S 
ATOM     91  O   UNL A   1      52.789  25.472  31.464  1.00  0.00    -0.237 OA
ATOM     92  O   UNL A   1      53.412  26.972  29.601  1.00  0.00    -0.237 OA
ATOM     93  O   UNL A   1      53.189  27.873  31.883  1.00  0.00    -0.744 OA
ENDBRANCH  89  90
ENDBRANCH  57  82
ENDBRANCH  31  32
ENDBRANCH  23  26
ENDBRANCH  21  22
ENDBRANCH   1  21
TORSDOF 15
ENDMDL
