MODEL 1
REMARK VINA RESULT:     -10.8      0.000      0.000
REMARK SMILES C[C@@]([NH2+]Cc1ccccc1Br)(C(=O)NCCCCNC(=O)c1ccc(-c2c3nc(c(-c4c(F)cc(S(=O)(=O)[O-])cc4F)c4ccc([nH]4)c(-c4c(F)cc(S(=O)(=O)[O-])cc4F)c4nc(c(-c5c(F)cc(S(=O)(=O)[O-])cc5F)c5ccc2[nH]5)C=C4)C=C3)cc1)C(F)(F)F
REMARK SMILES IDX 16 1 15 2 14 3 12 4 13 5 2 7 1 8 3 9 4 12 5 13 6 14 10 15
REMARK SMILES IDX 7 16 9 17 11 18 8 19 88 20 89 21 90 22 91 23 17 24 18 25
REMARK SMILES IDX 19 26 20 27 21 29 22 30 23 31 87 32 24 33 86 34 25 35 26 36
REMARK SMILES IDX 27 37 80 38 28 39 85 40 79 41 81 42 29 43 84 44 78 45 77 46
REMARK SMILES IDX 30 48 64 49 43 50 63 51 44 52 47 53 62 54 82 55 45 56 46 57
REMARK SMILES IDX 61 59 83 60 48 61 31 62 32 63 41 64 33 65 34 66 40 67 42 68
REMARK SMILES IDX 35 69 36 70 37 71 38 72 39 73 65 74 66 75 75 76 67 77 68 78
REMARK SMILES IDX 74 79 76 80 69 81 70 82 71 83 72 84 73 85 49 86 50 87 59 88
REMARK SMILES IDX 51 89 52 90 58 91 60 92 53 93 54 94 55 95 56 96 57 97
REMARK H PARENT 14 6 3 10 3 11 19 28 81 47 47 58
REMARK Flexibility Score: inf
ROOT
ATOM      1  C   UNL A   1      31.572  28.966  26.351  1.00  0.00     0.023 C 
ENDROOT
BRANCH   1   2
ATOM      2  C   UNL A   1      31.737  29.693  25.016  1.00  0.00     0.116 C 
BRANCH   2   3
ATOM      3  N   UNL A   1      30.744  30.744  24.909  1.00  0.00    -0.350 N 
ATOM      4  C   UNL A   1      29.735  30.928  24.005  1.00  0.00     0.290 C 
ATOM      5  O   UNL A   1      29.227  32.051  23.991  1.00  0.00    -0.267 OA
ATOM      6  H   UNL A   1      30.808  31.441  25.602  1.00  0.00     0.163 HD
BRANCH   4   7
ATOM      7  C   UNL A   1      29.247  29.794  23.080  1.00  0.00     0.268 C 
ATOM      8  C   UNL A   1      29.840  29.978  21.661  1.00  0.00     0.101 C 
BRANCH   7   9
ATOM      9  N   UNL A   1      29.713  28.432  23.555  1.00  0.00    -0.322 N 
ATOM     10  H   UNL A   1      28.894  27.932  23.901  1.00  0.00     0.347 HD
ATOM     11  H   UNL A   1      30.429  28.630  24.255  1.00  0.00     0.347 HD
BRANCH   9  12
ATOM     12  C   UNL A   1      30.379  27.562  22.569  1.00  0.00     0.299 C 
BRANCH  12  13
ATOM     13  C   UNL A   1      31.231  26.465  23.160  1.00  0.00     0.020 A 
ATOM     14  C   UNL A   1      30.582  25.335  23.699  1.00  0.00     0.011 A 
ATOM     15  C   UNL A   1      32.636  26.498  23.206  1.00  0.00     0.026 A 
ATOM     16  C   UNL A   1      31.302  24.323  24.337  1.00  0.00     0.001 A 
ATOM     17  C   UNL A   1      33.349  25.505  23.887  1.00  0.00     0.016 A 
ATOM     18  Br  UNL A   1      33.672  27.840  22.347  1.00  0.00    -0.050 Br
ATOM     19  C   UNL A   1      32.683  24.425  24.461  1.00  0.00     0.001 A 
ENDBRANCH  12  13
ENDBRANCH   9  12
ENDBRANCH   7   9
BRANCH   7  20
ATOM     20  C   UNL A   1      27.712  29.977  22.882  1.00  0.00     0.453 C 
ATOM     21  F   UNL A   1      27.415  30.684  21.765  1.00  0.00    -0.164 F 
ATOM     22  F   UNL A   1      27.136  28.750  22.710  1.00  0.00    -0.164 F 
ATOM     23  F   UNL A   1      27.069  30.550  23.912  1.00  0.00    -0.164 F 
ENDBRANCH   7  20
ENDBRANCH   4   7
ENDBRANCH   2   3
ENDBRANCH   1   2
BRANCH   1  24
ATOM     24  C   UNL A   1      32.678  27.944  26.633  1.00  0.00     0.023 C 
BRANCH  24  25
ATOM     25  C   UNL A   1      34.003  28.552  27.082  1.00  0.00     0.116 C 
BRANCH  25  26
ATOM     26  N   UNL A   1      33.847  29.892  27.627  1.00  0.00    -0.352 N 
ATOM     27  C   UNL A   1      34.743  30.631  28.358  1.00  0.00     0.251 C 
ATOM     28  H   UNL A   1      32.982  30.328  27.445  1.00  0.00     0.163 HD
ATOM     29  O   UNL A   1      34.393  31.691  28.870  1.00  0.00    -0.269 OA
BRANCH  27  30
ATOM     30  C   UNL A   1      36.116  30.124  28.549  1.00  0.00     0.039 A 
ATOM     31  C   UNL A   1      37.009  30.170  27.475  1.00  0.00     0.014 A 
ATOM     32  C   UNL A   1      36.528  29.628  29.790  1.00  0.00     0.014 A 
ATOM     33  C   UNL A   1      38.334  29.775  27.664  1.00  0.00     0.010 A 
ATOM     34  C   UNL A   1      37.864  29.303  29.994  1.00  0.00     0.010 A 
ATOM     35  C   UNL A   1      38.781  29.372  28.934  1.00  0.00    -0.014 A 
BRANCH  35  36
ATOM     36  C   UNL A   1      40.203  29.020  29.173  1.00  0.00     0.031 A 
ATOM     37  C   UNL A   1      41.144  30.039  29.754  1.00  0.00     0.074 A 
ATOM     38  C   UNL A   1      40.659  27.807  28.803  1.00  0.00     0.049 A 
ATOM     39  N   UNL A   1      42.430  29.945  29.973  1.00  0.00    -0.248 NA
ATOM     40  C   UNL A   1      40.570  31.347  30.111  1.00  0.00     0.031 C 
ATOM     41  C   UNL A   1      39.854  26.752  28.183  1.00  0.00     0.029 A 
ATOM     42  N   UNL A   1      41.915  27.260  28.883  1.00  0.00    -0.354 N 
ATOM     43  C   UNL A   1      42.821  31.181  30.474  1.00  0.00     0.074 A 
ATOM     44  C   UNL A   1      41.647  32.025  30.480  1.00  0.00     0.031 C 
ATOM     45  C   UNL A   1      40.629  25.678  27.963  1.00  0.00     0.029 A 
ATOM     46  C   UNL A   1      41.992  25.978  28.389  1.00  0.00     0.049 A 
ATOM     47  H   UNL A   1      42.688  27.738  29.260  1.00  0.00     0.167 HD
ATOM     48  C   UNL A   1      44.044  31.570  30.910  1.00  0.00     0.037 A 
ATOM     49  C   UNL A   1      43.044  25.143  28.285  1.00  0.00     0.037 A 
ATOM     50  C   UNL A   1      45.201  30.713  30.928  1.00  0.00     0.049 A 
ATOM     51  C   UNL A   1      44.390  25.597  28.780  1.00  0.00     0.074 A 
ATOM     52  C   UNL A   1      46.467  30.988  31.415  1.00  0.00     0.029 A 
ATOM     53  N   UNL A   1      45.234  29.415  30.438  1.00  0.00    -0.354 N 
ATOM     54  N   UNL A   1      44.727  26.745  29.316  1.00  0.00    -0.248 NA
ATOM     55  C   UNL A   1      45.499  24.639  28.661  1.00  0.00     0.031 C 
ATOM     56  C   UNL A   1      47.278  29.874  31.176  1.00  0.00     0.029 A 
ATOM     57  C   UNL A   1      46.506  28.885  30.588  1.00  0.00     0.049 A 
ATOM     58  H   UNL A   1      44.468  28.941  30.041  1.00  0.00     0.167 HD
ATOM     59  C   UNL A   1      46.079  26.638  29.626  1.00  0.00     0.074 A 
ATOM     60  C   UNL A   1      46.494  25.309  29.225  1.00  0.00     0.031 C 
ATOM     61  C   UNL A   1      46.901  27.556  30.191  1.00  0.00     0.037 A 
BRANCH  48  62
ATOM     62  C   UNL A   1      44.192  32.982  31.405  1.00  0.00     0.058 A 
ATOM     63  C   UNL A   1      43.986  33.318  32.752  1.00  0.00     0.135 A 
ATOM     64  C   UNL A   1      44.578  34.009  30.528  1.00  0.00     0.135 A 
ATOM     65  F   UNL A   1      43.600  32.380  33.632  1.00  0.00    -0.206 F 
ATOM     66  C   UNL A   1      44.126  34.625  33.207  1.00  0.00     0.059 A 
ATOM     67  C   UNL A   1      44.753  35.319  30.966  1.00  0.00     0.059 A 
ATOM     68  F   UNL A   1      44.788  33.745  29.228  1.00  0.00    -0.206 F 
ATOM     69  C   UNL A   1      44.509  35.619  32.305  1.00  0.00     0.060 A 
BRANCH  69  70
ATOM     70  S   UNL A   1      44.691  37.309  32.912  1.00  0.00     0.124 S 
ATOM     71  O   UNL A   1      45.658  37.127  33.990  1.00  0.00    -0.237 OA
ATOM     72  O   UNL A   1      45.183  38.014  31.733  1.00  0.00    -0.237 OA
ATOM     73  O   UNL A   1      43.340  37.667  33.336  1.00  0.00    -0.744 OA
ENDBRANCH  69  70
ENDBRANCH  48  62
BRANCH  49  74
ATOM     74  C   UNL A   1      42.859  23.781  27.716  1.00  0.00     0.058 A 
ATOM     75  C   UNL A   1      42.580  22.686  28.547  1.00  0.00     0.135 A 
ATOM     76  C   UNL A   1      42.944  23.548  26.334  1.00  0.00     0.135 A 
ATOM     77  F   UNL A   1      42.493  22.858  29.875  1.00  0.00    -0.206 F 
ATOM     78  C   UNL A   1      42.409  21.405  28.033  1.00  0.00     0.059 A 
ATOM     79  C   UNL A   1      42.753  22.280  25.794  1.00  0.00     0.059 A 
ATOM     80  F   UNL A   1      43.192  24.566  25.495  1.00  0.00    -0.206 F 
ATOM     81  C   UNL A   1      42.495  21.213  26.652  1.00  0.00     0.060 A 
BRANCH  81  82
ATOM     82  S   UNL A   1      42.226  19.553  25.992  1.00  0.00     0.124 S 
ATOM     83  O   UNL A   1      40.793  19.576  25.717  1.00  0.00    -0.237 OA
ATOM     84  O   UNL A   1      43.101  19.543  24.824  1.00  0.00    -0.237 OA
ATOM     85  O   UNL A   1      42.645  18.685  27.088  1.00  0.00    -0.744 OA
ENDBRANCH  81  82
ENDBRANCH  49  74
BRANCH  61  86
ATOM     86  C   UNL A   1      48.325  27.147  30.448  1.00  0.00     0.058 A 
ATOM     87  C   UNL A   1      49.353  27.445  29.541  1.00  0.00     0.135 A 
ATOM     88  C   UNL A   1      48.672  26.495  31.643  1.00  0.00     0.135 A 
ATOM     89  F   UNL A   1      49.074  28.061  28.381  1.00  0.00    -0.206 F 
ATOM     90  C   UNL A   1      50.674  27.091  29.799  1.00  0.00     0.059 A 
ATOM     91  C   UNL A   1      49.988  26.158  31.934  1.00  0.00     0.059 A 
ATOM     92  F   UNL A   1      47.727  26.197  32.549  1.00  0.00    -0.206 F 
ATOM     93  C   UNL A   1      50.982  26.449  31.000  1.00  0.00     0.060 A 
BRANCH  93  94
ATOM     94  S   UNL A   1      52.704  26.029  31.341  1.00  0.00     0.124 S 
ATOM     95  O   UNL A   1      53.268  25.987  29.995  1.00  0.00    -0.237 OA
ATOM     96  O   UNL A   1      53.139  27.144  32.175  1.00  0.00    -0.237 OA
ATOM     97  O   UNL A   1      52.611  24.742  32.023  1.00  0.00    -0.744 OA
ENDBRANCH  93  94
ENDBRANCH  61  86
ENDBRANCH  35  36
ENDBRANCH  27  30
ENDBRANCH  25  26
ENDBRANCH  24  25
ENDBRANCH   1  24
TORSDOF 18
ENDMDL
MODEL 2
REMARK VINA RESULT:     -10.8      5.327     10.761
REMARK SMILES C[C@@]([NH2+]Cc1ccccc1Br)(C(=O)NCCCCNC(=O)c1ccc(-c2c3nc(c(-c4c(F)cc(S(=O)(=O)[O-])cc4F)c4ccc([nH]4)c(-c4c(F)cc(S(=O)(=O)[O-])cc4F)c4nc(c(-c5c(F)cc(S(=O)(=O)[O-])cc5F)c5ccc2[nH]5)C=C4)C=C3)cc1)C(F)(F)F
REMARK SMILES IDX 16 1 15 2 14 3 12 4 13 5 2 7 1 8 3 9 4 12 5 13 6 14 10 15
REMARK SMILES IDX 7 16 9 17 11 18 8 19 88 20 89 21 90 22 91 23 17 24 18 25
REMARK SMILES IDX 19 26 20 27 21 29 22 30 23 31 87 32 24 33 86 34 25 35 26 36
REMARK SMILES IDX 27 37 80 38 28 39 85 40 79 41 81 42 29 43 84 44 78 45 77 46
REMARK SMILES IDX 30 48 64 49 43 50 63 51 44 52 47 53 62 54 82 55 45 56 46 57
REMARK SMILES IDX 61 59 83 60 48 61 31 62 32 63 41 64 33 65 34 66 40 67 42 68
REMARK SMILES IDX 35 69 36 70 37 71 38 72 39 73 65 74 66 75 75 76 67 77 68 78
REMARK SMILES IDX 74 79 76 80 69 81 70 82 71 83 72 84 73 85 49 86 50 87 59 88
REMARK SMILES IDX 51 89 52 90 58 91 60 92 53 93 54 94 55 95 56 96 57 97
REMARK H PARENT 14 6 3 10 3 11 19 28 81 47 47 58
REMARK Flexibility Score: inf
ROOT
ATOM      1  C   UNL A   1      37.684  22.513  25.201  1.00  0.00     0.023 C 
ENDROOT
BRANCH   1   2
ATOM      2  C   UNL A   1      36.219  22.253  24.847  1.00  0.00     0.116 C 
BRANCH   2   3
ATOM      3  N   UNL A   1      35.552  21.624  25.971  1.00  0.00    -0.350 N 
ATOM      4  C   UNL A   1      34.405  21.968  26.631  1.00  0.00     0.290 C 
ATOM      5  O   UNL A   1      34.230  21.416  27.720  1.00  0.00    -0.267 OA
ATOM      6  H   UNL A   1      35.999  20.816  26.315  1.00  0.00     0.163 HD
BRANCH   4   7
ATOM      7  C   UNL A   1      33.385  22.962  26.041  1.00  0.00     0.268 C 
ATOM      8  C   UNL A   1      32.230  23.194  27.045  1.00  0.00     0.101 C 
BRANCH   7   9
ATOM      9  N   UNL A   1      34.000  24.325  25.788  1.00  0.00    -0.322 N 
ATOM     10  H   UNL A   1      34.482  24.282  24.890  1.00  0.00     0.347 HD
ATOM     11  H   UNL A   1      34.601  24.494  26.595  1.00  0.00     0.347 HD
BRANCH   9  12
ATOM     12  C   UNL A   1      33.088  25.482  25.747  1.00  0.00     0.299 C 
BRANCH  12  13
ATOM     13  C   UNL A   1      33.286  26.406  24.570  1.00  0.00     0.020 A 
ATOM     14  C   UNL A   1      32.979  25.920  23.282  1.00  0.00     0.011 A 
ATOM     15  C   UNL A   1      33.757  27.726  24.677  1.00  0.00     0.026 A 
ATOM     16  C   UNL A   1      33.216  26.690  22.143  1.00  0.00     0.001 A 
ATOM     17  C   UNL A   1      34.038  28.477  23.529  1.00  0.00     0.016 A 
ATOM     18  Br  UNL A   1      34.021  28.604  26.342  1.00  0.00    -0.050 Br
ATOM     19  C   UNL A   1      33.778  27.956  22.264  1.00  0.00     0.001 A 
ENDBRANCH  12  13
ENDBRANCH   9  12
ENDBRANCH   7   9
BRANCH   7  20
ATOM     20  C   UNL A   1      32.703  22.268  24.823  1.00  0.00     0.453 C 
ATOM     21  F   UNL A   1      33.397  22.444  23.672  1.00  0.00    -0.164 F 
ATOM     22  F   UNL A   1      32.674  20.919  25.037  1.00  0.00    -0.164 F 
ATOM     23  F   UNL A   1      31.432  22.637  24.595  1.00  0.00    -0.164 F 
ENDBRANCH   7  20
ENDBRANCH   4   7
ENDBRANCH   2   3
ENDBRANCH   1   2
BRANCH   1  24
ATOM     24  C   UNL A   1      37.883  23.697  26.153  1.00  0.00     0.023 C 
BRANCH  24  25
ATOM     25  C   UNL A   1      39.108  23.586  27.055  1.00  0.00     0.116 C 
BRANCH  25  26
ATOM     26  N   UNL A   1      40.354  23.806  26.336  1.00  0.00    -0.352 N 
ATOM     27  C   UNL A   1      41.210  24.876  26.408  1.00  0.00     0.251 C 
ATOM     28  H   UNL A   1      40.619  23.089  25.713  1.00  0.00     0.163 HD
ATOM     29  O   UNL A   1      42.145  24.970  25.618  1.00  0.00    -0.269 OA
BRANCH  27  30
ATOM     30  C   UNL A   1      40.977  25.924  27.422  1.00  0.00     0.039 A 
ATOM     31  C   UNL A   1      40.023  25.701  28.418  1.00  0.00     0.014 A 
ATOM     32  C   UNL A   1      41.715  27.111  27.402  1.00  0.00     0.014 A 
ATOM     33  C   UNL A   1      39.854  26.645  29.432  1.00  0.00     0.010 A 
ATOM     34  C   UNL A   1      41.594  28.015  28.452  1.00  0.00     0.010 A 
ATOM     35  C   UNL A   1      40.662  27.793  29.477  1.00  0.00    -0.014 A 
BRANCH  35  36
ATOM     36  C   UNL A   1      40.549  28.770  30.588  1.00  0.00     0.031 A 
ATOM     37  C   UNL A   1      41.430  28.639  31.800  1.00  0.00     0.074 A 
ATOM     38  C   UNL A   1      39.607  29.733  30.534  1.00  0.00     0.049 A 
ATOM     39  N   UNL A   1      41.435  29.350  32.897  1.00  0.00    -0.248 NA
ATOM     40  C   UNL A   1      42.418  27.548  31.789  1.00  0.00     0.031 C 
ATOM     41  C   UNL A   1      38.660  29.930  29.434  1.00  0.00     0.029 A 
ATOM     42  N   UNL A   1      39.282  30.720  31.430  1.00  0.00    -0.354 N 
ATOM     43  C   UNL A   1      42.408  28.783  33.713  1.00  0.00     0.074 A 
ATOM     44  C   UNL A   1      42.939  27.640  33.004  1.00  0.00     0.031 C 
ATOM     45  C   UNL A   1      37.880  30.987  29.708  1.00  0.00     0.029 A 
ATOM     46  C   UNL A   1      38.241  31.520  31.018  1.00  0.00     0.049 A 
ATOM     47  H   UNL A   1      39.750  30.844  32.287  1.00  0.00     0.167 HD
ATOM     48  C   UNL A   1      42.836  29.193  34.931  1.00  0.00     0.037 A 
ATOM     49  C   UNL A   1      37.643  32.560  31.630  1.00  0.00     0.037 A 
ATOM     50  C   UNL A   1      42.323  30.351  35.616  1.00  0.00     0.049 A 
ATOM     51  C   UNL A   1      38.139  32.998  32.981  1.00  0.00     0.074 A 
ATOM     52  C   UNL A   1      42.737  30.890  36.821  1.00  0.00     0.029 A 
ATOM     53  N   UNL A   1      41.283  31.147  35.158  1.00  0.00    -0.354 N 
ATOM     54  N   UNL A   1      39.108  32.494  33.707  1.00  0.00    -0.248 NA
ATOM     55  C   UNL A   1      37.464  34.150  33.596  1.00  0.00     0.031 C 
ATOM     56  C   UNL A   1      41.917  31.985  37.115  1.00  0.00     0.029 A 
ATOM     57  C   UNL A   1      41.026  32.160  36.068  1.00  0.00     0.049 A 
ATOM     58  H   UNL A   1      40.799  31.012  34.311  1.00  0.00     0.167 HD
ATOM     59  C   UNL A   1      39.180  33.284  34.849  1.00  0.00     0.074 A 
ATOM     60  C   UNL A   1      38.161  34.305  34.713  1.00  0.00     0.031 C 
ATOM     61  C   UNL A   1      40.013  33.175  35.913  1.00  0.00     0.037 A 
BRANCH  48  62
ATOM     62  C   UNL A   1      43.914  28.385  35.600  1.00  0.00     0.058 A 
ATOM     63  C   UNL A   1      43.611  27.348  36.497  1.00  0.00     0.135 A 
ATOM     64  C   UNL A   1      45.267  28.628  35.315  1.00  0.00     0.135 A 
ATOM     65  F   UNL A   1      42.335  27.082  36.818  1.00  0.00    -0.206 F 
ATOM     66  C   UNL A   1      44.611  26.601  37.111  1.00  0.00     0.059 A 
ATOM     67  C   UNL A   1      46.284  27.874  35.896  1.00  0.00     0.059 A 
ATOM     68  F   UNL A   1      45.614  29.608  34.466  1.00  0.00    -0.206 F 
ATOM     69  C   UNL A   1      45.945  26.873  36.805  1.00  0.00     0.060 A 
BRANCH  69  70
ATOM     70  S   UNL A   1      47.230  25.892  37.607  1.00  0.00     0.124 S 
ATOM     71  O   UNL A   1      46.533  24.629  37.830  1.00  0.00    -0.237 OA
ATOM     72  O   UNL A   1      48.281  25.865  36.596  1.00  0.00    -0.237 OA
ATOM     73  O   UNL A   1      47.541  26.657  38.811  1.00  0.00    -0.744 OA
ENDBRANCH  69  70
ENDBRANCH  48  62
BRANCH  49  74
ATOM     74  C   UNL A   1      36.529  33.278  30.957  1.00  0.00     0.058 A 
ATOM     75  C   UNL A   1      36.772  34.111  29.854  1.00  0.00     0.135 A 
ATOM     76  C   UNL A   1      35.201  33.139  31.390  1.00  0.00     0.135 A 
ATOM     77  F   UNL A   1      38.025  34.280  29.406  1.00  0.00    -0.206 F 
ATOM     78  C   UNL A   1      35.743  34.794  29.215  1.00  0.00     0.059 A 
ATOM     79  C   UNL A   1      34.152  33.793  30.752  1.00  0.00     0.059 A 
ATOM     80  F   UNL A   1      34.913  32.341  32.430  1.00  0.00    -0.206 F 
ATOM     81  C   UNL A   1      34.433  34.627  29.671  1.00  0.00     0.060 A 
BRANCH  81  82
ATOM     82  S   UNL A   1      33.100  35.483  28.805  1.00  0.00     0.124 S 
ATOM     83  O   UNL A   1      32.499  34.394  28.042  1.00  0.00    -0.237 OA
ATOM     84  O   UNL A   1      32.302  36.005  29.910  1.00  0.00    -0.237 OA
ATOM     85  O   UNL A   1      33.804  36.491  28.019  1.00  0.00    -0.744 OA
ENDBRANCH  81  82
ENDBRANCH  49  74
BRANCH  61  86
ATOM     86  C   UNL A   1      39.888  34.206  37.000  1.00  0.00     0.058 A 
ATOM     87  C   UNL A   1      40.540  35.446  36.920  1.00  0.00     0.135 A 
ATOM     88  C   UNL A   1      39.061  33.969  38.111  1.00  0.00     0.135 A 
ATOM     89  F   UNL A   1      41.347  35.719  35.883  1.00  0.00    -0.206 F 
ATOM     90  C   UNL A   1      40.396  36.407  37.916  1.00  0.00     0.059 A 
ATOM     91  C   UNL A   1      38.880  34.927  39.102  1.00  0.00     0.059 A 
ATOM     92  F   UNL A   1      38.406  32.804  38.230  1.00  0.00    -0.206 F 
ATOM     93  C   UNL A   1      39.561  36.139  39.002  1.00  0.00     0.060 A 
BRANCH  93  94
ATOM     94  S   UNL A   1      39.351  37.409  40.267  1.00  0.00     0.124 S 
ATOM     95  O   UNL A   1      38.760  36.642  41.359  1.00  0.00    -0.237 OA
ATOM     96  O   UNL A   1      40.721  37.865  40.483  1.00  0.00    -0.237 OA
ATOM     97  O   UNL A   1      38.466  38.380  39.631  1.00  0.00    -0.744 OA
ENDBRANCH  93  94
ENDBRANCH  61  86
ENDBRANCH  35  36
ENDBRANCH  27  30
ENDBRANCH  25  26
ENDBRANCH  24  25
ENDBRANCH   1  24
TORSDOF 18
ENDMDL
MODEL 3
REMARK VINA RESULT:     -10.7      4.038      8.304
REMARK SMILES C[C@@]([NH2+]Cc1ccccc1Br)(C(=O)NCCCCNC(=O)c1ccc(-c2c3nc(c(-c4c(F)cc(S(=O)(=O)[O-])cc4F)c4ccc([nH]4)c(-c4c(F)cc(S(=O)(=O)[O-])cc4F)c4nc(c(-c5c(F)cc(S(=O)(=O)[O-])cc5F)c5ccc2[nH]5)C=C4)C=C3)cc1)C(F)(F)F
REMARK SMILES IDX 16 1 15 2 14 3 12 4 13 5 2 7 1 8 3 9 4 12 5 13 6 14 10 15
REMARK SMILES IDX 7 16 9 17 11 18 8 19 88 20 89 21 90 22 91 23 17 24 18 25
REMARK SMILES IDX 19 26 20 27 21 29 22 30 23 31 87 32 24 33 86 34 25 35 26 36
REMARK SMILES IDX 27 37 80 38 28 39 85 40 79 41 81 42 29 43 84 44 78 45 77 46
REMARK SMILES IDX 30 48 64 49 43 50 63 51 44 52 47 53 62 54 82 55 45 56 46 57
REMARK SMILES IDX 61 59 83 60 48 61 31 62 32 63 41 64 33 65 34 66 40 67 42 68
REMARK SMILES IDX 35 69 36 70 37 71 38 72 39 73 65 74 66 75 75 76 67 77 68 78
REMARK SMILES IDX 74 79 76 80 69 81 70 82 71 83 72 84 73 85 49 86 50 87 59 88
REMARK SMILES IDX 51 89 52 90 58 91 60 92 53 93 54 94 55 95 56 96 57 97
REMARK H PARENT 14 6 3 10 3 11 19 28 81 47 47 58
REMARK Flexibility Score: inf
ROOT
ATOM      1  C   UNL A   1      36.702  20.756  25.359  1.00  0.00     0.023 C 
ENDROOT
BRANCH   1   2
ATOM      2  C   UNL A   1      36.135  22.034  25.980  1.00  0.00     0.116 C 
BRANCH   2   3
ATOM      3  N   UNL A   1      35.068  21.694  26.902  1.00  0.00    -0.350 N 
ATOM      4  C   UNL A   1      33.830  22.248  27.074  1.00  0.00     0.290 C 
ATOM      5  O   UNL A   1      33.247  21.940  28.115  1.00  0.00    -0.267 OA
ATOM      6  H   UNL A   1      35.269  20.940  27.502  1.00  0.00     0.163 HD
BRANCH   4   7
ATOM      7  C   UNL A   1      33.195  23.179  26.021  1.00  0.00     0.268 C 
ATOM      8  C   UNL A   1      31.899  23.810  26.587  1.00  0.00     0.101 C 
BRANCH   7   9
ATOM      9  N   UNL A   1      34.105  24.339  25.665  1.00  0.00    -0.322 N 
ATOM     10  H   UNL A   1      34.362  24.236  24.684  1.00  0.00     0.347 HD
ATOM     11  H   UNL A   1      34.879  24.277  26.326  1.00  0.00     0.347 HD
BRANCH   9  12
ATOM     12  C   UNL A   1      33.566  25.700  25.841  1.00  0.00     0.299 C 
BRANCH  12  13
ATOM     13  C   UNL A   1      33.575  26.554  24.596  1.00  0.00     0.020 A 
ATOM     14  C   UNL A   1      33.394  25.917  23.351  1.00  0.00     0.011 A 
ATOM     15  C   UNL A   1      33.750  27.948  24.599  1.00  0.00     0.026 A 
ATOM     16  C   UNL A   1      33.474  26.631  22.155  1.00  0.00     0.001 A 
ATOM     17  C   UNL A   1      33.877  28.652  23.396  1.00  0.00     0.016 A 
ATOM     18  Br  UNL A   1      33.802  28.985  26.191  1.00  0.00    -0.050 Br
ATOM     19  C   UNL A   1      33.750  27.994  22.176  1.00  0.00     0.001 A 
ENDBRANCH  12  13
ENDBRANCH   9  12
ENDBRANCH   7   9
BRANCH   7  20
ATOM     20  C   UNL A   1      32.705  22.288  24.839  1.00  0.00     0.453 C 
ATOM     21  F   UNL A   1      31.593  22.783  24.244  1.00  0.00    -0.164 F 
ATOM     22  F   UNL A   1      33.668  22.266  23.870  1.00  0.00    -0.164 F 
ATOM     23  F   UNL A   1      32.464  21.006  25.155  1.00  0.00    -0.164 F 
ENDBRANCH   7  20
ENDBRANCH   4   7
ENDBRANCH   2   3
ENDBRANCH   1   2
BRANCH   1  24
ATOM     24  C   UNL A   1      38.167  20.882  24.929  1.00  0.00     0.023 C 
BRANCH  24  25
ATOM     25  C   UNL A   1      39.166  20.903  26.082  1.00  0.00     0.116 C 
BRANCH  25  26
ATOM     26  N   UNL A   1      40.068  19.761  26.060  1.00  0.00    -0.352 N 
ATOM     27  C   UNL A   1      41.438  19.748  26.136  1.00  0.00     0.251 C 
ATOM     28  H   UNL A   1      39.637  18.878  25.981  1.00  0.00     0.163 HD
ATOM     29  O   UNL A   1      42.054  18.702  25.952  1.00  0.00    -0.269 OA
BRANCH  27  30
ATOM     30  C   UNL A   1      42.162  21.005  26.410  1.00  0.00     0.039 A 
ATOM     31  C   UNL A   1      42.506  21.834  25.340  1.00  0.00     0.014 A 
ATOM     32  C   UNL A   1      42.477  21.375  27.721  1.00  0.00     0.014 A 
ATOM     33  C   UNL A   1      43.112  23.066  25.590  1.00  0.00     0.010 A 
ATOM     34  C   UNL A   1      43.016  22.632  27.972  1.00  0.00     0.010 A 
ATOM     35  C   UNL A   1      43.340  23.490  26.910  1.00  0.00    -0.014 A 
BRANCH  35  36
ATOM     36  C   UNL A   1      43.915  24.828  27.200  1.00  0.00     0.031 A 
ATOM     37  C   UNL A   1      43.029  25.937  27.698  1.00  0.00     0.074 A 
ATOM     38  C   UNL A   1      45.218  25.060  26.948  1.00  0.00     0.049 A 
ATOM     39  N   UNL A   1      43.329  27.186  27.942  1.00  0.00    -0.248 NA
ATOM     40  C   UNL A   1      41.613  25.605  27.926  1.00  0.00     0.031 C 
ATOM     41  C   UNL A   1      46.167  24.079  26.417  1.00  0.00     0.029 A 
ATOM     42  N   UNL A   1      45.970  26.199  27.096  1.00  0.00    -0.354 N 
ATOM     43  C   UNL A   1      42.141  27.793  28.333  1.00  0.00     0.074 A 
ATOM     44  C   UNL A   1      41.105  26.787  28.246  1.00  0.00     0.031 C 
ATOM     45  C   UNL A   1      47.377  24.649  26.307  1.00  0.00     0.029 A 
ATOM     46  C   UNL A   1      47.285  26.046  26.722  1.00  0.00     0.049 A 
ATOM     47  H   UNL A   1      45.603  27.046  27.438  1.00  0.00     0.167 HD
ATOM     48  C   UNL A   1      41.937  29.066  28.748  1.00  0.00     0.037 A 
ATOM     49  C   UNL A   1      48.299  26.932  26.709  1.00  0.00     0.037 A 
ATOM     50  C   UNL A   1      42.979  30.052  28.860  1.00  0.00     0.049 A 
ATOM     51  C   UNL A   1      48.047  28.339  27.179  1.00  0.00     0.074 A 
ATOM     52  C   UNL A   1      42.889  31.348  29.337  1.00  0.00     0.029 A 
ATOM     53  N   UNL A   1      44.302  29.853  28.492  1.00  0.00    -0.354 N 
ATOM     54  N   UNL A   1      46.933  28.876  27.613  1.00  0.00    -0.248 NA
ATOM     55  C   UNL A   1      49.193  29.260  27.163  1.00  0.00     0.031 C 
ATOM     56  C   UNL A   1      44.147  31.948  29.212  1.00  0.00     0.029 A 
ATOM     57  C   UNL A   1      45.033  31.010  28.707  1.00  0.00     0.049 A 
ATOM     58  H   UNL A   1      44.667  29.014  28.129  1.00  0.00     0.167 HD
ATOM     59  C   UNL A   1      47.248  30.188  27.949  1.00  0.00     0.074 A 
ATOM     60  C   UNL A   1      48.661  30.360  27.677  1.00  0.00     0.031 C 
ATOM     61  C   UNL A   1      46.442  31.162  28.439  1.00  0.00     0.037 A 
BRANCH  48  62
ATOM     62  C   UNL A   1      40.533  29.464  29.114  1.00  0.00     0.058 A 
ATOM     63  C   UNL A   1      40.150  29.682  30.446  1.00  0.00     0.135 A 
ATOM     64  C   UNL A   1      39.565  29.664  28.115  1.00  0.00     0.135 A 
ATOM     65  F   UNL A   1      41.030  29.490  31.443  1.00  0.00    -0.206 F 
ATOM     66  C   UNL A   1      38.852  30.052  30.780  1.00  0.00     0.059 A 
ATOM     67  C   UNL A   1      38.267  30.063  28.424  1.00  0.00     0.059 A 
ATOM     68  F   UNL A   1      39.876  29.470  26.824  1.00  0.00    -0.206 F 
ATOM     69  C   UNL A   1      37.916  30.239  29.761  1.00  0.00     0.060 A 
BRANCH  69  70
ATOM     70  S   UNL A   1      36.237  30.724  30.211  1.00  0.00     0.124 S 
ATOM     71  O   UNL A   1      36.439  32.106  30.636  1.00  0.00    -0.237 OA
ATOM     72  O   UNL A   1      35.514  30.547  28.956  1.00  0.00    -0.237 OA
ATOM     73  O   UNL A   1      35.885  29.787  31.273  1.00  0.00    -0.744 OA
ENDBRANCH  69  70
ENDBRANCH  48  62
BRANCH  49  74
ATOM     74  C   UNL A   1      49.653  26.506  26.265  1.00  0.00     0.058 A 
ATOM     75  C   UNL A   1      50.500  25.789  27.124  1.00  0.00     0.135 A 
ATOM     76  C   UNL A   1      50.124  26.795  24.974  1.00  0.00     0.135 A 
ATOM     77  F   UNL A   1      50.097  25.494  28.369  1.00  0.00    -0.206 F 
ATOM     78  C   UNL A   1      51.771  25.388  26.727  1.00  0.00     0.059 A 
ATOM     79  C   UNL A   1      51.382  26.382  24.546  1.00  0.00     0.059 A 
ATOM     80  F   UNL A   1      49.346  27.463  24.109  1.00  0.00    -0.206 F 
ATOM     81  C   UNL A   1      52.202  25.688  25.433  1.00  0.00     0.060 A 
BRANCH  81  82
ATOM     82  S   UNL A   1      53.837  25.120  24.913  1.00  0.00     0.124 S 
ATOM     83  O   UNL A   1      53.646  23.675  24.870  1.00  0.00    -0.237 OA
ATOM     84  O   UNL A   1      53.995  25.784  23.623  1.00  0.00    -0.237 OA
ATOM     85  O   UNL A   1      54.713  25.611  25.972  1.00  0.00    -0.744 OA
ENDBRANCH  81  82
ENDBRANCH  49  74
BRANCH  61  86
ATOM     86  C   UNL A   1      47.071  32.491  28.751  1.00  0.00     0.058 A 
ATOM     87  C   UNL A   1      47.666  32.753  29.995  1.00  0.00     0.135 A 
ATOM     88  C   UNL A   1      47.126  33.498  27.772  1.00  0.00     0.135 A 
ATOM     89  F   UNL A   1      47.634  31.828  30.967  1.00  0.00    -0.206 F 
ATOM     90  C   UNL A   1      48.273  33.975  30.266  1.00  0.00     0.059 A 
ATOM     91  C   UNL A   1      47.753  34.715  28.012  1.00  0.00     0.059 A 
ATOM     92  F   UNL A   1      46.582  33.294  26.562  1.00  0.00    -0.206 F 
ATOM     93  C   UNL A   1      48.314  34.949  29.267  1.00  0.00     0.060 A 
BRANCH  93  94
ATOM     94  S   UNL A   1      49.139  36.516  29.618  1.00  0.00     0.124 S 
ATOM     95  O   UNL A   1      50.503  36.234  29.182  1.00  0.00    -0.237 OA
ATOM     96  O   UNL A   1      48.391  37.456  28.789  1.00  0.00    -0.237 OA
ATOM     97  O   UNL A   1      48.961  36.679  31.057  1.00  0.00    -0.744 OA
ENDBRANCH  93  94
ENDBRANCH  61  86
ENDBRANCH  35  36
ENDBRANCH  27  30
ENDBRANCH  25  26
ENDBRANCH  24  25
ENDBRANCH   1  24
TORSDOF 18
ENDMDL
