MODEL 1
REMARK VINA RESULT:     -10.8      0.000      0.000
REMARK SMILES CC(C)C[C@H](CNC(=O)c1ccc(O)cc1O)C(=O)NCCCCNC(=O)c1ccc(-c2c3nc(c(-c4c(F)cc(S(=O)(=O)[O-])cc4F)c4ccc([nH]4)c(-c4c(F)cc(S(=O)(=O)[O-])cc4F)c4nc(c(-c5c(F)cc(S(=O)(=O)[O-])cc5F)c5ccc2[nH]5)C=C4)C=C3)cc1
REMARK SMILES IDX 22 1 21 2 20 3 18 4 19 5 5 7 4 8 2 9 1 10 3 11 6 12 7 13
REMARK SMILES IDX 8 14 9 16 10 17 11 18 16 19 12 20 15 21 13 22 17 23 14 25
REMARK SMILES IDX 23 27 24 28 25 29 26 30 27 32 28 33 29 34 93 35 30 36 92 37
REMARK SMILES IDX 31 38 32 39 33 40 86 41 34 42 91 43 85 44 87 45 35 46 90 47
REMARK SMILES IDX 84 48 83 49 36 51 70 52 49 53 69 54 50 55 53 56 68 57 88 58
REMARK SMILES IDX 51 59 52 60 67 62 89 63 54 64 37 65 38 66 47 67 39 68 40 69
REMARK SMILES IDX 46 70 48 71 41 72 42 73 43 74 44 75 45 76 71 77 72 78 81 79
REMARK SMILES IDX 73 80 74 81 80 82 82 83 75 84 76 85 77 86 78 87 79 88 55 89
REMARK SMILES IDX 56 90 65 91 57 92 58 93 64 94 66 95 59 96 60 97 61 98 62 99
REMARK SMILES IDX 63 100
REMARK H PARENT 20 6 7 15 17 24 14 26 25 31 87 50 53 61
REMARK Flexibility Score: inf
ROOT
ATOM      1  C   UNL A   1      34.516  24.333  24.815  1.00  0.00     0.023 C 
ENDROOT
BRANCH   1   2
ATOM      2  C   UNL A   1      34.294  25.800  25.169  1.00  0.00     0.116 C 
BRANCH   2   3
ATOM      3  N   UNL A   1      32.998  25.983  25.780  1.00  0.00    -0.356 N 
ATOM      4  C   UNL A   1      32.389  27.104  26.235  1.00  0.00     0.224 C 
ATOM      5  O   UNL A   1      31.304  26.967  26.806  1.00  0.00    -0.275 OA
ATOM      6  H   UNL A   1      32.470  25.158  25.881  1.00  0.00     0.163 HD
BRANCH   4   7
ATOM      7  C   UNL A   1      33.002  28.495  26.100  1.00  0.00     0.098 C 
BRANCH   7   8
ATOM      8  C   UNL A   1      33.027  29.404  27.349  1.00  0.00     0.018 C 
BRANCH   8   9
ATOM      9  C   UNL A   1      34.409  29.880  27.846  1.00  0.00    -0.017 C 
ATOM     10  C   UNL A   1      35.576  29.260  27.082  1.00  0.00     0.007 C 
ATOM     11  C   UNL A   1      34.488  31.408  27.769  1.00  0.00     0.007 C 
ENDBRANCH   8   9
ENDBRANCH   7   8
BRANCH   7  12
ATOM     12  C   UNL A   1      32.531  29.180  24.797  1.00  0.00     0.129 C 
BRANCH  12  13
ATOM     13  N   UNL A   1      32.766  28.420  23.571  1.00  0.00    -0.351 N 
ATOM     14  C   UNL A   1      31.882  27.727  22.791  1.00  0.00     0.255 C 
ATOM     15  H   UNL A   1      33.700  28.406  23.259  1.00  0.00     0.163 HD
ATOM     16  O   UNL A   1      32.272  26.844  22.031  1.00  0.00    -0.269 OA
BRANCH  14  17
ATOM     17  C   UNL A   1      30.445  28.011  22.880  1.00  0.00     0.081 A 
ATOM     18  C   UNL A   1      29.609  27.138  23.589  1.00  0.00     0.021 A 
ATOM     19  C   UNL A   1      29.925  29.164  22.287  1.00  0.00     0.132 A 
ATOM     20  C   UNL A   1      28.237  27.374  23.625  1.00  0.00     0.047 A 
ATOM     21  C   UNL A   1      28.554  29.393  22.310  1.00  0.00     0.093 A 
ATOM     22  C   UNL A   1      27.721  28.489  22.967  1.00  0.00     0.119 A 
BRANCH  19  23
ATOM     23  O   UNL A   1      30.712  30.096  21.668  1.00  0.00    -0.507 OA
ATOM     24  H   UNL A   1      31.637  29.962  21.607  1.00  0.00     0.293 HD
ENDBRANCH  19  23
BRANCH  22  25
ATOM     25  O   UNL A   1      26.379  28.734  22.953  1.00  0.00    -0.508 OA
ATOM     26  H   UNL A   1      26.016  29.320  22.318  1.00  0.00     0.293 HD
ENDBRANCH  22  25
ENDBRANCH  14  17
ENDBRANCH  12  13
ENDBRANCH   7  12
ENDBRANCH   4   7
ENDBRANCH   2   3
ENDBRANCH   1   2
BRANCH   1  27
ATOM     27  C   UNL A   1      35.979  23.907  24.840  1.00  0.00     0.023 C 
BRANCH  27  28
ATOM     28  C   UNL A   1      36.474  23.439  26.201  1.00  0.00     0.116 C 
BRANCH  28  29
ATOM     29  N   UNL A   1      37.567  22.481  26.118  1.00  0.00    -0.352 N 
ATOM     30  C   UNL A   1      38.907  22.716  26.327  1.00  0.00     0.251 C 
ATOM     31  H   UNL A   1      37.320  21.558  25.884  1.00  0.00     0.163 HD
ATOM     32  O   UNL A   1      39.739  21.848  26.111  1.00  0.00    -0.269 OA
BRANCH  30  33
ATOM     33  C   UNL A   1      39.308  24.061  26.781  1.00  0.00     0.039 A 
ATOM     34  C   UNL A   1      39.234  24.365  28.140  1.00  0.00     0.014 A 
ATOM     35  C   UNL A   1      39.855  24.968  25.870  1.00  0.00     0.014 A 
ATOM     36  C   UNL A   1      39.775  25.566  28.598  1.00  0.00     0.010 A 
ATOM     37  C   UNL A   1      40.465  26.122  26.340  1.00  0.00     0.010 A 
ATOM     38  C   UNL A   1      40.429  26.434  27.707  1.00  0.00    -0.014 A 
BRANCH  38  39
ATOM     39  C   UNL A   1      41.076  27.680  28.184  1.00  0.00     0.031 A 
ATOM     40  C   UNL A   1      42.575  27.799  28.154  1.00  0.00     0.074 A 
ATOM     41  C   UNL A   1      40.322  28.668  28.703  1.00  0.00     0.049 A 
ATOM     42  N   UNL A   1      43.334  28.771  28.587  1.00  0.00    -0.248 NA
ATOM     43  C   UNL A   1      43.320  26.659  27.593  1.00  0.00     0.031 C 
ATOM     44  C   UNL A   1      38.863  28.642  28.838  1.00  0.00     0.029 A 
ATOM     45  N   UNL A   1      40.679  29.887  29.225  1.00  0.00    -0.354 N 
ATOM     46  C   UNL A   1      44.641  28.355  28.364  1.00  0.00     0.074 A 
ATOM     47  C   UNL A   1      44.575  27.020  27.816  1.00  0.00     0.031 C 
ATOM     48  C   UNL A   1      38.449  29.798  29.381  1.00  0.00     0.029 A 
ATOM     49  C   UNL A   1      39.612  30.634  29.666  1.00  0.00     0.049 A 
ATOM     50  H   UNL A   1      41.611  30.197  29.277  1.00  0.00     0.167 HD
ATOM     51  C   UNL A   1      45.792  29.038  28.571  1.00  0.00     0.037 A 
ATOM     52  C   UNL A   1      39.576  31.851  30.241  1.00  0.00     0.037 A 
ATOM     53  C   UNL A   1      45.845  30.380  29.088  1.00  0.00     0.049 A 
ATOM     54  C   UNL A   1      40.868  32.595  30.452  1.00  0.00     0.074 A 
ATOM     55  C   UNL A   1      46.954  31.184  29.279  1.00  0.00     0.029 A 
ATOM     56  N   UNL A   1      44.742  31.114  29.498  1.00  0.00    -0.354 N 
ATOM     57  N   UNL A   1      42.093  32.215  30.172  1.00  0.00    -0.248 NA
ATOM     58  C   UNL A   1      40.775  33.934  31.048  1.00  0.00     0.031 C 
ATOM     59  C   UNL A   1      46.526  32.390  29.843  1.00  0.00     0.029 A 
ATOM     60  C   UNL A   1      45.145  32.356  29.958  1.00  0.00     0.049 A 
ATOM     61  H   UNL A   1      43.809  30.799  29.466  1.00  0.00     0.167 HD
ATOM     62  C   UNL A   1      42.912  33.279  30.533  1.00  0.00     0.074 A 
ATOM     63  C   UNL A   1      42.043  34.321  31.040  1.00  0.00     0.031 C 
ATOM     64  C   UNL A   1      44.262  33.384  30.451  1.00  0.00     0.037 A 
BRANCH  51  65
ATOM     65  C   UNL A   1      47.082  28.347  28.226  1.00  0.00     0.058 A 
ATOM     66  C   UNL A   1      47.796  27.601  29.179  1.00  0.00     0.135 A 
ATOM     67  C   UNL A   1      47.600  28.409  26.923  1.00  0.00     0.135 A 
ATOM     68  F   UNL A   1      47.355  27.523  30.445  1.00  0.00    -0.206 F 
ATOM     69  C   UNL A   1      48.992  26.969  28.861  1.00  0.00     0.059 A 
ATOM     70  C   UNL A   1      48.781  27.759  26.574  1.00  0.00     0.059 A 
ATOM     71  F   UNL A   1      46.961  29.110  25.973  1.00  0.00    -0.206 F 
ATOM     72  C   UNL A   1      49.478  27.055  27.555  1.00  0.00     0.060 A 
BRANCH  72  73
ATOM     73  S   UNL A   1      51.031  26.225  27.158  1.00  0.00     0.124 S 
ATOM     74  O   UNL A   1      51.923  26.779  28.171  1.00  0.00    -0.237 OA
ATOM     75  O   UNL A   1      50.683  24.817  27.321  1.00  0.00    -0.237 OA
ATOM     76  O   UNL A   1      51.300  26.646  25.787  1.00  0.00    -0.744 OA
ENDBRANCH  72  73
ENDBRANCH  51  65
BRANCH  52  77
ATOM     77  C   UNL A   1      38.274  32.454  30.630  1.00  0.00     0.058 A 
ATOM     78  C   UNL A   1      37.772  32.309  31.931  1.00  0.00     0.135 A 
ATOM     79  C   UNL A   1      37.512  33.197  29.715  1.00  0.00     0.135 A 
ATOM     80  F   UNL A   1      38.461  31.603  32.842  1.00  0.00    -0.206 F 
ATOM     81  C   UNL A   1      36.554  32.864  32.310  1.00  0.00     0.059 A 
ATOM     82  C   UNL A   1      36.302  33.783  30.077  1.00  0.00     0.059 A 
ATOM     83  F   UNL A   1      37.955  33.381  28.463  1.00  0.00    -0.206 F 
ATOM     84  C   UNL A   1      35.827  33.602  31.375  1.00  0.00     0.060 A 
BRANCH  84  85
ATOM     85  S   UNL A   1      34.270  34.359  31.890  1.00  0.00     0.124 S 
ATOM     86  O   UNL A   1      33.600  34.554  30.610  1.00  0.00    -0.237 OA
ATOM     87  O   UNL A   1      33.702  33.332  32.758  1.00  0.00    -0.237 OA
ATOM     88  O   UNL A   1      34.698  35.577  32.572  1.00  0.00    -0.744 OA
ENDBRANCH  84  85
ENDBRANCH  52  77
BRANCH  64  89
ATOM     89  C   UNL A   1      44.882  34.682  30.888  1.00  0.00     0.058 A 
ATOM     90  C   UNL A   1      45.036  35.762  30.003  1.00  0.00     0.135 A 
ATOM     91  C   UNL A   1      45.272  34.868  32.224  1.00  0.00     0.135 A 
ATOM     92  F   UNL A   1      44.683  35.633  28.715  1.00  0.00    -0.206 F 
ATOM     93  C   UNL A   1      45.577  36.972  30.424  1.00  0.00     0.059 A 
ATOM     94  C   UNL A   1      45.790  36.078  32.672  1.00  0.00     0.059 A 
ATOM     95  F   UNL A   1      45.136  33.870  33.112  1.00  0.00    -0.206 F 
ATOM     96  C   UNL A   1      45.948  37.121  31.761  1.00  0.00     0.060 A 
BRANCH  96  97
ATOM     97  S   UNL A   1      46.616  38.708  32.301  1.00  0.00     0.124 S 
ATOM     98  O   UNL A   1      46.473  38.610  33.750  1.00  0.00    -0.237 OA
ATOM     99  O   UNL A   1      47.984  38.661  31.795  1.00  0.00    -0.237 OA
ATOM    100  O   UNL A   1      45.746  39.683  31.649  1.00  0.00    -0.744 OA
ENDBRANCH  96  97
ENDBRANCH  64  89
ENDBRANCH  38  39
ENDBRANCH  30  33
ENDBRANCH  28  29
ENDBRANCH  27  28
ENDBRANCH   1  27
TORSDOF 21
ENDMDL
MODEL 2
REMARK VINA RESULT:     -10.7      4.332      9.743
REMARK SMILES CC(C)C[C@H](CNC(=O)c1ccc(O)cc1O)C(=O)NCCCCNC(=O)c1ccc(-c2c3nc(c(-c4c(F)cc(S(=O)(=O)[O-])cc4F)c4ccc([nH]4)c(-c4c(F)cc(S(=O)(=O)[O-])cc4F)c4nc(c(-c5c(F)cc(S(=O)(=O)[O-])cc5F)c5ccc2[nH]5)C=C4)C=C3)cc1
REMARK SMILES IDX 22 1 21 2 20 3 18 4 19 5 5 7 4 8 2 9 1 10 3 11 6 12 7 13
REMARK SMILES IDX 8 14 9 16 10 17 11 18 16 19 12 20 15 21 13 22 17 23 14 25
REMARK SMILES IDX 23 27 24 28 25 29 26 30 27 32 28 33 29 34 93 35 30 36 92 37
REMARK SMILES IDX 31 38 32 39 33 40 86 41 34 42 91 43 85 44 87 45 35 46 90 47
REMARK SMILES IDX 84 48 83 49 36 51 70 52 49 53 69 54 50 55 53 56 68 57 88 58
REMARK SMILES IDX 51 59 52 60 67 62 89 63 54 64 37 65 38 66 47 67 39 68 40 69
REMARK SMILES IDX 46 70 48 71 41 72 42 73 43 74 44 75 45 76 71 77 72 78 81 79
REMARK SMILES IDX 73 80 74 81 80 82 82 83 75 84 76 85 77 86 78 87 79 88 55 89
REMARK SMILES IDX 56 90 65 91 57 92 58 93 64 94 66 95 59 96 60 97 61 98 62 99
REMARK SMILES IDX 63 100
REMARK H PARENT 20 6 7 15 17 24 14 26 25 31 87 50 53 61
REMARK Flexibility Score: inf
ROOT
ATOM      1  C   UNL A   1      32.317  27.925  27.260  1.00  0.00     0.023 C 
ENDROOT
BRANCH   1   2
ATOM      2  C   UNL A   1      31.037  27.385  26.628  1.00  0.00     0.116 C 
BRANCH   2   3
ATOM      3  N   UNL A   1      31.014  25.942  26.687  1.00  0.00    -0.356 N 
ATOM      4  C   UNL A   1      30.766  25.025  25.721  1.00  0.00     0.224 C 
ATOM      5  O   UNL A   1      30.717  23.840  26.064  1.00  0.00    -0.275 OA
ATOM      6  H   UNL A   1      31.211  25.562  27.574  1.00  0.00     0.163 HD
BRANCH   4   7
ATOM      7  C   UNL A   1      30.517  25.401  24.263  1.00  0.00     0.098 C 
BRANCH   7   8
ATOM      8  C   UNL A   1      29.354  26.369  23.950  1.00  0.00     0.018 C 
BRANCH   8   9
ATOM      9  C   UNL A   1      29.730  27.782  23.452  1.00  0.00    -0.017 C 
ATOM     10  C   UNL A   1      30.751  27.774  22.317  1.00  0.00     0.007 C 
ATOM     11  C   UNL A   1      28.465  28.527  23.011  1.00  0.00     0.007 C 
ENDBRANCH   8   9
ENDBRANCH   7   8
BRANCH   7  12
ATOM     12  C   UNL A   1      30.600  24.155  23.353  1.00  0.00     0.129 C 
BRANCH  12  13
ATOM     13  N   UNL A   1      31.758  24.107  22.462  1.00  0.00    -0.351 N 
ATOM     14  C   UNL A   1      32.897  23.356  22.553  1.00  0.00     0.255 C 
ATOM     15  H   UNL A   1      31.710  24.703  21.680  1.00  0.00     0.163 HD
ATOM     16  O   UNL A   1      33.921  23.693  21.963  1.00  0.00    -0.269 OA
BRANCH  14  17
ATOM     17  C   UNL A   1      32.917  22.150  23.389  1.00  0.00     0.081 A 
ATOM     18  C   UNL A   1      33.531  22.190  24.647  1.00  0.00     0.021 A 
ATOM     19  C   UNL A   1      32.298  20.981  22.940  1.00  0.00     0.132 A 
ATOM     20  C   UNL A   1      33.602  21.031  25.417  1.00  0.00     0.047 A 
ATOM     21  C   UNL A   1      32.382  19.820  23.700  1.00  0.00     0.093 A 
ATOM     22  C   UNL A   1      33.044  19.852  24.925  1.00  0.00     0.119 A 
BRANCH  19  23
ATOM     23  O   UNL A   1      31.603  20.918  21.762  1.00  0.00    -0.507 OA
ATOM     24  H   UNL A   1      31.914  21.380  21.010  1.00  0.00     0.293 HD
ENDBRANCH  19  23
BRANCH  22  25
ATOM     25  O   UNL A   1      33.125  18.691  25.636  1.00  0.00    -0.508 OA
ATOM     26  H   UNL A   1      32.813  17.890  25.262  1.00  0.00     0.293 HD
ENDBRANCH  22  25
ENDBRANCH  14  17
ENDBRANCH  12  13
ENDBRANCH   7  12
ENDBRANCH   4   7
ENDBRANCH   2   3
ENDBRANCH   1   2
BRANCH   1  27
ATOM     27  C   UNL A   1      33.579  27.593  26.473  1.00  0.00     0.023 C 
BRANCH  27  28
ATOM     28  C   UNL A   1      34.201  28.782  25.753  1.00  0.00     0.116 C 
BRANCH  28  29
ATOM     29  N   UNL A   1      33.819  30.065  26.327  1.00  0.00    -0.352 N 
ATOM     30  C   UNL A   1      34.434  30.740  27.356  1.00  0.00     0.251 C 
ATOM     31  H   UNL A   1      33.030  30.500  25.932  1.00  0.00     0.163 HD
ATOM     32  O   UNL A   1      33.944  31.757  27.823  1.00  0.00    -0.269 OA
BRANCH  30  33
ATOM     33  C   UNL A   1      35.680  30.174  27.905  1.00  0.00     0.039 A 
ATOM     34  C   UNL A   1      36.889  30.461  27.272  1.00  0.00     0.014 A 
ATOM     35  C   UNL A   1      35.649  29.453  29.102  1.00  0.00     0.014 A 
ATOM     36  C   UNL A   1      38.083  30.078  27.881  1.00  0.00     0.010 A 
ATOM     37  C   UNL A   1      36.840  29.148  29.746  1.00  0.00     0.010 A 
ATOM     38  C   UNL A   1      38.068  29.455  29.141  1.00  0.00    -0.014 A 
BRANCH  38  39
ATOM     39  C   UNL A   1      39.328  29.107  29.841  1.00  0.00     0.031 A 
ATOM     40  C   UNL A   1      39.747  29.891  31.054  1.00  0.00     0.074 A 
ATOM     41  C   UNL A   1      40.121  28.136  29.348  1.00  0.00     0.049 A 
ATOM     42  N   UNL A   1      40.839  29.791  31.764  1.00  0.00    -0.248 NA
ATOM     43  C   UNL A   1      38.831  30.952  31.508  1.00  0.00     0.031 C 
ATOM     44  C   UNL A   1      39.846  27.346  28.145  1.00  0.00     0.029 A 
ATOM     45  N   UNL A   1      41.326  27.653  29.791  1.00  0.00    -0.354 N 
ATOM     46  C   UNL A   1      40.749  30.780  32.735  1.00  0.00     0.074 A 
ATOM     47  C   UNL A   1      39.526  31.509  32.487  1.00  0.00     0.031 C 
ATOM     48  C   UNL A   1      40.840  26.461  27.961  1.00  0.00     0.029 A 
ATOM     49  C   UNL A   1      41.839  26.644  29.010  1.00  0.00     0.049 A 
ATOM     50  H   UNL A   1      41.780  27.995  30.594  1.00  0.00     0.167 HD
ATOM     51  C   UNL A   1      41.595  31.038  33.760  1.00  0.00     0.037 A 
ATOM     52  C   UNL A   1      42.988  25.950  29.123  1.00  0.00     0.037 A 
ATOM     53  C   UNL A   1      42.795  30.286  34.017  1.00  0.00     0.049 A 
ATOM     54  C   UNL A   1      43.909  26.248  30.276  1.00  0.00     0.074 A 
ATOM     55  C   UNL A   1      43.690  30.426  35.062  1.00  0.00     0.029 A 
ATOM     56  N   UNL A   1      43.267  29.254  33.220  1.00  0.00    -0.354 N 
ATOM     57  N   UNL A   1      43.774  27.142  31.228  1.00  0.00    -0.248 NA
ATOM     58  C   UNL A   1      45.131  25.440  30.379  1.00  0.00     0.031 C 
ATOM     59  C   UNL A   1      44.726  29.505  34.875  1.00  0.00     0.029 A 
ATOM     60  C   UNL A   1      44.451  28.759  33.740  1.00  0.00     0.049 A 
ATOM     61  H   UNL A   1      42.826  28.921  32.405  1.00  0.00     0.167 HD
ATOM     62  C   UNL A   1      44.881  26.985  32.056  1.00  0.00     0.074 A 
ATOM     63  C   UNL A   1      45.666  25.903  31.499  1.00  0.00     0.031 C 
ATOM     64  C   UNL A   1      45.215  27.674  33.176  1.00  0.00     0.037 A 
BRANCH  51  65
ATOM     65  C   UNL A   1      41.244  32.172  34.683  1.00  0.00     0.058 A 
ATOM     66  C   UNL A   1      41.723  33.475  34.464  1.00  0.00     0.135 A 
ATOM     67  C   UNL A   1      40.401  31.963  35.785  1.00  0.00     0.135 A 
ATOM     68  F   UNL A   1      42.548  33.728  33.435  1.00  0.00    -0.206 F 
ATOM     69  C   UNL A   1      41.404  34.521  35.322  1.00  0.00     0.059 A 
ATOM     70  C   UNL A   1      40.044  33.002  36.640  1.00  0.00     0.059 A 
ATOM     71  F   UNL A   1      39.917  30.738  36.043  1.00  0.00    -0.206 F 
ATOM     72  C   UNL A   1      40.565  34.274  36.410  1.00  0.00     0.060 A 
BRANCH  72  73
ATOM     73  S   UNL A   1      40.157  35.645  37.511  1.00  0.00     0.124 S 
ATOM     74  O   UNL A   1      39.760  36.676  36.557  1.00  0.00    -0.237 OA
ATOM     75  O   UNL A   1      39.082  35.084  38.323  1.00  0.00    -0.237 OA
ATOM     76  O   UNL A   1      41.408  35.894  38.220  1.00  0.00    -0.744 OA
ENDBRANCH  72  73
ENDBRANCH  51  65
BRANCH  52  77
ATOM     77  C   UNL A   1      43.318  24.888  28.135  1.00  0.00     0.058 A 
ATOM     78  C   UNL A   1      42.978  23.549  28.375  1.00  0.00     0.135 A 
ATOM     79  C   UNL A   1      43.965  25.192  26.928  1.00  0.00     0.135 A 
ATOM     80  F   UNL A   1      42.362  23.207  29.517  1.00  0.00    -0.206 F 
ATOM     81  C   UNL A   1      43.282  22.544  27.461  1.00  0.00     0.059 A 
ATOM     82  C   UNL A   1      44.258  24.209  25.987  1.00  0.00     0.059 A 
ATOM     83  F   UNL A   1      44.295  26.461  26.642  1.00  0.00    -0.206 F 
ATOM     84  C   UNL A   1      43.921  22.885  26.268  1.00  0.00     0.060 A 
BRANCH  84  85
ATOM     85  S   UNL A   1      44.269  21.582  25.068  1.00  0.00     0.124 S 
ATOM     86  O   UNL A   1      44.148  22.302  23.807  1.00  0.00    -0.237 OA
ATOM     87  O   UNL A   1      45.619  21.173  25.443  1.00  0.00    -0.237 OA
ATOM     88  O   UNL A   1      43.227  20.594  25.335  1.00  0.00    -0.744 OA
ENDBRANCH  84  85
ENDBRANCH  52  77
BRANCH  64  89
ATOM     89  C   UNL A   1      46.467  27.257  33.895  1.00  0.00     0.058 A 
ATOM     90  C   UNL A   1      47.710  27.848  33.617  1.00  0.00     0.135 A 
ATOM     91  C   UNL A   1      46.411  26.295  34.917  1.00  0.00     0.135 A 
ATOM     92  F   UNL A   1      47.818  28.768  32.647  1.00  0.00    -0.206 F 
ATOM     93  C   UNL A   1      48.858  27.482  34.312  1.00  0.00     0.059 A 
ATOM     94  C   UNL A   1      47.541  25.935  35.643  1.00  0.00     0.059 A 
ATOM     95  F   UNL A   1      45.244  25.708  35.229  1.00  0.00    -0.206 F 
ATOM     96  C   UNL A   1      48.762  26.526  35.326  1.00  0.00     0.060 A 
BRANCH  96  97
ATOM     97  S   UNL A   1      50.253  26.088  36.244  1.00  0.00     0.124 S 
ATOM     98  O   UNL A   1      50.545  24.761  35.713  1.00  0.00    -0.237 OA
ATOM     99  O   UNL A   1      51.182  27.144  35.855  1.00  0.00    -0.237 OA
ATOM    100  O   UNL A   1      49.817  26.125  37.637  1.00  0.00    -0.744 OA
ENDBRANCH  96  97
ENDBRANCH  64  89
ENDBRANCH  38  39
ENDBRANCH  30  33
ENDBRANCH  28  29
ENDBRANCH  27  28
ENDBRANCH   1  27
TORSDOF 21
ENDMDL
MODEL 3
REMARK VINA RESULT:     -10.7      4.962      6.562
REMARK SMILES CC(C)C[C@H](CNC(=O)c1ccc(O)cc1O)C(=O)NCCCCNC(=O)c1ccc(-c2c3nc(c(-c4c(F)cc(S(=O)(=O)[O-])cc4F)c4ccc([nH]4)c(-c4c(F)cc(S(=O)(=O)[O-])cc4F)c4nc(c(-c5c(F)cc(S(=O)(=O)[O-])cc5F)c5ccc2[nH]5)C=C4)C=C3)cc1
REMARK SMILES IDX 22 1 21 2 20 3 18 4 19 5 5 7 4 8 2 9 1 10 3 11 6 12 7 13
REMARK SMILES IDX 8 14 9 16 10 17 11 18 16 19 12 20 15 21 13 22 17 23 14 25
REMARK SMILES IDX 23 27 24 28 25 29 26 30 27 32 28 33 29 34 93 35 30 36 92 37
REMARK SMILES IDX 31 38 32 39 33 40 86 41 34 42 91 43 85 44 87 45 35 46 90 47
REMARK SMILES IDX 84 48 83 49 36 51 70 52 49 53 69 54 50 55 53 56 68 57 88 58
REMARK SMILES IDX 51 59 52 60 67 62 89 63 54 64 37 65 38 66 47 67 39 68 40 69
REMARK SMILES IDX 46 70 48 71 41 72 42 73 43 74 44 75 45 76 71 77 72 78 81 79
REMARK SMILES IDX 73 80 74 81 80 82 82 83 75 84 76 85 77 86 78 87 79 88 55 89
REMARK SMILES IDX 56 90 65 91 57 92 58 93 64 94 66 95 59 96 60 97 61 98 62 99
REMARK SMILES IDX 63 100
REMARK H PARENT 20 6 7 15 17 24 14 26 25 31 87 50 53 61
REMARK Flexibility Score: inf
ROOT
ATOM      1  C   UNL A   1      36.100  23.751  25.853  1.00  0.00     0.023 C 
ENDROOT
BRANCH   1   2
ATOM      2  C   UNL A   1      35.149  22.876  25.042  1.00  0.00     0.116 C 
BRANCH   2   3
ATOM      3  N   UNL A   1      34.772  23.541  23.816  1.00  0.00    -0.356 N 
ATOM      4  C   UNL A   1      33.670  23.402  23.041  1.00  0.00     0.224 C 
ATOM      5  O   UNL A   1      33.639  24.033  21.981  1.00  0.00    -0.275 OA
ATOM      6  H   UNL A   1      35.423  24.205  23.490  1.00  0.00     0.163 HD
BRANCH   4   7
ATOM      7  C   UNL A   1      32.507  22.485  23.409  1.00  0.00     0.098 C 
BRANCH   7   8
ATOM      8  C   UNL A   1      32.437  21.094  22.742  1.00  0.00     0.018 C 
BRANCH   8   9
ATOM      9  C   UNL A   1      32.325  19.869  23.676  1.00  0.00    -0.017 C 
ATOM     10  C   UNL A   1      32.444  18.534  22.945  1.00  0.00     0.007 C 
ATOM     11  C   UNL A   1      33.388  19.959  24.776  1.00  0.00     0.007 C 
ENDBRANCH   8   9
ENDBRANCH   7   8
BRANCH   7  12
ATOM     12  C   UNL A   1      31.176  23.269  23.436  1.00  0.00     0.129 C 
BRANCH  12  13
ATOM     13  N   UNL A   1      30.738  23.715  24.758  1.00  0.00    -0.351 N 
ATOM     14  C   UNL A   1      30.636  24.982  25.261  1.00  0.00     0.255 C 
ATOM     15  H   UNL A   1      30.478  22.996  25.378  1.00  0.00     0.163 HD
ATOM     16  O   UNL A   1      30.626  25.179  26.474  1.00  0.00    -0.269 OA
BRANCH  14  17
ATOM     17  C   UNL A   1      30.571  26.131  24.351  1.00  0.00     0.081 A 
ATOM     18  C   UNL A   1      29.328  26.692  24.030  1.00  0.00     0.021 A 
ATOM     19  C   UNL A   1      31.748  26.679  23.835  1.00  0.00     0.132 A 
ATOM     20  C   UNL A   1      29.260  27.745  23.121  1.00  0.00     0.047 A 
ATOM     21  C   UNL A   1      31.680  27.721  22.917  1.00  0.00     0.093 A 
ATOM     22  C   UNL A   1      30.436  28.235  22.558  1.00  0.00     0.119 A 
BRANCH  19  23
ATOM     23  O   UNL A   1      32.991  26.230  24.193  1.00  0.00    -0.507 OA
ATOM     24  H   UNL A   1      33.742  26.487  23.697  1.00  0.00     0.293 HD
ENDBRANCH  19  23
BRANCH  22  25
ATOM     25  O   UNL A   1      30.405  29.243  21.639  1.00  0.00    -0.508 OA
ATOM     26  H   UNL A   1      31.160  29.420  21.112  1.00  0.00     0.293 HD
ENDBRANCH  22  25
ENDBRANCH  14  17
ENDBRANCH  12  13
ENDBRANCH   7  12
ENDBRANCH   4   7
ENDBRANCH   2   3
ENDBRANCH   1   2
BRANCH   1  27
ATOM     27  C   UNL A   1      37.574  23.497  25.558  1.00  0.00     0.023 C 
BRANCH  27  28
ATOM     28  C   UNL A   1      38.530  24.074  26.592  1.00  0.00     0.116 C 
BRANCH  28  29
ATOM     29  N   UNL A   1      39.929  23.974  26.202  1.00  0.00    -0.352 N 
ATOM     30  C   UNL A   1      40.961  24.813  26.555  1.00  0.00     0.251 C 
ATOM     31  H   UNL A   1      40.164  23.218  25.617  1.00  0.00     0.163 HD
ATOM     32  O   UNL A   1      42.073  24.684  26.064  1.00  0.00    -0.269 OA
BRANCH  30  33
ATOM     33  C   UNL A   1      40.672  25.896  27.514  1.00  0.00     0.039 A 
ATOM     34  C   UNL A   1      39.733  25.674  28.520  1.00  0.00     0.014 A 
ATOM     35  C   UNL A   1      41.414  27.079  27.469  1.00  0.00     0.014 A 
ATOM     36  C   UNL A   1      39.583  26.624  29.530  1.00  0.00     0.010 A 
ATOM     37  C   UNL A   1      41.322  27.981  28.520  1.00  0.00     0.010 A 
ATOM     38  C   UNL A   1      40.404  27.764  29.559  1.00  0.00    -0.014 A 
BRANCH  38  39
ATOM     39  C   UNL A   1      40.314  28.748  30.664  1.00  0.00     0.031 A 
ATOM     40  C   UNL A   1      41.196  28.595  31.872  1.00  0.00     0.074 A 
ATOM     41  C   UNL A   1      39.396  29.733  30.609  1.00  0.00     0.049 A 
ATOM     42  N   UNL A   1      41.223  29.304  32.969  1.00  0.00    -0.248 NA
ATOM     43  C   UNL A   1      42.152  27.474  31.857  1.00  0.00     0.031 C 
ATOM     44  C   UNL A   1      38.446  29.947  29.514  1.00  0.00     0.029 A 
ATOM     45  N   UNL A   1      39.104  30.735  31.500  1.00  0.00    -0.354 N 
ATOM     46  C   UNL A   1      42.184  28.709  33.778  1.00  0.00     0.074 A 
ATOM     47  C   UNL A   1      42.673  27.546  33.073  1.00  0.00     0.031 C 
ATOM     48  C   UNL A   1      37.695  31.027  29.786  1.00  0.00     0.029 A 
ATOM     49  C   UNL A   1      38.084  31.561  31.088  1.00  0.00     0.049 A 
ATOM     50  H   UNL A   1      39.581  30.853  32.352  1.00  0.00     0.167 HD
ATOM     51  C   UNL A   1      42.638  29.114  34.987  1.00  0.00     0.037 A 
ATOM     52  C   UNL A   1      37.522  32.623  31.696  1.00  0.00     0.037 A 
ATOM     53  C   UNL A   1      42.167  30.291  35.668  1.00  0.00     0.049 A 
ATOM     54  C   UNL A   1      38.050  33.060  33.036  1.00  0.00     0.074 A 
ATOM     55  C   UNL A   1      42.603  30.824  36.867  1.00  0.00     0.029 A 
ATOM     56  N   UNL A   1      41.152  31.118  35.207  1.00  0.00    -0.354 N 
ATOM     57  N   UNL A   1      39.008  32.527  33.758  1.00  0.00    -0.248 NA
ATOM     58  C   UNL A   1      37.430  34.246  33.642  1.00  0.00     0.031 C 
ATOM     59  C   UNL A   1      41.823  31.950  37.153  1.00  0.00     0.029 A 
ATOM     60  C   UNL A   1      40.935  32.146  36.108  1.00  0.00     0.049 A 
ATOM     61  H   UNL A   1      40.659  30.992  34.364  1.00  0.00     0.167 HD
ATOM     62  C   UNL A   1      39.122  33.328  34.889  1.00  0.00     0.074 A 
ATOM     63  C   UNL A   1      38.145  34.388  34.748  1.00  0.00     0.031 C 
ATOM     64  C   UNL A   1      39.962  33.198  35.946  1.00  0.00     0.037 A 
BRANCH  51  65
ATOM     65  C   UNL A   1      43.706  28.282  35.643  1.00  0.00     0.058 A 
ATOM     66  C   UNL A   1      43.388  27.264  36.557  1.00  0.00     0.135 A 
ATOM     67  C   UNL A   1      45.060  28.487  35.338  1.00  0.00     0.135 A 
ATOM     68  F   UNL A   1      42.109  27.036  36.899  1.00  0.00    -0.206 F 
ATOM     69  C   UNL A   1      44.376  26.500  37.169  1.00  0.00     0.059 A 
ATOM     70  C   UNL A   1      46.065  27.715  35.915  1.00  0.00     0.059 A 
ATOM     71  F   UNL A   1      45.421  29.449  34.474  1.00  0.00    -0.206 F 
ATOM     72  C   UNL A   1      45.713  26.735  36.842  1.00  0.00     0.060 A 
BRANCH  72  73
ATOM     73  S   UNL A   1      46.982  25.732  37.642  1.00  0.00     0.124 S 
ATOM     74  O   UNL A   1      48.103  25.895  36.721  1.00  0.00    -0.237 OA
ATOM     75  O   UNL A   1      47.127  26.387  38.938  1.00  0.00    -0.237 OA
ATOM     76  O   UNL A   1      46.390  24.399  37.679  1.00  0.00    -0.744 OA
ENDBRANCH  72  73
ENDBRANCH  51  65
BRANCH  52  77
ATOM     77  C   UNL A   1      36.416  33.363  31.031  1.00  0.00     0.058 A 
ATOM     78  C   UNL A   1      36.655  34.149  29.894  1.00  0.00     0.135 A 
ATOM     79  C   UNL A   1      35.099  33.289  31.508  1.00  0.00     0.135 A 
ATOM     80  F   UNL A   1      37.899  34.257  29.402  1.00  0.00    -0.206 F 
ATOM     81  C   UNL A   1      35.632  34.850  29.262  1.00  0.00     0.059 A 
ATOM     82  C   UNL A   1      34.053  33.959  30.878  1.00  0.00     0.059 A 
ATOM     83  F   UNL A   1      34.813  32.536  32.581  1.00  0.00    -0.206 F 
ATOM     84  C   UNL A   1      34.333  34.746  29.762  1.00  0.00     0.060 A 
BRANCH  84  85
ATOM     85  S   UNL A   1      33.004  35.620  28.907  1.00  0.00     0.124 S 
ATOM     86  O   UNL A   1      33.748  36.615  28.145  1.00  0.00    -0.237 OA
ATOM     87  O   UNL A   1      32.385  34.551  28.129  1.00  0.00    -0.237 OA
ATOM     88  O   UNL A   1      32.188  36.141  30.001  1.00  0.00    -0.744 OA
ENDBRANCH  84  85
ENDBRANCH  52  77
BRANCH  64  89
ATOM     89  C   UNL A   1      39.886  34.246  37.021  1.00  0.00     0.058 A 
ATOM     90  C   UNL A   1      40.495  35.503  36.873  1.00  0.00     0.135 A 
ATOM     91  C   UNL A   1      39.143  34.011  38.190  1.00  0.00     0.135 A 
ATOM     92  F   UNL A   1      41.220  35.775  35.777  1.00  0.00    -0.206 F 
ATOM     93  C   UNL A   1      40.390  36.480  37.856  1.00  0.00     0.059 A 
ATOM     94  C   UNL A   1      39.002  34.984  39.174  1.00  0.00     0.059 A 
ATOM     95  F   UNL A   1      38.532  32.830  38.375  1.00  0.00    -0.206 F 
ATOM     96  C   UNL A   1      39.638  36.212  39.002  1.00  0.00     0.060 A 
BRANCH  96  97
ATOM     97  S   UNL A   1      39.480  37.502  40.254  1.00  0.00     0.124 S 
ATOM     98  O   UNL A   1      38.789  36.790  41.324  1.00  0.00    -0.237 OA
ATOM     99  O   UNL A   1      40.872  37.851  40.522  1.00  0.00    -0.237 OA
ATOM    100  O   UNL A   1      38.699  38.535  39.581  1.00  0.00    -0.744 OA
ENDBRANCH  96  97
ENDBRANCH  64  89
ENDBRANCH  38  39
ENDBRANCH  30  33
ENDBRANCH  28  29
ENDBRANCH  27  28
ENDBRANCH   1  27
TORSDOF 21
ENDMDL
