MODEL 1
REMARK VINA RESULT:     -11.4      0.000      0.000
REMARK SMILES O=C(NCCCCNC(=O)[C@@H]1CC=CC[C@@H]1C(=O)N1CCN(C(=O)c2sc3cc([N+](=O)[O-])ccc3c2Cl)CC1)c1ccc(-c2c3nc(c(-c4c(F)cc(S(=O)(=O)[O-])cc4F)c4ccc([nH]4)c(-c4c(F)cc(S(=O)(=O)[O-])cc4F)c4nc(c(-c5c(F)cc(S(=O)(=O)[O-])cc5F)c5ccc2[nH]5)C=C4)C=C3)cc1
REMARK SMILES IDX 5 1 4 2 3 3 1 4 2 5 40 7 41 8 105 9 42 10 104 11 43 12 44 13
REMARK SMILES IDX 45 14 98 15 46 16 103 17 97 18 99 19 47 20 102 21 96 22
REMARK SMILES IDX 95 23 48 25 82 26 61 27 81 28 62 29 65 30 80 31 100 32 63 33
REMARK SMILES IDX 64 34 79 36 101 37 66 38 49 39 50 40 59 41 51 42 52 43 58 44
REMARK SMILES IDX 60 45 53 46 54 47 55 48 56 49 57 50 83 51 84 52 93 53 85 54
REMARK SMILES IDX 86 55 92 56 94 57 87 58 88 59 89 60 90 61 91 62 67 63 68 64
REMARK SMILES IDX 77 65 69 66 70 67 76 68 78 69 71 70 72 71 73 72 74 73 75 74
REMARK SMILES IDX 6 75 7 76 8 77 9 78 10 80 11 81 12 82 16 83 13 84 15 85
REMARK SMILES IDX 14 86 17 87 18 88 19 89 20 90 39 91 21 92 38 93 22 94 23 95
REMARK SMILES IDX 24 96 25 97 26 98 36 99 27 100 35 101 37 102 28 103 34 104
REMARK SMILES IDX 29 105 33 106 30 107 31 108 32 109
REMARK H PARENT 3 6 99 24 65 35 8 79
REMARK Flexibility Score: inf
ROOT
ATOM      1  C   UNL A   1      34.869  34.241  31.074  1.00  0.00     0.023 C 
ENDROOT
BRANCH   1   2
ATOM      2  C   UNL A   1      34.781  32.726  31.043  1.00  0.00     0.116 C 
BRANCH   2   3
ATOM      3  N   UNL A   1      34.195  32.185  29.811  1.00  0.00    -0.352 N 
ATOM      4  O   UNL A   1      34.296  31.629  27.610  1.00  0.00    -0.269 OA
ATOM      5  C   UNL A   1      34.853  31.673  28.693  1.00  0.00     0.251 C 
ATOM      6  H   UNL A   1      33.212  32.184  29.767  1.00  0.00     0.163 HD
BRANCH   5   7
ATOM      7  C   UNL A   1      36.238  31.181  28.855  1.00  0.00     0.039 A 
ATOM      8  C   UNL A   1      37.339  32.012  29.066  1.00  0.00     0.014 A 
ATOM      9  C   UNL A   1      36.413  29.807  28.801  1.00  0.00     0.014 A 
ATOM     10  C   UNL A   1      38.588  31.411  29.234  1.00  0.00     0.010 A 
ATOM     11  C   UNL A   1      37.527  29.240  29.330  1.00  0.00     0.010 A 
ATOM     12  C   UNL A   1      38.665  30.011  29.356  1.00  0.00    -0.014 A 
BRANCH  12  13
ATOM     13  C   UNL A   1      39.918  29.289  29.498  1.00  0.00     0.031 A 
ATOM     14  C   UNL A   1      40.291  29.028  30.899  1.00  0.00     0.074 A 
ATOM     15  C   UNL A   1      40.613  28.771  28.460  1.00  0.00     0.049 A 
ATOM     16  N   UNL A   1      41.150  29.682  31.601  1.00  0.00    -0.248 NA
ATOM     17  C   UNL A   1      39.479  28.074  31.669  1.00  0.00     0.031 C 
ATOM     18  C   UNL A   1      40.245  28.675  27.036  1.00  0.00     0.029 A 
ATOM     19  N   UNL A   1      41.819  28.143  28.484  1.00  0.00    -0.354 N 
ATOM     20  C   UNL A   1      41.175  29.054  32.836  1.00  0.00     0.074 A 
ATOM     21  C   UNL A   1      39.989  28.237  32.891  1.00  0.00     0.031 C 
ATOM     22  C   UNL A   1      41.101  27.852  26.391  1.00  0.00     0.029 A 
ATOM     23  C   UNL A   1      42.181  27.516  27.296  1.00  0.00     0.049 A 
ATOM     24  H   UNL A   1      42.394  28.133  29.283  1.00  0.00     0.167 HD
ATOM     25  C   UNL A   1      42.307  29.061  33.589  1.00  0.00     0.037 A 
ATOM     26  C   UNL A   1      43.305  26.789  27.073  1.00  0.00     0.037 A 
ATOM     27  C   UNL A   1      43.244  30.050  33.103  1.00  0.00     0.049 A 
ATOM     28  C   UNL A   1      44.296  27.235  28.086  1.00  0.00     0.074 A 
ATOM     29  C   UNL A   1      43.212  31.422  32.944  1.00  0.00     0.029 A 
ATOM     30  N   UNL A   1      44.270  29.604  32.302  1.00  0.00    -0.354 N 
ATOM     31  N   UNL A   1      44.806  28.436  28.124  1.00  0.00    -0.248 NA
ATOM     32  C   UNL A   1      44.369  26.487  29.330  1.00  0.00     0.031 C 
ATOM     33  C   UNL A   1      43.901  31.673  31.720  1.00  0.00     0.029 A 
ATOM     34  C   UNL A   1      44.379  30.456  31.231  1.00  0.00     0.049 A 
ATOM     35  H   UNL A   1      44.830  28.812  32.469  1.00  0.00     0.167 HD
ATOM     36  C   UNL A   1      44.870  28.753  29.475  1.00  0.00     0.074 A 
ATOM     37  C   UNL A   1      44.676  27.481  30.168  1.00  0.00     0.031 C 
ATOM     38  C   UNL A   1      44.800  30.049  29.903  1.00  0.00     0.037 A 
BRANCH  25  39
ATOM     39  C   UNL A   1      42.721  27.934  34.500  1.00  0.00     0.058 A 
ATOM     40  C   UNL A   1      42.818  28.173  35.885  1.00  0.00     0.135 A 
ATOM     41  C   UNL A   1      43.283  26.717  34.050  1.00  0.00     0.135 A 
ATOM     42  F   UNL A   1      42.326  29.301  36.419  1.00  0.00    -0.206 F 
ATOM     43  C   UNL A   1      43.487  27.304  36.746  1.00  0.00     0.059 A 
ATOM     44  C   UNL A   1      43.903  25.810  34.899  1.00  0.00     0.059 A 
ATOM     45  F   UNL A   1      43.351  26.389  32.755  1.00  0.00    -0.206 F 
ATOM     46  C   UNL A   1      44.037  26.131  36.239  1.00  0.00     0.060 A 
BRANCH  46  47
ATOM     47  S   UNL A   1      44.993  25.062  37.325  1.00  0.00     0.124 S 
ATOM     48  O   UNL A   1      46.342  25.579  37.127  1.00  0.00    -0.237 OA
ATOM     49  O   UNL A   1      44.385  25.335  38.623  1.00  0.00    -0.237 OA
ATOM     50  O   UNL A   1      44.742  23.727  36.790  1.00  0.00    -0.744 OA
ENDBRANCH  46  47
ENDBRANCH  25  39
BRANCH  26  51
ATOM     51  C   UNL A   1      43.435  25.504  26.333  1.00  0.00     0.058 A 
ATOM     52  C   UNL A   1      44.487  25.301  25.420  1.00  0.00     0.135 A 
ATOM     53  C   UNL A   1      42.728  24.351  26.729  1.00  0.00     0.135 A 
ATOM     54  F   UNL A   1      45.221  26.340  24.995  1.00  0.00    -0.206 F 
ATOM     55  C   UNL A   1      44.859  24.025  24.979  1.00  0.00     0.059 A 
ATOM     56  C   UNL A   1      43.078  23.070  26.299  1.00  0.00     0.059 A 
ATOM     57  F   UNL A   1      41.727  24.427  27.618  1.00  0.00    -0.206 F 
ATOM     58  C   UNL A   1      44.162  22.911  25.443  1.00  0.00     0.060 A 
BRANCH  58  59
ATOM     59  S   UNL A   1      44.739  21.254  25.003  1.00  0.00     0.124 S 
ATOM     60  O   UNL A   1      46.106  21.269  25.512  1.00  0.00    -0.237 OA
ATOM     61  O   UNL A   1      43.798  20.399  25.720  1.00  0.00    -0.237 OA
ATOM     62  O   UNL A   1      44.620  21.229  23.548  1.00  0.00    -0.744 OA
ENDBRANCH  58  59
ENDBRANCH  26  51
BRANCH  38  63
ATOM     63  C   UNL A   1      44.978  31.149  28.882  1.00  0.00     0.058 A 
ATOM     64  C   UNL A   1      46.214  31.593  28.380  1.00  0.00     0.135 A 
ATOM     65  C   UNL A   1      43.823  31.671  28.276  1.00  0.00     0.135 A 
ATOM     66  F   UNL A   1      47.367  31.085  28.837  1.00  0.00    -0.206 F 
ATOM     67  C   UNL A   1      46.298  32.531  27.346  1.00  0.00     0.059 A 
ATOM     68  C   UNL A   1      43.882  32.582  27.226  1.00  0.00     0.059 A 
ATOM     69  F   UNL A   1      42.610  31.251  28.672  1.00  0.00    -0.206 F 
ATOM     70  C   UNL A   1      45.124  33.017  26.771  1.00  0.00     0.060 A 
BRANCH  70  71
ATOM     71  S   UNL A   1      45.231  34.172  25.385  1.00  0.00     0.124 S 
ATOM     72  O   UNL A   1      44.495  35.326  25.888  1.00  0.00    -0.237 OA
ATOM     73  O   UNL A   1      46.672  34.356  25.238  1.00  0.00    -0.237 OA
ATOM     74  O   UNL A   1      44.588  33.452  24.288  1.00  0.00    -0.744 OA
ENDBRANCH  70  71
ENDBRANCH  38  63
ENDBRANCH  12  13
ENDBRANCH   5   7
ENDBRANCH   2   3
ENDBRANCH   1   2
BRANCH   1  75
ATOM     75  C   UNL A   1      34.029  34.912  32.171  1.00  0.00     0.023 C 
BRANCH  75  76
ATOM     76  C   UNL A   1      34.789  35.654  33.277  1.00  0.00     0.116 C 
BRANCH  76  77
ATOM     77  N   UNL A   1      34.971  34.848  34.473  1.00  0.00    -0.356 N 
ATOM     78  C   UNL A   1      35.951  33.963  34.819  1.00  0.00     0.224 C 
ATOM     79  H   UNL A   1      34.266  34.961  35.151  1.00  0.00     0.163 HD
ATOM     80  O   UNL A   1      35.896  33.473  35.945  1.00  0.00    -0.275 OA
BRANCH  78  81
ATOM     81  C   UNL A   1      37.056  33.636  33.832  1.00  0.00     0.095 C 
ATOM     82  C   UNL A   1      37.286  32.125  33.667  1.00  0.00     0.041 C 
ATOM     83  C   UNL A   1      38.359  34.410  34.133  1.00  0.00     0.095 C 
ATOM     84  C   UNL A   1      38.543  31.823  32.886  1.00  0.00    -0.030 C 
ATOM     85  C   UNL A   1      39.274  34.216  32.901  1.00  0.00     0.041 C 
ATOM     86  C   UNL A   1      39.423  32.767  32.514  1.00  0.00    -0.030 C 
BRANCH  83  87
ATOM     87  C   UNL A   1      39.128  33.934  35.376  1.00  0.00     0.226 C 
ATOM     88  O   UNL A   1      38.919  32.834  35.892  1.00  0.00    -0.275 OA
ATOM     89  N   UNL A   1      40.198  34.710  35.794  1.00  0.00    -0.339 N 
ATOM     90  C   UNL A   1      41.297  34.043  36.494  1.00  0.00     0.141 C 
ATOM     91  C   UNL A   1      40.383  36.159  35.607  1.00  0.00     0.141 C 
ATOM     92  C   UNL A   1      42.587  34.274  35.703  1.00  0.00     0.141 C 
ATOM     93  C   UNL A   1      41.754  36.489  34.975  1.00  0.00     0.141 C 
ATOM     94  N   UNL A   1      42.850  35.712  35.585  1.00  0.00    -0.334 N 
ATOM     95  C   UNL A   1      44.087  36.198  36.004  1.00  0.00     0.265 C 
ATOM     96  O   UNL A   1      44.975  35.429  36.375  1.00  0.00    -0.268 OA
BRANCH  95  97
ATOM     97  C   UNL A   1      44.310  37.625  35.960  1.00  0.00     0.112 A 
ATOM     98  S   UNL A   1      44.796  38.311  34.480  1.00  0.00    -0.128 S 
ATOM     99  C   UNL A   1      44.265  38.558  36.971  1.00  0.00     0.072 A 
ATOM    100  C   UNL A   1      44.890  39.889  35.155  1.00  0.00     0.043 A 
ATOM    101  C   UNL A   1      44.551  39.892  36.511  1.00  0.00     0.012 A 
ATOM    102  Cl  UNL A   1      43.917  38.206  38.616  1.00  0.00    -0.082 Cl
ATOM    103  C   UNL A   1      45.260  41.062  34.470  1.00  0.00     0.105 A 
ATOM    104  C   UNL A   1      44.558  41.139  37.192  1.00  0.00     0.018 A 
ATOM    105  C   UNL A   1      45.269  42.270  35.180  1.00  0.00     0.270 A 
ATOM    106  C   UNL A   1      44.911  42.319  36.524  1.00  0.00     0.086 A 
BRANCH 105 107
ATOM    107  N   UNL A   1      45.674  43.498  34.482  1.00  0.00     0.062 N 
ATOM    108  O   UNL A   1      46.332  43.375  33.438  1.00  0.00    -0.258 OA
ATOM    109  O   UNL A   1      45.344  44.585  34.976  1.00  0.00    -0.258 OA
ENDBRANCH 105 107
ENDBRANCH  95  97
ENDBRANCH  83  87
ENDBRANCH  78  81
ENDBRANCH  76  77
ENDBRANCH  75  76
ENDBRANCH   1  75
TORSDOF 17
ENDMDL
MODEL 2
REMARK VINA RESULT:     -11.3      2.478      3.024
REMARK SMILES O=C(NCCCCNC(=O)[C@@H]1CC=CC[C@@H]1C(=O)N1CCN(C(=O)c2sc3cc([N+](=O)[O-])ccc3c2Cl)CC1)c1ccc(-c2c3nc(c(-c4c(F)cc(S(=O)(=O)[O-])cc4F)c4ccc([nH]4)c(-c4c(F)cc(S(=O)(=O)[O-])cc4F)c4nc(c(-c5c(F)cc(S(=O)(=O)[O-])cc5F)c5ccc2[nH]5)C=C4)C=C3)cc1
REMARK SMILES IDX 5 1 4 2 3 3 1 4 2 5 40 7 41 8 105 9 42 10 104 11 43 12 44 13
REMARK SMILES IDX 45 14 98 15 46 16 103 17 97 18 99 19 47 20 102 21 96 22
REMARK SMILES IDX 95 23 48 25 82 26 61 27 81 28 62 29 65 30 80 31 100 32 63 33
REMARK SMILES IDX 64 34 79 36 101 37 66 38 49 39 50 40 59 41 51 42 52 43 58 44
REMARK SMILES IDX 60 45 53 46 54 47 55 48 56 49 57 50 83 51 84 52 93 53 85 54
REMARK SMILES IDX 86 55 92 56 94 57 87 58 88 59 89 60 90 61 91 62 67 63 68 64
REMARK SMILES IDX 77 65 69 66 70 67 76 68 78 69 71 70 72 71 73 72 74 73 75 74
REMARK SMILES IDX 6 75 7 76 8 77 9 78 10 80 11 81 12 82 16 83 13 84 15 85
REMARK SMILES IDX 14 86 17 87 18 88 19 89 20 90 39 91 21 92 38 93 22 94 23 95
REMARK SMILES IDX 24 96 25 97 26 98 36 99 27 100 35 101 37 102 28 103 34 104
REMARK SMILES IDX 29 105 33 106 30 107 31 108 32 109
REMARK H PARENT 3 6 99 24 65 35 8 79
REMARK Flexibility Score: inf
ROOT
ATOM      1  C   UNL A   1      34.808  33.984  31.140  1.00  0.00     0.023 C 
ENDROOT
BRANCH   1   2
ATOM      2  C   UNL A   1      34.878  32.495  30.855  1.00  0.00     0.116 C 
BRANCH   2   3
ATOM      3  N   UNL A   1      34.381  32.115  29.528  1.00  0.00    -0.352 N 
ATOM      4  O   UNL A   1      34.640  31.826  27.289  1.00  0.00    -0.269 OA
ATOM      5  C   UNL A   1      35.116  31.731  28.407  1.00  0.00     0.251 C 
ATOM      6  H   UNL A   1      33.403  32.134  29.414  1.00  0.00     0.163 HD
BRANCH   5   7
ATOM      7  C   UNL A   1      36.482  31.202  28.608  1.00  0.00     0.039 A 
ATOM      8  C   UNL A   1      37.581  31.994  28.941  1.00  0.00     0.014 A 
ATOM      9  C   UNL A   1      36.640  29.833  28.462  1.00  0.00     0.014 A 
ATOM     10  C   UNL A   1      38.810  31.359  29.133  1.00  0.00     0.010 A 
ATOM     11  C   UNL A   1      37.714  29.207  29.007  1.00  0.00     0.010 A 
ATOM     12  C   UNL A   1      38.860  29.952  29.154  1.00  0.00    -0.014 A 
BRANCH  12  13
ATOM     13  C   UNL A   1      40.091  29.199  29.310  1.00  0.00     0.031 A 
ATOM     14  C   UNL A   1      40.469  28.973  30.717  1.00  0.00     0.074 A 
ATOM     15  C   UNL A   1      40.762  28.625  28.284  1.00  0.00     0.049 A 
ATOM     16  N   UNL A   1      41.353  29.624  31.388  1.00  0.00    -0.248 NA
ATOM     17  C   UNL A   1      39.636  28.071  31.524  1.00  0.00     0.031 C 
ATOM     18  C   UNL A   1      40.378  28.493  26.868  1.00  0.00     0.029 A 
ATOM     19  N   UNL A   1      41.949  27.963  28.320  1.00  0.00    -0.354 N 
ATOM     20  C   UNL A   1      41.370  29.038  32.644  1.00  0.00     0.074 A 
ATOM     21  C   UNL A   1      40.161  28.259  32.736  1.00  0.00     0.031 C 
ATOM     22  C   UNL A   1      41.204  27.623  26.244  1.00  0.00     0.029 A 
ATOM     23  C   UNL A   1      42.281  27.286  27.152  1.00  0.00     0.049 A 
ATOM     24  H   UNL A   1      42.530  27.962  29.115  1.00  0.00     0.167 HD
ATOM     25  C   UNL A   1      42.508  29.036  33.388  1.00  0.00     0.037 A 
ATOM     26  C   UNL A   1      43.381  26.518  26.944  1.00  0.00     0.037 A 
ATOM     27  C   UNL A   1      43.470  29.979  32.861  1.00  0.00     0.049 A 
ATOM     28  C   UNL A   1      44.394  26.967  27.935  1.00  0.00     0.074 A 
ATOM     29  C   UNL A   1      43.477  31.345  32.656  1.00  0.00     0.029 A 
ATOM     30  N   UNL A   1      44.476  29.476  32.068  1.00  0.00    -0.354 N 
ATOM     31  N   UNL A   1      44.940  28.153  27.928  1.00  0.00    -0.248 NA
ATOM     32  C   UNL A   1      44.455  26.260  29.203  1.00  0.00     0.031 C 
ATOM     33  C   UNL A   1      44.163  31.535  31.420  1.00  0.00     0.029 A 
ATOM     34  C   UNL A   1      44.600  30.288  30.968  1.00  0.00     0.049 A 
ATOM     35  H   UNL A   1      45.013  28.674  32.258  1.00  0.00     0.167 HD
ATOM     36  C   UNL A   1      45.025  28.513  29.266  1.00  0.00     0.074 A 
ATOM     37  C   UNL A   1      44.800  27.271  30.004  1.00  0.00     0.031 C 
ATOM     38  C   UNL A   1      44.997  29.824  29.652  1.00  0.00     0.037 A 
BRANCH  25  39
ATOM     39  C   UNL A   1      42.897  27.928  34.333  1.00  0.00     0.058 A 
ATOM     40  C   UNL A   1      43.028  28.214  35.706  1.00  0.00     0.135 A 
ATOM     41  C   UNL A   1      43.403  26.675  33.920  1.00  0.00     0.135 A 
ATOM     42  F   UNL A   1      42.589  29.379  36.206  1.00  0.00    -0.206 F 
ATOM     43  C   UNL A   1      43.680  27.352  36.588  1.00  0.00     0.059 A 
ATOM     44  C   UNL A   1      44.005  25.777  34.791  1.00  0.00     0.059 A 
ATOM     45  F   UNL A   1      43.435  26.297  32.636  1.00  0.00    -0.206 F 
ATOM     46  C   UNL A   1      44.177  26.141  36.115  1.00  0.00     0.060 A 
BRANCH  46  47
ATOM     47  S   UNL A   1      45.112  25.077  37.224  1.00  0.00     0.124 S 
ATOM     48  O   UNL A   1      44.867  23.764  36.641  1.00  0.00    -0.237 OA
ATOM     49  O   UNL A   1      46.464  25.605  37.076  1.00  0.00    -0.237 OA
ATOM     50  O   UNL A   1      44.490  25.318  38.524  1.00  0.00    -0.744 OA
ENDBRANCH  46  47
ENDBRANCH  25  39
BRANCH  26  51
ATOM     51  C   UNL A   1      43.467  25.205  26.247  1.00  0.00     0.058 A 
ATOM     52  C   UNL A   1      44.460  24.966  25.279  1.00  0.00     0.135 A 
ATOM     53  C   UNL A   1      42.786  24.069  26.730  1.00  0.00     0.135 A 
ATOM     54  F   UNL A   1      45.166  25.987  24.771  1.00  0.00    -0.206 F 
ATOM     55  C   UNL A   1      44.806  23.674  24.865  1.00  0.00     0.059 A 
ATOM     56  C   UNL A   1      43.110  22.772  26.328  1.00  0.00     0.059 A 
ATOM     57  F   UNL A   1      41.842  24.180  27.675  1.00  0.00    -0.206 F 
ATOM     58  C   UNL A   1      44.139  22.579  25.413  1.00  0.00     0.060 A 
BRANCH  58  59
ATOM     59  S   UNL A   1      44.689  20.906  25.003  1.00  0.00     0.124 S 
ATOM     60  O   UNL A   1      43.733  20.087  25.742  1.00  0.00    -0.237 OA
ATOM     61  O   UNL A   1      44.560  20.886  23.549  1.00  0.00    -0.237 OA
ATOM     62  O   UNL A   1      46.059  20.866  25.507  1.00  0.00    -0.744 OA
ENDBRANCH  58  59
ENDBRANCH  26  51
BRANCH  38  63
ATOM     63  C   UNL A   1      45.199  30.883  28.592  1.00  0.00     0.058 A 
ATOM     64  C   UNL A   1      44.175  31.447  27.808  1.00  0.00     0.135 A 
ATOM     65  C   UNL A   1      46.475  31.456  28.476  1.00  0.00     0.135 A 
ATOM     66  F   UNL A   1      42.909  31.023  27.918  1.00  0.00    -0.206 F 
ATOM     67  C   UNL A   1      44.417  32.510  26.932  1.00  0.00     0.059 A 
ATOM     68  C   UNL A   1      46.733  32.535  27.633  1.00  0.00     0.059 A 
ATOM     69  F   UNL A   1      47.487  31.000  29.233  1.00  0.00    -0.206 F 
ATOM     70  C   UNL A   1      45.699  33.052  26.856  1.00  0.00     0.060 A 
BRANCH  70  71
ATOM     71  S   UNL A   1      45.996  34.474  25.780  1.00  0.00     0.124 S 
ATOM     72  O   UNL A   1      45.104  34.202  24.658  1.00  0.00    -0.237 OA
ATOM     73  O   UNL A   1      45.617  35.598  26.631  1.00  0.00    -0.237 OA
ATOM     74  O   UNL A   1      47.422  34.384  25.478  1.00  0.00    -0.744 OA
ENDBRANCH  70  71
ENDBRANCH  38  63
ENDBRANCH  12  13
ENDBRANCH   5   7
ENDBRANCH   2   3
ENDBRANCH   1   2
BRANCH   1  75
ATOM     75  C   UNL A   1      34.049  34.359  32.422  1.00  0.00     0.023 C 
BRANCH  75  76
ATOM     76  C   UNL A   1      34.778  35.257  33.428  1.00  0.00     0.116 C 
BRANCH  76  77
ATOM     77  N   UNL A   1      35.070  34.578  34.680  1.00  0.00    -0.356 N 
ATOM     78  C   UNL A   1      36.093  33.746  35.034  1.00  0.00     0.224 C 
ATOM     79  H   UNL A   1      34.418  34.749  35.397  1.00  0.00     0.163 HD
ATOM     80  O   UNL A   1      36.136  33.372  36.204  1.00  0.00    -0.275 OA
BRANCH  78  81
ATOM     81  C   UNL A   1      37.125  33.337  34.000  1.00  0.00     0.095 C 
ATOM     82  C   UNL A   1      37.019  31.857  33.599  1.00  0.00     0.041 C 
ATOM     83  C   UNL A   1      38.559  33.744  34.409  1.00  0.00     0.095 C 
ATOM     84  C   UNL A   1      38.200  31.406  32.772  1.00  0.00    -0.030 C 
ATOM     85  C   UNL A   1      39.442  33.543  33.155  1.00  0.00     0.041 C 
ATOM     86  C   UNL A   1      39.277  32.175  32.545  1.00  0.00    -0.030 C 
BRANCH  83  87
ATOM     87  C   UNL A   1      39.168  32.923  35.556  1.00  0.00     0.226 C 
ATOM     88  O   UNL A   1      39.362  31.710  35.459  1.00  0.00    -0.275 OA
ATOM     89  N   UNL A   1      39.661  33.626  36.644  1.00  0.00    -0.339 N 
ATOM     90  C   UNL A   1      40.760  33.028  37.405  1.00  0.00     0.141 C 
ATOM     91  C   UNL A   1      39.219  34.939  37.140  1.00  0.00     0.141 C 
ATOM     92  C   UNL A   1      41.951  33.990  37.373  1.00  0.00     0.141 C 
ATOM     93  C   UNL A   1      40.401  35.920  37.312  1.00  0.00     0.141 C 
ATOM     94  N   UNL A   1      41.566  35.281  37.953  1.00  0.00    -0.334 N 
ATOM     95  C   UNL A   1      42.335  35.796  38.996  1.00  0.00     0.265 C 
ATOM     96  O   UNL A   1      43.367  35.231  39.358  1.00  0.00    -0.268 OA
BRANCH  95  97
ATOM     97  C   UNL A   1      41.904  37.028  39.615  1.00  0.00     0.112 A 
ATOM     98  S   UNL A   1      40.541  36.976  40.635  1.00  0.00    -0.128 S 
ATOM     99  C   UNL A   1      42.383  38.309  39.459  1.00  0.00     0.072 A 
ATOM    100  C   UNL A   1      40.611  38.666  40.940  1.00  0.00     0.043 A 
ATOM    101  C   UNL A   1      41.674  39.271  40.263  1.00  0.00     0.012 A 
ATOM    102  Cl  UNL A   1      43.678  38.753  38.422  1.00  0.00    -0.082 Cl
ATOM    103  C   UNL A   1      39.728  39.396  41.759  1.00  0.00     0.105 A 
ATOM    104  C   UNL A   1      41.867  40.666  40.448  1.00  0.00     0.018 A 
ATOM    105  C   UNL A   1      39.944  40.773  41.905  1.00  0.00     0.270 A 
ATOM    106  C   UNL A   1      41.009  41.407  41.270  1.00  0.00     0.086 A 
BRANCH 105 107
ATOM    107  N   UNL A   1      39.018  41.550  42.740  1.00  0.00     0.062 N 
ATOM    108  O   UNL A   1      38.435  40.954  43.659  1.00  0.00    -0.258 OA
ATOM    109  O   UNL A   1      38.864  42.750  42.478  1.00  0.00    -0.258 OA
ENDBRANCH 105 107
ENDBRANCH  95  97
ENDBRANCH  83  87
ENDBRANCH  78  81
ENDBRANCH  76  77
ENDBRANCH  75  76
ENDBRANCH   1  75
TORSDOF 17
ENDMDL
MODEL 3
REMARK VINA RESULT:     -11.2      5.572     13.584
REMARK SMILES O=C(NCCCCNC(=O)[C@@H]1CC=CC[C@@H]1C(=O)N1CCN(C(=O)c2sc3cc([N+](=O)[O-])ccc3c2Cl)CC1)c1ccc(-c2c3nc(c(-c4c(F)cc(S(=O)(=O)[O-])cc4F)c4ccc([nH]4)c(-c4c(F)cc(S(=O)(=O)[O-])cc4F)c4nc(c(-c5c(F)cc(S(=O)(=O)[O-])cc5F)c5ccc2[nH]5)C=C4)C=C3)cc1
REMARK SMILES IDX 5 1 4 2 3 3 1 4 2 5 40 7 41 8 105 9 42 10 104 11 43 12 44 13
REMARK SMILES IDX 45 14 98 15 46 16 103 17 97 18 99 19 47 20 102 21 96 22
REMARK SMILES IDX 95 23 48 25 82 26 61 27 81 28 62 29 65 30 80 31 100 32 63 33
REMARK SMILES IDX 64 34 79 36 101 37 66 38 49 39 50 40 59 41 51 42 52 43 58 44
REMARK SMILES IDX 60 45 53 46 54 47 55 48 56 49 57 50 83 51 84 52 93 53 85 54
REMARK SMILES IDX 86 55 92 56 94 57 87 58 88 59 89 60 90 61 91 62 67 63 68 64
REMARK SMILES IDX 77 65 69 66 70 67 76 68 78 69 71 70 72 71 73 72 74 73 75 74
REMARK SMILES IDX 6 75 7 76 8 77 9 78 10 80 11 81 12 82 16 83 13 84 15 85
REMARK SMILES IDX 14 86 17 87 18 88 19 89 20 90 39 91 21 92 38 93 22 94 23 95
REMARK SMILES IDX 24 96 25 97 26 98 36 99 27 100 35 101 37 102 28 103 34 104
REMARK SMILES IDX 29 105 33 106 30 107 31 108 32 109
REMARK H PARENT 3 6 99 24 65 35 8 79
REMARK Flexibility Score: inf
ROOT
ATOM      1  C   UNL A   1      43.559  21.546  26.019  1.00  0.00     0.023 C 
ENDROOT
BRANCH   1   2
ATOM      2  C   UNL A   1      42.597  22.567  25.439  1.00  0.00     0.116 C 
BRANCH   2   3
ATOM      3  N   UNL A   1      41.183  22.194  25.561  1.00  0.00    -0.352 N 
ATOM      4  O   UNL A   1      39.267  21.931  26.753  1.00  0.00    -0.269 OA
ATOM      5  C   UNL A   1      40.263  22.595  26.528  1.00  0.00     0.251 C 
ATOM      6  H   UNL A   1      40.841  21.581  24.871  1.00  0.00     0.163 HD
BRANCH   5   7
ATOM      7  C   UNL A   1      40.523  23.848  27.271  1.00  0.00     0.039 A 
ATOM      8  C   UNL A   1      41.593  24.023  28.148  1.00  0.00     0.014 A 
ATOM      9  C   UNL A   1      39.639  24.891  27.046  1.00  0.00     0.014 A 
ATOM     10  C   UNL A   1      41.739  25.270  28.759  1.00  0.00     0.010 A 
ATOM     11  C   UNL A   1      40.000  26.166  27.338  1.00  0.00     0.010 A 
ATOM     12  C   UNL A   1      40.920  26.338  28.345  1.00  0.00    -0.014 A 
BRANCH  12  13
ATOM     13  C   UNL A   1      40.969  27.661  28.942  1.00  0.00     0.031 A 
ATOM     14  C   UNL A   1      42.007  28.530  28.361  1.00  0.00     0.074 A 
ATOM     15  C   UNL A   1      40.066  28.119  29.839  1.00  0.00     0.049 A 
ATOM     16  N   UNL A   1      43.162  28.791  28.867  1.00  0.00    -0.248 NA
ATOM     17  C   UNL A   1      41.831  28.995  26.978  1.00  0.00     0.031 C 
ATOM     18  C   UNL A   1      38.809  27.507  30.303  1.00  0.00     0.029 A 
ATOM     19  N   UNL A   1      40.065  29.307  30.500  1.00  0.00    -0.354 N 
ATOM     20  C   UNL A   1      43.766  29.668  27.979  1.00  0.00     0.074 A 
ATOM     21  C   UNL A   1      43.012  29.577  26.755  1.00  0.00     0.031 C 
ATOM     22  C   UNL A   1      38.081  28.412  30.994  1.00  0.00     0.029 A 
ATOM     23  C   UNL A   1      38.891  29.597  31.188  1.00  0.00     0.049 A 
ATOM     24  H   UNL A   1      40.837  29.917  30.493  1.00  0.00     0.167 HD
ATOM     25  C   UNL A   1      44.669  30.583  28.422  1.00  0.00     0.037 A 
ATOM     26  C   UNL A   1      38.618  30.729  31.885  1.00  0.00     0.037 A 
ATOM     27  C   UNL A   1      45.119  30.259  29.758  1.00  0.00     0.049 A 
ATOM     28  C   UNL A   1      39.933  31.323  32.242  1.00  0.00     0.074 A 
ATOM     29  C   UNL A   1      45.769  29.182  30.329  1.00  0.00     0.029 A 
ATOM     30  N   UNL A   1      44.534  30.939  30.801  1.00  0.00    -0.354 N 
ATOM     31  N   UNL A   1      40.790  30.759  33.051  1.00  0.00    -0.248 NA
ATOM     32  C   UNL A   1      40.489  32.319  31.342  1.00  0.00     0.031 C 
ATOM     33  C   UNL A   1      45.159  29.012  31.608  1.00  0.00     0.029 A 
ATOM     34  C   UNL A   1      44.221  30.031  31.783  1.00  0.00     0.049 A 
ATOM     35  H   UNL A   1      44.368  31.909  30.838  1.00  0.00     0.167 HD
ATOM     36  C   UNL A   1      42.031  31.003  32.480  1.00  0.00     0.074 A 
ATOM     37  C   UNL A   1      41.788  32.046  31.484  1.00  0.00     0.031 C 
ATOM     38  C   UNL A   1      43.081  30.150  32.673  1.00  0.00     0.037 A 
BRANCH  25  39
ATOM     39  C   UNL A   1      44.846  31.953  27.819  1.00  0.00     0.058 A 
ATOM     40  C   UNL A   1      46.017  32.232  27.087  1.00  0.00     0.135 A 
ATOM     41  C   UNL A   1      44.053  33.074  28.153  1.00  0.00     0.135 A 
ATOM     42  F   UNL A   1      46.848  31.243  26.724  1.00  0.00    -0.206 F 
ATOM     43  C   UNL A   1      46.407  33.534  26.774  1.00  0.00     0.059 A 
ATOM     44  C   UNL A   1      44.394  34.374  27.801  1.00  0.00     0.059 A 
ATOM     45  F   UNL A   1      42.962  32.983  28.921  1.00  0.00    -0.206 F 
ATOM     46  C   UNL A   1      45.593  34.598  27.148  1.00  0.00     0.060 A 
BRANCH  46  47
ATOM     47  S   UNL A   1      46.146  36.283  26.842  1.00  0.00     0.124 S 
ATOM     48  O   UNL A   1      47.087  36.085  25.746  1.00  0.00    -0.237 OA
ATOM     49  O   UNL A   1      44.894  36.951  26.501  1.00  0.00    -0.237 OA
ATOM     50  O   UNL A   1      46.734  36.681  28.118  1.00  0.00    -0.744 OA
ENDBRANCH  46  47
ENDBRANCH  25  39
BRANCH  26  51
ATOM     51  C   UNL A   1      37.351  31.510  31.911  1.00  0.00     0.058 A 
ATOM     52  C   UNL A   1      36.783  31.924  33.131  1.00  0.00     0.135 A 
ATOM     53  C   UNL A   1      36.842  32.127  30.750  1.00  0.00     0.135 A 
ATOM     54  F   UNL A   1      37.213  31.398  34.287  1.00  0.00    -0.206 F 
ATOM     55  C   UNL A   1      35.819  32.937  33.202  1.00  0.00     0.059 A 
ATOM     56  C   UNL A   1      35.878  33.135  30.796  1.00  0.00     0.059 A 
ATOM     57  F   UNL A   1      37.332  31.828  29.538  1.00  0.00    -0.206 F 
ATOM     58  C   UNL A   1      35.388  33.554  32.028  1.00  0.00     0.060 A 
BRANCH  58  59
ATOM     59  S   UNL A   1      34.265  34.968  32.127  1.00  0.00     0.124 S 
ATOM     60  O   UNL A   1      34.024  35.257  30.717  1.00  0.00    -0.237 OA
ATOM     61  O   UNL A   1      33.137  34.415  32.869  1.00  0.00    -0.237 OA
ATOM     62  O   UNL A   1      35.048  35.973  32.840  1.00  0.00    -0.744 OA
ENDBRANCH  58  59
ENDBRANCH  26  51
BRANCH  38  63
ATOM     63  C   UNL A   1      42.968  29.118  33.771  1.00  0.00     0.058 A 
ATOM     64  C   UNL A   1      43.244  29.351  35.131  1.00  0.00     0.135 A 
ATOM     65  C   UNL A   1      42.409  27.872  33.442  1.00  0.00     0.135 A 
ATOM     66  F   UNL A   1      43.697  30.541  35.549  1.00  0.00    -0.206 F 
ATOM     67  C   UNL A   1      43.001  28.382  36.110  1.00  0.00     0.059 A 
ATOM     68  C   UNL A   1      42.130  26.905  34.404  1.00  0.00     0.059 A 
ATOM     69  F   UNL A   1      42.074  27.603  32.169  1.00  0.00    -0.206 F 
ATOM     70  C   UNL A   1      42.438  27.163  35.737  1.00  0.00     0.060 A 
BRANCH  70  71
ATOM     71  S   UNL A   1      42.054  25.940  37.011  1.00  0.00     0.124 S 
ATOM     72  O   UNL A   1      40.625  26.151  37.220  1.00  0.00    -0.237 OA
ATOM     73  O   UNL A   1      42.420  24.683  36.364  1.00  0.00    -0.237 OA
ATOM     74  O   UNL A   1      42.911  26.329  38.129  1.00  0.00    -0.744 OA
ENDBRANCH  70  71
ENDBRANCH  38  63
ENDBRANCH  12  13
ENDBRANCH   5   7
ENDBRANCH   2   3
ENDBRANCH   1   2
BRANCH   1  75
ATOM     75  C   UNL A   1      44.537  20.933  25.004  1.00  0.00     0.023 C 
BRANCH  75  76
ATOM     76  C   UNL A   1      46.028  21.225  25.207  1.00  0.00     0.116 C 
BRANCH  76  77
ATOM     77  N   UNL A   1      46.532  22.239  24.295  1.00  0.00    -0.356 N 
ATOM     78  C   UNL A   1      46.591  23.599  24.408  1.00  0.00     0.224 C 
ATOM     79  H   UNL A   1      46.893  21.885  23.451  1.00  0.00     0.163 HD
ATOM     80  O   UNL A   1      47.149  24.215  23.503  1.00  0.00    -0.275 OA
BRANCH  78  81
ATOM     81  C   UNL A   1      45.995  24.282  25.624  1.00  0.00     0.095 C 
ATOM     82  C   UNL A   1      44.846  25.241  25.273  1.00  0.00     0.041 C 
ATOM     83  C   UNL A   1      47.074  24.943  26.512  1.00  0.00     0.095 C 
ATOM     84  C   UNL A   1      44.439  26.096  26.449  1.00  0.00    -0.030 C 
ATOM     85  C   UNL A   1      46.372  25.325  27.837  1.00  0.00     0.041 C 
ATOM     86  C   UNL A   1      45.106  26.111  27.614  1.00  0.00    -0.030 C 
BRANCH  83  87
ATOM     87  C   UNL A   1      47.711  26.214  25.929  1.00  0.00     0.226 C 
ATOM     88  O   UNL A   1      47.032  27.167  25.544  1.00  0.00    -0.275 OA
ATOM     89  N   UNL A   1      49.090  26.327  26.014  1.00  0.00    -0.339 N 
ATOM     90  C   UNL A   1      49.664  27.672  26.086  1.00  0.00     0.141 C 
ATOM     91  C   UNL A   1      50.080  25.238  26.058  1.00  0.00     0.141 C 
ATOM     92  C   UNL A   1      50.464  27.789  27.386  1.00  0.00     0.141 C 
ATOM     93  C   UNL A   1      51.051  25.387  27.251  1.00  0.00     0.141 C 
ATOM     94  N   UNL A   1      51.524  26.775  27.414  1.00  0.00    -0.334 N 
ATOM     95  C   UNL A   1      52.837  27.192  27.627  1.00  0.00     0.265 C 
ATOM     96  O   UNL A   1      53.091  28.369  27.884  1.00  0.00    -0.268 OA
BRANCH  95  97
ATOM     97  C   UNL A   1      53.884  26.198  27.574  1.00  0.00     0.112 A 
ATOM     98  S   UNL A   1      54.820  25.948  28.974  1.00  0.00    -0.128 S 
ATOM     99  C   UNL A   1      54.324  25.436  26.515  1.00  0.00     0.072 A 
ATOM    100  C   UNL A   1      55.792  24.759  28.203  1.00  0.00     0.043 A 
ATOM    101  C   UNL A   1      55.404  24.553  26.876  1.00  0.00     0.012 A 
ATOM    102  Cl  UNL A   1      53.686  25.506  24.923  1.00  0.00    -0.082 Cl
ATOM    103  C   UNL A   1      56.860  24.054  28.791  1.00  0.00     0.105 A 
ATOM    104  C   UNL A   1      56.106  23.572  26.126  1.00  0.00     0.018 A 
ATOM    105  C   UNL A   1      57.538  23.105  28.014  1.00  0.00     0.270 A 
ATOM    106  C   UNL A   1      57.162  22.851  26.697  1.00  0.00     0.086 A 
BRANCH 105 107
ATOM    107  N   UNL A   1      58.667  22.378  28.609  1.00  0.00     0.062 N 
ATOM    108  O   UNL A   1      58.583  21.143  28.678  1.00  0.00    -0.258 OA
ATOM    109  O   UNL A   1      59.634  23.036  29.016  1.00  0.00    -0.258 OA
ENDBRANCH 105 107
ENDBRANCH  95  97
ENDBRANCH  83  87
ENDBRANCH  78  81
ENDBRANCH  76  77
ENDBRANCH  75  76
ENDBRANCH   1  75
TORSDOF 17
ENDMDL
