MODEL 1
REMARK VINA RESULT:     -11.1      0.000      0.000
REMARK SMILES CCOc1cc2c(cc1C(=O)NCCCCNC(=O)c1ccc(-c3c4nc(c(-c5c(F)cc(S(=O)(=O)[O-])cc5F)c5ccc([nH]5)c(-c5c(F)cc(S(=O)(=O)[O-])cc5F)c5nc(c(-c6c(F)cc(S(=O)(=O)[O-])cc6F)c6ccc3[nH]6)C=C5)C=C4)cc1)CCC2
REMARK SMILES IDX 15 1 14 2 13 3 12 4 10 5 11 6 9 8 4 9 5 10 6 11 8 12 7 13
REMARK SMILES IDX 88 14 86 15 87 16 3 17 2 18 1 19 16 20 17 21 18 22 19 24
REMARK SMILES IDX 20 25 21 26 85 27 22 28 84 29 23 30 24 31 25 32 78 33 26 34
REMARK SMILES IDX 83 35 77 36 79 37 27 38 82 39 76 40 75 41 28 43 62 44 41 45
REMARK SMILES IDX 61 46 42 47 45 48 60 49 80 50 43 51 44 52 59 54 81 55 46 56
REMARK SMILES IDX 29 57 30 58 39 59 31 60 32 61 38 62 40 63 33 64 34 65 35 66
REMARK SMILES IDX 36 67 37 68 63 69 64 70 73 71 65 72 66 73 72 74 74 75 67 76
REMARK SMILES IDX 68 77 69 78 70 79 71 80 47 81 48 82 57 83 49 84 50 85 56 86
REMARK SMILES IDX 58 87 51 88 52 89 53 90 54 91 55 92
REMARK H PARENT 12 7 17 23 79 42 45 53
REMARK Flexibility Score: inf
ROOT
ATOM      1  C   UNL A   1      33.799  28.799  25.724  1.00  0.00     0.023 C 
ENDROOT
BRANCH   1   2
ATOM      2  C   UNL A   1      32.859  28.087  24.758  1.00  0.00     0.023 C 
BRANCH   2   3
ATOM      3  C   UNL A   1      33.129  26.617  24.474  1.00  0.00     0.116 C 
BRANCH   3   4
ATOM      4  N   UNL A   1      33.178  26.212  23.100  1.00  0.00    -0.352 N 
ATOM      5  C   UNL A   1      33.407  24.957  22.582  1.00  0.00     0.255 C 
ATOM      6  O   UNL A   1      33.309  24.840  21.356  1.00  0.00    -0.269 OA
ATOM      7  H   UNL A   1      33.027  26.925  22.439  1.00  0.00     0.163 HD
BRANCH   5   8
ATOM      8  C   UNL A   1      33.859  23.761  23.373  1.00  0.00     0.082 A 
ATOM      9  C   UNL A   1      33.077  22.705  23.907  1.00  0.00     0.132 A 
ATOM     10  C   UNL A   1      33.704  21.589  24.494  1.00  0.00     0.051 A 
ATOM     11  C   UNL A   1      35.080  21.544  24.596  1.00  0.00    -0.041 A 
ATOM     12  C   UNL A   1      35.271  23.679  23.494  1.00  0.00     0.021 A 
ATOM     13  C   UNL A   1      35.861  22.578  24.097  1.00  0.00    -0.044 A 
ATOM     14  C   UNL A   1      35.923  20.472  25.209  1.00  0.00     0.036 C 
ATOM     15  C   UNL A   1      37.315  22.292  24.310  1.00  0.00     0.036 C 
ATOM     16  C   UNL A   1      37.286  20.777  24.575  1.00  0.00     0.010 C 
BRANCH   9  17
ATOM     17  O   UNL A   1      31.712  22.632  23.762  1.00  0.00    -0.493 OA
BRANCH  17  18
ATOM     18  C   UNL A   1      30.988  23.410  24.739  1.00  0.00     0.226 C 
ATOM     19  C   UNL A   1      30.601  22.639  25.987  1.00  0.00     0.049 C 
ENDBRANCH  17  18
ENDBRANCH   9  17
ENDBRANCH   5   8
ENDBRANCH   3   4
ENDBRANCH   2   3
ENDBRANCH   1   2
BRANCH   1  20
ATOM     20  C   UNL A   1      33.345  28.915  27.176  1.00  0.00     0.116 C 
BRANCH  20  21
ATOM     21  N   UNL A   1      33.471  30.251  27.745  1.00  0.00    -0.352 N 
ATOM     22  C   UNL A   1      34.542  30.877  28.341  1.00  0.00     0.251 C 
ATOM     23  H   UNL A   1      32.653  30.797  27.693  1.00  0.00     0.163 HD
ATOM     24  O   UNL A   1      34.405  32.010  28.801  1.00  0.00    -0.269 OA
BRANCH  22  25
ATOM     25  C   UNL A   1      35.838  30.177  28.483  1.00  0.00     0.039 A 
ATOM     26  C   UNL A   1      36.723  30.165  27.401  1.00  0.00     0.014 A 
ATOM     27  C   UNL A   1      36.204  29.576  29.688  1.00  0.00     0.014 A 
ATOM     28  C   UNL A   1      38.021  29.674  27.572  1.00  0.00     0.010 A 
ATOM     29  C   UNL A   1      37.523  29.175  29.884  1.00  0.00     0.010 A 
ATOM     30  C   UNL A   1      38.454  29.243  28.836  1.00  0.00    -0.014 A 
BRANCH  30  31
ATOM     31  C   UNL A   1      39.879  28.907  29.103  1.00  0.00     0.031 A 
ATOM     32  C   UNL A   1      40.819  29.956  29.632  1.00  0.00     0.074 A 
ATOM     33  C   UNL A   1      40.351  27.689  28.765  1.00  0.00     0.049 A 
ATOM     34  N   UNL A   1      42.116  29.895  29.793  1.00  0.00    -0.248 NA
ATOM     35  C   UNL A   1      40.229  31.254  29.992  1.00  0.00     0.031 C 
ATOM     36  C   UNL A   1      39.558  26.602  28.184  1.00  0.00     0.029 A 
ATOM     37  N   UNL A   1      41.618  27.165  28.841  1.00  0.00    -0.354 N 
ATOM     38  C   UNL A   1      42.500  31.152  30.247  1.00  0.00     0.074 A 
ATOM     39  C   UNL A   1      41.305  31.968  30.291  1.00  0.00     0.031 C 
ATOM     40  C   UNL A   1      40.349  25.537  27.977  1.00  0.00     0.029 A 
ATOM     41  C   UNL A   1      41.714  25.876  28.367  1.00  0.00     0.049 A 
ATOM     42  H   UNL A   1      42.386  27.664  29.201  1.00  0.00     0.167 HD
ATOM     43  C   UNL A   1      43.731  31.582  30.615  1.00  0.00     0.037 A 
ATOM     44  C   UNL A   1      42.781  25.061  28.248  1.00  0.00     0.037 A 
ATOM     45  C   UNL A   1      44.909  30.756  30.610  1.00  0.00     0.049 A 
ATOM     46  C   UNL A   1      44.135  25.553  28.681  1.00  0.00     0.074 A 
ATOM     47  C   UNL A   1      46.186  31.076  31.037  1.00  0.00     0.029 A 
ATOM     48  N   UNL A   1      44.955  29.444  30.162  1.00  0.00    -0.354 N 
ATOM     49  N   UNL A   1      44.466  26.726  29.166  1.00  0.00    -0.248 NA
ATOM     50  C   UNL A   1      45.258  24.615  28.552  1.00  0.00     0.031 C 
ATOM     51  C   UNL A   1      47.012  29.970  30.816  1.00  0.00     0.029 A 
ATOM     52  C   UNL A   1      46.242  28.947  30.286  1.00  0.00     0.049 A 
ATOM     53  H   UNL A   1      44.188  28.942  29.806  1.00  0.00     0.167 HD
ATOM     54  C   UNL A   1      45.831  26.659  29.419  1.00  0.00     0.074 A 
ATOM     55  C   UNL A   1      46.262  25.328  29.044  1.00  0.00     0.031 C 
ATOM     56  C   UNL A   1      46.654  27.616  29.916  1.00  0.00     0.037 A 
BRANCH  43  57
ATOM     57  C   UNL A   1      43.860  33.010  31.066  1.00  0.00     0.058 A 
ATOM     58  C   UNL A   1      43.590  33.389  32.391  1.00  0.00     0.135 A 
ATOM     59  C   UNL A   1      44.284  34.008  30.173  1.00  0.00     0.135 A 
ATOM     60  F   UNL A   1      43.167  32.477  33.282  1.00  0.00    -0.206 F 
ATOM     61  C   UNL A   1      43.701  34.711  32.807  1.00  0.00     0.059 A 
ATOM     62  C   UNL A   1      44.428  35.333  30.575  1.00  0.00     0.059 A 
ATOM     63  F   UNL A   1      44.558  33.700  28.896  1.00  0.00    -0.206 F 
ATOM     64  C   UNL A   1      44.117  35.677  31.890  1.00  0.00     0.060 A 
BRANCH  64  65
ATOM     65  S   UNL A   1      44.254  37.390  32.443  1.00  0.00     0.124 S 
ATOM     66  O   UNL A   1      45.677  37.481  32.754  1.00  0.00    -0.237 OA
ATOM     67  O   UNL A   1      43.814  38.135  31.268  1.00  0.00    -0.237 OA
ATOM     68  O   UNL A   1      43.355  37.448  33.591  1.00  0.00    -0.744 OA
ENDBRANCH  64  65
ENDBRANCH  43  57
BRANCH  44  69
ATOM     69  C   UNL A   1      42.609  23.685  27.710  1.00  0.00     0.058 A 
ATOM     70  C   UNL A   1      42.596  23.452  26.327  1.00  0.00     0.135 A 
ATOM     71  C   UNL A   1      42.470  22.578  28.562  1.00  0.00     0.135 A 
ATOM     72  F   UNL A   1      42.718  24.480  25.474  1.00  0.00    -0.206 F 
ATOM     73  C   UNL A   1      42.440  22.172  25.805  1.00  0.00     0.059 A 
ATOM     74  C   UNL A   1      42.335  21.285  28.064  1.00  0.00     0.059 A 
ATOM     75  F   UNL A   1      42.493  22.746  29.893  1.00  0.00    -0.206 F 
ATOM     76  C   UNL A   1      42.312  21.094  26.682  1.00  0.00     0.060 A 
BRANCH  76  77
ATOM     77  S   UNL A   1      42.165  19.430  25.995  1.00  0.00     0.124 S 
ATOM     78  O   UNL A   1      40.731  19.343  25.741  1.00  0.00    -0.237 OA
ATOM     79  O   UNL A   1      43.019  19.507  24.814  1.00  0.00    -0.237 OA
ATOM     80  O   UNL A   1      42.670  18.579  27.068  1.00  0.00    -0.744 OA
ENDBRANCH  76  77
ENDBRANCH  44  69
BRANCH  56  81
ATOM     81  C   UNL A   1      48.098  27.255  30.109  1.00  0.00     0.058 A 
ATOM     82  C   UNL A   1      49.055  27.499  29.113  1.00  0.00     0.135 A 
ATOM     83  C   UNL A   1      48.540  26.722  31.331  1.00  0.00     0.135 A 
ATOM     84  F   UNL A   1      48.682  28.000  27.925  1.00  0.00    -0.206 F 
ATOM     85  C   UNL A   1      50.401  27.216  29.316  1.00  0.00     0.059 A 
ATOM     86  C   UNL A   1      49.885  26.451  31.564  1.00  0.00     0.059 A 
ATOM     87  F   UNL A   1      47.665  26.477  32.318  1.00  0.00    -0.206 F 
ATOM     88  C   UNL A   1      50.807  26.695  30.547  1.00  0.00     0.060 A 
BRANCH  88  89
ATOM     89  S   UNL A   1      52.564  26.380  30.818  1.00  0.00     0.124 S 
ATOM     90  O   UNL A   1      52.526  25.135  31.578  1.00  0.00    -0.237 OA
ATOM     91  O   UNL A   1      53.079  26.276  29.456  1.00  0.00    -0.237 OA
ATOM     92  O   UNL A   1      53.009  27.556  31.561  1.00  0.00    -0.744 OA
ENDBRANCH  88  89
ENDBRANCH  56  81
ENDBRANCH  30  31
ENDBRANCH  22  25
ENDBRANCH  20  21
ENDBRANCH   1  20
TORSDOF 16
ENDMDL
MODEL 2
REMARK VINA RESULT:     -11.1      3.160      9.506
REMARK SMILES CCOc1cc2c(cc1C(=O)NCCCCNC(=O)c1ccc(-c3c4nc(c(-c5c(F)cc(S(=O)(=O)[O-])cc5F)c5ccc([nH]5)c(-c5c(F)cc(S(=O)(=O)[O-])cc5F)c5nc(c(-c6c(F)cc(S(=O)(=O)[O-])cc6F)c6ccc3[nH]6)C=C5)C=C4)cc1)CCC2
REMARK SMILES IDX 15 1 14 2 13 3 12 4 10 5 11 6 9 8 4 9 5 10 6 11 8 12 7 13
REMARK SMILES IDX 88 14 86 15 87 16 3 17 2 18 1 19 16 20 17 21 18 22 19 24
REMARK SMILES IDX 20 25 21 26 85 27 22 28 84 29 23 30 24 31 25 32 78 33 26 34
REMARK SMILES IDX 83 35 77 36 79 37 27 38 82 39 76 40 75 41 28 43 62 44 41 45
REMARK SMILES IDX 61 46 42 47 45 48 60 49 80 50 43 51 44 52 59 54 81 55 46 56
REMARK SMILES IDX 29 57 30 58 39 59 31 60 32 61 38 62 40 63 33 64 34 65 35 66
REMARK SMILES IDX 36 67 37 68 63 69 64 70 73 71 65 72 66 73 72 74 74 75 67 76
REMARK SMILES IDX 68 77 69 78 70 79 71 80 47 81 48 82 57 83 49 84 50 85 56 86
REMARK SMILES IDX 58 87 51 88 52 89 53 90 54 91 55 92
REMARK H PARENT 12 7 17 23 79 42 45 53
REMARK Flexibility Score: inf
ROOT
ATOM      1  C   UNL A   1      35.746  22.471  25.158  1.00  0.00     0.023 C 
ENDROOT
BRANCH   1   2
ATOM      2  C   UNL A   1      35.156  22.084  26.508  1.00  0.00     0.023 C 
BRANCH   2   3
ATOM      3  C   UNL A   1      33.811  21.373  26.508  1.00  0.00     0.116 C 
BRANCH   3   4
ATOM      4  N   UNL A   1      32.719  22.036  27.158  1.00  0.00    -0.352 N 
ATOM      5  C   UNL A   1      32.053  23.177  26.771  1.00  0.00     0.255 C 
ATOM      6  O   UNL A   1      31.077  23.505  27.453  1.00  0.00    -0.269 OA
ATOM      7  H   UNL A   1      32.401  21.619  27.991  1.00  0.00     0.163 HD
BRANCH   5   8
ATOM      8  C   UNL A   1      32.479  24.094  25.658  1.00  0.00     0.082 A 
ATOM      9  C   UNL A   1      32.288  23.940  24.261  1.00  0.00     0.132 A 
ATOM     10  C   UNL A   1      32.629  24.986  23.381  1.00  0.00     0.051 A 
ATOM     11  C   UNL A   1      33.194  26.146  23.874  1.00  0.00    -0.041 A 
ATOM     12  C   UNL A   1      33.061  25.300  26.127  1.00  0.00     0.021 A 
ATOM     13  C   UNL A   1      33.407  26.306  25.236  1.00  0.00    -0.044 A 
ATOM     14  C   UNL A   1      33.649  27.344  23.106  1.00  0.00     0.036 C 
ATOM     15  C   UNL A   1      34.012  27.645  25.523  1.00  0.00     0.036 C 
ATOM     16  C   UNL A   1      33.698  28.399  24.219  1.00  0.00     0.010 C 
BRANCH   9  17
ATOM     17  O   UNL A   1      31.647  22.858  23.704  1.00  0.00    -0.493 OA
BRANCH  17  18
ATOM     18  C   UNL A   1      32.531  21.979  22.976  1.00  0.00     0.226 C 
ATOM     19  C   UNL A   1      32.394  20.513  23.343  1.00  0.00     0.049 C 
ENDBRANCH  17  18
ENDBRANCH   9  17
ENDBRANCH   5   8
ENDBRANCH   3   4
ENDBRANCH   2   3
ENDBRANCH   1   2
BRANCH   1  20
ATOM     20  C   UNL A   1      37.004  23.333  25.171  1.00  0.00     0.116 C 
BRANCH  20  21
ATOM     21  N   UNL A   1      38.240  22.598  25.410  1.00  0.00    -0.352 N 
ATOM     22  C   UNL A   1      39.376  22.950  26.104  1.00  0.00     0.251 C 
ATOM     23  H   UNL A   1      38.266  21.699  25.009  1.00  0.00     0.163 HD
ATOM     24  O   UNL A   1      40.332  22.178  26.135  1.00  0.00    -0.269 OA
BRANCH  22  25
ATOM     25  C   UNL A   1      39.475  24.272  26.762  1.00  0.00     0.039 A 
ATOM     26  C   UNL A   1      38.899  24.444  28.025  1.00  0.00     0.014 A 
ATOM     27  C   UNL A   1      40.171  25.324  26.166  1.00  0.00     0.014 A 
ATOM     28  C   UNL A   1      39.139  25.619  28.743  1.00  0.00     0.010 A 
ATOM     29  C   UNL A   1      40.487  26.453  26.918  1.00  0.00     0.010 A 
ATOM     30  C   UNL A   1      39.996  26.602  28.224  1.00  0.00    -0.014 A 
BRANCH  30  31
ATOM     31  C   UNL A   1      40.436  27.768  29.039  1.00  0.00     0.031 A 
ATOM     32  C   UNL A   1      41.738  27.718  29.792  1.00  0.00     0.074 A 
ATOM     33  C   UNL A   1      39.611  28.824  29.190  1.00  0.00     0.049 A 
ATOM     34  N   UNL A   1      42.221  28.569  30.660  1.00  0.00    -0.248 NA
ATOM     35  C   UNL A   1      42.590  26.541  29.566  1.00  0.00     0.031 C 
ATOM     36  C   UNL A   1      38.293  28.969  28.565  1.00  0.00     0.029 A 
ATOM     37  N   UNL A   1      39.748  29.972  29.933  1.00  0.00    -0.354 N 
ATOM     38  C   UNL A   1      43.418  28.018  31.104  1.00  0.00     0.074 A 
ATOM     39  C   UNL A   1      43.564  26.739  30.442  1.00  0.00     0.031 C 
ATOM     40  C   UNL A   1      37.754  30.143  28.932  1.00  0.00     0.029 A 
ATOM     41  C   UNL A   1      38.665  30.817  29.853  1.00  0.00     0.049 A 
ATOM     42  H   UNL A   1      40.547  30.171  30.472  1.00  0.00     0.167 HD
ATOM     43  C   UNL A   1      44.324  28.540  31.965  1.00  0.00     0.037 A 
ATOM     44  C   UNL A   1      38.423  31.995  30.460  1.00  0.00     0.037 A 
ATOM     45  C   UNL A   1      44.196  29.831  32.588  1.00  0.00     0.049 A 
ATOM     46  C   UNL A   1      39.453  32.564  31.398  1.00  0.00     0.074 A 
ATOM     47  C   UNL A   1      45.096  30.479  33.415  1.00  0.00     0.029 A 
ATOM     48  N   UNL A   1      43.103  30.672  32.449  1.00  0.00    -0.354 N 
ATOM     49  N   UNL A   1      40.607  32.055  31.756  1.00  0.00    -0.248 NA
ATOM     50  C   UNL A   1      39.149  33.863  32.014  1.00  0.00     0.031 C 
ATOM     51  C   UNL A   1      44.534  31.699  33.804  1.00  0.00     0.029 A 
ATOM     52  C   UNL A   1      43.298  31.828  33.188  1.00  0.00     0.049 A 
ATOM     53  H   UNL A   1      42.305  30.477  31.907  1.00  0.00     0.167 HD
ATOM     54  C   UNL A   1      41.177  32.982  32.623  1.00  0.00     0.074 A 
ATOM     55  C   UNL A   1      40.245  34.086  32.726  1.00  0.00     0.031 C 
ATOM     56  C   UNL A   1      42.365  32.922  33.274  1.00  0.00     0.037 A 
BRANCH  43  57
ATOM     57  C   UNL A   1      45.542  27.714  32.273  1.00  0.00     0.058 A 
ATOM     58  C   UNL A   1      46.710  27.812  31.501  1.00  0.00     0.135 A 
ATOM     59  C   UNL A   1      45.553  26.834  33.368  1.00  0.00     0.135 A 
ATOM     60  F   UNL A   1      46.748  28.627  30.434  1.00  0.00    -0.206 F 
ATOM     61  C   UNL A   1      47.834  27.042  31.780  1.00  0.00     0.059 A 
ATOM     62  C   UNL A   1      46.676  26.075  33.683  1.00  0.00     0.059 A 
ATOM     63  F   UNL A   1      44.464  26.704  34.141  1.00  0.00    -0.206 F 
ATOM     64  C   UNL A   1      47.806  26.173  32.871  1.00  0.00     0.060 A 
BRANCH  64  65
ATOM     65  S   UNL A   1      49.271  25.178  33.220  1.00  0.00     0.124 S 
ATOM     66  O   UNL A   1      50.091  26.124  33.971  1.00  0.00    -0.237 OA
ATOM     67  O   UNL A   1      48.720  24.068  33.991  1.00  0.00    -0.237 OA
ATOM     68  O   UNL A   1      49.769  24.830  31.893  1.00  0.00    -0.744 OA
ENDBRANCH  64  65
ENDBRANCH  43  57
BRANCH  44  69
ATOM     69  C   UNL A   1      37.158  32.728  30.185  1.00  0.00     0.058 A 
ATOM     70  C   UNL A   1      36.019  32.511  30.974  1.00  0.00     0.135 A 
ATOM     71  C   UNL A   1      37.067  33.666  29.146  1.00  0.00     0.135 A 
ATOM     72  F   UNL A   1      36.057  31.619  31.974  1.00  0.00    -0.206 F 
ATOM     73  C   UNL A   1      34.828  33.189  30.735  1.00  0.00     0.059 A 
ATOM     74  C   UNL A   1      35.893  34.373  28.901  1.00  0.00     0.059 A 
ATOM     75  F   UNL A   1      38.133  33.921  28.373  1.00  0.00    -0.206 F 
ATOM     76  C   UNL A   1      34.775  34.120  29.697  1.00  0.00     0.060 A 
BRANCH  76  77
ATOM     77  S   UNL A   1      33.241  35.035  29.430  1.00  0.00     0.124 S 
ATOM     78  O   UNL A   1      32.605  34.244  28.383  1.00  0.00    -0.237 OA
ATOM     79  O   UNL A   1      32.612  34.975  30.746  1.00  0.00    -0.237 OA
ATOM     80  O   UNL A   1      33.706  36.359  29.029  1.00  0.00    -0.744 OA
ENDBRANCH  76  77
ENDBRANCH  44  69
BRANCH  56  81
ATOM     81  C   UNL A   1      42.740  34.091  34.138  1.00  0.00     0.058 A 
ATOM     82  C   UNL A   1      42.383  34.147  35.493  1.00  0.00     0.135 A 
ATOM     83  C   UNL A   1      43.524  35.135  33.620  1.00  0.00     0.135 A 
ATOM     84  F   UNL A   1      41.628  33.178  36.034  1.00  0.00    -0.206 F 
ATOM     85  C   UNL A   1      42.780  35.204  36.305  1.00  0.00     0.059 A 
ATOM     86  C   UNL A   1      43.951  36.191  34.418  1.00  0.00     0.059 A 
ATOM     87  F   UNL A   1      43.897  35.124  32.331  1.00  0.00    -0.206 F 
ATOM     88  C   UNL A   1      43.568  36.220  35.759  1.00  0.00     0.060 A 
BRANCH  88  89
ATOM     89  S   UNL A   1      44.122  37.560  36.834  1.00  0.00     0.124 S 
ATOM     90  O   UNL A   1      45.507  37.178  37.090  1.00  0.00    -0.237 OA
ATOM     91  O   UNL A   1      43.934  38.737  35.992  1.00  0.00    -0.237 OA
ATOM     92  O   UNL A   1      43.223  37.469  37.982  1.00  0.00    -0.744 OA
ENDBRANCH  88  89
ENDBRANCH  56  81
ENDBRANCH  30  31
ENDBRANCH  22  25
ENDBRANCH  20  21
ENDBRANCH   1  20
TORSDOF 16
ENDMDL
MODEL 3
REMARK VINA RESULT:     -11.0      2.865      4.071
REMARK SMILES CCOc1cc2c(cc1C(=O)NCCCCNC(=O)c1ccc(-c3c4nc(c(-c5c(F)cc(S(=O)(=O)[O-])cc5F)c5ccc([nH]5)c(-c5c(F)cc(S(=O)(=O)[O-])cc5F)c5nc(c(-c6c(F)cc(S(=O)(=O)[O-])cc6F)c6ccc3[nH]6)C=C5)C=C4)cc1)CCC2
REMARK SMILES IDX 15 1 14 2 13 3 12 4 10 5 11 6 9 8 4 9 5 10 6 11 8 12 7 13
REMARK SMILES IDX 88 14 86 15 87 16 3 17 2 18 1 19 16 20 17 21 18 22 19 24
REMARK SMILES IDX 20 25 21 26 85 27 22 28 84 29 23 30 24 31 25 32 78 33 26 34
REMARK SMILES IDX 83 35 77 36 79 37 27 38 82 39 76 40 75 41 28 43 62 44 41 45
REMARK SMILES IDX 61 46 42 47 45 48 60 49 80 50 43 51 44 52 59 54 81 55 46 56
REMARK SMILES IDX 29 57 30 58 39 59 31 60 32 61 38 62 40 63 33 64 34 65 35 66
REMARK SMILES IDX 36 67 37 68 63 69 64 70 73 71 65 72 66 73 72 74 74 75 67 76
REMARK SMILES IDX 68 77 69 78 70 79 71 80 47 81 48 82 57 83 49 84 50 85 56 86
REMARK SMILES IDX 58 87 51 88 52 89 53 90 54 91 55 92
REMARK H PARENT 12 7 17 23 79 42 45 53
REMARK Flexibility Score: inf
ROOT
ATOM      1  C   UNL A   1      35.027  32.089  27.944  1.00  0.00     0.023 C 
ENDROOT
BRANCH   1   2
ATOM      2  C   UNL A   1      34.691  30.637  27.623  1.00  0.00     0.023 C 
BRANCH   2   3
ATOM      3  C   UNL A   1      33.431  30.372  26.813  1.00  0.00     0.116 C 
BRANCH   3   4
ATOM      4  N   UNL A   1      32.378  29.645  27.457  1.00  0.00    -0.352 N 
ATOM      5  C   UNL A   1      31.939  28.365  27.206  1.00  0.00     0.255 C 
ATOM      6  O   UNL A   1      31.069  27.921  27.962  1.00  0.00    -0.269 OA
ATOM      7  H   UNL A   1      31.905  30.124  28.175  1.00  0.00     0.163 HD
BRANCH   5   8
ATOM      8  C   UNL A   1      32.363  27.516  26.039  1.00  0.00     0.082 A 
ATOM      9  C   UNL A   1      32.244  27.793  24.653  1.00  0.00     0.132 A 
ATOM     10  C   UNL A   1      32.838  26.935  23.708  1.00  0.00     0.051 A 
ATOM     11  C   UNL A   1      33.497  25.796  24.127  1.00  0.00    -0.041 A 
ATOM     12  C   UNL A   1      33.049  26.337  26.432  1.00  0.00     0.021 A 
ATOM     13  C   UNL A   1      33.606  25.499  25.479  1.00  0.00    -0.044 A 
ATOM     14  C   UNL A   1      34.159  24.754  23.285  1.00  0.00     0.036 C 
ATOM     15  C   UNL A   1      34.374  24.229  25.681  1.00  0.00     0.036 C 
ATOM     16  C   UNL A   1      35.074  24.084  24.318  1.00  0.00     0.010 C 
BRANCH   9  17
ATOM     17  O   UNL A   1      31.687  28.950  24.162  1.00  0.00    -0.493 OA
BRANCH  17  18
ATOM     18  C   UNL A   1      30.929  28.753  22.948  1.00  0.00     0.226 C 
ATOM     19  C   UNL A   1      29.531  28.207  23.168  1.00  0.00     0.049 C 
ENDBRANCH  17  18
ENDBRANCH   9  17
ENDBRANCH   5   8
ENDBRANCH   3   4
ENDBRANCH   2   3
ENDBRANCH   1   2
BRANCH   1  20
ATOM     20  C   UNL A   1      35.817  32.352  29.222  1.00  0.00     0.116 C 
BRANCH  20  21
ATOM     21  N   UNL A   1      35.632  31.353  30.266  1.00  0.00    -0.352 N 
ATOM     22  C   UNL A   1      36.512  30.441  30.804  1.00  0.00     0.251 C 
ATOM     23  H   UNL A   1      34.726  31.325  30.652  1.00  0.00     0.163 HD
ATOM     24  O   UNL A   1      36.119  29.646  31.657  1.00  0.00    -0.269 OA
BRANCH  22  25
ATOM     25  C   UNL A   1      37.910  30.371  30.323  1.00  0.00     0.039 A 
ATOM     26  C   UNL A   1      38.951  30.518  31.245  1.00  0.00     0.014 A 
ATOM     27  C   UNL A   1      38.199  30.114  28.982  1.00  0.00     0.014 A 
ATOM     28  C   UNL A   1      40.269  30.272  30.848  1.00  0.00     0.010 A 
ATOM     29  C   UNL A   1      39.498  29.777  28.611  1.00  0.00     0.010 A 
ATOM     30  C   UNL A   1      40.544  29.827  29.545  1.00  0.00    -0.014 A 
BRANCH  30  31
ATOM     31  C   UNL A   1      41.901  29.362  29.147  1.00  0.00     0.031 A 
ATOM     32  C   UNL A   1      43.043  30.337  29.065  1.00  0.00     0.074 A 
ATOM     33  C   UNL A   1      42.077  28.084  28.751  1.00  0.00     0.049 A 
ATOM     34  N   UNL A   1      44.255  30.152  28.606  1.00  0.00    -0.248 NA
ATOM     35  C   UNL A   1      42.779  31.708  29.528  1.00  0.00     0.031 C 
ATOM     36  C   UNL A   1      41.036  27.053  28.722  1.00  0.00     0.029 A 
ATOM     37  N   UNL A   1      43.192  27.437  28.278  1.00  0.00    -0.354 N 
ATOM     38  C   UNL A   1      44.887  31.387  28.698  1.00  0.00     0.074 A 
ATOM     39  C   UNL A   1      43.910  32.323  29.214  1.00  0.00     0.031 C 
ATOM     40  C   UNL A   1      41.565  25.901  28.277  1.00  0.00     0.029 A 
ATOM     41  C   UNL A   1      42.970  26.119  27.947  1.00  0.00     0.049 A 
ATOM     42  H   UNL A   1      44.069  27.874  28.184  1.00  0.00     0.167 HD
ATOM     43  C   UNL A   1      46.169  31.708  28.402  1.00  0.00     0.037 A 
ATOM     44  C   UNL A   1      43.798  25.193  27.424  1.00  0.00     0.037 A 
ATOM     45  C   UNL A   1      47.149  30.766  27.929  1.00  0.00     0.049 A 
ATOM     46  C   UNL A   1      45.223  25.567  27.121  1.00  0.00     0.074 A 
ATOM     47  C   UNL A   1      48.492  30.977  27.675  1.00  0.00     0.029 A 
ATOM     48  N   UNL A   1      46.893  29.433  27.646  1.00  0.00    -0.354 N 
ATOM     49  N   UNL A   1      45.818  26.726  27.274  1.00  0.00    -0.248 NA
ATOM     50  C   UNL A   1      46.088  24.512  26.576  1.00  0.00     0.031 C 
ATOM     51  C   UNL A   1      49.043  29.780  27.205  1.00  0.00     0.029 A 
ATOM     52  C   UNL A   1      48.050  28.813  27.203  1.00  0.00     0.049 A 
ATOM     53  H   UNL A   1      46.018  28.992  27.744  1.00  0.00     0.167 HD
ATOM     54  C   UNL A   1      47.132  26.533  26.864  1.00  0.00     0.074 A 
ATOM     55  C   UNL A   1      47.247  25.145  26.467  1.00  0.00     0.031 C 
ATOM     56  C   UNL A   1      48.151  27.428  26.819  1.00  0.00     0.037 A 
BRANCH  43  57
ATOM     57  C   UNL A   1      46.587  33.140  28.594  1.00  0.00     0.058 A 
ATOM     58  C   UNL A   1      47.111  33.594  29.815  1.00  0.00     0.135 A 
ATOM     59  C   UNL A   1      46.489  34.062  27.540  1.00  0.00     0.135 A 
ATOM     60  F   UNL A   1      47.212  32.756  30.860  1.00  0.00    -0.206 F 
ATOM     61  C   UNL A   1      47.490  34.919  29.996  1.00  0.00     0.059 A 
ATOM     62  C   UNL A   1      46.888  35.387  27.690  1.00  0.00     0.059 A 
ATOM     63  F   UNL A   1      45.998  33.680  26.350  1.00  0.00    -0.206 F 
ATOM     64  C   UNL A   1      47.371  35.810  28.928  1.00  0.00     0.060 A 
BRANCH  64  65
ATOM     65  S   UNL A   1      47.864  37.528  29.179  1.00  0.00     0.124 S 
ATOM     66  O   UNL A   1      46.919  37.953  30.207  1.00  0.00    -0.237 OA
ATOM     67  O   UNL A   1      49.252  37.396  29.611  1.00  0.00    -0.237 OA
ATOM     68  O   UNL A   1      47.675  38.131  27.863  1.00  0.00    -0.744 OA
ENDBRANCH  64  65
ENDBRANCH  43  57
BRANCH  44  69
ATOM     69  C   UNL A   1      43.304  23.813  27.172  1.00  0.00     0.058 A 
ATOM     70  C   UNL A   1      42.945  23.406  25.878  1.00  0.00     0.135 A 
ATOM     71  C   UNL A   1      43.196  22.873  28.208  1.00  0.00     0.135 A 
ATOM     72  F   UNL A   1      43.024  24.272  24.858  1.00  0.00    -0.206 F 
ATOM     73  C   UNL A   1      42.484  22.119  25.621  1.00  0.00     0.059 A 
ATOM     74  C   UNL A   1      42.760  21.572  27.971  1.00  0.00     0.059 A 
ATOM     75  F   UNL A   1      43.543  23.207  29.460  1.00  0.00    -0.206 F 
ATOM     76  C   UNL A   1      42.397  21.207  26.675  1.00  0.00     0.060 A 
BRANCH  76  77
ATOM     77  S   UNL A   1      41.851  19.523  26.321  1.00  0.00     0.124 S 
ATOM     78  O   UNL A   1      42.302  18.811  27.511  1.00  0.00    -0.237 OA
ATOM     79  O   UNL A   1      40.407  19.688  26.184  1.00  0.00    -0.237 OA
ATOM     80  O   UNL A   1      42.555  19.196  25.084  1.00  0.00    -0.744 OA
ENDBRANCH  76  77
ENDBRANCH  44  69
BRANCH  56  81
ATOM     81  C   UNL A   1      49.487  26.931  26.349  1.00  0.00     0.058 A 
ATOM     82  C   UNL A   1      50.378  26.285  27.220  1.00  0.00     0.135 A 
ATOM     83  C   UNL A   1      49.852  27.042  24.998  1.00  0.00     0.135 A 
ATOM     84  F   UNL A   1      50.079  26.161  28.522  1.00  0.00    -0.206 F 
ATOM     85  C   UNL A   1      51.591  25.775  26.769  1.00  0.00     0.059 A 
ATOM     86  C   UNL A   1      51.050  26.520  24.520  1.00  0.00     0.059 A 
ATOM     87  F   UNL A   1      49.031  27.645  24.123  1.00  0.00    -0.206 F 
ATOM     88  C   UNL A   1      51.917  25.894  25.417  1.00  0.00     0.060 A 
BRANCH  88  89
ATOM     89  S   UNL A   1      53.470  25.183  24.833  1.00  0.00     0.124 S 
ATOM     90  O   UNL A   1      53.404  25.467  23.403  1.00  0.00    -0.237 OA
ATOM     91  O   UNL A   1      54.465  25.941  25.584  1.00  0.00    -0.237 OA
ATOM     92  O   UNL A   1      53.357  23.774  25.199  1.00  0.00    -0.744 OA
ENDBRANCH  88  89
ENDBRANCH  56  81
ENDBRANCH  30  31
ENDBRANCH  22  25
ENDBRANCH  20  21
ENDBRANCH   1  20
TORSDOF 16
ENDMDL
