MODEL 1
REMARK VINA RESULT:      -9.6      0.000      0.000
REMARK SMILES CC(=O)Oc1ccccc1SCCCCCC(=O)NCCCCNC(=O)c1ccc(-c2c3nc(c(-c4c(F)cc(S(=O)(=O)[O-])cc4F)c4ccc([nH]4)c(-c4c(F)cc(S(=O)(=O)[O-])cc4F)c4nc(c(-c5c(F)cc(S(=O)(=O)[O-])cc5F)c5ccc2[nH]5)C=C4)C=C3)cc1
REMARK SMILES IDX 17 1 18 2 19 3 16 5 15 6 14 7 13 8 12 9 11 10 10 11 5 12
REMARK SMILES IDX 6 13 7 14 9 15 8 16 4 17 2 18 1 19 3 20 20 21 21 22 22 23
REMARK SMILES IDX 23 24 24 25 25 26 26 28 27 29 28 30 92 31 29 32 91 33 30 34
REMARK SMILES IDX 31 35 32 36 85 37 33 38 90 39 84 40 86 41 34 42 89 43 83 44
REMARK SMILES IDX 82 45 35 47 69 48 48 49 68 50 49 51 52 52 67 53 87 54 50 55
REMARK SMILES IDX 51 56 66 58 88 59 53 60 36 61 37 62 46 63 38 64 39 65 45 66
REMARK SMILES IDX 47 67 40 68 41 69 42 70 43 71 44 72 70 73 71 74 80 75 72 76
REMARK SMILES IDX 73 77 79 78 81 79 74 80 75 81 76 82 77 83 78 84 54 85 55 86
REMARK SMILES IDX 64 87 56 88 57 89 63 90 65 91 58 92 59 93 60 94 61 95 62 96
REMARK H PARENT 19 4 24 27 86 46 52 57
REMARK Flexibility Score: inf
ROOT
ATOM      1  C   UNL A   1      35.158  34.110  28.544  1.00  0.00     0.219 C 
ATOM      2  O   UNL A   1      34.401  34.862  27.930  1.00  0.00    -0.275 OA
ATOM      3  N   UNL A   1      36.426  34.520  28.816  1.00  0.00    -0.356 N 
ATOM      4  H   UNL A   1      36.639  35.453  28.584  1.00  0.00     0.163 HD
ENDROOT
BRANCH   1   5
ATOM      5  C   UNL A   1      34.691  32.752  29.029  1.00  0.00     0.100 C 
BRANCH   5   6
ATOM      6  C   UNL A   1      34.411  31.744  27.912  1.00  0.00     0.010 C 
BRANCH   6   7
ATOM      7  C   UNL A   1      35.343  30.531  27.699  1.00  0.00     0.001 C 
BRANCH   7   8
ATOM      8  C   UNL A   1      34.855  29.315  26.911  1.00  0.00     0.011 C 
BRANCH   8   9
ATOM      9  C   UNL A   1      33.552  28.549  27.211  1.00  0.00     0.075 C 
BRANCH   9  10
ATOM     10  S   UNL A   1      31.895  28.729  26.470  1.00  0.00    -0.122 SA
BRANCH  10  11
ATOM     11  C   UNL A   1      31.862  27.792  24.965  1.00  0.00     0.050 A 
ATOM     12  C   UNL A   1      30.980  27.878  23.881  1.00  0.00     0.144 A 
ATOM     13  C   UNL A   1      31.294  27.256  22.657  1.00  0.00     0.048 A 
ATOM     14  C   UNL A   1      32.459  26.503  22.521  1.00  0.00     0.004 A 
ATOM     15  C   UNL A   1      32.983  26.947  24.828  1.00  0.00     0.019 A 
ATOM     16  C   UNL A   1      33.292  26.324  23.617  1.00  0.00     0.001 A 
BRANCH  12  17
ATOM     17  O   UNL A   1      29.916  28.819  23.756  1.00  0.00    -0.426 OA
BRANCH  17  18
ATOM     18  C   UNL A   1      29.492  29.592  22.680  1.00  0.00     0.308 C 
ATOM     19  C   UNL A   1      28.193  30.247  23.068  1.00  0.00     0.139 C 
ATOM     20  O   UNL A   1      30.063  29.731  21.606  1.00  0.00    -0.252 OA
ENDBRANCH  17  18
ENDBRANCH  12  17
ENDBRANCH  10  11
ENDBRANCH   9  10
ENDBRANCH   8   9
ENDBRANCH   7   8
ENDBRANCH   6   7
ENDBRANCH   5   6
ENDBRANCH   1   5
BRANCH   3  21
ATOM     21  C   UNL A   1      37.499  33.751  29.402  1.00  0.00     0.116 C 
BRANCH  21  22
ATOM     22  C   UNL A   1      37.731  34.184  30.847  1.00  0.00     0.023 C 
BRANCH  22  23
ATOM     23  C   UNL A   1      36.735  33.663  31.854  1.00  0.00     0.023 C 
BRANCH  23  24
ATOM     24  C   UNL A   1      37.169  32.363  32.492  1.00  0.00     0.116 C 
BRANCH  24  25
ATOM     25  N   UNL A   1      36.450  31.175  32.032  1.00  0.00    -0.352 N 
ATOM     26  C   UNL A   1      36.968  30.163  31.248  1.00  0.00     0.251 C 
ATOM     27  H   UNL A   1      35.509  31.089  32.307  1.00  0.00     0.163 HD
ATOM     28  O   UNL A   1      36.283  29.223  30.867  1.00  0.00    -0.269 OA
BRANCH  26  29
ATOM     29  C   UNL A   1      38.379  30.306  30.847  1.00  0.00     0.039 A 
ATOM     30  C   UNL A   1      39.375  29.888  31.730  1.00  0.00     0.014 A 
ATOM     31  C   UNL A   1      38.659  30.560  29.503  1.00  0.00     0.014 A 
ATOM     32  C   UNL A   1      40.652  29.635  31.232  1.00  0.00     0.010 A 
ATOM     33  C   UNL A   1      39.882  30.159  28.992  1.00  0.00     0.010 A 
ATOM     34  C   UNL A   1      40.899  29.710  29.850  1.00  0.00    -0.014 A 
BRANCH  34  35
ATOM     35  C   UNL A   1      42.223  29.364  29.273  1.00  0.00     0.031 A 
ATOM     36  C   UNL A   1      42.434  27.984  28.707  1.00  0.00     0.074 A 
ATOM     37  C   UNL A   1      43.243  30.247  29.316  1.00  0.00     0.049 A 
ATOM     38  N   UNL A   1      43.521  27.446  28.222  1.00  0.00    -0.248 NA
ATOM     39  C   UNL A   1      41.279  27.070  28.737  1.00  0.00     0.031 C 
ATOM     40  C   UNL A   1      43.186  31.590  29.901  1.00  0.00     0.029 A 
ATOM     41  N   UNL A   1      44.533  30.146  28.858  1.00  0.00    -0.354 N 
ATOM     42  C   UNL A   1      43.185  26.131  27.923  1.00  0.00     0.074 A 
ATOM     43  C   UNL A   1      41.827  25.926  28.363  1.00  0.00     0.031 C 
ATOM     44  C   UNL A   1      44.367  32.204  29.715  1.00  0.00     0.029 A 
ATOM     45  C   UNL A   1      45.280  31.288  29.038  1.00  0.00     0.049 A 
ATOM     46  H   UNL A   1      44.891  29.331  28.437  1.00  0.00     0.167 HD
ATOM     47  C   UNL A   1      43.924  25.187  27.294  1.00  0.00     0.037 A 
ATOM     48  C   UNL A   1      46.551  31.564  28.688  1.00  0.00     0.037 A 
ATOM     49  C   UNL A   1      45.256  25.418  26.809  1.00  0.00     0.049 A 
ATOM     50  C   UNL A   1      47.354  30.504  27.977  1.00  0.00     0.074 A 
ATOM     51  C   UNL A   1      46.069  24.563  26.089  1.00  0.00     0.029 A 
ATOM     52  N   UNL A   1      45.970  26.593  26.994  1.00  0.00    -0.354 N 
ATOM     53  N   UNL A   1      46.994  29.291  27.628  1.00  0.00    -0.248 NA
ATOM     54  C   UNL A   1      48.734  30.851  27.610  1.00  0.00     0.031 C 
ATOM     55  C   UNL A   1      47.294  25.204  25.880  1.00  0.00     0.029 A 
ATOM     56  C   UNL A   1      47.224  26.478  26.423  1.00  0.00     0.049 A 
ATOM     57  H   UNL A   1      45.633  27.391  27.462  1.00  0.00     0.167 HD
ATOM     58  C   UNL A   1      48.090  28.743  26.970  1.00  0.00     0.074 A 
ATOM     59  C   UNL A   1      49.122  29.760  26.963  1.00  0.00     0.031 C 
ATOM     60  C   UNL A   1      48.230  27.511  26.419  1.00  0.00     0.037 A 
BRANCH  47  61
ATOM     61  C   UNL A   1      43.295  23.836  27.096  1.00  0.00     0.058 A 
ATOM     62  C   UNL A   1      43.345  22.842  28.089  1.00  0.00     0.135 A 
ATOM     63  C   UNL A   1      42.647  23.523  25.890  1.00  0.00     0.135 A 
ATOM     64  F   UNL A   1      43.971  23.078  29.253  1.00  0.00    -0.206 F 
ATOM     65  C   UNL A   1      42.819  21.572  27.875  1.00  0.00     0.059 A 
ATOM     66  C   UNL A   1      42.082  22.271  25.669  1.00  0.00     0.059 A 
ATOM     67  F   UNL A   1      42.573  24.432  24.906  1.00  0.00    -0.206 F 
ATOM     68  C   UNL A   1      42.193  21.295  26.659  1.00  0.00     0.060 A 
BRANCH  68  69
ATOM     69  S   UNL A   1      41.532  19.638  26.390  1.00  0.00     0.124 S 
ATOM     70  O   UNL A   1      42.417  19.140  25.342  1.00  0.00    -0.237 OA
ATOM     71  O   UNL A   1      41.694  19.021  27.703  1.00  0.00    -0.237 OA
ATOM     72  O   UNL A   1      40.152  19.884  25.983  1.00  0.00    -0.744 OA
ENDBRANCH  68  69
ENDBRANCH  47  61
BRANCH  48  73
ATOM     73  C   UNL A   1      47.129  32.910  28.950  1.00  0.00     0.058 A 
ATOM     74  C   UNL A   1      47.854  33.163  30.125  1.00  0.00     0.135 A 
ATOM     75  C   UNL A   1      46.979  33.967  28.040  1.00  0.00     0.135 A 
ATOM     76  F   UNL A   1      48.020  32.187  31.032  1.00  0.00    -0.206 F 
ATOM     77  C   UNL A   1      48.396  34.415  30.397  1.00  0.00     0.059 A 
ATOM     78  C   UNL A   1      47.534  35.223  28.276  1.00  0.00     0.059 A 
ATOM     79  F   UNL A   1      46.307  33.777  26.893  1.00  0.00    -0.206 F 
ATOM     80  C   UNL A   1      48.234  35.439  29.462  1.00  0.00     0.060 A 
BRANCH  80  81
ATOM     81  S   UNL A   1      48.985  37.047  29.804  1.00  0.00     0.124 S 
ATOM     82  O   UNL A   1      48.062  37.601  30.788  1.00  0.00    -0.237 OA
ATOM     83  O   UNL A   1      50.302  36.668  30.304  1.00  0.00    -0.237 OA
ATOM     84  O   UNL A   1      48.983  37.700  28.498  1.00  0.00    -0.744 OA
ENDBRANCH  80  81
ENDBRANCH  48  73
BRANCH  60  85
ATOM     85  C   UNL A   1      49.529  27.206  25.727  1.00  0.00     0.058 A 
ATOM     86  C   UNL A   1      49.705  27.429  24.352  1.00  0.00     0.135 A 
ATOM     87  C   UNL A   1      50.632  26.747  26.464  1.00  0.00     0.135 A 
ATOM     88  F   UNL A   1      48.680  27.864  23.602  1.00  0.00    -0.206 F 
ATOM     89  C   UNL A   1      50.923  27.183  23.729  1.00  0.00     0.059 A 
ATOM     90  C   UNL A   1      51.868  26.525  25.867  1.00  0.00     0.059 A 
ATOM     91  F   UNL A   1      50.520  26.532  27.785  1.00  0.00    -0.206 F 
ATOM     92  C   UNL A   1      52.000  26.735  24.496  1.00  0.00     0.060 A 
BRANCH  92  93
ATOM     93  S   UNL A   1      53.586  26.459  23.681  1.00  0.00     0.124 S 
ATOM     94  O   UNL A   1      54.197  25.464  24.557  1.00  0.00    -0.237 OA
ATOM     95  O   UNL A   1      53.181  25.981  22.363  1.00  0.00    -0.237 OA
ATOM     96  O   UNL A   1      54.211  27.779  23.698  1.00  0.00    -0.744 OA
ENDBRANCH  92  93
ENDBRANCH  60  85
ENDBRANCH  34  35
ENDBRANCH  26  29
ENDBRANCH  24  25
ENDBRANCH  23  24
ENDBRANCH  22  23
ENDBRANCH  21  22
ENDBRANCH   3  21
TORSDOF 22
ENDMDL
MODEL 2
REMARK VINA RESULT:      -9.5      5.878     11.099
REMARK SMILES CC(=O)Oc1ccccc1SCCCCCC(=O)NCCCCNC(=O)c1ccc(-c2c3nc(c(-c4c(F)cc(S(=O)(=O)[O-])cc4F)c4ccc([nH]4)c(-c4c(F)cc(S(=O)(=O)[O-])cc4F)c4nc(c(-c5c(F)cc(S(=O)(=O)[O-])cc5F)c5ccc2[nH]5)C=C4)C=C3)cc1
REMARK SMILES IDX 17 1 18 2 19 3 16 5 15 6 14 7 13 8 12 9 11 10 10 11 5 12
REMARK SMILES IDX 6 13 7 14 9 15 8 16 4 17 2 18 1 19 3 20 20 21 21 22 22 23
REMARK SMILES IDX 23 24 24 25 25 26 26 28 27 29 28 30 92 31 29 32 91 33 30 34
REMARK SMILES IDX 31 35 32 36 85 37 33 38 90 39 84 40 86 41 34 42 89 43 83 44
REMARK SMILES IDX 82 45 35 47 69 48 48 49 68 50 49 51 52 52 67 53 87 54 50 55
REMARK SMILES IDX 51 56 66 58 88 59 53 60 36 61 37 62 46 63 38 64 39 65 45 66
REMARK SMILES IDX 47 67 40 68 41 69 42 70 43 71 44 72 70 73 71 74 80 75 72 76
REMARK SMILES IDX 73 77 79 78 81 79 74 80 75 81 76 82 77 83 78 84 54 85 55 86
REMARK SMILES IDX 64 87 56 88 57 89 63 90 65 91 58 92 59 93 60 94 61 95 62 96
REMARK H PARENT 19 4 24 27 86 46 52 57
REMARK Flexibility Score: inf
ROOT
ATOM      1  C   UNL A   1      32.744  27.501  26.802  1.00  0.00     0.219 C 
ATOM      2  O   UNL A   1      31.550  27.399  27.083  1.00  0.00    -0.275 OA
ATOM      3  N   UNL A   1      33.479  28.494  27.371  1.00  0.00    -0.356 N 
ATOM      4  H   UNL A   1      33.024  29.026  28.064  1.00  0.00     0.163 HD
ENDROOT
BRANCH   1   5
ATOM      5  C   UNL A   1      33.415  26.521  25.860  1.00  0.00     0.100 C 
BRANCH   5   6
ATOM      6  C   UNL A   1      33.655  27.064  24.449  1.00  0.00     0.010 C 
BRANCH   6   7
ATOM      7  C   UNL A   1      33.126  26.301  23.214  1.00  0.00     0.001 C 
BRANCH   7   8
ATOM      8  C   UNL A   1      31.894  26.809  22.465  1.00  0.00     0.011 C 
BRANCH   8   9
ATOM      9  C   UNL A   1      30.533  27.102  23.125  1.00  0.00     0.075 C 
BRANCH   9  10
ATOM     10  S   UNL A   1      29.337  28.439  22.791  1.00  0.00    -0.122 SA
BRANCH  10  11
ATOM     11  C   UNL A   1      29.885  29.892  23.648  1.00  0.00     0.050 A 
ATOM     12  C   UNL A   1      29.350  31.185  23.640  1.00  0.00     0.144 A 
ATOM     13  C   UNL A   1      29.747  32.126  24.611  1.00  0.00     0.048 A 
ATOM     14  C   UNL A   1      30.715  31.801  25.560  1.00  0.00     0.004 A 
ATOM     15  C   UNL A   1      30.930  29.624  24.557  1.00  0.00     0.019 A 
ATOM     16  C   UNL A   1      31.329  30.557  25.516  1.00  0.00     0.001 A 
BRANCH  12  17
ATOM     17  O   UNL A   1      28.172  31.587  22.945  1.00  0.00    -0.426 OA
BRANCH  17  18
ATOM     18  C   UNL A   1      27.997  32.305  21.767  1.00  0.00     0.308 C 
ATOM     19  C   UNL A   1      28.067  31.333  20.620  1.00  0.00     0.139 C 
ATOM     20  O   UNL A   1      27.812  33.511  21.664  1.00  0.00    -0.252 OA
ENDBRANCH  17  18
ENDBRANCH  12  17
ENDBRANCH  10  11
ENDBRANCH   9  10
ENDBRANCH   8   9
ENDBRANCH   7   8
ENDBRANCH   6   7
ENDBRANCH   5   6
ENDBRANCH   1   5
BRANCH   3  21
ATOM     21  C   UNL A   1      34.844  28.863  27.081  1.00  0.00     0.116 C 
BRANCH  21  22
ATOM     22  C   UNL A   1      35.171  30.215  27.710  1.00  0.00     0.023 C 
BRANCH  22  23
ATOM     23  C   UNL A   1      34.022  31.188  27.805  1.00  0.00     0.023 C 
BRANCH  23  24
ATOM     24  C   UNL A   1      34.462  32.630  27.698  1.00  0.00     0.116 C 
BRANCH  24  25
ATOM     25  N   UNL A   1      33.449  33.617  28.074  1.00  0.00    -0.352 N 
ATOM     26  C   UNL A   1      33.414  34.337  29.252  1.00  0.00     0.251 C 
ATOM     27  H   UNL A   1      32.727  33.784  27.428  1.00  0.00     0.163 HD
ATOM     28  O   UNL A   1      32.503  35.112  29.510  1.00  0.00    -0.269 OA
BRANCH  26  29
ATOM     29  C   UNL A   1      34.505  34.077  30.209  1.00  0.00     0.039 A 
ATOM     30  C   UNL A   1      34.294  33.154  31.234  1.00  0.00     0.014 A 
ATOM     31  C   UNL A   1      35.787  34.518  29.881  1.00  0.00     0.014 A 
ATOM     32  C   UNL A   1      35.400  32.600  31.877  1.00  0.00     0.010 A 
ATOM     33  C   UNL A   1      36.877  33.851  30.416  1.00  0.00     0.010 A 
ATOM     34  C   UNL A   1      36.699  32.898  31.432  1.00  0.00    -0.014 A 
BRANCH  34  35
ATOM     35  C   UNL A   1      37.898  32.262  32.036  1.00  0.00     0.031 A 
ATOM     36  C   UNL A   1      38.387  32.752  33.374  1.00  0.00     0.074 A 
ATOM     37  C   UNL A   1      38.580  31.309  31.368  1.00  0.00     0.049 A 
ATOM     38  N   UNL A   1      39.447  32.395  34.049  1.00  0.00    -0.248 NA
ATOM     39  C   UNL A   1      37.607  33.825  34.015  1.00  0.00     0.031 C 
ATOM     40  C   UNL A   1      38.247  30.797  30.034  1.00  0.00     0.029 A 
ATOM     41  N   UNL A   1      39.698  30.596  31.721  1.00  0.00    -0.354 N 
ATOM     42  C   UNL A   1      39.471  33.218  35.168  1.00  0.00     0.074 A 
ATOM     43  C   UNL A   1      38.378  34.150  35.038  1.00  0.00     0.031 C 
ATOM     44  C   UNL A   1      39.108  29.818  29.710  1.00  0.00     0.029 A 
ATOM     45  C   UNL A   1      40.079  29.658  30.789  1.00  0.00     0.049 A 
ATOM     46  H   UNL A   1      40.183  30.742  32.565  1.00  0.00     0.167 HD
ATOM     47  C   UNL A   1      40.301  33.174  36.237  1.00  0.00     0.037 A 
ATOM     48  C   UNL A   1      41.090  28.768  30.809  1.00  0.00     0.037 A 
ATOM     49  C   UNL A   1      41.351  32.206  36.385  1.00  0.00     0.049 A 
ATOM     50  C   UNL A   1      41.996  28.726  32.013  1.00  0.00     0.074 A 
ATOM     51  C   UNL A   1      42.201  32.015  37.458  1.00  0.00     0.029 A 
ATOM     52  N   UNL A   1      41.693  31.261  35.428  1.00  0.00    -0.354 N 
ATOM     53  N   UNL A   1      41.956  29.458  33.102  1.00  0.00    -0.248 NA
ATOM     54  C   UNL A   1      43.082  27.737  31.993  1.00  0.00     0.031 C 
ATOM     55  C   UNL A   1      43.089  30.987  37.130  1.00  0.00     0.029 A 
ATOM     56  C   UNL A   1      42.757  30.500  35.875  1.00  0.00     0.049 A 
ATOM     57  H   UNL A   1      41.243  31.148  34.559  1.00  0.00     0.167 HD
ATOM     58  C   UNL A   1      42.987  28.994  33.911  1.00  0.00     0.074 A 
ATOM     59  C   UNL A   1      43.628  27.913  33.189  1.00  0.00     0.031 C 
ATOM     60  C   UNL A   1      43.370  29.420  35.141  1.00  0.00     0.037 A 
BRANCH  47  61
ATOM     61  C   UNL A   1      40.089  34.197  37.319  1.00  0.00     0.058 A 
ATOM     62  C   UNL A   1      39.131  34.016  38.333  1.00  0.00     0.135 A 
ATOM     63  C   UNL A   1      40.842  35.381  37.336  1.00  0.00     0.135 A 
ATOM     64  F   UNL A   1      38.367  32.912  38.354  1.00  0.00    -0.206 F 
ATOM     65  C   UNL A   1      38.894  34.994  39.292  1.00  0.00     0.059 A 
ATOM     66  C   UNL A   1      40.646  36.357  38.308  1.00  0.00     0.059 A 
ATOM     67  F   UNL A   1      41.767  35.608  36.391  1.00  0.00    -0.206 F 
ATOM     68  C   UNL A   1      39.654  36.163  39.270  1.00  0.00     0.060 A 
BRANCH  68  69
ATOM     69  S   UNL A   1      39.322  37.429  40.510  1.00  0.00     0.124 S 
ATOM     70  O   UNL A   1      38.155  38.095  39.940  1.00  0.00    -0.237 OA
ATOM     71  O   UNL A   1      39.075  36.635  41.709  1.00  0.00    -0.237 OA
ATOM     72  O   UNL A   1      40.549  38.219  40.528  1.00  0.00    -0.744 OA
ENDBRANCH  68  69
ENDBRANCH  47  61
BRANCH  48  73
ATOM     73  C   UNL A   1      41.271  27.809  29.685  1.00  0.00     0.058 A 
ATOM     74  C   UNL A   1      42.368  27.921  28.815  1.00  0.00     0.135 A 
ATOM     75  C   UNL A   1      40.366  26.761  29.457  1.00  0.00     0.135 A 
ATOM     76  F   UNL A   1      43.258  28.911  28.986  1.00  0.00    -0.206 F 
ATOM     77  C   UNL A   1      42.553  27.043  27.753  1.00  0.00     0.059 A 
ATOM     78  C   UNL A   1      40.543  25.853  28.416  1.00  0.00     0.059 A 
ATOM     79  F   UNL A   1      39.308  26.598  30.266  1.00  0.00    -0.206 F 
ATOM     80  C   UNL A   1      41.636  26.007  27.564  1.00  0.00     0.060 A 
BRANCH  80  81
ATOM     81  S   UNL A   1      41.915  24.842  26.211  1.00  0.00     0.124 S 
ATOM     82  O   UNL A   1      40.820  23.899  26.402  1.00  0.00    -0.237 OA
ATOM     83  O   UNL A   1      41.818  25.707  25.039  1.00  0.00    -0.237 OA
ATOM     84  O   UNL A   1      43.252  24.324  26.487  1.00  0.00    -0.744 OA
ENDBRANCH  80  81
ENDBRANCH  48  73
BRANCH  60  85
ATOM     85  C   UNL A   1      44.507  28.693  35.803  1.00  0.00     0.058 A 
ATOM     86  C   UNL A   1      45.837  29.116  35.660  1.00  0.00     0.135 A 
ATOM     87  C   UNL A   1      44.251  27.600  36.646  1.00  0.00     0.135 A 
ATOM     88  F   UNL A   1      46.135  30.154  34.862  1.00  0.00    -0.206 F 
ATOM     89  C   UNL A   1      46.878  28.462  36.311  1.00  0.00     0.059 A 
ATOM     90  C   UNL A   1      45.273  26.951  37.330  1.00  0.00     0.059 A 
ATOM     91  F   UNL A   1      42.994  27.165  36.828  1.00  0.00    -0.206 F 
ATOM     92  C   UNL A   1      46.585  27.383  37.147  1.00  0.00     0.060 A 
BRANCH  92  93
ATOM     93  S   UNL A   1      47.942  26.571  38.016  1.00  0.00     0.124 S 
ATOM     94  O   UNL A   1      47.656  25.164  37.754  1.00  0.00    -0.237 OA
ATOM     95  O   UNL A   1      49.116  27.116  37.343  1.00  0.00    -0.237 OA
ATOM     96  O   UNL A   1      47.764  27.000  39.400  1.00  0.00    -0.744 OA
ENDBRANCH  92  93
ENDBRANCH  60  85
ENDBRANCH  34  35
ENDBRANCH  26  29
ENDBRANCH  24  25
ENDBRANCH  23  24
ENDBRANCH  22  23
ENDBRANCH  21  22
ENDBRANCH   3  21
TORSDOF 22
ENDMDL
MODEL 3
REMARK VINA RESULT:      -9.5      6.362      9.451
REMARK SMILES CC(=O)Oc1ccccc1SCCCCCC(=O)NCCCCNC(=O)c1ccc(-c2c3nc(c(-c4c(F)cc(S(=O)(=O)[O-])cc4F)c4ccc([nH]4)c(-c4c(F)cc(S(=O)(=O)[O-])cc4F)c4nc(c(-c5c(F)cc(S(=O)(=O)[O-])cc5F)c5ccc2[nH]5)C=C4)C=C3)cc1
REMARK SMILES IDX 17 1 18 2 19 3 16 5 15 6 14 7 13 8 12 9 11 10 10 11 5 12
REMARK SMILES IDX 6 13 7 14 9 15 8 16 4 17 2 18 1 19 3 20 20 21 21 22 22 23
REMARK SMILES IDX 23 24 24 25 25 26 26 28 27 29 28 30 92 31 29 32 91 33 30 34
REMARK SMILES IDX 31 35 32 36 85 37 33 38 90 39 84 40 86 41 34 42 89 43 83 44
REMARK SMILES IDX 82 45 35 47 69 48 48 49 68 50 49 51 52 52 67 53 87 54 50 55
REMARK SMILES IDX 51 56 66 58 88 59 53 60 36 61 37 62 46 63 38 64 39 65 45 66
REMARK SMILES IDX 47 67 40 68 41 69 42 70 43 71 44 72 70 73 71 74 80 75 72 76
REMARK SMILES IDX 73 77 79 78 81 79 74 80 75 81 76 82 77 83 78 84 54 85 55 86
REMARK SMILES IDX 64 87 56 88 57 89 63 90 65 91 58 92 59 93 60 94 61 95 62 96
REMARK H PARENT 19 4 24 27 86 46 52 57
REMARK Flexibility Score: inf
ROOT
ATOM      1  C   UNL A   1      31.793  28.676  25.159  1.00  0.00     0.219 C 
ATOM      2  O   UNL A   1      31.137  29.081  24.199  1.00  0.00    -0.275 OA
ATOM      3  N   UNL A   1      33.033  29.191  25.382  1.00  0.00    -0.356 N 
ATOM      4  H   UNL A   1      33.299  29.943  24.806  1.00  0.00     0.163 HD
ENDROOT
BRANCH   1   5
ATOM      5  C   UNL A   1      31.232  27.640  26.111  1.00  0.00     0.100 C 
BRANCH   5   6
ATOM      6  C   UNL A   1      31.248  26.208  25.570  1.00  0.00     0.010 C 
BRANCH   6   7
ATOM      7  C   UNL A   1      30.150  25.727  24.595  1.00  0.00     0.001 C 
BRANCH   7   8
ATOM      8  C   UNL A   1      30.483  24.711  23.502  1.00  0.00     0.011 C 
BRANCH   8   9
ATOM      9  C   UNL A   1      31.907  24.417  22.992  1.00  0.00     0.075 C 
BRANCH   9  10
ATOM     10  S   UNL A   1      32.839  22.848  22.974  1.00  0.00    -0.122 SA
BRANCH  10  11
ATOM     11  C   UNL A   1      33.164  22.383  24.654  1.00  0.00     0.050 A 
ATOM     12  C   UNL A   1      33.451  21.122  25.190  1.00  0.00     0.144 A 
ATOM     13  C   UNL A   1      33.969  21.003  26.494  1.00  0.00     0.048 A 
ATOM     14  C   UNL A   1      34.154  22.133  27.290  1.00  0.00     0.004 A 
ATOM     15  C   UNL A   1      33.271  23.496  25.514  1.00  0.00     0.019 A 
ATOM     16  C   UNL A   1      33.778  23.379  26.810  1.00  0.00     0.001 A 
BRANCH  12  17
ATOM     17  O   UNL A   1      33.592  19.919  24.438  1.00  0.00    -0.426 OA
BRANCH  17  18
ATOM     18  C   UNL A   1      33.196  18.613  24.706  1.00  0.00     0.308 C 
ATOM     19  C   UNL A   1      34.292  17.694  24.233  1.00  0.00     0.139 C 
ATOM     20  O   UNL A   1      32.152  18.256  25.237  1.00  0.00    -0.252 OA
ENDBRANCH  17  18
ENDBRANCH  12  17
ENDBRANCH  10  11
ENDBRANCH   9  10
ENDBRANCH   8   9
ENDBRANCH   7   8
ENDBRANCH   6   7
ENDBRANCH   5   6
ENDBRANCH   1   5
BRANCH   3  21
ATOM     21  C   UNL A   1      34.005  28.766  26.361  1.00  0.00     0.116 C 
BRANCH  21  22
ATOM     22  C   UNL A   1      34.141  29.815  27.461  1.00  0.00     0.023 C 
BRANCH  22  23
ATOM     23  C   UNL A   1      33.293  31.052  27.295  1.00  0.00     0.023 C 
BRANCH  23  24
ATOM     24  C   UNL A   1      34.021  32.321  27.674  1.00  0.00     0.116 C 
BRANCH  24  25
ATOM     25  N   UNL A   1      33.181  33.516  27.759  1.00  0.00    -0.352 N 
ATOM     26  C   UNL A   1      33.311  34.537  28.680  1.00  0.00     0.251 C 
ATOM     27  H   UNL A   1      32.458  33.601  27.098  1.00  0.00     0.163 HD
ATOM     28  O   UNL A   1      32.535  35.483  28.711  1.00  0.00    -0.269 OA
BRANCH  26  29
ATOM     29  C   UNL A   1      34.401  34.395  29.662  1.00  0.00     0.039 A 
ATOM     30  C   UNL A   1      34.109  33.868  30.920  1.00  0.00     0.014 A 
ATOM     31  C   UNL A   1      35.716  34.500  29.205  1.00  0.00     0.014 A 
ATOM     32  C   UNL A   1      35.150  33.355  31.692  1.00  0.00     0.010 A 
ATOM     33  C   UNL A   1      36.717  33.850  29.909  1.00  0.00     0.010 A 
ATOM     34  C   UNL A   1      36.452  33.287  31.167  1.00  0.00    -0.014 A 
BRANCH  34  35
ATOM     35  C   UNL A   1      37.569  32.669  31.926  1.00  0.00     0.031 A 
ATOM     36  C   UNL A   1      38.263  31.463  31.348  1.00  0.00     0.074 A 
ATOM     37  C   UNL A   1      37.914  33.136  33.144  1.00  0.00     0.049 A 
ATOM     38  N   UNL A   1      39.207  30.724  31.868  1.00  0.00    -0.248 NA
ATOM     39  C   UNL A   1      37.796  30.993  30.032  1.00  0.00     0.031 C 
ATOM     40  C   UNL A   1      37.272  34.255  33.842  1.00  0.00     0.029 A 
ATOM     41  N   UNL A   1      38.893  32.727  34.014  1.00  0.00    -0.354 N 
ATOM     42  C   UNL A   1      39.419  29.695  30.957  1.00  0.00     0.074 A 
ATOM     43  C   UNL A   1      38.447  29.851  29.902  1.00  0.00     0.031 C 
ATOM     44  C   UNL A   1      37.911  34.475  35.004  1.00  0.00     0.029 A 
ATOM     45  C   UNL A   1      38.979  33.490  35.156  1.00  0.00     0.049 A 
ATOM     46  H   UNL A   1      39.482  31.958  33.836  1.00  0.00     0.167 HD
ATOM     47  C   UNL A   1      40.369  28.731  30.971  1.00  0.00     0.037 A 
ATOM     48  C   UNL A   1      39.827  33.408  36.199  1.00  0.00     0.037 A 
ATOM     49  C   UNL A   1      41.368  28.618  31.996  1.00  0.00     0.049 A 
ATOM     50  C   UNL A   1      40.886  32.335  36.190  1.00  0.00     0.074 A 
ATOM     51  C   UNL A   1      42.426  27.733  32.072  1.00  0.00     0.029 A 
ATOM     52  N   UNL A   1      41.433  29.422  33.126  1.00  0.00    -0.354 N 
ATOM     53  N   UNL A   1      41.125  31.419  35.281  1.00  0.00    -0.248 NA
ATOM     54  C   UNL A   1      41.792  32.286  37.346  1.00  0.00     0.031 C 
ATOM     55  C   UNL A   1      43.103  27.969  33.273  1.00  0.00     0.029 A 
ATOM     56  C   UNL A   1      42.498  29.037  33.918  1.00  0.00     0.049 A 
ATOM     57  H   UNL A   1      40.811  30.158  33.332  1.00  0.00     0.167 HD
ATOM     58  C   UNL A   1      42.230  30.708  35.738  1.00  0.00     0.074 A 
ATOM     59  C   UNL A   1      42.616  31.306  37.000  1.00  0.00     0.031 C 
ATOM     60  C   UNL A   1      42.870  29.658  35.166  1.00  0.00     0.037 A 
BRANCH  47  61
ATOM     61  C   UNL A   1      40.365  27.742  29.839  1.00  0.00     0.058 A 
ATOM     62  C   UNL A   1      39.440  26.684  29.780  1.00  0.00     0.135 A 
ATOM     63  C   UNL A   1      41.310  27.840  28.804  1.00  0.00     0.135 A 
ATOM     64  F   UNL A   1      38.529  26.528  30.754  1.00  0.00    -0.206 F 
ATOM     65  C   UNL A   1      39.484  25.734  28.766  1.00  0.00     0.059 A 
ATOM     66  C   UNL A   1      41.348  26.922  27.760  1.00  0.00     0.059 A 
ATOM     67  F   UNL A   1      42.219  28.828  28.811  1.00  0.00    -0.206 F 
ATOM     68  C   UNL A   1      40.444  25.859  27.762  1.00  0.00     0.060 A 
BRANCH  68  69
ATOM     69  S   UNL A   1      40.498  24.609  26.463  1.00  0.00     0.124 S 
ATOM     70  O   UNL A   1      39.108  24.589  26.021  1.00  0.00    -0.237 OA
ATOM     71  O   UNL A   1      41.455  25.179  25.521  1.00  0.00    -0.237 OA
ATOM     72  O   UNL A   1      40.951  23.411  27.164  1.00  0.00    -0.744 OA
ENDBRANCH  68  69
ENDBRANCH  47  61
BRANCH  48  73
ATOM     73  C   UNL A   1      39.751  34.395  37.311  1.00  0.00     0.058 A 
ATOM     74  C   UNL A   1      38.964  34.139  38.445  1.00  0.00     0.135 A 
ATOM     75  C   UNL A   1      40.461  35.604  37.272  1.00  0.00     0.135 A 
ATOM     76  F   UNL A   1      38.260  33.000  38.528  1.00  0.00    -0.206 F 
ATOM     77  C   UNL A   1      38.871  35.050  39.492  1.00  0.00     0.059 A 
ATOM     78  C   UNL A   1      40.404  36.522  38.320  1.00  0.00     0.059 A 
ATOM     79  F   UNL A   1      41.241  35.894  36.219  1.00  0.00    -0.206 F 
ATOM     80  C   UNL A   1      39.599  36.239  39.422  1.00  0.00     0.060 A 
BRANCH  80  81
ATOM     81  S   UNL A   1      39.508  37.391  40.811  1.00  0.00     0.124 S 
ATOM     82  O   UNL A   1      39.089  36.512  41.896  1.00  0.00    -0.237 OA
ATOM     83  O   UNL A   1      40.878  37.889  40.884  1.00  0.00    -0.237 OA
ATOM     84  O   UNL A   1      38.517  38.368  40.370  1.00  0.00    -0.744 OA
ENDBRANCH  80  81
ENDBRANCH  48  73
BRANCH  60  85
ATOM     85  C   UNL A   1      44.077  29.111  35.876  1.00  0.00     0.058 A 
ATOM     86  C   UNL A   1      43.991  28.005  36.735  1.00  0.00     0.135 A 
ATOM     87  C   UNL A   1      45.345  29.663  35.639  1.00  0.00     0.135 A 
ATOM     88  F   UNL A   1      42.800  27.444  36.998  1.00  0.00    -0.206 F 
ATOM     89  C   UNL A   1      45.120  27.481  37.355  1.00  0.00     0.059 A 
ATOM     90  C   UNL A   1      46.491  29.135  36.224  1.00  0.00     0.059 A 
ATOM     91  F   UNL A   1      45.484  30.713  34.814  1.00  0.00    -0.206 F 
ATOM     92  C   UNL A   1      46.367  28.050  37.090  1.00  0.00     0.060 A 
BRANCH  92  93
ATOM     93  S   UNL A   1      47.828  27.334  37.869  1.00  0.00     0.124 S 
ATOM     94  O   UNL A   1      48.570  26.849  36.710  1.00  0.00    -0.237 OA
ATOM     95  O   UNL A   1      48.408  28.481  38.560  1.00  0.00    -0.237 OA
ATOM     96  O   UNL A   1      47.276  26.299  38.739  1.00  0.00    -0.744 OA
ENDBRANCH  92  93
ENDBRANCH  60  85
ENDBRANCH  34  35
ENDBRANCH  26  29
ENDBRANCH  24  25
ENDBRANCH  23  24
ENDBRANCH  22  23
ENDBRANCH  21  22
ENDBRANCH   3  21
TORSDOF 22
ENDMDL
