MODEL 1
REMARK VINA RESULT:     -12.1      0.000      0.000
REMARK SMILES Cc1ccc(O)c(C(=O)[C@@H]2[C@@H](C(=O)NCCCCNC(=O)c3ccc(-c4c5nc(c(-c6c(F)cc(S(=O)(=O)[O-])cc6F)c6ccc([nH]6)c(-c6c(F)cc(S(=O)(=O)[O-])cc6F)c6nc(c(-c7c(F)cc(S(=O)(=O)[O-])cc7F)c7ccc4[nH]7)C=C6)C=C5)cc3)[C@H]3C=C[C@@H]2C3)c1
REMARK SMILES IDX 16 1 15 2 14 3 12 4 13 5 11 7 10 8 91 9 88 10 90 11 92 12
REMARK SMILES IDX 89 13 8 14 9 15 7 16 1 17 2 18 3 19 93 20 4 21 5 22 6 23
REMARK SMILES IDX 17 25 18 26 19 27 20 28 21 30 22 31 23 32 87 33 24 34 86 35
REMARK SMILES IDX 25 36 26 37 27 38 80 39 28 40 85 41 79 42 81 43 29 44 84 45
REMARK SMILES IDX 78 46 77 47 30 49 64 50 43 51 63 52 44 53 47 54 62 55 82 56
REMARK SMILES IDX 45 57 46 58 61 60 83 61 48 62 31 63 32 64 41 65 33 66 34 67
REMARK SMILES IDX 40 68 42 69 35 70 36 71 37 72 38 73 39 74 65 75 66 76 75 77
REMARK SMILES IDX 67 78 68 79 74 80 76 81 69 82 70 83 71 84 72 85 73 86 49 87
REMARK SMILES IDX 50 88 59 89 51 90 52 91 58 92 60 93 53 94 54 95 55 96 56 97
REMARK SMILES IDX 57 98
REMARK H PARENT 14 6 6 24 19 29 81 48 47 59
REMARK Flexibility Score: inf
ROOT
ATOM      1  C   UNL A   1      33.684  27.169  25.017  1.00  0.00     0.023 C 
ENDROOT
BRANCH   1   2
ATOM      2  C   UNL A   1      32.464  26.310  25.340  1.00  0.00     0.116 C 
BRANCH   2   3
ATOM      3  N   UNL A   1      32.757  25.295  26.333  1.00  0.00    -0.356 N 
ATOM      4  C   UNL A   1      33.334  24.073  26.286  1.00  0.00     0.224 C 
ATOM      5  O   UNL A   1      33.395  23.468  27.367  1.00  0.00    -0.275 OA
ATOM      6  H   UNL A   1      32.473  25.552  27.240  1.00  0.00     0.163 HD
BRANCH   4   7
ATOM      7  C   UNL A   1      33.857  23.358  25.045  1.00  0.00     0.097 C 
ATOM      8  C   UNL A   1      34.175  21.845  25.093  1.00  0.00     0.081 C 
ATOM      9  C   UNL A   1      35.542  21.775  24.349  1.00  0.00     0.024 C 
ATOM     10  C   UNL A   1      35.145  23.984  24.431  1.00  0.00     0.025 C 
ATOM     11  C   UNL A   1      36.591  22.401  25.257  1.00  0.00    -0.027 C 
ATOM     12  C   UNL A   1      35.505  22.951  23.360  1.00  0.00     0.017 C 
ATOM     13  C   UNL A   1      36.355  23.724  25.285  1.00  0.00    -0.027 C 
BRANCH   8  14
ATOM     14  C   UNL A   1      33.033  20.924  24.634  1.00  0.00     0.171 C 
ATOM     15  O   UNL A   1      31.856  21.259  24.807  1.00  0.00    -0.294 OA
BRANCH  14  16
ATOM     16  C   UNL A   1      33.244  19.568  24.077  1.00  0.00     0.060 A 
ATOM     17  C   UNL A   1      34.909  16.310  25.071  1.00  0.00     0.044 C 
ATOM     18  C   UNL A   1      34.134  17.317  24.275  1.00  0.00    -0.050 A 
ATOM     19  C   UNL A   1      33.402  16.932  23.148  1.00  0.00     0.007 A 
ATOM     20  C   UNL A   1      34.118  18.660  24.668  1.00  0.00     0.019 A 
ATOM     21  C   UNL A   1      32.644  17.873  22.449  1.00  0.00     0.047 A 
ATOM     22  C   UNL A   1      32.559  19.182  22.919  1.00  0.00     0.126 A 
BRANCH  22  23
ATOM     23  O   UNL A   1      31.791  20.050  22.188  1.00  0.00    -0.507 OA
ATOM     24  H   UNL A   1      30.917  19.813  21.949  1.00  0.00     0.293 HD
ENDBRANCH  22  23
ENDBRANCH  14  16
ENDBRANCH   8  14
ENDBRANCH   4   7
ENDBRANCH   2   3
ENDBRANCH   1   2
BRANCH   1  25
ATOM     25  C   UNL A   1      33.650  28.584  25.580  1.00  0.00     0.023 C 
BRANCH  25  26
ATOM     26  C   UNL A   1      33.490  28.682  27.089  1.00  0.00     0.116 C 
BRANCH  26  27
ATOM     27  N   UNL A   1      33.437  30.043  27.605  1.00  0.00    -0.352 N 
ATOM     28  C   UNL A   1      34.454  30.750  28.217  1.00  0.00     0.251 C 
ATOM     29  H   UNL A   1      32.577  30.513  27.506  1.00  0.00     0.163 HD
ATOM     30  O   UNL A   1      34.268  31.869  28.658  1.00  0.00    -0.269 OA
BRANCH  28  31
ATOM     31  C   UNL A   1      35.761  30.076  28.366  1.00  0.00     0.039 A 
ATOM     32  C   UNL A   1      36.672  30.133  27.311  1.00  0.00     0.014 A 
ATOM     33  C   UNL A   1      36.124  29.529  29.598  1.00  0.00     0.014 A 
ATOM     34  C   UNL A   1      37.988  29.719  27.524  1.00  0.00     0.010 A 
ATOM     35  C   UNL A   1      37.452  29.204  29.833  1.00  0.00     0.010 A 
ATOM     36  C   UNL A   1      38.399  29.300  28.801  1.00  0.00    -0.014 A 
BRANCH  36  37
ATOM     37  C   UNL A   1      39.814  28.956  29.086  1.00  0.00     0.031 A 
ATOM     38  C   UNL A   1      40.723  29.990  29.690  1.00  0.00     0.074 A 
ATOM     39  C   UNL A   1      40.298  27.750  28.726  1.00  0.00     0.049 A 
ATOM     40  N   UNL A   1      42.008  29.925  29.924  1.00  0.00    -0.248 NA
ATOM     41  C   UNL A   1      40.114  31.284  30.037  1.00  0.00     0.031 C 
ATOM     42  C   UNL A   1      39.532  26.686  28.070  1.00  0.00     0.029 A 
ATOM     43  N   UNL A   1      41.558  27.218  28.848  1.00  0.00    -0.354 N 
ATOM     44  C   UNL A   1      42.362  31.173  30.421  1.00  0.00     0.074 A 
ATOM     45  C   UNL A   1      41.172  31.994  30.400  1.00  0.00     0.031 C 
ATOM     46  C   UNL A   1      40.330  25.623  27.874  1.00  0.00     0.029 A 
ATOM     47  C   UNL A   1      41.670  25.938  28.358  1.00  0.00     0.049 A 
ATOM     48  H   UNL A   1      42.311  27.708  29.251  1.00  0.00     0.167 HD
ATOM     49  C   UNL A   1      43.566  31.590  30.882  1.00  0.00     0.037 A 
ATOM     50  C   UNL A   1      42.733  25.113  28.305  1.00  0.00     0.037 A 
ATOM     51  C   UNL A   1      44.733  30.754  30.945  1.00  0.00     0.049 A 
ATOM     52  C   UNL A   1      44.051  25.583  28.861  1.00  0.00     0.074 A 
ATOM     53  C   UNL A   1      45.981  31.055  31.460  1.00  0.00     0.029 A 
ATOM     54  N   UNL A   1      44.793  29.446  30.485  1.00  0.00    -0.354 N 
ATOM     55  N   UNL A   1      44.353  26.746  29.388  1.00  0.00    -0.248 NA
ATOM     56  C   UNL A   1      45.168  24.630  28.824  1.00  0.00     0.031 C 
ATOM     57  C   UNL A   1      46.805  29.937  31.287  1.00  0.00     0.029 A 
ATOM     58  C   UNL A   1      46.059  28.929  30.697  1.00  0.00     0.049 A 
ATOM     59  H   UNL A   1      44.045  28.958  30.070  1.00  0.00     0.167 HD
ATOM     60  C   UNL A   1      45.687  26.655  29.769  1.00  0.00     0.074 A 
ATOM     61  C   UNL A   1      46.130  25.321  29.421  1.00  0.00     0.031 C 
ATOM     62  C   UNL A   1      46.475  27.593  30.353  1.00  0.00     0.037 A 
BRANCH  49  63
ATOM     63  C   UNL A   1      43.664  33.008  31.369  1.00  0.00     0.058 A 
ATOM     64  C   UNL A   1      44.025  34.057  30.508  1.00  0.00     0.135 A 
ATOM     65  C   UNL A   1      43.385  33.326  32.708  1.00  0.00     0.135 A 
ATOM     66  F   UNL A   1      44.323  33.805  29.224  1.00  0.00    -0.206 F 
ATOM     67  C   UNL A   1      44.142  35.365  30.965  1.00  0.00     0.059 A 
ATOM     68  C   UNL A   1      43.467  34.633  33.180  1.00  0.00     0.059 A 
ATOM     69  F   UNL A   1      43.037  32.361  33.573  1.00  0.00    -0.206 F 
ATOM     70  C   UNL A   1      43.863  35.643  32.303  1.00  0.00     0.060 A 
BRANCH  70  71
ATOM     71  S   UNL A   1      44.018  37.346  32.882  1.00  0.00     0.124 S 
ATOM     72  O   UNL A   1      42.894  37.440  33.809  1.00  0.00    -0.237 OA
ATOM     73  O   UNL A   1      45.344  37.349  33.493  1.00  0.00    -0.237 OA
ATOM     74  O   UNL A   1      43.893  38.133  31.660  1.00  0.00    -0.744 OA
ENDBRANCH  70  71
ENDBRANCH  49  63
BRANCH  50  75
ATOM     75  C   UNL A   1      42.590  23.747  27.738  1.00  0.00     0.058 A 
ATOM     76  C   UNL A   1      42.419  22.635  28.577  1.00  0.00     0.135 A 
ATOM     77  C   UNL A   1      42.606  23.522  26.353  1.00  0.00     0.135 A 
ATOM     78  F   UNL A   1      42.402  22.798  29.909  1.00  0.00    -0.206 F 
ATOM     79  C   UNL A   1      42.285  21.349  28.067  1.00  0.00     0.059 A 
ATOM     80  C   UNL A   1      42.453  22.247  25.817  1.00  0.00     0.059 A 
ATOM     81  F   UNL A   1      42.749  24.554  25.507  1.00  0.00    -0.206 F 
ATOM     82  C   UNL A   1      42.302  21.164  26.683  1.00  0.00     0.060 A 
BRANCH  82  83
ATOM     83  S   UNL A   1      42.076  19.496  26.027  1.00  0.00     0.124 S 
ATOM     84  O   UNL A   1      42.563  18.678  27.131  1.00  0.00    -0.237 OA
ATOM     85  O   UNL A   1      40.637  19.452  25.786  1.00  0.00    -0.237 OA
ATOM     86  O   UNL A   1      42.904  19.495  24.826  1.00  0.00    -0.744 OA
ENDBRANCH  82  83
ENDBRANCH  50  75
BRANCH  62  87
ATOM     87  C   UNL A   1      47.885  27.198  30.683  1.00  0.00     0.058 A 
ATOM     88  C   UNL A   1      48.224  26.657  31.932  1.00  0.00     0.135 A 
ATOM     89  C   UNL A   1      48.897  27.308  29.716  1.00  0.00     0.135 A 
ATOM     90  F   UNL A   1      47.293  26.538  32.892  1.00  0.00    -0.206 F 
ATOM     91  C   UNL A   1      49.523  26.253  32.218  1.00  0.00     0.059 A 
ATOM     92  C   UNL A   1      50.198  26.889  29.973  1.00  0.00     0.059 A 
ATOM     93  F   UNL A   1      48.622  27.810  28.502  1.00  0.00    -0.206 F 
ATOM     94  C   UNL A   1      50.504  26.372  31.231  1.00  0.00     0.060 A 
BRANCH  94  95
ATOM     95  S   UNL A   1      52.178  25.807  31.599  1.00  0.00     0.124 S 
ATOM     96  O   UNL A   1      52.555  26.701  32.691  1.00  0.00    -0.237 OA
ATOM     97  O   UNL A   1      51.966  24.411  31.968  1.00  0.00    -0.237 OA
ATOM     98  O   UNL A   1      52.891  26.016  30.343  1.00  0.00    -0.744 OA
ENDBRANCH  94  95
ENDBRANCH  62  87
ENDBRANCH  36  37
ENDBRANCH  28  31
ENDBRANCH  26  27
ENDBRANCH  25  26
ENDBRANCH   1  25
TORSDOF 17
ENDMDL
MODEL 2
REMARK VINA RESULT:     -11.8      1.282      2.262
REMARK SMILES Cc1ccc(O)c(C(=O)[C@@H]2[C@@H](C(=O)NCCCCNC(=O)c3ccc(-c4c5nc(c(-c6c(F)cc(S(=O)(=O)[O-])cc6F)c6ccc([nH]6)c(-c6c(F)cc(S(=O)(=O)[O-])cc6F)c6nc(c(-c7c(F)cc(S(=O)(=O)[O-])cc7F)c7ccc4[nH]7)C=C6)C=C5)cc3)[C@H]3C=C[C@@H]2C3)c1
REMARK SMILES IDX 16 1 15 2 14 3 12 4 13 5 11 7 10 8 91 9 88 10 90 11 92 12
REMARK SMILES IDX 89 13 8 14 9 15 7 16 1 17 2 18 3 19 93 20 4 21 5 22 6 23
REMARK SMILES IDX 17 25 18 26 19 27 20 28 21 30 22 31 23 32 87 33 24 34 86 35
REMARK SMILES IDX 25 36 26 37 27 38 80 39 28 40 85 41 79 42 81 43 29 44 84 45
REMARK SMILES IDX 78 46 77 47 30 49 64 50 43 51 63 52 44 53 47 54 62 55 82 56
REMARK SMILES IDX 45 57 46 58 61 60 83 61 48 62 31 63 32 64 41 65 33 66 34 67
REMARK SMILES IDX 40 68 42 69 35 70 36 71 37 72 38 73 39 74 65 75 66 76 75 77
REMARK SMILES IDX 67 78 68 79 74 80 76 81 69 82 70 83 71 84 72 85 73 86 49 87
REMARK SMILES IDX 50 88 59 89 51 90 52 91 58 92 60 93 53 94 54 95 55 96 56 97
REMARK SMILES IDX 57 98
REMARK H PARENT 14 6 6 24 19 29 81 48 47 59
REMARK Flexibility Score: inf
ROOT
ATOM      1  C   UNL A   1      33.556  28.743  24.674  1.00  0.00     0.023 C 
ENDROOT
BRANCH   1   2
ATOM      2  C   UNL A   1      32.779  28.666  23.362  1.00  0.00     0.116 C 
BRANCH   2   3
ATOM      3  N   UNL A   1      33.242  27.584  22.516  1.00  0.00    -0.356 N 
ATOM      4  C   UNL A   1      33.325  26.243  22.665  1.00  0.00     0.224 C 
ATOM      5  O   UNL A   1      33.808  25.626  21.704  1.00  0.00    -0.275 OA
ATOM      6  H   UNL A   1      33.567  27.894  21.639  1.00  0.00     0.163 HD
BRANCH   4   7
ATOM      7  C   UNL A   1      32.938  25.437  23.901  1.00  0.00     0.097 C 
ATOM      8  C   UNL A   1      33.421  23.976  24.061  1.00  0.00     0.081 C 
ATOM      9  C   UNL A   1      32.129  23.259  24.556  1.00  0.00     0.024 C 
ATOM     10  C   UNL A   1      31.405  25.348  24.163  1.00  0.00     0.025 C 
ATOM     11  C   UNL A   1      31.160  23.200  23.384  1.00  0.00    -0.027 C 
ATOM     12  C   UNL A   1      31.351  24.344  25.317  1.00  0.00     0.017 C 
ATOM     13  C   UNL A   1      30.719  24.451  23.169  1.00  0.00    -0.027 C 
BRANCH   8  14
ATOM     14  C   UNL A   1      34.719  23.803  24.864  1.00  0.00     0.171 C 
ATOM     15  O   UNL A   1      35.245  24.778  25.414  1.00  0.00    -0.294 OA
BRANCH  14  16
ATOM     16  C   UNL A   1      35.474  22.531  24.944  1.00  0.00     0.060 A 
ATOM     17  C   UNL A   1      34.801  18.805  24.753  1.00  0.00     0.044 C 
ATOM     18  C   UNL A   1      35.539  20.105  24.878  1.00  0.00    -0.050 A 
ATOM     19  C   UNL A   1      36.934  20.146  24.817  1.00  0.00     0.007 A 
ATOM     20  C   UNL A   1      34.830  21.301  25.038  1.00  0.00     0.019 A 
ATOM     21  C   UNL A   1      37.603  21.370  24.882  1.00  0.00     0.047 A 
ATOM     22  C   UNL A   1      36.874  22.556  24.936  1.00  0.00     0.126 A 
BRANCH  22  23
ATOM     23  O   UNL A   1      37.594  23.720  24.990  1.00  0.00    -0.507 OA
ATOM     24  H   UNL A   1      37.223  24.481  25.390  1.00  0.00     0.293 HD
ENDBRANCH  22  23
ENDBRANCH  14  16
ENDBRANCH   8  14
ENDBRANCH   4   7
ENDBRANCH   2   3
ENDBRANCH   1   2
BRANCH   1  25
ATOM     25  C   UNL A   1      32.771  28.354  25.919  1.00  0.00     0.023 C 
BRANCH  25  26
ATOM     26  C   UNL A   1      33.482  28.598  27.241  1.00  0.00     0.116 C 
BRANCH  26  27
ATOM     27  N   UNL A   1      33.439  29.978  27.706  1.00  0.00    -0.352 N 
ATOM     28  C   UNL A   1      34.470  30.710  28.263  1.00  0.00     0.251 C 
ATOM     29  H   UNL A   1      32.576  30.442  27.612  1.00  0.00     0.163 HD
ATOM     30  O   UNL A   1      34.293  31.845  28.665  1.00  0.00    -0.269 OA
BRANCH  28  31
ATOM     31  C   UNL A   1      35.783  30.044  28.402  1.00  0.00     0.039 A 
ATOM     32  C   UNL A   1      36.669  30.071  27.326  1.00  0.00     0.014 A 
ATOM     33  C   UNL A   1      36.175  29.535  29.642  1.00  0.00     0.014 A 
ATOM     34  C   UNL A   1      37.991  29.668  27.522  1.00  0.00     0.010 A 
ATOM     35  C   UNL A   1      37.509  29.221  29.857  1.00  0.00     0.010 A 
ATOM     36  C   UNL A   1      38.433  29.289  28.801  1.00  0.00    -0.014 A 
BRANCH  36  37
ATOM     37  C   UNL A   1      39.855  28.957  29.065  1.00  0.00     0.031 A 
ATOM     38  C   UNL A   1      40.765  30.002  29.647  1.00  0.00     0.074 A 
ATOM     39  C   UNL A   1      40.342  27.753  28.703  1.00  0.00     0.049 A 
ATOM     40  N   UNL A   1      42.054  29.949  29.861  1.00  0.00    -0.248 NA
ATOM     41  C   UNL A   1      40.152  31.293  29.998  1.00  0.00     0.031 C 
ATOM     42  C   UNL A   1      39.574  26.680  28.066  1.00  0.00     0.029 A 
ATOM     43  N   UNL A   1      41.608  27.232  28.808  1.00  0.00    -0.354 N 
ATOM     44  C   UNL A   1      42.407  31.202  30.344  1.00  0.00     0.074 A 
ATOM     45  C   UNL A   1      41.210  32.013  30.339  1.00  0.00     0.031 C 
ATOM     46  C   UNL A   1      40.376  25.622  27.863  1.00  0.00     0.029 A 
ATOM     47  C   UNL A   1      41.722  25.950  28.323  1.00  0.00     0.049 A 
ATOM     48  H   UNL A   1      42.363  27.730  29.195  1.00  0.00     0.167 HD
ATOM     49  C   UNL A   1      43.614  31.631  30.783  1.00  0.00     0.037 A 
ATOM     50  C   UNL A   1      42.791  25.133  28.256  1.00  0.00     0.037 A 
ATOM     51  C   UNL A   1      44.789  30.804  30.831  1.00  0.00     0.049 A 
ATOM     52  C   UNL A   1      44.114  25.617  28.788  1.00  0.00     0.074 A 
ATOM     53  C   UNL A   1      46.043  31.118  31.324  1.00  0.00     0.029 A 
ATOM     54  N   UNL A   1      44.852  29.495  30.378  1.00  0.00    -0.354 N 
ATOM     55  N   UNL A   1      44.415  26.785  29.304  1.00  0.00    -0.248 NA
ATOM     56  C   UNL A   1      45.238  24.672  28.738  1.00  0.00     0.031 C 
ATOM     57  C   UNL A   1      46.873  30.005  31.143  1.00  0.00     0.029 A 
ATOM     58  C   UNL A   1      46.125  28.988  30.571  1.00  0.00     0.049 A 
ATOM     59  H   UNL A   1      44.101  28.999  29.977  1.00  0.00     0.167 HD
ATOM     60  C   UNL A   1      45.756  26.707  29.663  1.00  0.00     0.074 A 
ATOM     61  C   UNL A   1      46.204  25.374  29.314  1.00  0.00     0.031 C 
ATOM     62  C   UNL A   1      46.546  27.653  30.228  1.00  0.00     0.037 A 
BRANCH  49  63
ATOM     63  C   UNL A   1      43.710  33.053  31.260  1.00  0.00     0.058 A 
ATOM     64  C   UNL A   1      44.067  34.097  30.392  1.00  0.00     0.135 A 
ATOM     65  C   UNL A   1      43.431  33.379  32.598  1.00  0.00     0.135 A 
ATOM     66  F   UNL A   1      44.364  33.837  29.109  1.00  0.00    -0.206 F 
ATOM     67  C   UNL A   1      44.181  35.408  30.840  1.00  0.00     0.059 A 
ATOM     68  C   UNL A   1      43.510  34.689  33.061  1.00  0.00     0.059 A 
ATOM     69  F   UNL A   1      43.087  32.419  33.470  1.00  0.00    -0.206 F 
ATOM     70  C   UNL A   1      43.902  35.694  32.176  1.00  0.00     0.060 A 
BRANCH  70  71
ATOM     71  S   UNL A   1      44.054  37.401  32.744  1.00  0.00     0.124 S 
ATOM     72  O   UNL A   1      45.419  37.413  33.263  1.00  0.00    -0.237 OA
ATOM     73  O   UNL A   1      43.838  38.160  31.516  1.00  0.00    -0.237 OA
ATOM     74  O   UNL A   1      43.000  37.522  33.744  1.00  0.00    -0.744 OA
ENDBRANCH  70  71
ENDBRANCH  49  63
BRANCH  50  75
ATOM     75  C   UNL A   1      42.649  23.762  27.700  1.00  0.00     0.058 A 
ATOM     76  C   UNL A   1      42.457  22.660  28.546  1.00  0.00     0.135 A 
ATOM     77  C   UNL A   1      42.687  23.525  26.318  1.00  0.00     0.135 A 
ATOM     78  F   UNL A   1      42.418  22.835  29.876  1.00  0.00    -0.206 F 
ATOM     79  C   UNL A   1      42.324  21.369  28.045  1.00  0.00     0.059 A 
ATOM     80  C   UNL A   1      42.535  22.246  25.790  1.00  0.00     0.059 A 
ATOM     81  F   UNL A   1      42.851  24.548  25.464  1.00  0.00    -0.206 F 
ATOM     82  C   UNL A   1      42.363  21.172  26.664  1.00  0.00     0.060 A 
BRANCH  82  83
ATOM     83  S   UNL A   1      42.138  19.499  26.019  1.00  0.00     0.124 S 
ATOM     84  O   UNL A   1      42.649  18.690  27.119  1.00  0.00    -0.237 OA
ATOM     85  O   UNL A   1      40.696  19.444  25.802  1.00  0.00    -0.237 OA
ATOM     86  O   UNL A   1      42.947  19.498  24.804  1.00  0.00    -0.744 OA
ENDBRANCH  82  83
ENDBRANCH  50  75
BRANCH  62  87
ATOM     87  C   UNL A   1      47.965  27.272  30.537  1.00  0.00     0.058 A 
ATOM     88  C   UNL A   1      48.302  26.587  31.714  1.00  0.00     0.135 A 
ATOM     89  C   UNL A   1      48.989  27.542  29.615  1.00  0.00     0.135 A 
ATOM     90  F   UNL A   1      47.360  26.312  32.629  1.00  0.00    -0.206 F 
ATOM     91  C   UNL A   1      49.611  26.198  31.975  1.00  0.00     0.059 A 
ATOM     92  C   UNL A   1      50.300  27.142  29.845  1.00  0.00     0.059 A 
ATOM     93  F   UNL A   1      48.715  28.185  28.468  1.00  0.00    -0.206 F 
ATOM     94  C   UNL A   1      50.604  26.479  31.034  1.00  0.00     0.060 A 
BRANCH  94  95
ATOM     95  S   UNL A   1      52.292  25.934  31.365  1.00  0.00     0.124 S 
ATOM     96  O   UNL A   1      52.750  26.951  32.306  1.00  0.00    -0.237 OA
ATOM     97  O   UNL A   1      52.089  24.600  31.922  1.00  0.00    -0.237 OA
ATOM     98  O   UNL A   1      52.924  25.966  30.049  1.00  0.00    -0.744 OA
ENDBRANCH  94  95
ENDBRANCH  62  87
ENDBRANCH  36  37
ENDBRANCH  28  31
ENDBRANCH  26  27
ENDBRANCH  25  26
ENDBRANCH   1  25
TORSDOF 17
ENDMDL
MODEL 3
REMARK VINA RESULT:     -11.8      1.355      2.377
REMARK SMILES Cc1ccc(O)c(C(=O)[C@@H]2[C@@H](C(=O)NCCCCNC(=O)c3ccc(-c4c5nc(c(-c6c(F)cc(S(=O)(=O)[O-])cc6F)c6ccc([nH]6)c(-c6c(F)cc(S(=O)(=O)[O-])cc6F)c6nc(c(-c7c(F)cc(S(=O)(=O)[O-])cc7F)c7ccc4[nH]7)C=C6)C=C5)cc3)[C@H]3C=C[C@@H]2C3)c1
REMARK SMILES IDX 16 1 15 2 14 3 12 4 13 5 11 7 10 8 91 9 88 10 90 11 92 12
REMARK SMILES IDX 89 13 8 14 9 15 7 16 1 17 2 18 3 19 93 20 4 21 5 22 6 23
REMARK SMILES IDX 17 25 18 26 19 27 20 28 21 30 22 31 23 32 87 33 24 34 86 35
REMARK SMILES IDX 25 36 26 37 27 38 80 39 28 40 85 41 79 42 81 43 29 44 84 45
REMARK SMILES IDX 78 46 77 47 30 49 64 50 43 51 63 52 44 53 47 54 62 55 82 56
REMARK SMILES IDX 45 57 46 58 61 60 83 61 48 62 31 63 32 64 41 65 33 66 34 67
REMARK SMILES IDX 40 68 42 69 35 70 36 71 37 72 38 73 39 74 65 75 66 76 75 77
REMARK SMILES IDX 67 78 68 79 74 80 76 81 69 82 70 83 71 84 72 85 73 86 49 87
REMARK SMILES IDX 50 88 59 89 51 90 52 91 58 92 60 93 53 94 54 95 55 96 56 97
REMARK SMILES IDX 57 98
REMARK H PARENT 14 6 6 24 19 29 81 48 47 59
REMARK Flexibility Score: inf
ROOT
ATOM      1  C   UNL A   1      31.650  27.181  26.834  1.00  0.00     0.023 C 
ENDROOT
BRANCH   1   2
ATOM      2  C   UNL A   1      32.080  25.765  26.456  1.00  0.00     0.116 C 
BRANCH   2   3
ATOM      3  N   UNL A   1      31.072  24.779  26.793  1.00  0.00    -0.356 N 
ATOM      4  C   UNL A   1      30.750  23.560  26.306  1.00  0.00     0.224 C 
ATOM      5  O   UNL A   1      29.784  23.004  26.850  1.00  0.00    -0.275 OA
ATOM      6  H   UNL A   1      30.496  25.059  27.541  1.00  0.00     0.163 HD
BRANCH   4   7
ATOM      7  C   UNL A   1      31.414  22.840  25.137  1.00  0.00     0.097 C 
ATOM      8  C   UNL A   1      32.938  22.971  24.905  1.00  0.00     0.081 C 
ATOM      9  C   UNL A   1      33.016  23.197  23.366  1.00  0.00     0.024 C 
ATOM     10  C   UNL A   1      30.802  23.168  23.742  1.00  0.00     0.025 C 
ATOM     11  C   UNL A   1      32.479  24.592  23.080  1.00  0.00    -0.027 C 
ATOM     12  C   UNL A   1      31.787  22.465  22.804  1.00  0.00     0.017 C 
ATOM     13  C   UNL A   1      31.152  24.559  23.290  1.00  0.00    -0.027 C 
BRANCH   8  14
ATOM     14  C   UNL A   1      33.790  21.858  25.535  1.00  0.00     0.171 C 
ATOM     15  O   UNL A   1      33.274  21.038  26.302  1.00  0.00    -0.294 OA
BRANCH  14  16
ATOM     16  C   UNL A   1      35.259  21.755  25.372  1.00  0.00     0.060 A 
ATOM     17  C   UNL A   1      38.342  23.892  25.925  1.00  0.00     0.044 C 
ATOM     18  C   UNL A   1      37.480  22.718  25.567  1.00  0.00    -0.050 A 
ATOM     19  C   UNL A   1      38.042  21.462  25.326  1.00  0.00     0.007 A 
ATOM     20  C   UNL A   1      36.090  22.865  25.492  1.00  0.00     0.019 A 
ATOM     21  C   UNL A   1      37.222  20.368  25.046  1.00  0.00     0.047 A 
ATOM     22  C   UNL A   1      35.836  20.514  25.078  1.00  0.00     0.126 A 
BRANCH  22  23
ATOM     23  O   UNL A   1      35.093  19.398  24.802  1.00  0.00    -0.507 OA
ATOM     24  H   UNL A   1      34.217  19.327  25.126  1.00  0.00     0.293 HD
ENDBRANCH  22  23
ENDBRANCH  14  16
ENDBRANCH   8  14
ENDBRANCH   4   7
ENDBRANCH   2   3
ENDBRANCH   1   2
BRANCH   1  25
ATOM     25  C   UNL A   1      32.549  28.294  26.314  1.00  0.00     0.023 C 
BRANCH  25  26
ATOM     26  C   UNL A   1      33.727  28.652  27.207  1.00  0.00     0.116 C 
BRANCH  26  27
ATOM     27  N   UNL A   1      33.679  29.999  27.761  1.00  0.00    -0.352 N 
ATOM     28  C   UNL A   1      34.706  30.694  28.369  1.00  0.00     0.251 C 
ATOM     29  H   UNL A   1      32.816  30.467  27.693  1.00  0.00     0.163 HD
ATOM     30  O   UNL A   1      34.526  31.800  28.844  1.00  0.00    -0.269 OA
BRANCH  28  31
ATOM     31  C   UNL A   1      36.020  30.023  28.470  1.00  0.00     0.039 A 
ATOM     32  C   UNL A   1      36.900  30.099  27.391  1.00  0.00     0.014 A 
ATOM     33  C   UNL A   1      36.419  29.459  29.684  1.00  0.00     0.014 A 
ATOM     34  C   UNL A   1      38.223  29.687  27.560  1.00  0.00     0.010 A 
ATOM     35  C   UNL A   1      37.755  29.136  29.876  1.00  0.00     0.010 A 
ATOM     36  C   UNL A   1      38.672  29.251  28.819  1.00  0.00    -0.014 A 
BRANCH  36  37
ATOM     37  C   UNL A   1      40.096  28.908  29.059  1.00  0.00     0.031 A 
ATOM     38  C   UNL A   1      41.024  29.946  29.625  1.00  0.00     0.074 A 
ATOM     39  C   UNL A   1      40.567  27.700  28.690  1.00  0.00     0.049 A 
ATOM     40  N   UNL A   1      42.316  29.882  29.817  1.00  0.00    -0.248 NA
ATOM     41  C   UNL A   1      40.427  31.243  29.985  1.00  0.00     0.031 C 
ATOM     42  C   UNL A   1      39.779  26.633  28.067  1.00  0.00     0.029 A 
ATOM     43  N   UNL A   1      41.830  27.168  28.774  1.00  0.00    -0.354 N 
ATOM     44  C   UNL A   1      42.687  31.133  30.293  1.00  0.00     0.074 A 
ATOM     45  C   UNL A   1      41.497  31.954  30.307  1.00  0.00     0.031 C 
ATOM     46  C   UNL A   1      40.570  25.568  27.852  1.00  0.00     0.029 A 
ATOM     47  C   UNL A   1      41.925  25.885  28.288  1.00  0.00     0.049 A 
ATOM     48  H   UNL A   1      42.596  27.660  29.148  1.00  0.00     0.167 HD
ATOM     49  C   UNL A   1      43.905  31.552  30.711  1.00  0.00     0.037 A 
ATOM     50  C   UNL A   1      42.986  25.060  28.205  1.00  0.00     0.037 A 
ATOM     51  C   UNL A   1      45.074  30.716  30.740  1.00  0.00     0.049 A 
ATOM     52  C   UNL A   1      44.322  25.533  28.714  1.00  0.00     0.074 A 
ATOM     53  C   UNL A   1      46.338  31.021  31.211  1.00  0.00     0.029 A 
ATOM     54  N   UNL A   1      45.119  29.406  30.287  1.00  0.00    -0.354 N 
ATOM     55  N   UNL A   1      44.641  26.699  29.223  1.00  0.00    -0.248 NA
ATOM     56  C   UNL A   1      45.437  24.579  28.646  1.00  0.00     0.031 C 
ATOM     57  C   UNL A   1      47.156  29.901  31.018  1.00  0.00     0.029 A 
ATOM     58  C   UNL A   1      46.390  28.889  30.460  1.00  0.00     0.049 A 
ATOM     59  H   UNL A   1      44.357  28.916  29.900  1.00  0.00     0.167 HD
ATOM     60  C   UNL A   1      45.987  26.610  29.560  1.00  0.00     0.074 A 
ATOM     61  C   UNL A   1      46.418  25.273  29.205  1.00  0.00     0.031 C 
ATOM     62  C   UNL A   1      46.795  27.551  30.111  1.00  0.00     0.037 A 
BRANCH  49  63
ATOM     63  C   UNL A   1      44.021  32.974  31.185  1.00  0.00     0.058 A 
ATOM     64  C   UNL A   1      44.370  34.014  30.310  1.00  0.00     0.135 A 
ATOM     65  C   UNL A   1      43.768  33.303  32.527  1.00  0.00     0.135 A 
ATOM     66  F   UNL A   1      44.642  33.751  29.022  1.00  0.00    -0.206 F 
ATOM     67  C   UNL A   1      44.502  35.325  30.754  1.00  0.00     0.059 A 
ATOM     68  C   UNL A   1      43.866  34.613  32.988  1.00  0.00     0.059 A 
ATOM     69  F   UNL A   1      43.432  32.347  33.406  1.00  0.00    -0.206 F 
ATOM     70  C   UNL A   1      44.250  35.615  32.095  1.00  0.00     0.060 A 
BRANCH  70  71
ATOM     71  S   UNL A   1      44.425  37.321  32.658  1.00  0.00     0.124 S 
ATOM     72  O   UNL A   1      43.451  37.368  33.745  1.00  0.00    -0.237 OA
ATOM     73  O   UNL A   1      45.827  37.375  33.062  1.00  0.00    -0.237 OA
ATOM     74  O   UNL A   1      44.086  38.105  31.476  1.00  0.00    -0.744 OA
ENDBRANCH  70  71
ENDBRANCH  49  63
BRANCH  50  75
ATOM     75  C   UNL A   1      42.824  23.689  27.652  1.00  0.00     0.058 A 
ATOM     76  C   UNL A   1      42.487  22.613  28.487  1.00  0.00     0.135 A 
ATOM     77  C   UNL A   1      42.986  23.427  26.284  1.00  0.00     0.135 A 
ATOM     78  F   UNL A   1      42.325  22.813  29.804  1.00  0.00    -0.206 F 
ATOM     79  C   UNL A   1      42.332  21.324  27.989  1.00  0.00     0.059 A 
ATOM     80  C   UNL A   1      42.816  22.150  25.758  1.00  0.00     0.059 A 
ATOM     81  F   UNL A   1      43.292  24.426  25.440  1.00  0.00    -0.206 F 
ATOM     82  C   UNL A   1      42.498  21.102  26.622  1.00  0.00     0.060 A 
BRANCH  82  83
ATOM     83  S   UNL A   1      42.244  19.433  25.976  1.00  0.00     0.124 S 
ATOM     84  O   UNL A   1      40.795  19.397  25.820  1.00  0.00    -0.237 OA
ATOM     85  O   UNL A   1      43.020  19.459  24.741  1.00  0.00    -0.237 OA
ATOM     86  O   UNL A   1      42.788  18.582  27.030  1.00  0.00    -0.744 OA
ENDBRANCH  82  83
ENDBRANCH  50  75
BRANCH  62  87
ATOM     87  C   UNL A   1      48.215  27.158  30.396  1.00  0.00     0.058 A 
ATOM     88  C   UNL A   1      49.250  27.436  29.491  1.00  0.00     0.135 A 
ATOM     89  C   UNL A   1      48.552  26.551  31.616  1.00  0.00     0.135 A 
ATOM     90  F   UNL A   1      48.978  28.009  28.308  1.00  0.00    -0.206 F 
ATOM     91  C   UNL A   1      50.571  27.109  29.779  1.00  0.00     0.059 A 
ATOM     92  C   UNL A   1      49.869  26.237  31.935  1.00  0.00     0.059 A 
ATOM     93  F   UNL A   1      47.598  26.275  32.520  1.00  0.00    -0.206 F 
ATOM     94  C   UNL A   1      50.871  26.511  31.004  1.00  0.00     0.060 A 
BRANCH  94  95
ATOM     95  S   UNL A   1      52.593  26.128  31.385  1.00  0.00     0.124 S 
ATOM     96  O   UNL A   1      52.468  24.821  32.024  1.00  0.00    -0.237 OA
ATOM     97  O   UNL A   1      53.215  26.131  30.065  1.00  0.00    -0.237 OA
ATOM     98  O   UNL A   1      52.997  27.221  32.264  1.00  0.00    -0.744 OA
ENDBRANCH  94  95
ENDBRANCH  62  87
ENDBRANCH  36  37
ENDBRANCH  28  31
ENDBRANCH  26  27
ENDBRANCH  25  26
ENDBRANCH   1  25
TORSDOF 17
ENDMDL
