MODEL 1
REMARK VINA RESULT:      -9.2      0.000      0.000
REMARK SMILES C[C@H](CCC(=O)NCCCCNC(=O)c1ccc(-c2c3nc(c(-c4c(F)cc(S(=O)(=O)[O-])cc4F)c4ccc([nH]4)c(-c4c(F)cc(S(=O)(=O)[O-])cc4F)c4nc(c(-c5c(F)cc(S(=O)(=O)[O-])cc5F)c5ccc2[nH]5)C=C4)C=C3)cc1)NC(=O)c1ccc(C[NH3+])o1
REMARK SMILES IDX 8 1 7 2 5 3 6 4 4 6 3 7 2 8 1 9 81 10 82 11 83 13 84 14
REMARK SMILES IDX 85 15 90 16 86 17 87 18 88 19 89 20 9 24 10 25 11 26 12 27
REMARK SMILES IDX 13 28 14 30 15 31 16 32 80 33 17 34 79 35 18 36 19 37 20 38
REMARK SMILES IDX 73 39 21 40 78 41 72 42 74 43 22 44 77 45 71 46 70 47 23 49
REMARK SMILES IDX 57 50 36 51 56 52 37 53 40 54 55 55 75 56 38 57 39 58 54 60
REMARK SMILES IDX 76 61 41 62 24 63 25 64 34 65 26 66 27 67 33 68 35 69 28 70
REMARK SMILES IDX 29 71 30 72 31 73 32 74 58 75 59 76 68 77 60 78 61 79 67 80
REMARK SMILES IDX 69 81 62 82 63 83 64 84 65 85 66 86 42 87 43 88 52 89 44 90
REMARK SMILES IDX 45 91 51 92 53 93 46 94 47 95 48 96 49 97 50 98
REMARK H PARENT 7 5 81 12 89 21 89 22 89 23 12 29 74 48 40 59
REMARK Flexibility Score: inf
ROOT
ATOM      1  C   UNL A   1      33.696  35.376  30.064  1.00  0.00     0.116 C 
ENDROOT
BRANCH   1   2
ATOM      2  N   UNL A   1      33.381  34.614  31.264  1.00  0.00    -0.356 N 
ATOM      3  C   UNL A   1      34.146  33.831  32.074  1.00  0.00     0.220 C 
ATOM      4  O   UNL A   1      33.591  33.216  32.986  1.00  0.00    -0.275 OA
ATOM      5  H   UNL A   1      32.439  34.676  31.542  1.00  0.00     0.163 HD
BRANCH   3   6
ATOM      6  C   UNL A   1      35.645  33.720  31.885  1.00  0.00     0.102 C 
BRANCH   6   7
ATOM      7  C   UNL A   1      36.185  32.279  31.765  1.00  0.00     0.034 C 
BRANCH   7   8
ATOM      8  C   UNL A   1      37.185  31.792  32.844  1.00  0.00     0.079 C 
ATOM      9  C   UNL A   1      37.032  32.637  34.113  1.00  0.00     0.031 C 
BRANCH   8  10
ATOM     10  N   UNL A   1      37.050  30.346  33.012  1.00  0.00    -0.347 N 
ATOM     11  C   UNL A   1      37.907  29.309  33.245  1.00  0.00     0.287 C 
ATOM     12  H   UNL A   1      36.115  30.048  32.940  1.00  0.00     0.164 HD
ATOM     13  O   UNL A   1      37.407  28.187  33.140  1.00  0.00    -0.266 OA
BRANCH  11  14
ATOM     14  C   UNL A   1      39.288  29.514  33.579  1.00  0.00     0.191 A 
ATOM     15  C   UNL A   1      40.469  29.373  32.875  1.00  0.00     0.057 A 
ATOM     16  O   UNL A   1      39.544  30.138  34.769  1.00  0.00    -0.450 OA
ATOM     17  C   UNL A   1      41.494  29.934  33.681  1.00  0.00     0.052 A 
ATOM     18  C   UNL A   1      40.877  30.401  34.820  1.00  0.00     0.159 A 
BRANCH  18  19
ATOM     19  C   UNL A   1      41.350  31.124  36.025  1.00  0.00     0.335 C 
BRANCH  19  20
ATOM     20  N   UNL A   1      40.231  31.417  36.915  1.00  0.00    -0.351 N 
ATOM     21  H   UNL A   1      40.254  30.779  37.711  1.00  0.00     0.344 HD
ATOM     22  H   UNL A   1      39.353  31.298  36.409  1.00  0.00     0.344 HD
ATOM     23  H   UNL A   1      40.304  32.378  37.248  1.00  0.00     0.344 HD
ENDBRANCH  19  20
ENDBRANCH  18  19
ENDBRANCH  11  14
ENDBRANCH   8  10
ENDBRANCH   7   8
ENDBRANCH   6   7
ENDBRANCH   3   6
ENDBRANCH   1   2
BRANCH   1  24
ATOM     24  C   UNL A   1      33.581  34.530  28.794  1.00  0.00     0.023 C 
BRANCH  24  25
ATOM     25  C   UNL A   1      34.897  34.258  28.070  1.00  0.00     0.023 C 
BRANCH  25  26
ATOM     26  C   UNL A   1      35.426  32.865  28.348  1.00  0.00     0.116 C 
BRANCH  26  27
ATOM     27  N   UNL A   1      34.432  31.828  28.098  1.00  0.00    -0.352 N 
ATOM     28  C   UNL A   1      34.639  30.474  27.953  1.00  0.00     0.251 C 
ATOM     29  H   UNL A   1      33.500  32.134  28.023  1.00  0.00     0.163 HD
ATOM     30  O   UNL A   1      33.726  29.734  27.623  1.00  0.00    -0.269 OA
BRANCH  28  31
ATOM     31  C   UNL A   1      36.006  29.947  28.153  1.00  0.00     0.039 A 
ATOM     32  C   UNL A   1      36.923  30.029  27.104  1.00  0.00     0.014 A 
ATOM     33  C   UNL A   1      36.391  29.443  29.397  1.00  0.00     0.014 A 
ATOM     34  C   UNL A   1      38.252  29.665  27.328  1.00  0.00     0.010 A 
ATOM     35  C   UNL A   1      37.729  29.175  29.644  1.00  0.00     0.010 A 
ATOM     36  C   UNL A   1      38.669  29.272  28.609  1.00  0.00    -0.014 A 
BRANCH  36  37
ATOM     37  C   UNL A   1      40.081  28.919  28.889  1.00  0.00     0.031 A 
ATOM     38  C   UNL A   1      41.000  29.957  29.472  1.00  0.00     0.074 A 
ATOM     39  C   UNL A   1      40.547  27.702  28.545  1.00  0.00     0.049 A 
ATOM     40  N   UNL A   1      42.284  29.888  29.703  1.00  0.00    -0.248 NA
ATOM     41  C   UNL A   1      40.401  31.263  29.803  1.00  0.00     0.031 C 
ATOM     42  C   UNL A   1      39.761  26.640  27.912  1.00  0.00     0.029 A 
ATOM     43  N   UNL A   1      41.798  27.156  28.671  1.00  0.00    -0.354 N 
ATOM     44  C   UNL A   1      42.649  31.143  30.177  1.00  0.00     0.074 A 
ATOM     45  C   UNL A   1      41.466  31.972  30.146  1.00  0.00     0.031 C 
ATOM     46  C   UNL A   1      40.541  25.562  27.731  1.00  0.00     0.029 A 
ATOM     47  C   UNL A   1      41.888  25.865  28.204  1.00  0.00     0.049 A 
ATOM     48  H   UNL A   1      42.561  27.641  29.060  1.00  0.00     0.167 HD
ATOM     49  C   UNL A   1      43.857  31.557  30.626  1.00  0.00     0.037 A 
ATOM     50  C   UNL A   1      42.939  25.025  28.166  1.00  0.00     0.037 A 
ATOM     51  C   UNL A   1      45.014  30.705  30.702  1.00  0.00     0.049 A 
ATOM     52  C   UNL A   1      44.259  25.492  28.716  1.00  0.00     0.074 A 
ATOM     53  C   UNL A   1      46.267  30.997  31.207  1.00  0.00     0.029 A 
ATOM     54  N   UNL A   1      45.051  29.388  30.268  1.00  0.00    -0.354 N 
ATOM     55  N   UNL A   1      44.573  26.663  29.220  1.00  0.00    -0.248 NA
ATOM     56  C   UNL A   1      45.365  24.526  28.702  1.00  0.00     0.031 C 
ATOM     57  C   UNL A   1      47.073  29.863  31.053  1.00  0.00     0.029 A 
ATOM     58  C   UNL A   1      46.309  28.854  30.487  1.00  0.00     0.049 A 
ATOM     59  H   UNL A   1      44.295  28.904  29.865  1.00  0.00     0.167 HD
ATOM     60  C   UNL A   1      45.905  26.565  29.606  1.00  0.00     0.074 A 
ATOM     61  C   UNL A   1      46.333  25.218  29.288  1.00  0.00     0.031 C 
ATOM     62  C   UNL A   1      46.703  27.504  30.172  1.00  0.00     0.037 A 
BRANCH  49  63
ATOM     63  C   UNL A   1      43.977  32.983  31.086  1.00  0.00     0.058 A 
ATOM     64  C   UNL A   1      43.805  33.339  32.433  1.00  0.00     0.135 A 
ATOM     65  C   UNL A   1      44.283  34.005  30.174  1.00  0.00     0.135 A 
ATOM     66  F   UNL A   1      43.491  32.404  33.345  1.00  0.00    -0.206 F 
ATOM     67  C   UNL A   1      43.899  34.660  32.856  1.00  0.00     0.059 A 
ATOM     68  C   UNL A   1      44.411  35.332  30.579  1.00  0.00     0.059 A 
ATOM     69  F   UNL A   1      44.454  33.723  28.873  1.00  0.00    -0.206 F 
ATOM     70  C   UNL A   1      44.202  35.651  31.920  1.00  0.00     0.060 A 
BRANCH  70  71
ATOM     71  S   UNL A   1      44.326  37.362  32.484  1.00  0.00     0.124 S 
ATOM     72  O   UNL A   1      45.771  37.568  32.466  1.00  0.00    -0.237 OA
ATOM     73  O   UNL A   1      43.571  38.084  31.465  1.00  0.00    -0.237 OA
ATOM     74  O   UNL A   1      43.712  37.328  33.807  1.00  0.00    -0.744 OA
ENDBRANCH  70  71
ENDBRANCH  49  63
BRANCH  50  75
ATOM     75  C   UNL A   1      42.776  23.649  27.626  1.00  0.00     0.058 A 
ATOM     76  C   UNL A   1      42.407  22.587  28.465  1.00  0.00     0.135 A 
ATOM     77  C   UNL A   1      42.968  23.369  26.264  1.00  0.00     0.135 A 
ATOM     78  F   UNL A   1      42.215  22.803  29.775  1.00  0.00    -0.206 F 
ATOM     79  C   UNL A   1      42.253  21.292  27.979  1.00  0.00     0.059 A 
ATOM     80  C   UNL A   1      42.798  22.087  25.750  1.00  0.00     0.059 A 
ATOM     81  F   UNL A   1      43.302  24.355  25.416  1.00  0.00    -0.206 F 
ATOM     82  C   UNL A   1      42.450  21.052  26.618  1.00  0.00     0.060 A 
BRANCH  82  83
ATOM     83  S   UNL A   1      42.202  19.377  25.988  1.00  0.00     0.124 S 
ATOM     84  O   UNL A   1      43.029  19.391  24.787  1.00  0.00    -0.237 OA
ATOM     85  O   UNL A   1      42.693  18.557  27.091  1.00  0.00    -0.237 OA
ATOM     86  O   UNL A   1      40.762  19.316  25.763  1.00  0.00    -0.744 OA
ENDBRANCH  82  83
ENDBRANCH  50  75
BRANCH  62  87
ATOM     87  C   UNL A   1      48.107  27.098  30.513  1.00  0.00     0.058 A 
ATOM     88  C   UNL A   1      49.126  27.102  29.548  1.00  0.00     0.135 A 
ATOM     89  C   UNL A   1      48.447  26.760  31.832  1.00  0.00     0.135 A 
ATOM     90  F   UNL A   1      48.849  27.414  28.272  1.00  0.00    -0.206 F 
ATOM     91  C   UNL A   1      50.434  26.764  29.878  1.00  0.00     0.059 A 
ATOM     92  C   UNL A   1      49.753  26.442  32.188  1.00  0.00     0.059 A 
ATOM     93  F   UNL A   1      47.508  26.752  32.791  1.00  0.00    -0.206 F 
ATOM     94  C   UNL A   1      50.738  26.437  31.201  1.00  0.00     0.060 A 
BRANCH  94  95
ATOM     95  S   UNL A   1      52.447  26.039  31.625  1.00  0.00     0.124 S 
ATOM     96  O   UNL A   1      53.161  26.531  30.452  1.00  0.00    -0.237 OA
ATOM     97  O   UNL A   1      52.649  26.798  32.855  1.00  0.00    -0.237 OA
ATOM     98  O   UNL A   1      52.426  24.588  31.787  1.00  0.00    -0.744 OA
ENDBRANCH  94  95
ENDBRANCH  62  87
ENDBRANCH  36  37
ENDBRANCH  28  31
ENDBRANCH  26  27
ENDBRANCH  25  26
ENDBRANCH  24  25
ENDBRANCH   1  24
TORSDOF 20
ENDMDL
MODEL 2
REMARK VINA RESULT:      -9.1      5.637     12.044
REMARK SMILES C[C@H](CCC(=O)NCCCCNC(=O)c1ccc(-c2c3nc(c(-c4c(F)cc(S(=O)(=O)[O-])cc4F)c4ccc([nH]4)c(-c4c(F)cc(S(=O)(=O)[O-])cc4F)c4nc(c(-c5c(F)cc(S(=O)(=O)[O-])cc5F)c5ccc2[nH]5)C=C4)C=C3)cc1)NC(=O)c1ccc(C[NH3+])o1
REMARK SMILES IDX 8 1 7 2 5 3 6 4 4 6 3 7 2 8 1 9 81 10 82 11 83 13 84 14
REMARK SMILES IDX 85 15 90 16 86 17 87 18 88 19 89 20 9 24 10 25 11 26 12 27
REMARK SMILES IDX 13 28 14 30 15 31 16 32 80 33 17 34 79 35 18 36 19 37 20 38
REMARK SMILES IDX 73 39 21 40 78 41 72 42 74 43 22 44 77 45 71 46 70 47 23 49
REMARK SMILES IDX 57 50 36 51 56 52 37 53 40 54 55 55 75 56 38 57 39 58 54 60
REMARK SMILES IDX 76 61 41 62 24 63 25 64 34 65 26 66 27 67 33 68 35 69 28 70
REMARK SMILES IDX 29 71 30 72 31 73 32 74 58 75 59 76 68 77 60 78 61 79 67 80
REMARK SMILES IDX 69 81 62 82 63 83 64 84 65 85 66 86 42 87 43 88 52 89 44 90
REMARK SMILES IDX 45 91 51 92 53 93 46 94 47 95 48 96 49 97 50 98
REMARK H PARENT 7 5 81 12 89 21 89 22 89 23 12 29 74 48 40 59
REMARK Flexibility Score: inf
ROOT
ATOM      1  C   UNL A   1      36.539  23.571  25.607  1.00  0.00     0.116 C 
ENDROOT
BRANCH   1   2
ATOM      2  N   UNL A   1      35.759  22.865  26.614  1.00  0.00    -0.356 N 
ATOM      3  C   UNL A   1      34.479  23.019  27.050  1.00  0.00     0.220 C 
ATOM      4  O   UNL A   1      34.097  22.332  27.999  1.00  0.00    -0.275 OA
ATOM      5  H   UNL A   1      36.250  22.139  27.064  1.00  0.00     0.163 HD
BRANCH   3   6
ATOM      6  C   UNL A   1      33.528  23.994  26.388  1.00  0.00     0.102 C 
BRANCH   6   7
ATOM      7  C   UNL A   1      32.078  23.958  26.917  1.00  0.00     0.034 C 
BRANCH   7   8
ATOM      8  C   UNL A   1      31.147  22.835  26.394  1.00  0.00     0.079 C 
ATOM      9  C   UNL A   1      29.779  22.934  27.077  1.00  0.00     0.031 C 
BRANCH   8  10
ATOM     10  N   UNL A   1      31.140  22.853  24.932  1.00  0.00    -0.347 N 
ATOM     11  C   UNL A   1      31.816  22.191  23.947  1.00  0.00     0.287 C 
ATOM     12  H   UNL A   1      30.491  23.499  24.571  1.00  0.00     0.164 HD
ATOM     13  O   UNL A   1      31.643  22.633  22.809  1.00  0.00    -0.266 OA
BRANCH  11  14
ATOM     14  C   UNL A   1      32.670  21.071  24.221  1.00  0.00     0.191 A 
ATOM     15  C   UNL A   1      34.041  20.899  24.240  1.00  0.00     0.057 A 
ATOM     16  O   UNL A   1      32.070  19.957  24.742  1.00  0.00    -0.450 OA
ATOM     17  C   UNL A   1      34.285  19.616  24.793  1.00  0.00     0.052 A 
ATOM     18  C   UNL A   1      33.051  19.086  25.098  1.00  0.00     0.159 A 
BRANCH  18  19
ATOM     19  C   UNL A   1      32.600  17.824  25.731  1.00  0.00     0.335 C 
BRANCH  19  20
ATOM     20  N   UNL A   1      32.209  16.854  24.713  1.00  0.00    -0.351 N 
ATOM     21  H   UNL A   1      32.314  15.910  25.084  1.00  0.00     0.344 HD
ATOM     22  H   UNL A   1      32.804  16.965  23.891  1.00  0.00     0.344 HD
ATOM     23  H   UNL A   1      31.236  17.010  24.451  1.00  0.00     0.344 HD
ENDBRANCH  19  20
ENDBRANCH  18  19
ENDBRANCH  11  14
ENDBRANCH   8  10
ENDBRANCH   7   8
ENDBRANCH   6   7
ENDBRANCH   3   6
ENDBRANCH   1   2
BRANCH   1  24
ATOM     24  C   UNL A   1      37.915  23.989  26.130  1.00  0.00     0.023 C 
BRANCH  24  25
ATOM     25  C   UNL A   1      38.920  22.853  26.302  1.00  0.00     0.023 C 
BRANCH  25  26
ATOM     26  C   UNL A   1      40.140  23.282  27.091  1.00  0.00     0.116 C 
BRANCH  26  27
ATOM     27  N   UNL A   1      41.261  23.650  26.233  1.00  0.00    -0.352 N 
ATOM     28  C   UNL A   1      41.958  24.837  26.211  1.00  0.00     0.251 C 
ATOM     29  H   UNL A   1      41.554  22.964  25.591  1.00  0.00     0.163 HD
ATOM     30  O   UNL A   1      42.798  25.053  25.353  1.00  0.00    -0.269 OA
BRANCH  28  31
ATOM     31  C   UNL A   1      41.624  25.866  27.220  1.00  0.00     0.039 A 
ATOM     32  C   UNL A   1      40.553  25.643  28.087  1.00  0.00     0.014 A 
ATOM     33  C   UNL A   1      42.418  27.008  27.349  1.00  0.00     0.014 A 
ATOM     34  C   UNL A   1      40.320  26.539  29.130  1.00  0.00     0.010 A 
ATOM     35  C   UNL A   1      42.244  27.843  28.442  1.00  0.00     0.010 A 
ATOM     36  C   UNL A   1      41.187  27.623  29.336  1.00  0.00    -0.014 A 
BRANCH  36  37
ATOM     37  C   UNL A   1      40.991  28.569  30.460  1.00  0.00     0.031 A 
ATOM     38  C   UNL A   1      41.846  28.441  31.691  1.00  0.00     0.074 A 
ATOM     39  C   UNL A   1      39.999  29.480  30.402  1.00  0.00     0.049 A 
ATOM     40  N   UNL A   1      41.775  29.099  32.818  1.00  0.00    -0.248 NA
ATOM     41  C   UNL A   1      42.895  27.407  31.665  1.00  0.00     0.031 C 
ATOM     42  C   UNL A   1      39.066  29.649  29.285  1.00  0.00     0.029 A 
ATOM     43  N   UNL A   1      39.604  30.429  31.308  1.00  0.00    -0.354 N 
ATOM     44  C   UNL A   1      42.747  28.541  33.640  1.00  0.00     0.074 A 
ATOM     45  C   UNL A   1      43.354  27.454  32.906  1.00  0.00     0.031 C 
ATOM     46  C   UNL A   1      38.226  30.659  29.560  1.00  0.00     0.029 A 
ATOM     47  C   UNL A   1      38.538  31.189  30.884  1.00  0.00     0.049 A 
ATOM     48  H   UNL A   1      40.042  30.557  32.180  1.00  0.00     0.167 HD
ATOM     49  C   UNL A   1      43.120  28.921  34.884  1.00  0.00     0.037 A 
ATOM     50  C   UNL A   1      37.890  32.198  31.497  1.00  0.00     0.037 A 
ATOM     51  C   UNL A   1      42.544  30.039  35.581  1.00  0.00     0.049 A 
ATOM     52  C   UNL A   1      38.355  32.634  32.860  1.00  0.00     0.074 A 
ATOM     53  C   UNL A   1      42.894  30.559  36.814  1.00  0.00     0.029 A 
ATOM     54  N   UNL A   1      41.502  30.817  35.098  1.00  0.00    -0.354 N 
ATOM     55  N   UNL A   1      39.319  32.136  33.599  1.00  0.00    -0.248 NA
ATOM     56  C   UNL A   1      37.654  33.772  33.469  1.00  0.00     0.031 C 
ATOM     57  C   UNL A   1      42.044  31.636  37.089  1.00  0.00     0.029 A 
ATOM     58  C   UNL A   1      41.191  31.809  36.010  1.00  0.00     0.049 A 
ATOM     59  H   UNL A   1      41.052  30.683  34.233  1.00  0.00     0.167 HD
ATOM     60  C   UNL A   1      39.357  32.916  34.749  1.00  0.00     0.074 A 
ATOM     61  C   UNL A   1      38.327  33.926  34.602  1.00  0.00     0.031 C 
ATOM     62  C   UNL A   1      40.168  32.809  35.831  1.00  0.00     0.037 A 
BRANCH  49  63
ATOM     63  C   UNL A   1      44.212  28.134  35.554  1.00  0.00     0.058 A 
ATOM     64  C   UNL A   1      43.926  27.036  36.382  1.00  0.00     0.135 A 
ATOM     65  C   UNL A   1      45.560  28.468  35.355  1.00  0.00     0.135 A 
ATOM     66  F   UNL A   1      42.653  26.684  36.624  1.00  0.00    -0.206 F 
ATOM     67  C   UNL A   1      44.935  26.318  37.015  1.00  0.00     0.059 A 
ATOM     68  C   UNL A   1      46.589  27.746  35.955  1.00  0.00     0.059 A 
ATOM     69  F   UNL A   1      45.891  29.510  34.577  1.00  0.00    -0.206 F 
ATOM     70  C   UNL A   1      46.265  26.682  36.796  1.00  0.00     0.060 A 
BRANCH  70  71
ATOM     71  S   UNL A   1      47.564  25.738  37.620  1.00  0.00     0.124 S 
ATOM     72  O   UNL A   1      47.468  26.244  38.986  1.00  0.00    -0.237 OA
ATOM     73  O   UNL A   1      47.124  24.360  37.423  1.00  0.00    -0.237 OA
ATOM     74  O   UNL A   1      48.772  26.116  36.893  1.00  0.00    -0.744 OA
ENDBRANCH  70  71
ENDBRANCH  49  63
BRANCH  50  75
ATOM     75  C   UNL A   1      36.765  32.888  30.813  1.00  0.00     0.058 A 
ATOM     76  C   UNL A   1      35.434  32.561  31.113  1.00  0.00     0.135 A 
ATOM     77  C   UNL A   1      36.992  33.894  29.862  1.00  0.00     0.135 A 
ATOM     78  F   UNL A   1      35.165  31.604  32.013  1.00  0.00    -0.206 F 
ATOM     79  C   UNL A   1      34.367  33.193  30.481  1.00  0.00     0.059 A 
ATOM     80  C   UNL A   1      35.941  34.556  29.233  1.00  0.00     0.059 A 
ATOM     81  F   UNL A   1      38.247  34.258  29.554  1.00  0.00    -0.206 F 
ATOM     82  C   UNL A   1      34.632  34.191  29.541  1.00  0.00     0.060 A 
BRANCH  82  83
ATOM     83  S   UNL A   1      33.240  35.038  28.760  1.00  0.00     0.124 S 
ATOM     84  O   UNL A   1      32.428  35.396  29.918  1.00  0.00    -0.237 OA
ATOM     85  O   UNL A   1      33.898  36.145  28.075  1.00  0.00    -0.237 OA
ATOM     86  O   UNL A   1      32.676  34.015  27.885  1.00  0.00    -0.744 OA
ENDBRANCH  82  83
ENDBRANCH  50  75
BRANCH  62  87
ATOM     87  C   UNL A   1      39.997  33.825  36.922  1.00  0.00     0.058 A 
ATOM     88  C   UNL A   1      40.665  35.059  36.886  1.00  0.00     0.135 A 
ATOM     89  C   UNL A   1      39.109  33.585  37.982  1.00  0.00     0.135 A 
ATOM     90  F   UNL A   1      41.528  35.332  35.895  1.00  0.00    -0.206 F 
ATOM     91  C   UNL A   1      40.472  36.014  37.878  1.00  0.00     0.059 A 
ATOM     92  C   UNL A   1      38.883  34.535  38.971  1.00  0.00     0.059 A 
ATOM     93  F   UNL A   1      38.439  32.424  38.053  1.00  0.00    -0.206 F 
ATOM     94  C   UNL A   1      39.577  35.743  38.916  1.00  0.00     0.060 A 
BRANCH  94  95
ATOM     95  S   UNL A   1      39.305  37.006  40.176  1.00  0.00     0.124 S 
ATOM     96  O   UNL A   1      38.458  36.293  41.127  1.00  0.00    -0.237 OA
ATOM     97  O   UNL A   1      40.662  37.295  40.629  1.00  0.00    -0.237 OA
ATOM     98  O   UNL A   1      38.654  38.085  39.440  1.00  0.00    -0.744 OA
ENDBRANCH  94  95
ENDBRANCH  62  87
ENDBRANCH  36  37
ENDBRANCH  28  31
ENDBRANCH  26  27
ENDBRANCH  25  26
ENDBRANCH  24  25
ENDBRANCH   1  24
TORSDOF 20
ENDMDL
MODEL 3
REMARK VINA RESULT:      -9.1      4.046      6.293
REMARK SMILES C[C@H](CCC(=O)NCCCCNC(=O)c1ccc(-c2c3nc(c(-c4c(F)cc(S(=O)(=O)[O-])cc4F)c4ccc([nH]4)c(-c4c(F)cc(S(=O)(=O)[O-])cc4F)c4nc(c(-c5c(F)cc(S(=O)(=O)[O-])cc5F)c5ccc2[nH]5)C=C4)C=C3)cc1)NC(=O)c1ccc(C[NH3+])o1
REMARK SMILES IDX 8 1 7 2 5 3 6 4 4 6 3 7 2 8 1 9 81 10 82 11 83 13 84 14
REMARK SMILES IDX 85 15 90 16 86 17 87 18 88 19 89 20 9 24 10 25 11 26 12 27
REMARK SMILES IDX 13 28 14 30 15 31 16 32 80 33 17 34 79 35 18 36 19 37 20 38
REMARK SMILES IDX 73 39 21 40 78 41 72 42 74 43 22 44 77 45 71 46 70 47 23 49
REMARK SMILES IDX 57 50 36 51 56 52 37 53 40 54 55 55 75 56 38 57 39 58 54 60
REMARK SMILES IDX 76 61 41 62 24 63 25 64 34 65 26 66 27 67 33 68 35 69 28 70
REMARK SMILES IDX 29 71 30 72 31 73 32 74 58 75 59 76 68 77 60 78 61 79 67 80
REMARK SMILES IDX 69 81 62 82 63 83 64 84 65 85 66 86 42 87 43 88 52 89 44 90
REMARK SMILES IDX 45 91 51 92 53 93 46 94 47 95 48 96 49 97 50 98
REMARK H PARENT 7 5 81 12 89 21 89 22 89 23 12 29 74 48 40 59
REMARK Flexibility Score: inf
ROOT
ATOM      1  C   UNL A   1      34.541  30.716  27.576  1.00  0.00     0.116 C 
ENDROOT
BRANCH   1   2
ATOM      2  N   UNL A   1      33.529  30.674  26.529  1.00  0.00    -0.356 N 
ATOM      3  C   UNL A   1      32.571  29.756  26.223  1.00  0.00     0.220 C 
ATOM      4  O   UNL A   1      31.897  29.931  25.207  1.00  0.00    -0.275 OA
ATOM      5  H   UNL A   1      33.539  31.456  25.931  1.00  0.00     0.163 HD
BRANCH   3   6
ATOM      6  C   UNL A   1      32.316  28.553  27.107  1.00  0.00     0.102 C 
BRANCH   6   7
ATOM      7  C   UNL A   1      31.362  27.494  26.513  1.00  0.00     0.034 C 
BRANCH   7   8
ATOM      8  C   UNL A   1      31.975  26.146  26.057  1.00  0.00     0.079 C 
ATOM      9  C   UNL A   1      33.504  26.252  26.031  1.00  0.00     0.031 C 
BRANCH   8  10
ATOM     10  N   UNL A   1      31.419  25.063  26.866  1.00  0.00    -0.347 N 
ATOM     11  C   UNL A   1      31.227  23.721  26.697  1.00  0.00     0.287 C 
ATOM     12  H   UNL A   1      31.106  25.377  27.745  1.00  0.00     0.164 HD
ATOM     13  O   UNL A   1      30.544  23.179  27.569  1.00  0.00    -0.266 OA
BRANCH  11  14
ATOM     14  C   UNL A   1      31.774  23.002  25.583  1.00  0.00     0.191 A 
ATOM     15  C   UNL A   1      32.273  23.386  24.352  1.00  0.00     0.057 A 
ATOM     16  O   UNL A   1      32.042  21.675  25.783  1.00  0.00    -0.450 OA
ATOM     17  C   UNL A   1      32.866  22.234  23.774  1.00  0.00     0.052 A 
ATOM     18  C   UNL A   1      32.713  21.219  24.692  1.00  0.00     0.159 A 
BRANCH  18  19
ATOM     19  C   UNL A   1      33.136  19.799  24.738  1.00  0.00     0.335 C 
BRANCH  19  20
ATOM     20  N   UNL A   1      32.874  19.231  26.057  1.00  0.00    -0.351 N 
ATOM     21  H   UNL A   1      32.334  19.895  26.612  1.00  0.00     0.344 HD
ATOM     22  H   UNL A   1      33.759  19.036  26.526  1.00  0.00     0.344 HD
ATOM     23  H   UNL A   1      32.345  18.364  25.955  1.00  0.00     0.344 HD
ENDBRANCH  19  20
ENDBRANCH  18  19
ENDBRANCH  11  14
ENDBRANCH   8  10
ENDBRANCH   7   8
ENDBRANCH   6   7
ENDBRANCH   3   6
ENDBRANCH   1   2
BRANCH   1  24
ATOM     24  C   UNL A   1      34.692  32.115  28.177  1.00  0.00     0.023 C 
BRANCH  24  25
ATOM     25  C   UNL A   1      36.045  32.782  27.946  1.00  0.00     0.023 C 
BRANCH  25  26
ATOM     26  C   UNL A   1      36.886  32.826  29.206  1.00  0.00     0.116 C 
BRANCH  26  27
ATOM     27  N   UNL A   1      36.270  32.106  30.315  1.00  0.00    -0.352 N 
ATOM     28  C   UNL A   1      36.685  30.929  30.895  1.00  0.00     0.251 C 
ATOM     29  H   UNL A   1      35.458  32.512  30.694  1.00  0.00     0.163 HD
ATOM     30  O   UNL A   1      36.001  30.372  31.740  1.00  0.00    -0.269 OA
BRANCH  28  31
ATOM     31  C   UNL A   1      37.953  30.325  30.431  1.00  0.00     0.039 A 
ATOM     32  C   UNL A   1      38.137  30.103  29.065  1.00  0.00     0.014 A 
ATOM     33  C   UNL A   1      38.977  30.053  31.341  1.00  0.00     0.014 A 
ATOM     34  C   UNL A   1      39.380  29.668  28.605  1.00  0.00     0.010 A 
ATOM     35  C   UNL A   1      40.238  29.714  30.873  1.00  0.00     0.010 A 
ATOM     36  C   UNL A   1      40.448  29.507  29.503  1.00  0.00    -0.014 A 
BRANCH  36  37
ATOM     37  C   UNL A   1      41.792  29.086  29.040  1.00  0.00     0.031 A 
ATOM     38  C   UNL A   1      42.900  30.101  28.971  1.00  0.00     0.074 A 
ATOM     39  C   UNL A   1      41.986  27.823  28.611  1.00  0.00     0.049 A 
ATOM     40  N   UNL A   1      44.115  29.967  28.508  1.00  0.00    -0.248 NA
ATOM     41  C   UNL A   1      42.588  31.459  29.450  1.00  0.00     0.031 C 
ATOM     42  C   UNL A   1      40.964  26.774  28.570  1.00  0.00     0.029 A 
ATOM     43  N   UNL A   1      43.108  27.210  28.118  1.00  0.00    -0.354 N 
ATOM     44  C   UNL A   1      44.698  31.224  28.614  1.00  0.00     0.074 A 
ATOM     45  C   UNL A   1      43.689  32.121  29.129  1.00  0.00     0.031 C 
ATOM     46  C   UNL A   1      41.513  25.641  28.105  1.00  0.00     0.029 A 
ATOM     47  C   UNL A   1      42.915  25.889  27.785  1.00  0.00     0.049 A 
ATOM     48  H   UNL A   1      43.971  27.671  28.012  1.00  0.00     0.167 HD
ATOM     49  C   UNL A   1      45.971  31.590  28.335  1.00  0.00     0.037 A 
ATOM     50  C   UNL A   1      43.776  24.985  27.280  1.00  0.00     0.037 A 
ATOM     51  C   UNL A   1      46.980  30.675  27.875  1.00  0.00     0.049 A 
ATOM     52  C   UNL A   1      45.198  25.404  27.024  1.00  0.00     0.074 A 
ATOM     53  C   UNL A   1      48.319  30.920  27.631  1.00  0.00     0.029 A 
ATOM     54  N   UNL A   1      46.760  29.333  27.599  1.00  0.00    -0.354 N 
ATOM     55  N   UNL A   1      45.752  26.582  27.189  1.00  0.00    -0.248 NA
ATOM     56  C   UNL A   1      46.116  24.372  26.523  1.00  0.00     0.031 C 
ATOM     57  C   UNL A   1      48.904  29.732  27.180  1.00  0.00     0.029 A 
ATOM     58  C   UNL A   1      47.937  28.738  27.181  1.00  0.00     0.049 A 
ATOM     59  H   UNL A   1      45.895  28.873  27.690  1.00  0.00     0.167 HD
ATOM     60  C   UNL A   1      47.087  26.427  26.837  1.00  0.00     0.074 A 
ATOM     61  C   UNL A   1      47.261  25.039  26.461  1.00  0.00     0.031 C 
ATOM     62  C   UNL A   1      48.082  27.349  26.824  1.00  0.00     0.037 A 
BRANCH  49  63
ATOM     63  C   UNL A   1      46.341  33.033  28.542  1.00  0.00     0.058 A 
ATOM     64  C   UNL A   1      46.857  33.493  29.765  1.00  0.00     0.135 A 
ATOM     65  C   UNL A   1      46.194  33.964  27.503  1.00  0.00     0.135 A 
ATOM     66  F   UNL A   1      46.999  32.648  30.799  1.00  0.00    -0.206 F 
ATOM     67  C   UNL A   1      47.184  34.829  29.961  1.00  0.00     0.059 A 
ATOM     68  C   UNL A   1      46.542  35.303  27.667  1.00  0.00     0.059 A 
ATOM     69  F   UNL A   1      45.703  33.582  26.314  1.00  0.00    -0.206 F 
ATOM     70  C   UNL A   1      47.022  35.729  28.905  1.00  0.00     0.060 A 
BRANCH  70  71
ATOM     71  S   UNL A   1      47.455  37.461  29.173  1.00  0.00     0.124 S 
ATOM     72  O   UNL A   1      47.721  37.474  30.609  1.00  0.00    -0.237 OA
ATOM     73  O   UNL A   1      48.621  37.629  28.312  1.00  0.00    -0.237 OA
ATOM     74  O   UNL A   1      46.258  38.179  28.749  1.00  0.00    -0.744 OA
ENDBRANCH  70  71
ENDBRANCH  49  63
BRANCH  50  75
ATOM     75  C   UNL A   1      43.328  23.590  27.023  1.00  0.00     0.058 A 
ATOM     76  C   UNL A   1      43.018  23.164  25.723  1.00  0.00     0.135 A 
ATOM     77  C   UNL A   1      43.217  22.653  28.062  1.00  0.00     0.135 A 
ATOM     78  F   UNL A   1      43.107  24.023  24.697  1.00  0.00    -0.206 F 
ATOM     79  C   UNL A   1      42.594  21.864  25.463  1.00  0.00     0.059 A 
ATOM     80  C   UNL A   1      42.817  21.342  27.823  1.00  0.00     0.059 A 
ATOM     81  F   UNL A   1      43.521  23.006  29.321  1.00  0.00    -0.206 F 
ATOM     82  C   UNL A   1      42.497  20.960  26.521  1.00  0.00     0.060 A 
BRANCH  82  83
ATOM     83  S   UNL A   1      41.991  19.262  26.167  1.00  0.00     0.124 S 
ATOM     84  O   UNL A   1      40.577  19.437  25.858  1.00  0.00    -0.237 OA
ATOM     85  O   UNL A   1      42.852  18.912  25.041  1.00  0.00    -0.237 OA
ATOM     86  O   UNL A   1      42.283  18.560  27.412  1.00  0.00    -0.744 OA
ENDBRANCH  82  83
ENDBRANCH  50  75
BRANCH  62  87
ATOM     87  C   UNL A   1      49.449  26.879  26.422  1.00  0.00     0.058 A 
ATOM     88  C   UNL A   1      50.362  26.385  27.366  1.00  0.00     0.135 A 
ATOM     89  C   UNL A   1      49.826  26.867  25.070  1.00  0.00     0.135 A 
ATOM     90  F   UNL A   1      50.049  26.381  28.672  1.00  0.00    -0.206 F 
ATOM     91  C   UNL A   1      51.613  25.912  26.984  1.00  0.00     0.059 A 
ATOM     92  C   UNL A   1      51.062  26.377  24.663  1.00  0.00     0.059 A 
ATOM     93  F   UNL A   1      48.982  27.319  24.129  1.00  0.00    -0.206 F 
ATOM     94  C   UNL A   1      51.953  25.911  25.630  1.00  0.00     0.060 A 
BRANCH  94  95
ATOM     95  S   UNL A   1      53.563  25.258  25.141  1.00  0.00     0.124 S 
ATOM     96  O   UNL A   1      54.435  25.844  26.154  1.00  0.00    -0.237 OA
ATOM     97  O   UNL A   1      53.359  23.816  25.238  1.00  0.00    -0.237 OA
ATOM     98  O   UNL A   1      53.739  25.770  23.786  1.00  0.00    -0.744 OA
ENDBRANCH  94  95
ENDBRANCH  62  87
ENDBRANCH  36  37
ENDBRANCH  28  31
ENDBRANCH  26  27
ENDBRANCH  25  26
ENDBRANCH  24  25
ENDBRANCH   1  24
TORSDOF 20
ENDMDL
