MODEL 1
REMARK VINA RESULT:     -11.7      0.000      0.000
REMARK SMILES O=C(CC(=O)c1ccccc1)Nc1cccc(C(=O)NCCCCNC(=O)c2ccc(-c3c4nc(c(-c5c(F)cc(S(=O)(=O)[O-])cc5F)c5ccc([nH]5)c(-c5c(F)cc(S(=O)(=O)[O-])cc5F)c5nc(c(-c6c(F)cc(S(=O)(=O)[O-])cc6F)c6ccc3[nH]6)C=C5)C=C4)cc2)c1
REMARK SMILES IDX 22 1 21 2 20 3 18 4 19 5 17 7 13 8 14 9 94 10 15 11 16 12
REMARK SMILES IDX 12 13 1 14 2 15 3 17 4 18 5 19 6 20 7 21 11 22 8 23 10 24
REMARK SMILES IDX 9 25 23 26 24 27 25 28 26 29 27 31 28 32 29 33 93 34 30 35
REMARK SMILES IDX 92 36 31 37 32 38 33 39 86 40 34 41 91 42 85 43 87 44 35 45
REMARK SMILES IDX 90 46 84 47 83 48 36 50 70 51 49 52 69 53 50 54 53 55 68 56
REMARK SMILES IDX 88 57 51 58 52 59 67 61 89 62 54 63 37 64 38 65 47 66 39 67
REMARK SMILES IDX 40 68 46 69 48 70 41 71 42 72 43 73 44 74 45 75 71 76 72 77
REMARK SMILES IDX 81 78 73 79 74 80 80 81 82 82 75 83 76 84 77 85 78 86 79 87
REMARK SMILES IDX 55 88 56 89 65 90 57 91 58 92 64 93 66 94 59 95 60 96 61 97
REMARK SMILES IDX 62 98 63 99
REMARK H PARENT 20 6 12 16 25 30 87 49 53 60
REMARK Flexibility Score: inf
ROOT
ATOM      1  C   UNL A   1      33.153  29.987  27.201  1.00  0.00     0.023 C 
ENDROOT
BRANCH   1   2
ATOM      2  C   UNL A   1      32.233  29.883  25.992  1.00  0.00     0.116 C 
BRANCH   2   3
ATOM      3  N   UNL A   1      32.906  29.835  24.699  1.00  0.00    -0.352 N 
ATOM      4  C   UNL A   1      32.969  28.814  23.767  1.00  0.00     0.251 C 
ATOM      5  O   UNL A   1      33.593  28.977  22.722  1.00  0.00    -0.269 OA
ATOM      6  H   UNL A   1      33.389  30.655  24.449  1.00  0.00     0.163 HD
BRANCH   4   7
ATOM      7  C   UNL A   1      32.360  27.488  24.046  1.00  0.00     0.041 A 
ATOM      8  C   UNL A   1      32.680  25.122  24.415  1.00  0.00     0.041 A 
ATOM      9  C   UNL A   1      31.341  24.899  24.082  1.00  0.00     0.026 A 
ATOM     10  C   UNL A   1      33.128  26.433  24.537  1.00  0.00     0.040 A 
ATOM     11  C   UNL A   1      30.500  25.976  23.781  1.00  0.00     0.003 A 
ATOM     12  C   UNL A   1      31.020  27.269  23.724  1.00  0.00     0.014 A 
BRANCH   8  13
ATOM     13  N   UNL A   1      33.544  24.008  24.515  1.00  0.00    -0.326 N 
ATOM     14  O   UNL A   1      34.371  23.888  22.337  1.00  0.00    -0.274 OA
ATOM     15  C   UNL A   1      34.320  23.478  23.494  1.00  0.00     0.232 C 
ATOM     16  H   UNL A   1      33.601  23.568  25.394  1.00  0.00     0.169 HD
BRANCH  15  17
ATOM     17  C   UNL A   1      35.116  22.263  23.869  1.00  0.00     0.181 C 
BRANCH  17  18
ATOM     18  C   UNL A   1      35.578  22.163  25.293  1.00  0.00     0.172 C 
ATOM     19  O   UNL A   1      34.840  21.699  26.164  1.00  0.00    -0.294 OA
BRANCH  18  20
ATOM     20  C   UNL A   1      36.952  22.584  25.679  1.00  0.00     0.018 A 
ATOM     21  C   UNL A   1      37.951  21.602  25.666  1.00  0.00     0.012 A 
ATOM     22  C   UNL A   1      37.260  23.871  26.132  1.00  0.00     0.012 A 
ATOM     23  C   UNL A   1      39.239  21.903  26.110  1.00  0.00     0.001 A 
ATOM     24  C   UNL A   1      38.544  24.161  26.597  1.00  0.00     0.001 A 
ATOM     25  C   UNL A   1      39.530  23.179  26.587  1.00  0.00     0.000 A 
ENDBRANCH  18  20
ENDBRANCH  17  18
ENDBRANCH  15  17
ENDBRANCH   8  13
ENDBRANCH   4   7
ENDBRANCH   2   3
ENDBRANCH   1   2
BRANCH   1  26
ATOM     26  C   UNL A   1      34.363  29.064  27.216  1.00  0.00     0.023 C 
BRANCH  26  27
ATOM     27  C   UNL A   1      35.623  29.615  27.877  1.00  0.00     0.116 C 
BRANCH  27  28
ATOM     28  N   UNL A   1      35.496  29.830  29.311  1.00  0.00    -0.352 N 
ATOM     29  C   UNL A   1      36.468  29.871  30.288  1.00  0.00     0.251 C 
ATOM     30  H   UNL A   1      34.575  29.966  29.632  1.00  0.00     0.163 HD
ATOM     31  O   UNL A   1      36.145  29.991  31.464  1.00  0.00    -0.269 OA
BRANCH  29  32
ATOM     32  C   UNL A   1      37.898  29.729  29.924  1.00  0.00     0.039 A 
ATOM     33  C   UNL A   1      38.813  29.380  30.923  1.00  0.00     0.014 A 
ATOM     34  C   UNL A   1      38.337  29.913  28.612  1.00  0.00     0.014 A 
ATOM     35  C   UNL A   1      40.144  29.121  30.584  1.00  0.00     0.010 A 
ATOM     36  C   UNL A   1      39.643  29.575  28.263  1.00  0.00     0.010 A 
ATOM     37  C   UNL A   1      40.560  29.165  29.243  1.00  0.00    -0.014 A 
BRANCH  37  38
ATOM     38  C   UNL A   1      41.935  28.763  28.845  1.00  0.00     0.031 A 
ATOM     39  C   UNL A   1      43.032  29.791  28.753  1.00  0.00     0.074 A 
ATOM     40  C   UNL A   1      42.175  27.488  28.478  1.00  0.00     0.049 A 
ATOM     41  N   UNL A   1      44.266  29.646  28.342  1.00  0.00    -0.248 NA
ATOM     42  C   UNL A   1      42.688  31.168  29.146  1.00  0.00     0.031 C 
ATOM     43  C   UNL A   1      41.182  26.411  28.451  1.00  0.00     0.029 A 
ATOM     44  N   UNL A   1      43.327  26.881  28.041  1.00  0.00    -0.354 N 
ATOM     45  C   UNL A   1      44.836  30.912  28.401  1.00  0.00     0.074 A 
ATOM     46  C   UNL A   1      43.803  31.820  28.849  1.00  0.00     0.031 C 
ATOM     47  C   UNL A   1      41.768  25.278  28.033  1.00  0.00     0.029 A 
ATOM     48  C   UNL A   1      43.170  25.550  27.732  1.00  0.00     0.049 A 
ATOM     49  H   UNL A   1      44.186  27.355  27.955  1.00  0.00     0.167 HD
ATOM     50  C   UNL A   1      46.110  31.280  28.127  1.00  0.00     0.037 A 
ATOM     51  C   UNL A   1      44.051  24.650  27.253  1.00  0.00     0.037 A 
ATOM     52  C   UNL A   1      47.148  30.366  27.727  1.00  0.00     0.049 A 
ATOM     53  C   UNL A   1      45.473  25.074  27.004  1.00  0.00     0.074 A 
ATOM     54  C   UNL A   1      48.491  30.630  27.515  1.00  0.00     0.029 A 
ATOM     55  N   UNL A   1      46.964  29.014  27.484  1.00  0.00    -0.354 N 
ATOM     56  N   UNL A   1      46.015  26.261  27.146  1.00  0.00    -0.248 NA
ATOM     57  C   UNL A   1      46.407  24.038  26.540  1.00  0.00     0.031 C 
ATOM     58  C   UNL A   1      49.111  29.443  27.110  1.00  0.00     0.029 A 
ATOM     59  C   UNL A   1      48.163  28.433  27.108  1.00  0.00     0.049 A 
ATOM     60  H   UNL A   1      46.106  28.537  27.566  1.00  0.00     0.167 HD
ATOM     61  C   UNL A   1      47.355  26.108  26.811  1.00  0.00     0.074 A 
ATOM     62  C   UNL A   1      47.547  24.712  26.475  1.00  0.00     0.031 C 
ATOM     63  C   UNL A   1      48.340  27.040  26.785  1.00  0.00     0.037 A 
BRANCH  50  64
ATOM     64  C   UNL A   1      46.464  32.735  28.261  1.00  0.00     0.058 A 
ATOM     65  C   UNL A   1      46.987  33.258  29.455  1.00  0.00     0.135 A 
ATOM     66  C   UNL A   1      46.333  33.606  27.167  1.00  0.00     0.135 A 
ATOM     67  F   UNL A   1      47.119  32.473  30.536  1.00  0.00    -0.206 F 
ATOM     68  C   UNL A   1      47.347  34.597  29.566  1.00  0.00     0.059 A 
ATOM     69  C   UNL A   1      46.711  34.943  27.249  1.00  0.00     0.059 A 
ATOM     70  F   UNL A   1      45.837  33.159  26.002  1.00  0.00    -0.206 F 
ATOM     71  C   UNL A   1      47.207  35.432  28.457  1.00  0.00     0.060 A 
BRANCH  71  72
ATOM     72  S   UNL A   1      47.703  37.160  28.610  1.00  0.00     0.124 S 
ATOM     73  O   UNL A   1      48.266  37.182  29.957  1.00  0.00    -0.237 OA
ATOM     74  O   UNL A   1      48.664  37.309  27.521  1.00  0.00    -0.237 OA
ATOM     75  O   UNL A   1      46.451  37.891  28.441  1.00  0.00    -0.744 OA
ENDBRANCH  71  72
ENDBRANCH  50  64
BRANCH  51  76
ATOM     76  C   UNL A   1      43.621  23.250  26.993  1.00  0.00     0.058 A 
ATOM     77  C   UNL A   1      43.471  22.772  25.683  1.00  0.00     0.135 A 
ATOM     78  C   UNL A   1      43.349  22.365  28.047  1.00  0.00     0.135 A 
ATOM     79  F   UNL A   1      43.714  23.583  24.642  1.00  0.00    -0.206 F 
ATOM     80  C   UNL A   1      43.045  21.473  25.424  1.00  0.00     0.059 A 
ATOM     81  C   UNL A   1      42.946  21.053  27.814  1.00  0.00     0.059 A 
ATOM     82  F   UNL A   1      43.496  22.768  29.319  1.00  0.00    -0.206 F 
ATOM     83  C   UNL A   1      42.783  20.621  26.499  1.00  0.00     0.060 A 
BRANCH  83  84
ATOM     84  S   UNL A   1      42.267  18.924  26.156  1.00  0.00     0.124 S 
ATOM     85  O   UNL A   1      42.438  18.297  27.461  1.00  0.00    -0.237 OA
ATOM     86  O   UNL A   1      40.889  19.104  25.710  1.00  0.00    -0.237 OA
ATOM     87  O   UNL A   1      43.200  18.494  25.119  1.00  0.00    -0.744 OA
ENDBRANCH  83  84
ENDBRANCH  51  76
BRANCH  63  88
ATOM     88  C   UNL A   1      49.719  26.577  26.410  1.00  0.00     0.058 A 
ATOM     89  C   UNL A   1      50.187  26.653  25.089  1.00  0.00     0.135 A 
ATOM     90  C   UNL A   1      50.600  26.097  27.393  1.00  0.00     0.135 A 
ATOM     91  F   UNL A   1      49.382  27.100  24.113  1.00  0.00    -0.206 F 
ATOM     92  C   UNL A   1      51.474  26.247  24.751  1.00  0.00     0.059 A 
ATOM     93  C   UNL A   1      51.899  25.708  27.081  1.00  0.00     0.059 A 
ATOM     94  F   UNL A   1      50.204  26.015  28.673  1.00  0.00    -0.206 F 
ATOM     95  C   UNL A   1      52.322  25.774  25.754  1.00  0.00     0.060 A 
BRANCH  95  96
ATOM     96  S   UNL A   1      54.000  25.277  25.310  1.00  0.00     0.124 S 
ATOM     97  O   UNL A   1      54.774  25.836  26.413  1.00  0.00    -0.237 OA
ATOM     98  O   UNL A   1      53.898  23.820  25.281  1.00  0.00    -0.237 OA
ATOM     99  O   UNL A   1      54.208  25.909  24.011  1.00  0.00    -0.744 OA
ENDBRANCH  95  96
ENDBRANCH  63  88
ENDBRANCH  37  38
ENDBRANCH  29  32
ENDBRANCH  27  28
ENDBRANCH  26  27
ENDBRANCH   1  26
TORSDOF 18
ENDMDL
MODEL 2
REMARK VINA RESULT:     -11.5      1.040      2.044
REMARK SMILES O=C(CC(=O)c1ccccc1)Nc1cccc(C(=O)NCCCCNC(=O)c2ccc(-c3c4nc(c(-c5c(F)cc(S(=O)(=O)[O-])cc5F)c5ccc([nH]5)c(-c5c(F)cc(S(=O)(=O)[O-])cc5F)c5nc(c(-c6c(F)cc(S(=O)(=O)[O-])cc6F)c6ccc3[nH]6)C=C5)C=C4)cc2)c1
REMARK SMILES IDX 22 1 21 2 20 3 18 4 19 5 17 7 13 8 14 9 94 10 15 11 16 12
REMARK SMILES IDX 12 13 1 14 2 15 3 17 4 18 5 19 6 20 7 21 11 22 8 23 10 24
REMARK SMILES IDX 9 25 23 26 24 27 25 28 26 29 27 31 28 32 29 33 93 34 30 35
REMARK SMILES IDX 92 36 31 37 32 38 33 39 86 40 34 41 91 42 85 43 87 44 35 45
REMARK SMILES IDX 90 46 84 47 83 48 36 50 70 51 49 52 69 53 50 54 53 55 68 56
REMARK SMILES IDX 88 57 51 58 52 59 67 61 89 62 54 63 37 64 38 65 47 66 39 67
REMARK SMILES IDX 40 68 46 69 48 70 41 71 42 72 43 73 44 74 45 75 71 76 72 77
REMARK SMILES IDX 81 78 73 79 74 80 80 81 82 82 75 83 76 84 77 85 78 86 79 87
REMARK SMILES IDX 55 88 56 89 65 90 57 91 58 92 64 93 66 94 59 95 60 96 61 97
REMARK SMILES IDX 62 98 63 99
REMARK H PARENT 20 6 12 16 25 30 87 49 53 60
REMARK Flexibility Score: inf
ROOT
ATOM      1  C   UNL A   1      33.218  29.288  27.285  1.00  0.00     0.023 C 
ENDROOT
BRANCH   1   2
ATOM      2  C   UNL A   1      32.532  30.092  26.189  1.00  0.00     0.116 C 
BRANCH   2   3
ATOM      3  N   UNL A   1      33.079  29.912  24.848  1.00  0.00    -0.352 N 
ATOM      4  C   UNL A   1      32.730  29.009  23.860  1.00  0.00     0.251 C 
ATOM      5  O   UNL A   1      33.319  29.024  22.781  1.00  0.00    -0.269 OA
ATOM      6  H   UNL A   1      33.809  30.528  24.609  1.00  0.00     0.163 HD
BRANCH   4   7
ATOM      7  C   UNL A   1      31.705  27.963  24.109  1.00  0.00     0.041 A 
ATOM      8  C   UNL A   1      31.217  25.660  24.647  1.00  0.00     0.041 A 
ATOM      9  C   UNL A   1      29.932  25.819  24.120  1.00  0.00     0.026 A 
ATOM     10  C   UNL A   1      32.033  26.780  24.768  1.00  0.00     0.040 A 
ATOM     11  C   UNL A   1      29.518  27.064  23.635  1.00  0.00     0.003 A 
ATOM     12  C   UNL A   1      30.419  28.128  23.593  1.00  0.00     0.014 A 
BRANCH   8  13
ATOM     13  N   UNL A   1      31.668  24.352  24.940  1.00  0.00    -0.326 N 
ATOM     14  O   UNL A   1      30.903  24.096  27.129  1.00  0.00    -0.274 OA
ATOM     15  C   UNL A   1      31.482  23.669  26.133  1.00  0.00     0.232 C 
ATOM     16  H   UNL A   1      32.162  23.883  24.228  1.00  0.00     0.169 HD
BRANCH  15  17
ATOM     17  C   UNL A   1      32.107  22.305  26.185  1.00  0.00     0.181 C 
BRANCH  17  18
ATOM     18  C   UNL A   1      33.503  22.214  26.727  1.00  0.00     0.172 C 
ATOM     19  O   UNL A   1      33.700  22.046  27.932  1.00  0.00    -0.294 OA
BRANCH  18  20
ATOM     20  C   UNL A   1      34.678  22.285  25.818  1.00  0.00     0.018 A 
ATOM     21  C   UNL A   1      35.418  21.110  25.635  1.00  0.00     0.012 A 
ATOM     22  C   UNL A   1      35.118  23.474  25.227  1.00  0.00     0.012 A 
ATOM     23  C   UNL A   1      36.588  21.127  24.876  1.00  0.00     0.001 A 
ATOM     24  C   UNL A   1      36.302  23.491  24.487  1.00  0.00     0.001 A 
ATOM     25  C   UNL A   1      37.036  22.321  24.313  1.00  0.00     0.000 A 
ENDBRANCH  18  20
ENDBRANCH  17  18
ENDBRANCH  15  17
ENDBRANCH   8  13
ENDBRANCH   4   7
ENDBRANCH   2   3
ENDBRANCH   1   2
BRANCH   1  26
ATOM     26  C   UNL A   1      34.734  29.181  27.203  1.00  0.00     0.023 C 
BRANCH  26  27
ATOM     27  C   UNL A   1      35.525  30.313  27.850  1.00  0.00     0.116 C 
BRANCH  27  28
ATOM     28  N   UNL A   1      35.409  30.366  29.300  1.00  0.00    -0.352 N 
ATOM     29  C   UNL A   1      36.381  30.248  30.270  1.00  0.00     0.251 C 
ATOM     30  H   UNL A   1      34.496  30.508  29.639  1.00  0.00     0.163 HD
ATOM     31  O   UNL A   1      36.064  30.247  31.454  1.00  0.00    -0.269 OA
BRANCH  29  32
ATOM     32  C   UNL A   1      37.803  30.081  29.885  1.00  0.00     0.039 A 
ATOM     33  C   UNL A   1      38.753  29.886  30.893  1.00  0.00     0.014 A 
ATOM     34  C   UNL A   1      38.200  30.091  28.547  1.00  0.00     0.014 A 
ATOM     35  C   UNL A   1      40.079  29.605  30.552  1.00  0.00     0.010 A 
ATOM     36  C   UNL A   1      39.503  29.730  28.207  1.00  0.00     0.010 A 
ATOM     37  C   UNL A   1      40.455  29.473  29.205  1.00  0.00    -0.014 A 
BRANCH  37  38
ATOM     38  C   UNL A   1      41.826  29.043  28.822  1.00  0.00     0.031 A 
ATOM     39  C   UNL A   1      42.946  30.046  28.750  1.00  0.00     0.074 A 
ATOM     40  C   UNL A   1      42.043  27.764  28.451  1.00  0.00     0.049 A 
ATOM     41  N   UNL A   1      44.182  29.877  28.354  1.00  0.00    -0.248 NA
ATOM     42  C   UNL A   1      42.628  31.428  29.146  1.00  0.00     0.031 C 
ATOM     43  C   UNL A   1      41.027  26.710  28.406  1.00  0.00     0.029 A 
ATOM     44  N   UNL A   1      43.187  27.134  28.026  1.00  0.00    -0.354 N 
ATOM     45  C   UNL A   1      44.780  31.129  28.428  1.00  0.00     0.074 A 
ATOM     46  C   UNL A   1      43.761  32.058  28.867  1.00  0.00     0.031 C 
ATOM     47  C   UNL A   1      41.593  25.566  27.989  1.00  0.00     0.029 A 
ATOM     48  C   UNL A   1      43.005  25.808  27.708  1.00  0.00     0.049 A 
ATOM     49  H   UNL A   1      44.057  27.590  27.954  1.00  0.00     0.167 HD
ATOM     50  C   UNL A   1      46.065  31.471  28.172  1.00  0.00     0.037 A 
ATOM     51  C   UNL A   1      43.872  24.892  27.235  1.00  0.00     0.037 A 
ATOM     52  C   UNL A   1      47.088  30.536  27.781  1.00  0.00     0.049 A 
ATOM     53  C   UNL A   1      45.306  25.286  27.007  1.00  0.00     0.074 A 
ATOM     54  C   UNL A   1      48.438  30.771  27.588  1.00  0.00     0.029 A 
ATOM     55  N   UNL A   1      46.877  29.189  27.528  1.00  0.00    -0.354 N 
ATOM     56  N   UNL A   1      45.872  26.459  27.163  1.00  0.00    -0.248 NA
ATOM     57  C   UNL A   1      46.223  24.232  26.550  1.00  0.00     0.031 C 
ATOM     58  C   UNL A   1      49.038  29.573  27.184  1.00  0.00     0.029 A 
ATOM     59  C   UNL A   1      48.068  28.584  27.165  1.00  0.00     0.049 A 
ATOM     60  H   UNL A   1      46.008  28.731  27.596  1.00  0.00     0.167 HD
ATOM     61  C   UNL A   1      47.213  26.279  26.845  1.00  0.00     0.074 A 
ATOM     62  C   UNL A   1      47.378  24.881  26.503  1.00  0.00     0.031 C 
ATOM     63  C   UNL A   1      48.218  27.189  26.836  1.00  0.00     0.037 A 
BRANCH  50  64
ATOM     64  C   UNL A   1      46.449  32.916  28.319  1.00  0.00     0.058 A 
ATOM     65  C   UNL A   1      46.333  33.821  27.251  1.00  0.00     0.135 A 
ATOM     66  C   UNL A   1      46.884  33.417  29.557  1.00  0.00     0.135 A 
ATOM     67  F   UNL A   1      45.935  33.393  26.042  1.00  0.00    -0.206 F 
ATOM     68  C   UNL A   1      46.654  35.166  27.399  1.00  0.00     0.059 A 
ATOM     69  C   UNL A   1      47.187  34.764  29.734  1.00  0.00     0.059 A 
ATOM     70  F   UNL A   1      47.014  32.596  30.611  1.00  0.00    -0.206 F 
ATOM     71  C   UNL A   1      47.079  35.629  28.645  1.00  0.00     0.060 A 
BRANCH  71  72
ATOM     72  S   UNL A   1      47.468  37.382  28.827  1.00  0.00     0.124 S 
ATOM     73  O   UNL A   1      46.902  37.934  27.600  1.00  0.00    -0.237 OA
ATOM     74  O   UNL A   1      46.769  37.733  30.060  1.00  0.00    -0.237 OA
ATOM     75  O   UNL A   1      48.925  37.402  28.910  1.00  0.00    -0.744 OA
ENDBRANCH  71  72
ENDBRANCH  50  64
BRANCH  51  76
ATOM     76  C   UNL A   1      43.415  23.503  26.962  1.00  0.00     0.058 A 
ATOM     77  C   UNL A   1      43.216  22.589  28.007  1.00  0.00     0.135 A 
ATOM     78  C   UNL A   1      43.171  23.062  25.652  1.00  0.00     0.135 A 
ATOM     79  F   UNL A   1      43.441  22.963  29.276  1.00  0.00    -0.206 F 
ATOM     80  C   UNL A   1      42.812  21.280  27.764  1.00  0.00     0.059 A 
ATOM     81  C   UNL A   1      42.744  21.765  25.386  1.00  0.00     0.059 A 
ATOM     82  F   UNL A   1      43.330  23.904  24.619  1.00  0.00    -0.206 F 
ATOM     83  C   UNL A   1      42.580  20.877  26.448  1.00  0.00     0.060 A 
BRANCH  83  84
ATOM     84  S   UNL A   1      42.021  19.186  26.143  1.00  0.00     0.124 S 
ATOM     85  O   UNL A   1      40.593  19.385  25.929  1.00  0.00    -0.237 OA
ATOM     86  O   UNL A   1      42.797  18.811  24.966  1.00  0.00    -0.237 OA
ATOM     87  O   UNL A   1      42.385  18.487  27.372  1.00  0.00    -0.744 OA
ENDBRANCH  83  84
ENDBRANCH  51  76
BRANCH  63  88
ATOM     88  C   UNL A   1      49.592  26.698  26.476  1.00  0.00     0.058 A 
ATOM     89  C   UNL A   1      50.433  26.102  27.428  1.00  0.00     0.135 A 
ATOM     90  C   UNL A   1      50.053  26.783  25.152  1.00  0.00     0.135 A 
ATOM     91  F   UNL A   1      50.040  26.002  28.708  1.00  0.00    -0.206 F 
ATOM     92  C   UNL A   1      51.694  25.626  27.084  1.00  0.00     0.059 A 
ATOM     93  C   UNL A   1      51.301  26.292  24.782  1.00  0.00     0.059 A 
ATOM     94  F   UNL A   1      49.282  27.335  24.202  1.00  0.00    -0.206 F 
ATOM     95  C   UNL A   1      52.120  25.727  25.759  1.00  0.00     0.060 A 
BRANCH  95  96
ATOM     96  S   UNL A   1      53.747  25.081  25.317  1.00  0.00     0.124 S 
ATOM     97  O   UNL A   1      54.561  25.545  26.436  1.00  0.00    -0.237 OA
ATOM     98  O   UNL A   1      53.509  23.642  25.260  1.00  0.00    -0.237 OA
ATOM     99  O   UNL A   1      54.026  25.714  24.032  1.00  0.00    -0.744 OA
ENDBRANCH  95  96
ENDBRANCH  63  88
ENDBRANCH  37  38
ENDBRANCH  29  32
ENDBRANCH  27  28
ENDBRANCH  26  27
ENDBRANCH   1  26
TORSDOF 18
ENDMDL
MODEL 3
REMARK VINA RESULT:     -11.3      6.867     13.300
REMARK SMILES O=C(CC(=O)c1ccccc1)Nc1cccc(C(=O)NCCCCNC(=O)c2ccc(-c3c4nc(c(-c5c(F)cc(S(=O)(=O)[O-])cc5F)c5ccc([nH]5)c(-c5c(F)cc(S(=O)(=O)[O-])cc5F)c5nc(c(-c6c(F)cc(S(=O)(=O)[O-])cc6F)c6ccc3[nH]6)C=C5)C=C4)cc2)c1
REMARK SMILES IDX 22 1 21 2 20 3 18 4 19 5 17 7 13 8 14 9 94 10 15 11 16 12
REMARK SMILES IDX 12 13 1 14 2 15 3 17 4 18 5 19 6 20 7 21 11 22 8 23 10 24
REMARK SMILES IDX 9 25 23 26 24 27 25 28 26 29 27 31 28 32 29 33 93 34 30 35
REMARK SMILES IDX 92 36 31 37 32 38 33 39 86 40 34 41 91 42 85 43 87 44 35 45
REMARK SMILES IDX 90 46 84 47 83 48 36 50 70 51 49 52 69 53 50 54 53 55 68 56
REMARK SMILES IDX 88 57 51 58 52 59 67 61 89 62 54 63 37 64 38 65 47 66 39 67
REMARK SMILES IDX 40 68 46 69 48 70 41 71 42 72 43 73 44 74 45 75 71 76 72 77
REMARK SMILES IDX 81 78 73 79 74 80 80 81 82 82 75 83 76 84 77 85 78 86 79 87
REMARK SMILES IDX 55 88 56 89 65 90 57 91 58 92 64 93 66 94 59 95 60 96 61 97
REMARK SMILES IDX 62 98 63 99
REMARK H PARENT 20 6 12 16 25 30 87 49 53 60
REMARK Flexibility Score: inf
ROOT
ATOM      1  C   UNL A   1      41.955  20.382  27.280  1.00  0.00     0.023 C 
ENDROOT
BRANCH   1   2
ATOM      2  C   UNL A   1      42.111  19.956  25.826  1.00  0.00     0.116 C 
BRANCH   2   3
ATOM      3  N   UNL A   1      43.361  19.275  25.506  1.00  0.00    -0.352 N 
ATOM      4  C   UNL A   1      44.607  19.797  25.208  1.00  0.00     0.251 C 
ATOM      5  O   UNL A   1      45.546  19.043  24.968  1.00  0.00    -0.269 OA
ATOM      6  H   UNL A   1      43.311  18.292  25.503  1.00  0.00     0.163 HD
BRANCH   4   7
ATOM      7  C   UNL A   1      44.811  21.264  25.091  1.00  0.00     0.041 A 
ATOM      8  C   UNL A   1      45.625  23.306  26.092  1.00  0.00     0.041 A 
ATOM      9  C   UNL A   1      44.819  24.044  25.221  1.00  0.00     0.026 A 
ATOM     10  C   UNL A   1      45.720  21.930  25.912  1.00  0.00     0.040 A 
ATOM     11  C   UNL A   1      44.049  23.393  24.251  1.00  0.00     0.003 A 
ATOM     12  C   UNL A   1      44.014  21.999  24.212  1.00  0.00     0.014 A 
BRANCH   8  13
ATOM     13  N   UNL A   1      46.228  23.975  27.182  1.00  0.00    -0.326 N 
ATOM     14  O   UNL A   1      44.384  24.326  28.567  1.00  0.00    -0.274 OA
ATOM     15  C   UNL A   1      45.585  24.427  28.325  1.00  0.00     0.232 C 
ATOM     16  H   UNL A   1      47.199  24.135  27.123  1.00  0.00     0.169 HD
BRANCH  15  17
ATOM     17  C   UNL A   1      46.465  25.145  29.305  1.00  0.00     0.181 C 
BRANCH  17  18
ATOM     18  C   UNL A   1      45.784  25.908  30.403  1.00  0.00     0.172 C 
ATOM     19  O   UNL A   1      45.349  27.044  30.204  1.00  0.00    -0.294 OA
BRANCH  18  20
ATOM     20  C   UNL A   1      45.581  25.296  31.744  1.00  0.00     0.018 A 
ATOM     21  C   UNL A   1      44.516  24.397  31.884  1.00  0.00     0.012 A 
ATOM     22  C   UNL A   1      46.339  25.645  32.867  1.00  0.00     0.012 A 
ATOM     23  C   UNL A   1      44.208  23.862  33.134  1.00  0.00     0.001 A 
ATOM     24  C   UNL A   1      46.012  25.125  34.121  1.00  0.00     0.001 A 
ATOM     25  C   UNL A   1      44.948  24.236  34.254  1.00  0.00     0.000 A 
ENDBRANCH  18  20
ENDBRANCH  17  18
ENDBRANCH  15  17
ENDBRANCH   8  13
ENDBRANCH   4   7
ENDBRANCH   2   3
ENDBRANCH   1   2
BRANCH   1  26
ATOM     26  C   UNL A   1      42.286  21.831  27.604  1.00  0.00     0.023 C 
BRANCH  26  27
ATOM     27  C   UNL A   1      41.125  22.819  27.537  1.00  0.00     0.116 C 
BRANCH  27  28
ATOM     28  N   UNL A   1      41.155  23.692  26.373  1.00  0.00    -0.352 N 
ATOM     29  C   UNL A   1      41.104  25.068  26.298  1.00  0.00     0.251 C 
ATOM     30  H   UNL A   1      41.220  23.229  25.507  1.00  0.00     0.163 HD
ATOM     31  O   UNL A   1      41.066  25.617  25.203  1.00  0.00    -0.269 OA
BRANCH  29  32
ATOM     32  C   UNL A   1      41.054  25.881  27.536  1.00  0.00     0.039 A 
ATOM     33  C   UNL A   1      42.151  26.687  27.855  1.00  0.00     0.014 A 
ATOM     34  C   UNL A   1      39.932  25.873  28.367  1.00  0.00     0.014 A 
ATOM     35  C   UNL A   1      42.081  27.555  28.950  1.00  0.00     0.010 A 
ATOM     36  C   UNL A   1      39.832  26.795  29.407  1.00  0.00     0.010 A 
ATOM     37  C   UNL A   1      40.901  27.654  29.704  1.00  0.00    -0.014 A 
BRANCH  37  38
ATOM     38  C   UNL A   1      40.756  28.663  30.787  1.00  0.00     0.031 A 
ATOM     39  C   UNL A   1      41.575  28.552  32.046  1.00  0.00     0.074 A 
ATOM     40  C   UNL A   1      39.823  29.631  30.674  1.00  0.00     0.049 A 
ATOM     41  N   UNL A   1      41.525  29.283  33.130  1.00  0.00    -0.248 NA
ATOM     42  C   UNL A   1      42.556  27.456  32.107  1.00  0.00     0.031 C 
ATOM     43  C   UNL A   1      38.915  29.805  29.538  1.00  0.00     0.029 A 
ATOM     44  N   UNL A   1      39.470  30.642  31.534  1.00  0.00    -0.354 N 
ATOM     45  C   UNL A   1      42.445  28.723  34.008  1.00  0.00     0.074 A 
ATOM     46  C   UNL A   1      43.009  27.566  33.347  1.00  0.00     0.031 C 
ATOM     47  C   UNL A   1      38.120  30.863  29.764  1.00  0.00     0.029 A 
ATOM     48  C   UNL A   1      38.438  31.426  31.073  1.00  0.00     0.049 A 
ATOM     49  H   UNL A   1      39.914  30.792  32.399  1.00  0.00     0.167 HD
ATOM     50  C   UNL A   1      42.801  29.145  35.245  1.00  0.00     0.037 A 
ATOM     51  C   UNL A   1      37.810  32.474  31.642  1.00  0.00     0.037 A 
ATOM     52  C   UNL A   1      42.272  30.324  35.880  1.00  0.00     0.049 A 
ATOM     53  C   UNL A   1      38.260  32.954  32.996  1.00  0.00     0.074 A 
ATOM     54  C   UNL A   1      42.637  30.884  37.093  1.00  0.00     0.029 A 
ATOM     55  N   UNL A   1      41.270  31.127  35.355  1.00  0.00    -0.354 N 
ATOM     56  N   UNL A   1      39.191  32.459  33.776  1.00  0.00    -0.248 NA
ATOM     57  C   UNL A   1      37.583  34.139  33.542  1.00  0.00     0.031 C 
ATOM     58  C   UNL A   1      41.832  32.006  37.316  1.00  0.00     0.029 A 
ATOM     59  C   UNL A   1      40.993  32.167  36.226  1.00  0.00     0.049 A 
ATOM     60  H   UNL A   1      40.823  30.978  34.491  1.00  0.00     0.167 HD
ATOM     61  C   UNL A   1      39.226  33.285  34.894  1.00  0.00     0.074 A 
ATOM     62  C   UNL A   1      38.235  34.319  34.682  1.00  0.00     0.031 C 
ATOM     63  C   UNL A   1      40.009  33.195  35.997  1.00  0.00     0.037 A 
BRANCH  50  64
ATOM     64  C   UNL A   1      43.824  28.338  35.994  1.00  0.00     0.058 A 
ATOM     65  C   UNL A   1      43.456  27.239  36.788  1.00  0.00     0.135 A 
ATOM     66  C   UNL A   1      45.192  28.630  35.873  1.00  0.00     0.135 A 
ATOM     67  F   UNL A   1      42.161  26.925  36.950  1.00  0.00    -0.206 F 
ATOM     68  C   UNL A   1      44.407  26.471  37.451  1.00  0.00     0.059 A 
ATOM     69  C   UNL A   1      46.162  27.859  36.508  1.00  0.00     0.059 A 
ATOM     70  F   UNL A   1      45.599  29.669  35.127  1.00  0.00    -0.206 F 
ATOM     71  C   UNL A   1      45.758  26.788  37.304  1.00  0.00     0.060 A 
BRANCH  71  72
ATOM     72  S   UNL A   1      46.981  25.766  38.151  1.00  0.00     0.124 S 
ATOM     73  O   UNL A   1      46.645  24.437  37.650  1.00  0.00    -0.237 OA
ATOM     74  O   UNL A   1      48.243  26.323  37.672  1.00  0.00    -0.237 OA
ATOM     75  O   UNL A   1      46.696  25.994  39.564  1.00  0.00    -0.744 OA
ENDBRANCH  71  72
ENDBRANCH  50  64
BRANCH  51  76
ATOM     76  C   UNL A   1      36.699  33.156  30.927  1.00  0.00     0.058 A 
ATOM     77  C   UNL A   1      36.955  34.024  29.854  1.00  0.00     0.135 A 
ATOM     78  C   UNL A   1      35.361  32.957  31.301  1.00  0.00     0.135 A 
ATOM     79  F   UNL A   1      38.218  34.251  29.463  1.00  0.00    -0.206 F 
ATOM     80  C   UNL A   1      35.928  34.688  29.192  1.00  0.00     0.059 A 
ATOM     81  C   UNL A   1      34.315  33.592  30.638  1.00  0.00     0.059 A 
ATOM     82  F   UNL A   1      35.063  32.123  32.309  1.00  0.00    -0.206 F 
ATOM     83  C   UNL A   1      34.609  34.466  29.594  1.00  0.00     0.060 A 
BRANCH  83  84
ATOM     84  S   UNL A   1      33.277  35.304  28.705  1.00  0.00     0.124 S 
ATOM     85  O   UNL A   1      34.027  36.200  27.833  1.00  0.00    -0.237 OA
ATOM     86  O   UNL A   1      32.598  34.192  28.047  1.00  0.00    -0.237 OA
ATOM     87  O   UNL A   1      32.517  35.947  29.772  1.00  0.00    -0.744 OA
ENDBRANCH  83  84
ENDBRANCH  51  76
BRANCH  63  88
ATOM     88  C   UNL A   1      39.850  34.258  37.046  1.00  0.00     0.058 A 
ATOM     89  C   UNL A   1      40.552  35.472  36.976  1.00  0.00     0.135 A 
ATOM     90  C   UNL A   1      38.949  34.079  38.108  1.00  0.00     0.135 A 
ATOM     91  F   UNL A   1      41.429  35.688  35.984  1.00  0.00    -0.206 F 
ATOM     92  C   UNL A   1      40.382  36.463  37.937  1.00  0.00     0.059 A 
ATOM     93  C   UNL A   1      38.747  35.068  39.067  1.00  0.00     0.059 A 
ATOM     94  F   UNL A   1      38.246  32.941  38.214  1.00  0.00    -0.206 F 
ATOM     95  C   UNL A   1      39.478  36.252  38.979  1.00  0.00     0.060 A 
BRANCH  95  96
ATOM     96  S   UNL A   1      39.244  37.557  40.205  1.00  0.00     0.124 S 
ATOM     97  O   UNL A   1      38.912  36.784  41.397  1.00  0.00    -0.237 OA
ATOM     98  O   UNL A   1      40.548  38.213  40.218  1.00  0.00    -0.237 OA
ATOM     99  O   UNL A   1      38.155  38.354  39.648  1.00  0.00    -0.744 OA
ENDBRANCH  95  96
ENDBRANCH  63  88
ENDBRANCH  37  38
ENDBRANCH  29  32
ENDBRANCH  27  28
ENDBRANCH  26  27
ENDBRANCH   1  26
TORSDOF 18
ENDMDL
