MODEL 1
REMARK VINA RESULT:     -10.9      0.000      0.000
REMARK SMILES O=C(Cc1ccc(F)cc1F)N[C@H](CCO)C(=O)NCCCCNC(=O)c1ccc(-c2c3nc(c(-c4c(F)cc(S(=O)(=O)[O-])cc4F)c4ccc([nH]4)c(-c4c(F)cc(S(=O)(=O)[O-])cc4F)c4nc(c(-c5c(F)cc(S(=O)(=O)[O-])cc5F)c5ccc2[nH]5)C=C4)C=C3)cc1
REMARK SMILES IDX 21 1 20 2 19 3 17 4 18 5 13 7 12 8 1 9 2 10 3 12 4 13 5 14
REMARK SMILES IDX 10 15 6 16 9 17 11 18 7 19 8 20 14 21 15 22 16 23 22 25
REMARK SMILES IDX 23 26 24 27 25 28 26 30 27 31 28 32 92 33 29 34 91 35 30 36
REMARK SMILES IDX 31 37 32 38 85 39 33 40 90 41 84 42 86 43 34 44 89 45 83 46
REMARK SMILES IDX 82 47 35 49 69 50 48 51 68 52 49 53 52 54 67 55 87 56 50 57
REMARK SMILES IDX 51 58 66 60 88 61 53 62 36 63 37 64 46 65 38 66 39 67 45 68
REMARK SMILES IDX 47 69 40 70 41 71 42 72 43 73 44 74 70 75 71 76 80 77 72 78
REMARK SMILES IDX 73 79 79 80 81 81 74 82 75 83 76 84 77 85 78 86 54 87 55 88
REMARK SMILES IDX 64 89 56 90 57 91 63 92 65 93 58 94 59 95 60 96 61 97 62 98
REMARK H PARENT 19 6 12 11 16 24 24 29 86 48 52 59
REMARK Flexibility Score: inf
ROOT
ATOM      1  C   UNL A   1      45.632  24.653  26.769  1.00  0.00     0.023 C 
ENDROOT
BRANCH   1   2
ATOM      2  C   UNL A   1      45.149  23.249  26.433  1.00  0.00     0.116 C 
BRANCH   2   3
ATOM      3  N   UNL A   1      44.659  23.145  25.075  1.00  0.00    -0.354 N 
ATOM      4  C   UNL A   1      44.426  22.028  24.325  1.00  0.00     0.242 C 
ATOM      5  O   UNL A   1      44.283  22.184  23.107  1.00  0.00    -0.273 OA
ATOM      6  H   UNL A   1      44.467  24.001  24.627  1.00  0.00     0.163 HD
BRANCH   4   7
ATOM      7  C   UNL A   1      44.586  20.609  24.923  1.00  0.00     0.173 C 
BRANCH   7   8
ATOM      8  N   UNL A   1      43.787  20.453  26.143  1.00  0.00    -0.344 N 
ATOM      9  O   UNL A   1      42.413  18.817  25.308  1.00  0.00    -0.275 OA
ATOM     10  C   UNL A   1      42.679  19.634  26.181  1.00  0.00     0.225 C 
ATOM     11  H   UNL A   1      44.048  20.946  26.954  1.00  0.00     0.164 HD
BRANCH  10  12
ATOM     12  C   UNL A   1      41.746  19.937  27.340  1.00  0.00     0.138 C 
BRANCH  12  13
ATOM     13  C   UNL A   1      40.945  21.185  27.131  1.00  0.00    -0.003 A 
ATOM     14  C   UNL A   1      39.820  21.189  26.297  1.00  0.00     0.010 A 
ATOM     15  C   UNL A   1      41.301  22.358  27.802  1.00  0.00     0.129 A 
ATOM     16  C   UNL A   1      39.076  22.357  26.139  1.00  0.00     0.040 A 
ATOM     17  C   UNL A   1      40.566  23.525  27.651  1.00  0.00     0.078 A 
ATOM     18  F   UNL A   1      42.375  22.360  28.606  1.00  0.00    -0.207 F 
ATOM     19  C   UNL A   1      39.456  23.511  26.818  1.00  0.00     0.126 A 
ATOM     20  F   UNL A   1      38.734  24.630  26.668  1.00  0.00    -0.207 F 
ENDBRANCH  12  13
ENDBRANCH  10  12
ENDBRANCH   7   8
BRANCH   7  21
ATOM     21  C   UNL A   1      46.066  20.290  25.222  1.00  0.00     0.063 C 
BRANCH  21  22
ATOM     22  C   UNL A   1      46.365  18.849  25.624  1.00  0.00     0.158 C 
BRANCH  22  23
ATOM     23  O   UNL A   1      45.318  17.984  25.206  1.00  0.00    -0.396 OA
ATOM     24  H   UNL A   1      45.348  17.884  24.242  1.00  0.00     0.210 HD
ENDBRANCH  22  23
ENDBRANCH  21  22
ENDBRANCH   7  21
ENDBRANCH   4   7
ENDBRANCH   2   3
ENDBRANCH   1   2
BRANCH   1  25
ATOM     25  C   UNL A   1      45.909  25.536  25.556  1.00  0.00     0.023 C 
BRANCH  25  26
ATOM     26  C   UNL A   1      45.028  26.775  25.450  1.00  0.00     0.116 C 
BRANCH  26  27
ATOM     27  N   UNL A   1      43.691  26.480  24.948  1.00  0.00    -0.352 N 
ATOM     28  C   UNL A   1      42.485  26.601  25.599  1.00  0.00     0.251 C 
ATOM     29  H   UNL A   1      43.646  26.150  24.022  1.00  0.00     0.163 HD
ATOM     30  O   UNL A   1      41.451  26.192  25.081  1.00  0.00    -0.269 OA
BRANCH  28  31
ATOM     31  C   UNL A   1      42.469  27.201  26.946  1.00  0.00     0.039 A 
ATOM     32  C   UNL A   1      42.804  28.548  27.091  1.00  0.00     0.014 A 
ATOM     33  C   UNL A   1      42.011  26.453  28.033  1.00  0.00     0.014 A 
ATOM     34  C   UNL A   1      42.580  29.177  28.317  1.00  0.00     0.010 A 
ATOM     35  C   UNL A   1      41.727  27.099  29.231  1.00  0.00     0.010 A 
ATOM     36  C   UNL A   1      41.986  28.470  29.377  1.00  0.00    -0.014 A 
BRANCH  36  37
ATOM     37  C   UNL A   1      41.573  29.150  30.630  1.00  0.00     0.031 A 
ATOM     38  C   UNL A   1      40.364  30.041  30.633  1.00  0.00     0.074 A 
ATOM     39  C   UNL A   1      42.352  29.050  31.727  1.00  0.00     0.049 A 
ATOM     40  N   UNL A   1      39.933  30.839  31.575  1.00  0.00    -0.248 NA
ATOM     41  C   UNL A   1      39.547  30.060  29.409  1.00  0.00     0.031 C 
ATOM     42  C   UNL A   1      43.578  28.254  31.828  1.00  0.00     0.029 A 
ATOM     43  N   UNL A   1      42.243  29.641  32.962  1.00  0.00    -0.354 N 
ATOM     44  C   UNL A   1      38.811  31.468  31.052  1.00  0.00     0.074 A 
ATOM     45  C   UNL A   1      38.643  30.986  29.699  1.00  0.00     0.031 C 
ATOM     46  C   UNL A   1      44.103  28.404  33.055  1.00  0.00     0.029 A 
ATOM     47  C   UNL A   1      43.280  29.338  33.814  1.00  0.00     0.049 A 
ATOM     48  H   UNL A   1      41.494  30.228  33.214  1.00  0.00     0.167 HD
ATOM     49  C   UNL A   1      37.988  32.357  31.655  1.00  0.00     0.037 A 
ATOM     50  C   UNL A   1      43.552  29.783  35.059  1.00  0.00     0.037 A 
ATOM     51  C   UNL A   1      38.136  32.798  33.017  1.00  0.00     0.049 A 
ATOM     52  C   UNL A   1      42.615  30.767  35.705  1.00  0.00     0.074 A 
ATOM     53  C   UNL A   1      37.304  33.633  33.742  1.00  0.00     0.029 A 
ATOM     54  N   UNL A   1      39.178  32.439  33.858  1.00  0.00    -0.354 N 
ATOM     55  N   UNL A   1      41.522  31.302  35.217  1.00  0.00    -0.248 NA
ATOM     56  C   UNL A   1      42.947  31.213  37.066  1.00  0.00     0.031 C 
ATOM     57  C   UNL A   1      37.863  33.810  35.010  1.00  0.00     0.029 A 
ATOM     58  C   UNL A   1      39.021  33.053  35.088  1.00  0.00     0.049 A 
ATOM     59  H   UNL A   1      39.919  31.837  33.617  1.00  0.00     0.167 HD
ATOM     60  C   UNL A   1      41.026  32.131  36.218  1.00  0.00     0.074 A 
ATOM     61  C   UNL A   1      41.930  32.019  37.343  1.00  0.00     0.031 C 
ATOM     62  C   UNL A   1      39.923  32.917  36.203  1.00  0.00     0.037 A 
BRANCH  49  63
ATOM     63  C   UNL A   1      36.835  32.906  30.867  1.00  0.00     0.058 A 
ATOM     64  C   UNL A   1      37.042  33.918  29.916  1.00  0.00     0.135 A 
ATOM     65  C   UNL A   1      35.516  32.506  31.129  1.00  0.00     0.135 A 
ATOM     66  F   UNL A   1      38.286  34.330  29.626  1.00  0.00    -0.206 F 
ATOM     67  C   UNL A   1      35.976  34.535  29.266  1.00  0.00     0.059 A 
ATOM     68  C   UNL A   1      34.439  33.095  30.477  1.00  0.00     0.059 A 
ATOM     69  F   UNL A   1      35.269  31.530  32.015  1.00  0.00    -0.206 F 
ATOM     70  C   UNL A   1      34.678  34.116  29.555  1.00  0.00     0.060 A 
BRANCH  70  71
ATOM     71  S   UNL A   1      33.261  34.908  28.766  1.00  0.00     0.124 S 
ATOM     72  O   UNL A   1      32.377  35.126  29.906  1.00  0.00    -0.237 OA
ATOM     73  O   UNL A   1      33.859  36.108  28.189  1.00  0.00    -0.237 OA
ATOM     74  O   UNL A   1      32.805  33.911  27.802  1.00  0.00    -0.744 OA
ENDBRANCH  70  71
ENDBRANCH  49  63
BRANCH  50  75
ATOM     75  C   UNL A   1      44.767  29.311  35.774  1.00  0.00     0.058 A 
ATOM     76  C   UNL A   1      44.731  28.176  36.600  1.00  0.00     0.135 A 
ATOM     77  C   UNL A   1      45.992  29.980  35.638  1.00  0.00     0.135 A 
ATOM     78  F   UNL A   1      43.580  27.509  36.778  1.00  0.00    -0.206 F 
ATOM     79  C   UNL A   1      45.865  27.720  37.267  1.00  0.00     0.059 A 
ATOM     80  C   UNL A   1      47.144  29.530  36.275  1.00  0.00     0.059 A 
ATOM     81  F   UNL A   1      46.079  31.066  34.853  1.00  0.00    -0.206 F 
ATOM     82  C   UNL A   1      47.071  28.396  37.086  1.00  0.00     0.060 A 
BRANCH  82  83
ATOM     83  S   UNL A   1      48.567  27.836  37.928  1.00  0.00     0.124 S 
ATOM     84  O   UNL A   1      48.197  28.006  39.328  1.00  0.00    -0.237 OA
ATOM     85  O   UNL A   1      48.685  26.459  37.461  1.00  0.00    -0.237 OA
ATOM     86  O   UNL A   1      49.593  28.748  37.430  1.00  0.00    -0.744 OA
ENDBRANCH  82  83
ENDBRANCH  50  75
BRANCH  62  87
ATOM     87  C   UNL A   1      39.605  33.702  37.443  1.00  0.00     0.058 A 
ATOM     88  C   UNL A   1      40.239  34.931  37.688  1.00  0.00     0.135 A 
ATOM     89  C   UNL A   1      38.754  33.189  38.432  1.00  0.00     0.135 A 
ATOM     90  F   UNL A   1      41.069  35.457  36.774  1.00  0.00    -0.206 F 
ATOM     91  C   UNL A   1      40.060  35.616  38.884  1.00  0.00     0.059 A 
ATOM     92  C   UNL A   1      38.543  33.869  39.627  1.00  0.00     0.059 A 
ATOM     93  F   UNL A   1      38.119  32.023  38.240  1.00  0.00    -0.206 F 
ATOM     94  C   UNL A   1      39.208  35.077  39.847  1.00  0.00     0.060 A 
BRANCH  94  95
ATOM     95  S   UNL A   1      38.979  35.909  41.433  1.00  0.00     0.124 S 
ATOM     96  O   UNL A   1      37.695  35.368  41.867  1.00  0.00    -0.237 OA
ATOM     97  O   UNL A   1      40.144  35.463  42.190  1.00  0.00    -0.237 OA
ATOM     98  O   UNL A   1      38.975  37.325  41.077  1.00  0.00    -0.744 OA
ENDBRANCH  94  95
ENDBRANCH  62  87
ENDBRANCH  36  37
ENDBRANCH  28  31
ENDBRANCH  26  27
ENDBRANCH  25  26
ENDBRANCH   1  25
TORSDOF 20
ENDMDL
MODEL 2
REMARK VINA RESULT:     -10.8      5.609     10.937
REMARK SMILES O=C(Cc1ccc(F)cc1F)N[C@H](CCO)C(=O)NCCCCNC(=O)c1ccc(-c2c3nc(c(-c4c(F)cc(S(=O)(=O)[O-])cc4F)c4ccc([nH]4)c(-c4c(F)cc(S(=O)(=O)[O-])cc4F)c4nc(c(-c5c(F)cc(S(=O)(=O)[O-])cc5F)c5ccc2[nH]5)C=C4)C=C3)cc1
REMARK SMILES IDX 21 1 20 2 19 3 17 4 18 5 13 7 12 8 1 9 2 10 3 12 4 13 5 14
REMARK SMILES IDX 10 15 6 16 9 17 11 18 7 19 8 20 14 21 15 22 16 23 22 25
REMARK SMILES IDX 23 26 24 27 25 28 26 30 27 31 28 32 92 33 29 34 91 35 30 36
REMARK SMILES IDX 31 37 32 38 85 39 33 40 90 41 84 42 86 43 34 44 89 45 83 46
REMARK SMILES IDX 82 47 35 49 69 50 48 51 68 52 49 53 52 54 67 55 87 56 50 57
REMARK SMILES IDX 51 58 66 60 88 61 53 62 36 63 37 64 46 65 38 66 39 67 45 68
REMARK SMILES IDX 47 69 40 70 41 71 42 72 43 73 44 74 70 75 71 76 80 77 72 78
REMARK SMILES IDX 73 79 79 80 81 81 74 82 75 83 76 84 77 85 78 86 54 87 55 88
REMARK SMILES IDX 64 89 56 90 57 91 63 92 65 93 58 94 59 95 60 96 61 97 62 98
REMARK H PARENT 19 6 12 11 16 24 24 29 86 48 52 59
REMARK Flexibility Score: inf
ROOT
ATOM      1  C   UNL A   1      31.971  29.089  24.908  1.00  0.00     0.023 C 
ENDROOT
BRANCH   1   2
ATOM      2  C   UNL A   1      31.390  28.265  23.768  1.00  0.00     0.116 C 
BRANCH   2   3
ATOM      3  N   UNL A   1      32.370  27.975  22.742  1.00  0.00    -0.354 N 
ATOM      4  C   UNL A   1      33.036  26.811  22.491  1.00  0.00     0.242 C 
ATOM      5  O   UNL A   1      34.026  26.874  21.753  1.00  0.00    -0.273 OA
ATOM      6  H   UNL A   1      32.587  28.725  22.141  1.00  0.00     0.163 HD
BRANCH   4   7
ATOM      7  C   UNL A   1      32.730  25.519  23.286  1.00  0.00     0.173 C 
BRANCH   7   8
ATOM      8  N   UNL A   1      33.946  24.965  23.890  1.00  0.00    -0.344 N 
ATOM      9  O   UNL A   1      33.002  24.511  25.930  1.00  0.00    -0.275 OA
ATOM     10  C   UNL A   1      33.996  24.612  25.221  1.00  0.00     0.225 C 
ATOM     11  H   UNL A   1      34.747  24.844  23.330  1.00  0.00     0.164 HD
BRANCH  10  12
ATOM     12  C   UNL A   1      35.410  24.493  25.759  1.00  0.00     0.138 C 
BRANCH  12  13
ATOM     13  C   UNL A   1      36.015  23.145  25.514  1.00  0.00    -0.003 A 
ATOM     14  C   UNL A   1      35.210  22.029  25.251  1.00  0.00     0.010 A 
ATOM     15  C   UNL A   1      37.405  22.999  25.513  1.00  0.00     0.129 A 
ATOM     16  C   UNL A   1      35.799  20.791  25.001  1.00  0.00     0.040 A 
ATOM     17  C   UNL A   1      37.999  21.770  25.264  1.00  0.00     0.078 A 
ATOM     18  F   UNL A   1      38.183  24.065  25.759  1.00  0.00    -0.207 F 
ATOM     19  C   UNL A   1      37.186  20.675  25.008  1.00  0.00     0.126 A 
ATOM     20  F   UNL A   1      37.747  19.484  24.761  1.00  0.00    -0.207 F 
ENDBRANCH  12  13
ENDBRANCH  10  12
ENDBRANCH   7   8
BRANCH   7  21
ATOM     21  C   UNL A   1      32.059  24.456  22.391  1.00  0.00     0.063 C 
BRANCH  21  22
ATOM     22  C   UNL A   1      32.802  23.129  22.266  1.00  0.00     0.158 C 
BRANCH  22  23
ATOM     23  O   UNL A   1      31.899  22.037  22.377  1.00  0.00    -0.396 OA
ATOM     24  H   UNL A   1      32.334  21.226  22.072  1.00  0.00     0.210 HD
ENDBRANCH  22  23
ENDBRANCH  21  22
ENDBRANCH   7  21
ENDBRANCH   4   7
ENDBRANCH   2   3
ENDBRANCH   1   2
BRANCH   1  25
ATOM     25  C   UNL A   1      31.979  28.382  26.261  1.00  0.00     0.023 C 
BRANCH  25  26
ATOM     26  C   UNL A   1      33.169  28.718  27.152  1.00  0.00     0.116 C 
BRANCH  26  27
ATOM     27  N   UNL A   1      33.195  30.118  27.561  1.00  0.00    -0.352 N 
ATOM     28  C   UNL A   1      34.219  30.819  28.155  1.00  0.00     0.251 C 
ATOM     29  H   UNL A   1      32.372  30.629  27.390  1.00  0.00     0.163 HD
ATOM     30  O   UNL A   1      34.044  31.964  28.556  1.00  0.00    -0.269 OA
BRANCH  28  31
ATOM     31  C   UNL A   1      35.520  30.148  28.333  1.00  0.00     0.039 A 
ATOM     32  C   UNL A   1      36.399  30.077  27.251  1.00  0.00     0.014 A 
ATOM     33  C   UNL A   1      35.903  29.699  29.599  1.00  0.00     0.014 A 
ATOM     34  C   UNL A   1      37.709  29.646  27.464  1.00  0.00     0.010 A 
ATOM     35  C   UNL A   1      37.226  29.334  29.820  1.00  0.00     0.010 A 
ATOM     36  C   UNL A   1      38.147  29.327  28.761  1.00  0.00    -0.014 A 
BRANCH  36  37
ATOM     37  C   UNL A   1      39.573  29.037  29.050  1.00  0.00     0.031 A 
ATOM     38  C   UNL A   1      40.474  30.132  29.545  1.00  0.00     0.074 A 
ATOM     39  C   UNL A   1      40.074  27.818  28.761  1.00  0.00     0.049 A 
ATOM     40  N   UNL A   1      41.771  30.121  29.706  1.00  0.00    -0.248 NA
ATOM     41  C   UNL A   1      39.838  31.419  29.876  1.00  0.00     0.031 C 
ATOM     42  C   UNL A   1      39.306  26.688  28.230  1.00  0.00     0.029 A 
ATOM     43  N   UNL A   1      41.355  27.329  28.850  1.00  0.00    -0.354 N 
ATOM     44  C   UNL A   1      42.110  31.397  30.134  1.00  0.00     0.074 A 
ATOM     45  C   UNL A   1      40.888  32.170  30.180  1.00  0.00     0.031 C 
ATOM     46  C   UNL A   1      40.128  25.643  28.044  1.00  0.00     0.029 A 
ATOM     47  C   UNL A   1      41.487  26.036  28.399  1.00  0.00     0.049 A 
ATOM     48  H   UNL A   1      42.109  27.856  29.202  1.00  0.00     0.167 HD
ATOM     49  C   UNL A   1      43.330  31.874  30.474  1.00  0.00     0.037 A 
ATOM     50  C   UNL A   1      42.584  25.262  28.263  1.00  0.00     0.037 A 
ATOM     51  C   UNL A   1      44.533  31.086  30.469  1.00  0.00     0.049 A 
ATOM     52  C   UNL A   1      43.926  25.818  28.654  1.00  0.00     0.074 A 
ATOM     53  C   UNL A   1      45.802  31.459  30.877  1.00  0.00     0.029 A 
ATOM     54  N   UNL A   1      44.619  29.770  30.042  1.00  0.00    -0.354 N 
ATOM     55  N   UNL A   1      44.217  27.010  29.120  1.00  0.00    -0.248 NA
ATOM     56  C   UNL A   1      45.089  24.934  28.499  1.00  0.00     0.031 C 
ATOM     57  C   UNL A   1      46.664  30.381  30.659  1.00  0.00     0.029 A 
ATOM     58  C   UNL A   1      45.923  29.323  30.156  1.00  0.00     0.049 A 
ATOM     59  H   UNL A   1      43.863  29.233  29.708  1.00  0.00     0.167 HD
ATOM     60  C   UNL A   1      45.591  27.009  29.331  1.00  0.00     0.074 A 
ATOM     61  C   UNL A   1      46.074  25.697  28.954  1.00  0.00     0.031 C 
ATOM     62  C   UNL A   1      46.382  28.007  29.792  1.00  0.00     0.037 A 
BRANCH  49  63
ATOM     63  C   UNL A   1      43.437  33.308  30.903  1.00  0.00     0.058 A 
ATOM     64  C   UNL A   1      43.662  34.319  29.954  1.00  0.00     0.135 A 
ATOM     65  C   UNL A   1      43.426  33.667  32.259  1.00  0.00     0.135 A 
ATOM     66  F   UNL A   1      43.674  34.026  28.644  1.00  0.00    -0.206 F 
ATOM     67  C   UNL A   1      43.896  35.637  30.336  1.00  0.00     0.059 A 
ATOM     68  C   UNL A   1      43.638  34.981  32.661  1.00  0.00     0.059 A 
ATOM     69  F   UNL A   1      43.197  32.741  33.202  1.00  0.00    -0.206 F 
ATOM     70  C   UNL A   1      43.882  35.957  31.693  1.00  0.00     0.060 A 
BRANCH  70  71
ATOM     71  S   UNL A   1      44.215  37.644  32.242  1.00  0.00     0.124 S 
ATOM     72  O   UNL A   1      43.962  38.403  31.021  1.00  0.00    -0.237 OA
ATOM     73  O   UNL A   1      43.238  37.820  33.311  1.00  0.00    -0.237 OA
ATOM     74  O   UNL A   1      45.609  37.596  32.671  1.00  0.00    -0.744 OA
ENDBRANCH  70  71
ENDBRANCH  49  63
BRANCH  50  75
ATOM     75  C   UNL A   1      42.463  23.881  27.725  1.00  0.00     0.058 A 
ATOM     76  C   UNL A   1      42.425  23.639  26.342  1.00  0.00     0.135 A 
ATOM     77  C   UNL A   1      42.394  22.774  28.583  1.00  0.00     0.135 A 
ATOM     78  F   UNL A   1      42.470  24.665  25.477  1.00  0.00    -0.206 F 
ATOM     79  C   UNL A   1      42.321  22.350  25.827  1.00  0.00     0.059 A 
ATOM     80  C   UNL A   1      42.315  21.475  28.092  1.00  0.00     0.059 A 
ATOM     81  F   UNL A   1      42.434  22.953  29.912  1.00  0.00    -0.206 F 
ATOM     82  C   UNL A   1      42.281  21.273  26.711  1.00  0.00     0.060 A 
BRANCH  82  83
ATOM     83  S   UNL A   1      42.153  19.583  26.086  1.00  0.00     0.124 S 
ATOM     84  O   UNL A   1      43.069  19.620  24.952  1.00  0.00    -0.237 OA
ATOM     85  O   UNL A   1      42.589  18.797  27.235  1.00  0.00    -0.237 OA
ATOM     86  O   UNL A   1      40.738  19.457  25.751  1.00  0.00    -0.744 OA
ENDBRANCH  82  83
ENDBRANCH  50  75
BRANCH  62  87
ATOM     87  C   UNL A   1      47.849  27.725  29.945  1.00  0.00     0.058 A 
ATOM     88  C   UNL A   1      48.724  27.902  28.861  1.00  0.00     0.135 A 
ATOM     89  C   UNL A   1      48.367  27.186  31.131  1.00  0.00     0.135 A 
ATOM     90  F   UNL A   1      48.272  28.408  27.703  1.00  0.00    -0.206 F 
ATOM     91  C   UNL A   1      50.061  27.529  28.937  1.00  0.00     0.059 A 
ATOM     92  C   UNL A   1      49.707  26.826  31.237  1.00  0.00     0.059 A 
ATOM     93  F   UNL A   1      47.572  27.007  32.197  1.00  0.00    -0.206 F 
ATOM     94  C   UNL A   1      50.543  26.993  30.130  1.00  0.00     0.060 A 
BRANCH  94  95
ATOM     95  S   UNL A   1      52.261  26.454  30.262  1.00  0.00     0.124 S 
ATOM     96  O   UNL A   1      52.890  27.620  30.876  1.00  0.00    -0.237 OA
ATOM     97  O   UNL A   1      52.152  25.271  31.111  1.00  0.00    -0.237 OA
ATOM     98  O   UNL A   1      52.643  26.191  28.877  1.00  0.00    -0.744 OA
ENDBRANCH  94  95
ENDBRANCH  62  87
ENDBRANCH  36  37
ENDBRANCH  28  31
ENDBRANCH  26  27
ENDBRANCH  25  26
ENDBRANCH   1  25
TORSDOF 20
ENDMDL
MODEL 3
REMARK VINA RESULT:     -10.6      4.054      5.712
REMARK SMILES O=C(Cc1ccc(F)cc1F)N[C@H](CCO)C(=O)NCCCCNC(=O)c1ccc(-c2c3nc(c(-c4c(F)cc(S(=O)(=O)[O-])cc4F)c4ccc([nH]4)c(-c4c(F)cc(S(=O)(=O)[O-])cc4F)c4nc(c(-c5c(F)cc(S(=O)(=O)[O-])cc5F)c5ccc2[nH]5)C=C4)C=C3)cc1
REMARK SMILES IDX 21 1 20 2 19 3 17 4 18 5 13 7 12 8 1 9 2 10 3 12 4 13 5 14
REMARK SMILES IDX 10 15 6 16 9 17 11 18 7 19 8 20 14 21 15 22 16 23 22 25
REMARK SMILES IDX 23 26 24 27 25 28 26 30 27 31 28 32 92 33 29 34 91 35 30 36
REMARK SMILES IDX 31 37 32 38 85 39 33 40 90 41 84 42 86 43 34 44 89 45 83 46
REMARK SMILES IDX 82 47 35 49 69 50 48 51 68 52 49 53 52 54 67 55 87 56 50 57
REMARK SMILES IDX 51 58 66 60 88 61 53 62 36 63 37 64 46 65 38 66 39 67 45 68
REMARK SMILES IDX 47 69 40 70 41 71 42 72 43 73 44 74 70 75 71 76 80 77 72 78
REMARK SMILES IDX 73 79 79 80 81 81 74 82 75 83 76 84 77 85 78 86 54 87 55 88
REMARK SMILES IDX 64 89 56 90 57 91 63 92 65 93 58 94 59 95 60 96 61 97 62 98
REMARK H PARENT 19 6 12 11 16 24 24 29 86 48 52 59
REMARK Flexibility Score: inf
ROOT
ATOM      1  C   UNL A   1      37.367  23.745  25.551  1.00  0.00     0.023 C 
ENDROOT
BRANCH   1   2
ATOM      2  C   UNL A   1      35.933  23.511  26.005  1.00  0.00     0.116 C 
BRANCH   2   3
ATOM      3  N   UNL A   1      34.966  24.095  25.101  1.00  0.00    -0.354 N 
ATOM      4  C   UNL A   1      33.623  23.868  25.011  1.00  0.00     0.242 C 
ATOM      5  O   UNL A   1      33.050  24.259  23.988  1.00  0.00    -0.273 OA
ATOM      6  H   UNL A   1      35.327  24.748  24.458  1.00  0.00     0.163 HD
BRANCH   4   7
ATOM      7  C   UNL A   1      32.893  22.944  26.016  1.00  0.00     0.173 C 
BRANCH   7   8
ATOM      8  N   UNL A   1      32.456  21.699  25.374  1.00  0.00    -0.344 N 
ATOM      9  O   UNL A   1      34.536  20.734  25.310  1.00  0.00    -0.275 OA
ATOM     10  C   UNL A   1      33.359  20.740  24.970  1.00  0.00     0.225 C 
ATOM     11  H   UNL A   1      31.495  21.547  25.228  1.00  0.00     0.164 HD
BRANCH  10  12
ATOM     12  C   UNL A   1      32.789  19.767  23.953  1.00  0.00     0.138 C 
BRANCH  12  13
ATOM     13  C   UNL A   1      32.908  18.338  24.385  1.00  0.00    -0.003 A 
ATOM     14  C   UNL A   1      32.594  17.950  25.693  1.00  0.00     0.010 A 
ATOM     15  C   UNL A   1      33.308  17.367  23.462  1.00  0.00     0.129 A 
ATOM     16  C   UNL A   1      32.689  16.610  26.062  1.00  0.00     0.040 A 
ATOM     17  C   UNL A   1      33.405  16.030  23.821  1.00  0.00     0.078 A 
ATOM     18  F   UNL A   1      33.606  17.731  22.206  1.00  0.00    -0.207 F 
ATOM     19  C   UNL A   1      33.091  15.665  25.123  1.00  0.00     0.126 A 
ATOM     20  F   UNL A   1      33.175  14.377  25.481  1.00  0.00    -0.207 F 
ENDBRANCH  12  13
ENDBRANCH  10  12
ENDBRANCH   7   8
BRANCH   7  21
ATOM     21  C   UNL A   1      31.682  23.656  26.654  1.00  0.00     0.063 C 
BRANCH  21  22
ATOM     22  C   UNL A   1      30.347  22.925  26.540  1.00  0.00     0.158 C 
BRANCH  22  23
ATOM     23  O   UNL A   1      29.506  23.243  27.642  1.00  0.00    -0.396 OA
ATOM     24  H   UNL A   1      29.881  22.867  28.453  1.00  0.00     0.210 HD
ENDBRANCH  22  23
ENDBRANCH  21  22
ENDBRANCH   7  21
ENDBRANCH   4   7
ENDBRANCH   2   3
ENDBRANCH   1   2
BRANCH   1  25
ATOM     25  C   UNL A   1      38.402  22.859  26.237  1.00  0.00     0.023 C 
BRANCH  25  26
ATOM     26  C   UNL A   1      39.559  23.608  26.886  1.00  0.00     0.116 C 
BRANCH  26  27
ATOM     27  N   UNL A   1      40.286  24.455  25.947  1.00  0.00    -0.352 N 
ATOM     28  C   UNL A   1      40.841  25.695  26.162  1.00  0.00     0.251 C 
ATOM     29  H   UNL A   1      40.393  24.092  25.038  1.00  0.00     0.163 HD
ATOM     30  O   UNL A   1      41.314  26.340  25.232  1.00  0.00    -0.269 OA
BRANCH  28  31
ATOM     31  C   UNL A   1      40.821  26.247  27.530  1.00  0.00     0.039 A 
ATOM     32  C   UNL A   1      41.936  26.944  27.995  1.00  0.00     0.014 A 
ATOM     33  C   UNL A   1      39.654  26.167  28.293  1.00  0.00     0.014 A 
ATOM     34  C   UNL A   1      41.845  27.655  29.193  1.00  0.00     0.010 A 
ATOM     35  C   UNL A   1      39.545  26.929  29.451  1.00  0.00     0.010 A 
ATOM     36  C   UNL A   1      40.630  27.698  29.898  1.00  0.00    -0.014 A 
BRANCH  36  37
ATOM     37  C   UNL A   1      40.446  28.582  31.076  1.00  0.00     0.031 A 
ATOM     38  C   UNL A   1      39.416  29.675  31.038  1.00  0.00     0.074 A 
ATOM     39  C   UNL A   1      41.282  28.467  32.130  1.00  0.00     0.049 A 
ATOM     40  N   UNL A   1      39.210  30.642  31.893  1.00  0.00    -0.248 NA
ATOM     41  C   UNL A   1      38.518  29.703  29.872  1.00  0.00     0.031 C 
ATOM     42  C   UNL A   1      42.354  27.476  32.259  1.00  0.00     0.029 A 
ATOM     43  N   UNL A   1      41.380  29.207  33.283  1.00  0.00    -0.354 N 
ATOM     44  C   UNL A   1      38.177  31.402  31.362  1.00  0.00     0.074 A 
ATOM     45  C   UNL A   1      37.817  30.806  30.094  1.00  0.00     0.031 C 
ATOM     46  C   UNL A   1      42.995  27.667  33.423  1.00  0.00     0.029 A 
ATOM     47  C   UNL A   1      42.413  28.818  34.104  1.00  0.00     0.049 A 
ATOM     48  H   UNL A   1      40.768  29.946  33.502  1.00  0.00     0.167 HD
ATOM     49  C   UNL A   1      37.575  32.491  31.894  1.00  0.00     0.037 A 
ATOM     50  C   UNL A   1      42.859  29.345  35.263  1.00  0.00     0.037 A 
ATOM     51  C   UNL A   1      37.908  33.050  33.177  1.00  0.00     0.049 A 
ATOM     52  C   UNL A   1      42.165  30.553  35.833  1.00  0.00     0.074 A 
ATOM     53  C   UNL A   1      37.297  34.102  33.838  1.00  0.00     0.029 A 
ATOM     54  N   UNL A   1      38.936  32.605  33.994  1.00  0.00    -0.354 N 
ATOM     55  N   UNL A   1      41.146  31.220  35.346  1.00  0.00    -0.248 NA
ATOM     56  C   UNL A   1      42.680  31.084  37.103  1.00  0.00     0.031 C 
ATOM     57  C   UNL A   1      37.980  34.318  35.037  1.00  0.00     0.029 A 
ATOM     58  C   UNL A   1      38.989  33.375  35.143  1.00  0.00     0.049 A 
ATOM     59  H   UNL A   1      39.537  31.853  33.789  1.00  0.00     0.167 HD
ATOM     60  C   UNL A   1      40.887  32.235  36.260  1.00  0.00     0.074 A 
ATOM     61  C   UNL A   1      41.846  32.090  37.334  1.00  0.00     0.031 C 
ATOM     62  C   UNL A   1      39.941  33.204  36.210  1.00  0.00     0.037 A 
BRANCH  49  63
ATOM     63  C   UNL A   1      36.476  33.147  31.112  1.00  0.00     0.058 A 
ATOM     64  C   UNL A   1      36.778  33.973  30.016  1.00  0.00     0.135 A 
ATOM     65  C   UNL A   1      35.135  33.047  31.512  1.00  0.00     0.135 A 
ATOM     66  F   UNL A   1      38.045  34.095  29.592  1.00  0.00    -0.206 F 
ATOM     67  C   UNL A   1      35.789  34.697  29.356  1.00  0.00     0.059 A 
ATOM     68  C   UNL A   1      34.129  33.746  30.854  1.00  0.00     0.059 A 
ATOM     69  F   UNL A   1      34.793  32.257  32.541  1.00  0.00    -0.206 F 
ATOM     70  C   UNL A   1      34.468  34.576  29.783  1.00  0.00     0.060 A 
BRANCH  70  71
ATOM     71  S   UNL A   1      33.154  35.521  28.983  1.00  0.00     0.124 S 
ATOM     72  O   UNL A   1      32.497  34.490  28.186  1.00  0.00    -0.237 OA
ATOM     73  O   UNL A   1      32.394  36.022  30.124  1.00  0.00    -0.237 OA
ATOM     74  O   UNL A   1      33.878  36.535  28.221  1.00  0.00    -0.744 OA
ENDBRANCH  70  71
ENDBRANCH  49  63
BRANCH  50  75
ATOM     75  C   UNL A   1      44.027  28.743  35.959  1.00  0.00     0.058 A 
ATOM     76  C   UNL A   1      45.329  29.224  35.748  1.00  0.00     0.135 A 
ATOM     77  C   UNL A   1      43.863  27.679  36.859  1.00  0.00     0.135 A 
ATOM     78  F   UNL A   1      45.543  30.230  34.885  1.00  0.00    -0.206 F 
ATOM     79  C   UNL A   1      46.427  28.674  36.402  1.00  0.00     0.059 A 
ATOM     80  C   UNL A   1      44.942  27.128  37.542  1.00  0.00     0.059 A 
ATOM     81  F   UNL A   1      42.637  27.189  37.099  1.00  0.00    -0.206 F 
ATOM     82  C   UNL A   1      46.222  27.635  37.308  1.00  0.00     0.060 A 
BRANCH  82  83
ATOM     83  S   UNL A   1      47.618  26.895  38.182  1.00  0.00     0.124 S 
ATOM     84  O   UNL A   1      48.430  28.068  38.483  1.00  0.00    -0.237 OA
ATOM     85  O   UNL A   1      46.966  26.260  39.323  1.00  0.00    -0.237 OA
ATOM     86  O   UNL A   1      48.178  25.973  37.198  1.00  0.00    -0.744 OA
ENDBRANCH  82  83
ENDBRANCH  50  75
BRANCH  62  87
ATOM     87  C   UNL A   1      39.868  34.171  37.356  1.00  0.00     0.058 A 
ATOM     88  C   UNL A   1      39.164  33.837  38.525  1.00  0.00     0.135 A 
ATOM     89  C   UNL A   1      40.406  35.463  37.256  1.00  0.00     0.135 A 
ATOM     90  F   UNL A   1      38.625  32.615  38.662  1.00  0.00    -0.206 F 
ATOM     91  C   UNL A   1      38.973  34.759  39.548  1.00  0.00     0.059 A 
ATOM     92  C   UNL A   1      40.246  36.393  38.277  1.00  0.00     0.059 A 
ATOM     93  F   UNL A   1      41.094  35.826  36.163  1.00  0.00    -0.206 F 
ATOM     94  C   UNL A   1      39.519  36.035  39.415  1.00  0.00     0.060 A 
BRANCH  94  95
ATOM     95  S   UNL A   1      39.260  37.278  40.698  1.00  0.00     0.124 S 
ATOM     96  O   UNL A   1      38.659  36.481  41.763  1.00  0.00    -0.237 OA
ATOM     97  O   UNL A   1      40.617  37.753  40.949  1.00  0.00    -0.237 OA
ATOM     98  O   UNL A   1      38.372  38.246  40.060  1.00  0.00    -0.744 OA
ENDBRANCH  94  95
ENDBRANCH  62  87
ENDBRANCH  36  37
ENDBRANCH  28  31
ENDBRANCH  26  27
ENDBRANCH  25  26
ENDBRANCH   1  25
TORSDOF 20
ENDMDL
