MODEL 1
REMARK VINA RESULT:     -13.7      0.000      0.000
REMARK SMILES Cc1ccc(C[C@@H](Cc2cc(F)cc(Br)c2)C(=O)NCCCCNC(=O)c2ccc(-c3c4nc(c(-c5c(F)cc(S(=O)(=O)[O-])cc5F)c5ccc([nH]5)c(-c5c(F)cc(S(=O)(=O)[O-])cc5F)c5nc(c(-c6c(F)cc(S(=O)(=O)[O-])cc6F)c6ccc3[nH]6)C=C5)C=C4)cc2)cc1
REMARK SMILES IDX 22 1 21 2 20 3 19 4 17 5 18 6 7 8 6 9 5 10 1 11 2 12 3 13
REMARK SMILES IDX 94 14 4 15 93 16 8 17 9 18 10 19 16 20 11 21 14 22 12 23
REMARK SMILES IDX 13 24 15 25 23 26 24 27 25 28 26 30 27 31 28 32 92 33 29 34
REMARK SMILES IDX 91 35 30 36 31 37 32 38 85 39 33 40 90 41 84 42 86 43 34 44
REMARK SMILES IDX 89 45 83 46 82 47 35 49 69 50 48 51 68 52 49 53 52 54 67 55
REMARK SMILES IDX 87 56 50 57 51 58 66 60 88 61 53 62 36 63 37 64 46 65 38 66
REMARK SMILES IDX 39 67 45 68 47 69 40 70 41 71 42 72 43 73 44 74 70 75 71 76
REMARK SMILES IDX 80 77 72 78 73 79 79 80 81 81 74 82 75 83 76 84 77 85 78 86
REMARK SMILES IDX 54 87 55 88 64 89 56 90 57 91 63 92 65 93 58 94 59 95 60 96
REMARK SMILES IDX 61 97 62 98
REMARK H PARENT 19 7 24 29 86 48 52 59
REMARK Flexibility Score: inf
ROOT
ATOM      1  C   UNL A   1      36.432  23.153  26.158  1.00  0.00     0.023 C 
ENDROOT
BRANCH   1   2
ATOM      2  C   UNL A   1      35.328  24.034  25.564  1.00  0.00     0.023 C 
BRANCH   2   3
ATOM      3  C   UNL A   1      34.096  23.270  25.063  1.00  0.00     0.116 C 
BRANCH   3   4
ATOM      4  N   UNL A   1      33.051  23.214  26.078  1.00  0.00    -0.356 N 
ATOM      5  C   UNL A   1      32.132  24.131  26.473  1.00  0.00     0.223 C 
ATOM      6  O   UNL A   1      31.354  23.810  27.377  1.00  0.00    -0.275 OA
ATOM      7  H   UNL A   1      33.004  22.358  26.562  1.00  0.00     0.163 HD
BRANCH   5   8
ATOM      8  C   UNL A   1      32.041  25.515  25.850  1.00  0.00     0.087 C 
BRANCH   8   9
ATOM      9  C   UNL A   1      31.210  25.366  24.551  1.00  0.00     0.049 C 
BRANCH   9  10
ATOM     10  C   UNL A   1      30.442  26.557  24.027  1.00  0.00    -0.047 A 
ATOM     11  C   UNL A   1      28.233  29.719  22.072  1.00  0.00     0.044 C 
ATOM     12  C   UNL A   1      29.012  28.639  22.760  1.00  0.00    -0.051 A 
ATOM     13  C   UNL A   1      28.334  27.616  23.427  1.00  0.00     0.004 A 
ATOM     14  C   UNL A   1      30.409  28.629  22.750  1.00  0.00     0.004 A 
ATOM     15  C   UNL A   1      29.041  26.578  24.037  1.00  0.00     0.004 A 
ATOM     16  C   UNL A   1      31.117  27.601  23.381  1.00  0.00     0.004 A 
ENDBRANCH   9  10
ENDBRANCH   8   9
BRANCH   8  17
ATOM     17  C   UNL A   1      31.599  26.662  26.786  1.00  0.00     0.049 C 
BRANCH  17  18
ATOM     18  C   UNL A   1      32.242  28.033  26.859  1.00  0.00    -0.043 A 
ATOM     19  C   UNL A   1      33.649  28.061  26.854  1.00  0.00     0.043 A 
ATOM     20  C   UNL A   1      31.575  29.263  26.903  1.00  0.00     0.019 A 
ATOM     21  C   UNL A   1      34.343  29.265  26.809  1.00  0.00     0.124 A 
ATOM     22  C   UNL A   1      32.287  30.466  26.783  1.00  0.00     0.021 A 
ATOM     23  F   UNL A   1      35.680  29.235  26.842  1.00  0.00    -0.207 F 
ATOM     24  C   UNL A   1      33.675  30.475  26.730  1.00  0.00     0.055 A 
ATOM     25  Br  UNL A   1      31.341  32.099  26.648  1.00  0.00    -0.051 Br
ENDBRANCH  17  18
ENDBRANCH   8  17
ENDBRANCH   5   8
ENDBRANCH   3   4
ENDBRANCH   2   3
ENDBRANCH   1   2
BRANCH   1  26
ATOM     26  C   UNL A   1      37.833  23.689  25.917  1.00  0.00     0.116 C 
BRANCH  26  27
ATOM     27  N   UNL A   1      38.801  23.330  26.936  1.00  0.00    -0.352 N 
ATOM     28  C   UNL A   1      39.953  24.095  27.118  1.00  0.00     0.251 C 
ATOM     29  H   UNL A   1      38.644  22.541  27.504  1.00  0.00     0.163 HD
ATOM     30  O   UNL A   1      41.084  23.691  26.970  1.00  0.00    -0.269 OA
BRANCH  28  31
ATOM     31  C   UNL A   1      39.686  25.499  27.510  1.00  0.00     0.039 A 
ATOM     32  C   UNL A   1      40.181  26.545  26.728  1.00  0.00     0.014 A 
ATOM     33  C   UNL A   1      39.107  25.741  28.756  1.00  0.00     0.014 A 
ATOM     34  C   UNL A   1      40.209  27.834  27.261  1.00  0.00     0.010 A 
ATOM     35  C   UNL A   1      39.221  26.994  29.316  1.00  0.00     0.010 A 
ATOM     36  C   UNL A   1      39.788  28.037  28.577  1.00  0.00    -0.014 A 
BRANCH  36  37
ATOM     37  C   UNL A   1      39.945  29.290  29.299  1.00  0.00     0.031 A 
ATOM     38  C   UNL A   1      38.866  30.302  29.284  1.00  0.00     0.074 A 
ATOM     39  C   UNL A   1      41.035  29.481  30.073  1.00  0.00     0.049 A 
ATOM     40  N   UNL A   1      39.058  31.560  29.491  1.00  0.00    -0.248 NA
ATOM     41  C   UNL A   1      37.468  29.971  29.016  1.00  0.00     0.031 C 
ATOM     42  C   UNL A   1      41.229  30.524  31.074  1.00  0.00     0.029 A 
ATOM     43  N   UNL A   1      42.280  28.856  29.972  1.00  0.00    -0.354 N 
ATOM     44  C   UNL A   1      37.827  32.146  29.661  1.00  0.00     0.074 A 
ATOM     45  C   UNL A   1      36.865  31.133  29.289  1.00  0.00     0.031 C 
ATOM     46  C   UNL A   1      42.542  30.659  31.309  1.00  0.00     0.029 A 
ATOM     47  C   UNL A   1      43.242  29.804  30.366  1.00  0.00     0.049 A 
ATOM     48  H   UNL A   1      42.451  27.931  29.682  1.00  0.00     0.167 HD
ATOM     49  C   UNL A   1      37.729  33.376  30.237  1.00  0.00     0.037 A 
ATOM     50  C   UNL A   1      44.204  30.239  29.499  1.00  0.00     0.037 A 
ATOM     51  C   UNL A   1      39.040  33.904  30.599  1.00  0.00     0.049 A 
ATOM     52  C   UNL A   1      44.121  31.723  29.226  1.00  0.00     0.074 A 
ATOM     53  C   UNL A   1      39.753  33.883  31.786  1.00  0.00     0.029 A 
ATOM     54  N   UNL A   1      39.948  34.249  29.602  1.00  0.00    -0.354 N 
ATOM     55  N   UNL A   1      43.048  32.438  29.431  1.00  0.00    -0.248 NA
ATOM     56  C   UNL A   1      45.233  32.527  28.727  1.00  0.00     0.031 C 
ATOM     57  C   UNL A   1      41.111  34.144  31.492  1.00  0.00     0.029 A 
ATOM     58  C   UNL A   1      41.222  34.356  30.128  1.00  0.00     0.049 A 
ATOM     59  H   UNL A   1      39.716  34.395  28.657  1.00  0.00     0.167 HD
ATOM     60  C   UNL A   1      43.301  33.751  29.134  1.00  0.00     0.074 A 
ATOM     61  C   UNL A   1      44.684  33.755  28.692  1.00  0.00     0.031 C 
ATOM     62  C   UNL A   1      42.358  34.726  29.297  1.00  0.00     0.037 A 
BRANCH  49  63
ATOM     63  C   UNL A   1      36.413  33.914  30.737  1.00  0.00     0.058 A 
ATOM     64  C   UNL A   1      35.435  34.406  29.848  1.00  0.00     0.135 A 
ATOM     65  C   UNL A   1      36.087  34.012  32.104  1.00  0.00     0.135 A 
ATOM     66  F   UNL A   1      35.595  34.336  28.521  1.00  0.00    -0.206 F 
ATOM     67  C   UNL A   1      34.262  35.024  30.281  1.00  0.00     0.059 A 
ATOM     68  C   UNL A   1      34.940  34.667  32.564  1.00  0.00     0.059 A 
ATOM     69  F   UNL A   1      36.889  33.474  33.038  1.00  0.00    -0.206 F 
ATOM     70  C   UNL A   1      34.034  35.176  31.642  1.00  0.00     0.060 A 
BRANCH  70  71
ATOM     71  S   UNL A   1      32.560  36.074  32.171  1.00  0.00     0.124 S 
ATOM     72  O   UNL A   1      33.086  36.941  33.222  1.00  0.00    -0.237 OA
ATOM     73  O   UNL A   1      32.156  36.744  30.941  1.00  0.00    -0.237 OA
ATOM     74  O   UNL A   1      31.668  35.016  32.637  1.00  0.00    -0.744 OA
ENDBRANCH  70  71
ENDBRANCH  49  63
BRANCH  50  75
ATOM     75  C   UNL A   1      44.645  29.180  28.548  1.00  0.00     0.058 A 
ATOM     76  C   UNL A   1      44.099  29.208  27.248  1.00  0.00     0.135 A 
ATOM     77  C   UNL A   1      45.856  28.497  28.723  1.00  0.00     0.135 A 
ATOM     78  F   UNL A   1      42.930  29.831  27.025  1.00  0.00    -0.206 F 
ATOM     79  C   UNL A   1      44.808  28.743  26.143  1.00  0.00     0.059 A 
ATOM     80  C   UNL A   1      46.578  28.013  27.629  1.00  0.00     0.059 A 
ATOM     81  F   UNL A   1      46.422  28.425  29.937  1.00  0.00    -0.206 F 
ATOM     82  C   UNL A   1      46.082  28.216  26.340  1.00  0.00     0.060 A 
BRANCH  82  83
ATOM     83  S   UNL A   1      47.128  27.952  24.886  1.00  0.00     0.124 S 
ATOM     84  O   UNL A   1      46.788  26.584  24.509  1.00  0.00    -0.237 OA
ATOM     85  O   UNL A   1      46.658  28.996  23.971  1.00  0.00    -0.237 OA
ATOM     86  O   UNL A   1      48.477  28.149  25.401  1.00  0.00    -0.744 OA
ENDBRANCH  82  83
ENDBRANCH  50  75
BRANCH  62  87
ATOM     87  C   UNL A   1      42.450  36.149  28.804  1.00  0.00     0.058 A 
ATOM     88  C   UNL A   1      43.203  37.149  29.440  1.00  0.00     0.135 A 
ATOM     89  C   UNL A   1      41.896  36.507  27.548  1.00  0.00     0.135 A 
ATOM     90  F   UNL A   1      43.855  36.907  30.585  1.00  0.00    -0.206 F 
ATOM     91  C   UNL A   1      43.356  38.426  28.897  1.00  0.00     0.059 A 
ATOM     92  C   UNL A   1      42.083  37.755  26.964  1.00  0.00     0.059 A 
ATOM     93  F   UNL A   1      41.161  35.642  26.832  1.00  0.00    -0.206 F 
ATOM     94  C   UNL A   1      42.800  38.719  27.655  1.00  0.00     0.060 A 
BRANCH  94  95
ATOM     95  S   UNL A   1      43.068  40.335  26.906  1.00  0.00     0.124 S 
ATOM     96  O   UNL A   1      41.727  40.660  26.429  1.00  0.00    -0.237 OA
ATOM     97  O   UNL A   1      43.550  41.137  28.026  1.00  0.00    -0.237 OA
ATOM     98  O   UNL A   1      44.058  40.059  25.870  1.00  0.00    -0.744 OA
ENDBRANCH  94  95
ENDBRANCH  62  87
ENDBRANCH  36  37
ENDBRANCH  28  31
ENDBRANCH  26  27
ENDBRANCH   1  26
TORSDOF 18
ENDMDL
MODEL 2
REMARK VINA RESULT:     -13.6      5.037     11.335
REMARK SMILES Cc1ccc(C[C@@H](Cc2cc(F)cc(Br)c2)C(=O)NCCCCNC(=O)c2ccc(-c3c4nc(c(-c5c(F)cc(S(=O)(=O)[O-])cc5F)c5ccc([nH]5)c(-c5c(F)cc(S(=O)(=O)[O-])cc5F)c5nc(c(-c6c(F)cc(S(=O)(=O)[O-])cc6F)c6ccc3[nH]6)C=C5)C=C4)cc2)cc1
REMARK SMILES IDX 22 1 21 2 20 3 19 4 17 5 18 6 7 8 6 9 5 10 1 11 2 12 3 13
REMARK SMILES IDX 94 14 4 15 93 16 8 17 9 18 10 19 16 20 11 21 14 22 12 23
REMARK SMILES IDX 13 24 15 25 23 26 24 27 25 28 26 30 27 31 28 32 92 33 29 34
REMARK SMILES IDX 91 35 30 36 31 37 32 38 85 39 33 40 90 41 84 42 86 43 34 44
REMARK SMILES IDX 89 45 83 46 82 47 35 49 69 50 48 51 68 52 49 53 52 54 67 55
REMARK SMILES IDX 87 56 50 57 51 58 66 60 88 61 53 62 36 63 37 64 46 65 38 66
REMARK SMILES IDX 39 67 45 68 47 69 40 70 41 71 42 72 43 73 44 74 70 75 71 76
REMARK SMILES IDX 80 77 72 78 73 79 79 80 81 81 74 82 75 83 76 84 77 85 78 86
REMARK SMILES IDX 54 87 55 88 64 89 56 90 57 91 63 92 65 93 58 94 59 95 60 96
REMARK SMILES IDX 61 97 62 98
REMARK H PARENT 19 7 24 29 86 48 52 59
REMARK Flexibility Score: inf
ROOT
ATOM      1  C   UNL A   1      32.786  29.643  27.081  1.00  0.00     0.023 C 
ENDROOT
BRANCH   1   2
ATOM      2  C   UNL A   1      31.909  28.396  27.242  1.00  0.00     0.023 C 
BRANCH   2   3
ATOM      3  C   UNL A   1      32.444  27.142  26.541  1.00  0.00     0.116 C 
BRANCH   3   4
ATOM      4  N   UNL A   1      31.791  25.934  27.032  1.00  0.00    -0.356 N 
ATOM      5  C   UNL A   1      31.374  24.813  26.389  1.00  0.00     0.223 C 
ATOM      6  O   UNL A   1      30.838  23.931  27.067  1.00  0.00    -0.275 OA
ATOM      7  H   UNL A   1      31.623  25.932  28.002  1.00  0.00     0.163 HD
BRANCH   5   8
ATOM      8  C   UNL A   1      31.541  24.623  24.890  1.00  0.00     0.087 C 
BRANCH   8   9
ATOM      9  C   UNL A   1      31.826  23.117  24.660  1.00  0.00     0.049 C 
BRANCH   9  10
ATOM     10  C   UNL A   1      33.258  22.650  24.531  1.00  0.00    -0.047 A 
ATOM     11  C   UNL A   1      37.401  21.419  24.670  1.00  0.00     0.044 C 
ATOM     12  C   UNL A   1      35.969  21.856  24.602  1.00  0.00    -0.051 A 
ATOM     13  C   UNL A   1      34.950  20.922  24.802  1.00  0.00     0.004 A 
ATOM     14  C   UNL A   1      35.625  23.185  24.342  1.00  0.00     0.004 A 
ATOM     15  C   UNL A   1      33.611  21.319  24.785  1.00  0.00     0.004 A 
ATOM     16  C   UNL A   1      34.283  23.578  24.303  1.00  0.00     0.004 A 
ENDBRANCH   9  10
ENDBRANCH   8   9
BRANCH   8  17
ATOM     17  C   UNL A   1      30.437  25.228  23.994  1.00  0.00     0.049 C 
BRANCH  17  18
ATOM     18  C   UNL A   1      30.330  26.687  23.596  1.00  0.00    -0.043 A 
ATOM     19  C   UNL A   1      31.517  27.300  23.155  1.00  0.00     0.043 A 
ATOM     20  C   UNL A   1      29.167  27.466  23.599  1.00  0.00     0.019 A 
ATOM     21  C   UNL A   1      31.514  28.601  22.665  1.00  0.00     0.124 A 
ATOM     22  C   UNL A   1      29.166  28.749  23.032  1.00  0.00     0.021 A 
ATOM     23  F   UNL A   1      32.676  29.148  22.292  1.00  0.00    -0.207 F 
ATOM     24  C   UNL A   1      30.338  29.323  22.556  1.00  0.00     0.055 A 
ATOM     25  Br  UNL A   1      27.536  29.697  22.874  1.00  0.00    -0.051 Br
ENDBRANCH  17  18
ENDBRANCH   8  17
ENDBRANCH   5   8
ENDBRANCH   3   4
ENDBRANCH   2   3
ENDBRANCH   1   2
BRANCH   1  26
ATOM     26  C   UNL A   1      34.271  29.367  27.241  1.00  0.00     0.116 C 
BRANCH  26  27
ATOM     27  N   UNL A   1      35.112  30.549  27.214  1.00  0.00    -0.352 N 
ATOM     28  C   UNL A   1      36.046  30.776  28.224  1.00  0.00     0.251 C 
ATOM     29  H   UNL A   1      35.024  31.195  26.475  1.00  0.00     0.163 HD
ATOM     30  O   UNL A   1      36.035  31.723  28.978  1.00  0.00    -0.269 OA
BRANCH  28  31
ATOM     31  C   UNL A   1      37.090  29.729  28.326  1.00  0.00     0.039 A 
ATOM     32  C   UNL A   1      37.241  29.010  29.514  1.00  0.00     0.014 A 
ATOM     33  C   UNL A   1      38.021  29.619  27.292  1.00  0.00     0.014 A 
ATOM     34  C   UNL A   1      38.407  28.272  29.714  1.00  0.00     0.010 A 
ATOM     35  C   UNL A   1      39.210  28.966  27.528  1.00  0.00     0.010 A 
ATOM     36  C   UNL A   1      39.413  28.309  28.745  1.00  0.00    -0.014 A 
BRANCH  36  37
ATOM     37  C   UNL A   1      40.738  27.736  28.925  1.00  0.00     0.031 A 
ATOM     38  C   UNL A   1      41.025  26.358  28.471  1.00  0.00     0.074 A 
ATOM     39  C   UNL A   1      41.737  28.507  29.407  1.00  0.00     0.049 A 
ATOM     40  N   UNL A   1      41.968  25.624  28.956  1.00  0.00    -0.248 NA
ATOM     41  C   UNL A   1      40.250  25.684  27.431  1.00  0.00     0.031 C 
ATOM     42  C   UNL A   1      43.163  28.207  29.389  1.00  0.00     0.029 A 
ATOM     43  N   UNL A   1      41.631  29.661  30.187  1.00  0.00    -0.354 N 
ATOM     44  C   UNL A   1      42.107  24.531  28.135  1.00  0.00     0.074 A 
ATOM     45  C   UNL A   1      40.973  24.576  27.239  1.00  0.00     0.031 C 
ATOM     46  C   UNL A   1      43.776  28.962  30.311  1.00  0.00     0.029 A 
ATOM     47  C   UNL A   1      42.744  29.670  31.049  1.00  0.00     0.049 A 
ATOM     48  H   UNL A   1      40.916  30.335  30.144  1.00  0.00     0.167 HD
ATOM     49  C   UNL A   1      43.239  23.776  28.190  1.00  0.00     0.037 A 
ATOM     50  C   UNL A   1      42.590  29.617  32.405  1.00  0.00     0.037 A 
ATOM     51  C   UNL A   1      44.177  24.286  29.184  1.00  0.00     0.049 A 
ATOM     52  C   UNL A   1      43.222  28.389  33.019  1.00  0.00     0.074 A 
ATOM     53  C   UNL A   1      45.268  25.134  29.080  1.00  0.00     0.029 A 
ATOM     54  N   UNL A   1      43.857  24.222  30.537  1.00  0.00    -0.354 N 
ATOM     55  N   UNL A   1      43.507  27.307  32.346  1.00  0.00    -0.248 NA
ATOM     56  C   UNL A   1      43.606  28.282  34.423  1.00  0.00     0.031 C 
ATOM     57  C   UNL A   1      45.560  25.639  30.369  1.00  0.00     0.029 A 
ATOM     58  C   UNL A   1      44.666  25.075  31.264  1.00  0.00     0.049 A 
ATOM     59  H   UNL A   1      43.154  23.650  30.921  1.00  0.00     0.167 HD
ATOM     60  C   UNL A   1      44.111  26.394  33.169  1.00  0.00     0.074 A 
ATOM     61  C   UNL A   1      44.146  27.051  34.463  1.00  0.00     0.031 C 
ATOM     62  C   UNL A   1      44.549  25.184  32.710  1.00  0.00     0.037 A 
BRANCH  49  63
ATOM     63  C   UNL A   1      43.581  22.782  27.109  1.00  0.00     0.058 A 
ATOM     64  C   UNL A   1      42.946  21.525  27.038  1.00  0.00     0.135 A 
ATOM     65  C   UNL A   1      44.578  23.009  26.139  1.00  0.00     0.135 A 
ATOM     66  F   UNL A   1      41.952  21.193  27.872  1.00  0.00    -0.206 F 
ATOM     67  C   UNL A   1      43.326  20.536  26.131  1.00  0.00     0.059 A 
ATOM     68  C   UNL A   1      45.006  22.019  25.248  1.00  0.00     0.059 A 
ATOM     69  F   UNL A   1      45.171  24.210  26.035  1.00  0.00    -0.206 F 
ATOM     70  C   UNL A   1      44.376  20.780  25.256  1.00  0.00     0.060 A 
BRANCH  70  71
ATOM     71  S   UNL A   1      44.915  19.446  24.167  1.00  0.00     0.124 S 
ATOM     72  O   UNL A   1      44.201  18.294  24.710  1.00  0.00    -0.237 OA
ATOM     73  O   UNL A   1      44.460  19.916  22.864  1.00  0.00    -0.237 OA
ATOM     74  O   UNL A   1      46.362  19.417  24.356  1.00  0.00    -0.744 OA
ENDBRANCH  70  71
ENDBRANCH  49  63
BRANCH  50  75
ATOM     75  C   UNL A   1      41.363  30.319  32.874  1.00  0.00     0.058 A 
ATOM     76  C   UNL A   1      40.242  29.523  33.190  1.00  0.00     0.135 A 
ATOM     77  C   UNL A   1      41.424  31.600  33.440  1.00  0.00     0.135 A 
ATOM     78  F   UNL A   1      40.121  28.295  32.660  1.00  0.00    -0.206 F 
ATOM     79  C   UNL A   1      39.320  29.905  34.162  1.00  0.00     0.059 A 
ATOM     80  C   UNL A   1      40.502  32.007  34.410  1.00  0.00     0.059 A 
ATOM     81  F   UNL A   1      42.459  32.409  33.171  1.00  0.00    -0.206 F 
ATOM     82  C   UNL A   1      39.506  31.118  34.820  1.00  0.00     0.060 A 
BRANCH  82  83
ATOM     83  S   UNL A   1      38.529  31.438  36.310  1.00  0.00     0.124 S 
ATOM     84  O   UNL A   1      37.454  32.279  35.796  1.00  0.00    -0.237 OA
ATOM     85  O   UNL A   1      38.135  30.087  36.718  1.00  0.00    -0.237 OA
ATOM     86  O   UNL A   1      39.477  32.096  37.199  1.00  0.00    -0.744 OA
ENDBRANCH  82  83
ENDBRANCH  50  75
BRANCH  62  87
ATOM     87  C   UNL A   1      45.024  24.028  33.555  1.00  0.00     0.058 A 
ATOM     88  C   UNL A   1      46.352  23.864  33.981  1.00  0.00     0.135 A 
ATOM     89  C   UNL A   1      44.088  23.116  34.108  1.00  0.00     0.135 A 
ATOM     90  F   UNL A   1      47.314  24.718  33.605  1.00  0.00    -0.206 F 
ATOM     91  C   UNL A   1      46.735  22.844  34.853  1.00  0.00     0.059 A 
ATOM     92  C   UNL A   1      44.440  22.127  35.020  1.00  0.00     0.059 A 
ATOM     93  F   UNL A   1      42.785  23.166  33.789  1.00  0.00    -0.206 F 
ATOM     94  C   UNL A   1      45.772  21.985  35.374  1.00  0.00     0.060 A 
BRANCH  94  95
ATOM     95  S   UNL A   1      46.243  20.722  36.569  1.00  0.00     0.124 S 
ATOM     96  O   UNL A   1      45.549  19.550  36.043  1.00  0.00    -0.237 OA
ATOM     97  O   UNL A   1      47.698  20.695  36.458  1.00  0.00    -0.237 OA
ATOM     98  O   UNL A   1      45.729  21.250  37.829  1.00  0.00    -0.744 OA
ENDBRANCH  94  95
ENDBRANCH  62  87
ENDBRANCH  36  37
ENDBRANCH  28  31
ENDBRANCH  26  27
ENDBRANCH   1  26
TORSDOF 18
ENDMDL
MODEL 3
REMARK VINA RESULT:     -13.3      1.341      2.431
REMARK SMILES Cc1ccc(C[C@@H](Cc2cc(F)cc(Br)c2)C(=O)NCCCCNC(=O)c2ccc(-c3c4nc(c(-c5c(F)cc(S(=O)(=O)[O-])cc5F)c5ccc([nH]5)c(-c5c(F)cc(S(=O)(=O)[O-])cc5F)c5nc(c(-c6c(F)cc(S(=O)(=O)[O-])cc6F)c6ccc3[nH]6)C=C5)C=C4)cc2)cc1
REMARK SMILES IDX 22 1 21 2 20 3 19 4 17 5 18 6 7 8 6 9 5 10 1 11 2 12 3 13
REMARK SMILES IDX 94 14 4 15 93 16 8 17 9 18 10 19 16 20 11 21 14 22 12 23
REMARK SMILES IDX 13 24 15 25 23 26 24 27 25 28 26 30 27 31 28 32 92 33 29 34
REMARK SMILES IDX 91 35 30 36 31 37 32 38 85 39 33 40 90 41 84 42 86 43 34 44
REMARK SMILES IDX 89 45 83 46 82 47 35 49 69 50 48 51 68 52 49 53 52 54 67 55
REMARK SMILES IDX 87 56 50 57 51 58 66 60 88 61 53 62 36 63 37 64 46 65 38 66
REMARK SMILES IDX 39 67 45 68 47 69 40 70 41 71 42 72 43 73 44 74 70 75 71 76
REMARK SMILES IDX 80 77 72 78 73 79 79 80 81 81 74 82 75 83 76 84 77 85 78 86
REMARK SMILES IDX 54 87 55 88 64 89 56 90 57 91 63 92 65 93 58 94 59 95 60 96
REMARK SMILES IDX 61 97 62 98
REMARK H PARENT 19 7 24 29 86 48 52 59
REMARK Flexibility Score: inf
ROOT
ATOM      1  C   UNL A   1      36.914  22.592  25.125  1.00  0.00     0.023 C 
ENDROOT
BRANCH   1   2
ATOM      2  C   UNL A   1      36.523  22.830  23.662  1.00  0.00     0.023 C 
BRANCH   2   3
ATOM      3  C   UNL A   1      35.055  23.214  23.445  1.00  0.00     0.116 C 
BRANCH   3   4
ATOM      4  N   UNL A   1      34.155  22.316  24.159  1.00  0.00    -0.356 N 
ATOM      5  C   UNL A   1      32.981  22.544  24.802  1.00  0.00     0.223 C 
ATOM      6  O   UNL A   1      32.423  21.579  25.334  1.00  0.00    -0.275 OA
ATOM      7  H   UNL A   1      34.452  21.378  24.179  1.00  0.00     0.163 HD
BRANCH   5   8
ATOM      8  C   UNL A   1      32.354  23.926  24.886  1.00  0.00     0.087 C 
BRANCH   8   9
ATOM      9  C   UNL A   1      33.264  24.775  25.809  1.00  0.00     0.049 C 
BRANCH   9  10
ATOM     10  C   UNL A   1      32.981  26.251  25.968  1.00  0.00    -0.047 A 
ATOM     11  C   UNL A   1      31.891  30.435  25.985  1.00  0.00     0.044 C 
ATOM     12  C   UNL A   1      32.290  28.990  25.986  1.00  0.00    -0.051 A 
ATOM     13  C   UNL A   1      31.509  28.057  26.672  1.00  0.00     0.004 A 
ATOM     14  C   UNL A   1      33.431  28.550  25.310  1.00  0.00     0.004 A 
ATOM     15  C   UNL A   1      31.842  26.701  26.647  1.00  0.00     0.004 A 
ATOM     16  C   UNL A   1      33.776  27.195  25.305  1.00  0.00     0.004 A 
ENDBRANCH   9  10
ENDBRANCH   8   9
BRANCH   8  17
ATOM     17  C   UNL A   1      31.976  24.592  23.544  1.00  0.00     0.049 C 
BRANCH  17  18
ATOM     18  C   UNL A   1      30.960  25.703  23.370  1.00  0.00    -0.043 A 
ATOM     19  C   UNL A   1      29.694  25.485  23.944  1.00  0.00     0.043 A 
ATOM     20  C   UNL A   1      31.169  26.928  22.724  1.00  0.00     0.019 A 
ATOM     21  C   UNL A   1      28.721  26.478  23.940  1.00  0.00     0.124 A 
ATOM     22  C   UNL A   1      30.206  27.945  22.793  1.00  0.00     0.021 A 
ATOM     23  F   UNL A   1      27.523  26.205  24.467  1.00  0.00    -0.207 F 
ATOM     24  C   UNL A   1      28.978  27.729  23.406  1.00  0.00     0.055 A 
ATOM     25  Br  UNL A   1      30.601  29.652  22.078  1.00  0.00    -0.051 Br
ENDBRANCH  17  18
ENDBRANCH   8  17
ENDBRANCH   5   8
ENDBRANCH   3   4
ENDBRANCH   2   3
ENDBRANCH   1   2
BRANCH   1  26
ATOM     26  C   UNL A   1      37.883  23.627  25.671  1.00  0.00     0.116 C 
BRANCH  26  27
ATOM     27  N   UNL A   1      38.647  23.191  26.825  1.00  0.00    -0.352 N 
ATOM     28  C   UNL A   1      39.804  23.869  27.205  1.00  0.00     0.251 C 
ATOM     29  H   UNL A   1      38.346  22.409  27.344  1.00  0.00     0.163 HD
ATOM     30  O   UNL A   1      40.914  23.387  27.232  1.00  0.00    -0.269 OA
BRANCH  28  31
ATOM     31  C   UNL A   1      39.576  25.285  27.578  1.00  0.00     0.039 A 
ATOM     32  C   UNL A   1      40.106  26.307  26.787  1.00  0.00     0.014 A 
ATOM     33  C   UNL A   1      38.995  25.559  28.817  1.00  0.00     0.014 A 
ATOM     34  C   UNL A   1      40.167  27.601  27.305  1.00  0.00     0.010 A 
ATOM     35  C   UNL A   1      39.141  26.815  29.363  1.00  0.00     0.010 A 
ATOM     36  C   UNL A   1      39.743  27.832  28.616  1.00  0.00    -0.014 A 
BRANCH  36  37
ATOM     37  C   UNL A   1      39.932  29.089  29.323  1.00  0.00     0.031 A 
ATOM     38  C   UNL A   1      38.874  30.123  29.305  1.00  0.00     0.074 A 
ATOM     39  C   UNL A   1      41.030  29.265  30.088  1.00  0.00     0.049 A 
ATOM     40  N   UNL A   1      39.094  31.379  29.498  1.00  0.00    -0.248 NA
ATOM     41  C   UNL A   1      37.467  29.819  29.050  1.00  0.00     0.031 C 
ATOM     42  C   UNL A   1      41.253  30.313  31.077  1.00  0.00     0.029 A 
ATOM     43  N   UNL A   1      42.262  28.612  29.986  1.00  0.00    -0.354 N 
ATOM     44  C   UNL A   1      37.876  31.992  29.670  1.00  0.00     0.074 A 
ATOM     45  C   UNL A   1      36.891  30.996  29.315  1.00  0.00     0.031 C 
ATOM     46  C   UNL A   1      42.570  30.423  31.302  1.00  0.00     0.029 A 
ATOM     47  C   UNL A   1      43.246  29.544  30.363  1.00  0.00     0.049 A 
ATOM     48  H   UNL A   1      42.411  27.681  29.704  1.00  0.00     0.167 HD
ATOM     49  C   UNL A   1      37.809  33.229  30.234  1.00  0.00     0.037 A 
ATOM     50  C   UNL A   1      44.211  29.950  29.486  1.00  0.00     0.037 A 
ATOM     51  C   UNL A   1      39.133  33.734  30.582  1.00  0.00     0.049 A 
ATOM     52  C   UNL A   1      44.157  31.433  29.198  1.00  0.00     0.074 A 
ATOM     53  C   UNL A   1      39.853  33.709  31.765  1.00  0.00     0.029 A 
ATOM     54  N   UNL A   1      40.041  34.049  29.575  1.00  0.00    -0.354 N 
ATOM     55  N   UNL A   1      43.101  32.172  29.403  1.00  0.00    -0.248 NA
ATOM     56  C   UNL A   1      45.282  32.207  28.683  1.00  0.00     0.031 C 
ATOM     57  C   UNL A   1      41.214  33.939  31.458  1.00  0.00     0.029 A 
ATOM     58  C   UNL A   1      41.321  34.135  30.092  1.00  0.00     0.049 A 
ATOM     59  H   UNL A   1      39.806  34.190  28.630  1.00  0.00     0.167 HD
ATOM     60  C   UNL A   1      43.380  33.476  29.091  1.00  0.00     0.074 A 
ATOM     61  C   UNL A   1      44.759  33.447  28.640  1.00  0.00     0.031 C 
ATOM     62  C   UNL A   1      42.458  34.472  29.250  1.00  0.00     0.037 A 
BRANCH  49  63
ATOM     63  C   UNL A   1      36.507  33.800  30.737  1.00  0.00     0.058 A 
ATOM     64  C   UNL A   1      35.498  34.222  29.847  1.00  0.00     0.135 A 
ATOM     65  C   UNL A   1      36.227  34.000  32.104  1.00  0.00     0.135 A 
ATOM     66  F   UNL A   1      35.613  34.055  28.524  1.00  0.00    -0.206 F 
ATOM     67  C   UNL A   1      34.337  34.869  30.273  1.00  0.00     0.059 A 
ATOM     68  C   UNL A   1      35.093  34.684  32.552  1.00  0.00     0.059 A 
ATOM     69  F   UNL A   1      37.062  33.534  33.047  1.00  0.00    -0.206 F 
ATOM     70  C   UNL A   1      34.154  35.121  31.626  1.00  0.00     0.060 A 
BRANCH  70  71
ATOM     71  S   UNL A   1      32.695  36.052  32.137  1.00  0.00     0.124 S 
ATOM     72  O   UNL A   1      33.211  36.858  33.240  1.00  0.00    -0.237 OA
ATOM     73  O   UNL A   1      32.362  36.784  30.921  1.00  0.00    -0.237 OA
ATOM     74  O   UNL A   1      31.748  35.012  32.526  1.00  0.00    -0.744 OA
ENDBRANCH  70  71
ENDBRANCH  49  63
BRANCH  50  75
ATOM     75  C   UNL A   1      44.623  28.872  28.543  1.00  0.00     0.058 A 
ATOM     76  C   UNL A   1      44.065  28.896  27.248  1.00  0.00     0.135 A 
ATOM     77  C   UNL A   1      45.823  28.169  28.714  1.00  0.00     0.135 A 
ATOM     78  F   UNL A   1      42.905  29.537  27.030  1.00  0.00    -0.206 F 
ATOM     79  C   UNL A   1      44.754  28.405  26.142  1.00  0.00     0.059 A 
ATOM     80  C   UNL A   1      46.526  27.660  27.618  1.00  0.00     0.059 A 
ATOM     81  F   UNL A   1      46.400  28.101  29.923  1.00  0.00    -0.206 F 
ATOM     82  C   UNL A   1      46.020  27.857  26.332  1.00  0.00     0.060 A 
BRANCH  82  83
ATOM     83  S   UNL A   1      47.046  27.557  24.871  1.00  0.00     0.124 S 
ATOM     84  O   UNL A   1      46.649  26.206  24.491  1.00  0.00    -0.237 OA
ATOM     85  O   UNL A   1      46.613  28.623  23.963  1.00  0.00    -0.237 OA
ATOM     86  O   UNL A   1      48.405  27.698  25.380  1.00  0.00    -0.744 OA
ENDBRANCH  82  83
ENDBRANCH  50  75
BRANCH  62  87
ATOM     87  C   UNL A   1      42.577  35.888  28.742  1.00  0.00     0.058 A 
ATOM     88  C   UNL A   1      41.920  36.366  27.597  1.00  0.00     0.135 A 
ATOM     89  C   UNL A   1      43.249  36.869  29.515  1.00  0.00     0.135 A 
ATOM     90  F   UNL A   1      41.172  35.556  26.834  1.00  0.00    -0.206 F 
ATOM     91  C   UNL A   1      41.963  37.708  27.216  1.00  0.00     0.059 A 
ATOM     92  C   UNL A   1      43.258  38.220  29.184  1.00  0.00     0.059 A 
ATOM     93  F   UNL A   1      43.911  36.549  30.637  1.00  0.00    -0.206 F 
ATOM     94  C   UNL A   1      42.628  38.630  28.020  1.00  0.00     0.060 A 
BRANCH  94  95
ATOM     95  S   UNL A   1      42.614  40.379  27.586  1.00  0.00     0.124 S 
ATOM     96  O   UNL A   1      41.208  40.716  27.782  1.00  0.00    -0.237 OA
ATOM     97  O   UNL A   1      43.542  40.961  28.550  1.00  0.00    -0.237 OA
ATOM     98  O   UNL A   1      43.078  40.380  26.201  1.00  0.00    -0.744 OA
ENDBRANCH  94  95
ENDBRANCH  62  87
ENDBRANCH  36  37
ENDBRANCH  28  31
ENDBRANCH  26  27
ENDBRANCH   1  26
TORSDOF 18
ENDMDL
