MODEL 1
REMARK VINA RESULT:     -12.5      0.000      0.000
REMARK SMILES C[C@H](C(=O)NCCCCNC(=O)c1ccc(-c2c3nc(c(-c4c(F)cc(S(=O)(=O)[O-])cc4F)c4ccc([nH]4)c(-c4c(F)cc(S(=O)(=O)[O-])cc4F)c4nc(c(-c5c(F)cc(S(=O)(=O)[O-])cc5F)c5ccc2[nH]5)C=C4)C=C3)cc1)c1ccc2c3cc(Cl)ccc3n(C(=O)c3ccc(Cl)cc3)c2c1
REMARK SMILES IDX 7 1 6 2 5 3 3 4 4 5 2 7 1 8 79 9 80 10 101 11 81 12 100 13
REMARK SMILES IDX 82 14 90 15 83 16 89 17 84 18 88 19 85 20 87 21 86 22 91 23
REMARK SMILES IDX 92 24 93 25 94 26 99 27 95 28 98 29 96 30 97 31 8 32 9 33
REMARK SMILES IDX 10 34 11 35 12 37 13 38 14 39 78 40 15 41 77 42 16 43 17 44
REMARK SMILES IDX 18 45 71 46 19 47 76 48 70 49 72 50 20 51 75 52 69 53 68 54
REMARK SMILES IDX 21 56 55 57 34 58 54 59 35 60 38 61 53 62 73 63 36 64 37 65
REMARK SMILES IDX 52 67 74 68 39 69 22 70 23 71 32 72 24 73 25 74 31 75 33 76
REMARK SMILES IDX 26 77 27 78 28 79 29 80 30 81 56 82 57 83 66 84 58 85 59 86
REMARK SMILES IDX 65 87 67 88 60 89 61 90 62 91 63 92 64 93 40 94 41 95 50 96
REMARK SMILES IDX 42 97 43 98 49 99 51 100 44 101 45 102 46 103 47 104 48 105
REMARK H PARENT 5 6 10 36 72 55 38 66
REMARK Flexibility Score: inf
ROOT
ATOM      1  C   UNL A   1      35.929  30.458  27.582  1.00  0.00     0.023 C 
ENDROOT
BRANCH   1   2
ATOM      2  C   UNL A   1      34.976  29.264  27.566  1.00  0.00     0.116 C 
BRANCH   2   3
ATOM      3  N   UNL A   1      34.516  28.982  26.223  1.00  0.00    -0.356 N 
ATOM      4  C   UNL A   1      33.708  28.034  25.693  1.00  0.00     0.227 C 
ATOM      5  O   UNL A   1      33.594  28.099  24.458  1.00  0.00    -0.274 OA
ATOM      6  H   UNL A   1      34.863  29.614  25.553  1.00  0.00     0.163 HD
BRANCH   4   7
ATOM      7  C   UNL A   1      32.932  26.931  26.436  1.00  0.00     0.105 C 
ATOM      8  C   UNL A   1      31.493  27.407  26.672  1.00  0.00     0.023 C 
BRANCH   7   9
ATOM      9  C   UNL A   1      32.954  25.482  25.974  1.00  0.00    -0.034 A 
ATOM     10  C   UNL A   1      31.777  24.729  25.999  1.00  0.00     0.005 A 
ATOM     11  C   UNL A   1      34.118  24.883  25.463  1.00  0.00     0.032 A 
ATOM     12  C   UNL A   1      31.759  23.395  25.576  1.00  0.00     0.011 A 
ATOM     13  C   UNL A   1      34.143  23.495  25.191  1.00  0.00     0.057 A 
ATOM     14  C   UNL A   1      32.966  22.756  25.222  1.00  0.00     0.008 A 
ATOM     15  N   UNL A   1      35.217  22.614  24.927  1.00  0.00    -0.276 N 
ATOM     16  C   UNL A   1      33.297  21.419  24.888  1.00  0.00     0.009 A 
ATOM     17  C   UNL A   1      34.697  21.308  24.923  1.00  0.00     0.057 A 
ATOM     18  C   UNL A   1      32.502  20.274  24.663  1.00  0.00     0.031 A 
ATOM     19  C   UNL A   1      35.288  20.029  24.915  1.00  0.00     0.029 A 
ATOM     20  C   UNL A   1      33.111  19.032  24.531  1.00  0.00     0.041 A 
ATOM     21  C   UNL A   1      34.480  18.903  24.696  1.00  0.00     0.023 A 
ATOM     22  Cl  UNL A   1      32.147  17.644  24.202  1.00  0.00    -0.084 Cl
BRANCH  15  23
ATOM     23  C   UNL A   1      36.561  23.062  24.759  1.00  0.00     0.262 C 
ATOM     24  O   UNL A   1      36.809  23.713  23.739  1.00  0.00    -0.268 OA
BRANCH  23  25
ATOM     25  C   UNL A   1      37.723  22.928  25.662  1.00  0.00     0.040 A 
ATOM     26  C   UNL A   1      38.069  24.075  26.400  1.00  0.00     0.015 A 
ATOM     27  C   UNL A   1      38.573  21.824  25.684  1.00  0.00     0.015 A 
ATOM     28  C   UNL A   1      39.209  24.097  27.204  1.00  0.00     0.021 A 
ATOM     29  C   UNL A   1      39.704  21.835  26.514  1.00  0.00     0.021 A 
ATOM     30  C   UNL A   1      40.016  22.968  27.269  1.00  0.00     0.041 A 
ATOM     31  Cl  UNL A   1      41.427  22.987  28.252  1.00  0.00    -0.084 Cl
ENDBRANCH  23  25
ENDBRANCH  15  23
ENDBRANCH   7   9
ENDBRANCH   4   7
ENDBRANCH   2   3
ENDBRANCH   1   2
BRANCH   1  32
ATOM     32  C   UNL A   1      35.261  31.826  27.640  1.00  0.00     0.023 C 
BRANCH  32  33
ATOM     33  C   UNL A   1      33.770  31.802  27.951  1.00  0.00     0.116 C 
BRANCH  33  34
ATOM     34  N   UNL A   1      33.164  33.123  28.095  1.00  0.00    -0.352 N 
ATOM     35  C   UNL A   1      33.485  34.138  28.974  1.00  0.00     0.251 C 
ATOM     36  H   UNL A   1      32.421  33.317  27.478  1.00  0.00     0.163 HD
ATOM     37  O   UNL A   1      32.813  35.156  29.017  1.00  0.00    -0.269 OA
BRANCH  35  38
ATOM     38  C   UNL A   1      34.637  33.946  29.883  1.00  0.00     0.039 A 
ATOM     39  C   UNL A   1      34.521  33.081  30.974  1.00  0.00     0.014 A 
ATOM     40  C   UNL A   1      35.856  34.556  29.588  1.00  0.00     0.014 A 
ATOM     41  C   UNL A   1      35.665  32.738  31.702  1.00  0.00     0.010 A 
ATOM     42  C   UNL A   1      37.002  34.145  30.253  1.00  0.00     0.010 A 
ATOM     43  C   UNL A   1      36.922  33.223  31.310  1.00  0.00    -0.014 A 
BRANCH  43  44
ATOM     44  C   UNL A   1      38.190  32.796  31.958  1.00  0.00     0.031 A 
ATOM     45  C   UNL A   1      39.117  31.871  31.216  1.00  0.00     0.074 A 
ATOM     46  C   UNL A   1      38.426  33.105  33.249  1.00  0.00     0.049 A 
ATOM     47  N   UNL A   1      40.131  31.181  31.666  1.00  0.00    -0.248 NA
ATOM     48  C   UNL A   1      38.828  31.656  29.789  1.00  0.00     0.031 C 
ATOM     49  C   UNL A   1      37.574  33.944  34.095  1.00  0.00     0.029 A 
ATOM     50  N   UNL A   1      39.440  32.713  34.090  1.00  0.00    -0.354 N 
ATOM     51  C   UNL A   1      40.567  30.412  30.593  1.00  0.00     0.074 A 
ATOM     52  C   UNL A   1      39.686  30.695  29.481  1.00  0.00     0.031 C 
ATOM     53  C   UNL A   1      38.101  34.005  35.330  1.00  0.00     0.029 A 
ATOM     54  C   UNL A   1      39.299  33.175  35.379  1.00  0.00     0.049 A 
ATOM     55  H   UNL A   1      40.197  32.155  33.797  1.00  0.00     0.167 HD
ATOM     56  C   UNL A   1      41.618  29.560  30.537  1.00  0.00     0.037 A 
ATOM     57  C   UNL A   1      40.038  32.934  36.480  1.00  0.00     0.037 A 
ATOM     58  C   UNL A   1      42.531  29.340  31.626  1.00  0.00     0.049 A 
ATOM     59  C   UNL A   1      41.229  32.021  36.380  1.00  0.00     0.074 A 
ATOM     60  C   UNL A   1      43.689  28.585  31.637  1.00  0.00     0.029 A 
ATOM     61  N   UNL A   1      42.394  29.885  32.894  1.00  0.00    -0.354 N 
ATOM     62  N   UNL A   1      41.668  31.353  35.339  1.00  0.00    -0.248 NA
ATOM     63  C   UNL A   1      42.025  31.825  37.599  1.00  0.00     0.031 C 
ATOM     64  C   UNL A   1      44.238  28.648  32.921  1.00  0.00     0.029 A 
ATOM     65  C   UNL A   1      43.439  29.469  33.700  1.00  0.00     0.049 A 
ATOM     66  H   UNL A   1      41.662  30.480  33.179  1.00  0.00     0.167 HD
ATOM     67  C   UNL A   1      42.801  30.674  35.774  1.00  0.00     0.074 A 
ATOM     68  C   UNL A   1      42.988  31.020  37.168  1.00  0.00     0.031 C 
ATOM     69  C   UNL A   1      43.613  29.838  35.083  1.00  0.00     0.037 A 
BRANCH  56  70
ATOM     70  C   UNL A   1      41.844  28.813  29.253  1.00  0.00     0.058 A 
ATOM     71  C   UNL A   1      41.211  27.588  28.991  1.00  0.00     0.135 A 
ATOM     72  C   UNL A   1      42.679  29.347  28.258  1.00  0.00     0.135 A 
ATOM     73  F   UNL A   1      40.417  27.027  29.916  1.00  0.00    -0.206 F 
ATOM     74  C   UNL A   1      41.422  26.903  27.800  1.00  0.00     0.059 A 
ATOM     75  C   UNL A   1      42.883  28.690  27.048  1.00  0.00     0.059 A 
ATOM     76  F   UNL A   1      43.310  30.515  28.459  1.00  0.00    -0.206 F 
ATOM     77  C   UNL A   1      42.261  27.461  26.835  1.00  0.00     0.060 A 
BRANCH  77  78
ATOM     78  S   UNL A   1      42.519  26.561  25.291  1.00  0.00     0.124 S 
ATOM     79  O   UNL A   1      43.602  25.655  25.663  1.00  0.00    -0.237 OA
ATOM     80  O   UNL A   1      41.218  25.936  25.072  1.00  0.00    -0.237 OA
ATOM     81  O   UNL A   1      42.876  27.611  24.343  1.00  0.00    -0.744 OA
ENDBRANCH  77  78
ENDBRANCH  56  70
BRANCH  57  82
ATOM     82  C   UNL A   1      39.676  33.570  37.775  1.00  0.00     0.058 A 
ATOM     83  C   UNL A   1      38.677  33.017  38.590  1.00  0.00     0.135 A 
ATOM     84  C   UNL A   1      40.317  34.734  38.224  1.00  0.00     0.135 A 
ATOM     85  F   UNL A   1      38.031  31.908  38.199  1.00  0.00    -0.206 F 
ATOM     86  C   UNL A   1      38.314  33.604  39.798  1.00  0.00     0.059 A 
ATOM     87  C   UNL A   1      39.986  35.328  39.439  1.00  0.00     0.059 A 
ATOM     88  F   UNL A   1      41.291  35.292  37.489  1.00  0.00    -0.206 F 
ATOM     89  C   UNL A   1      38.975  34.761  40.214  1.00  0.00     0.060 A 
BRANCH  89  90
ATOM     90  S   UNL A   1      38.526  35.492  41.804  1.00  0.00     0.124 S 
ATOM     91  O   UNL A   1      39.482  34.851  42.700  1.00  0.00    -0.237 OA
ATOM     92  O   UNL A   1      38.736  36.915  41.560  1.00  0.00    -0.237 OA
ATOM     93  O   UNL A   1      37.132  35.093  41.972  1.00  0.00    -0.744 OA
ENDBRANCH  89  90
ENDBRANCH  57  82
BRANCH  69  94
ATOM     94  C   UNL A   1      44.792  29.258  35.807  1.00  0.00     0.058 A 
ATOM     95  C   UNL A   1      46.057  29.861  35.748  1.00  0.00     0.135 A 
ATOM     96  C   UNL A   1      44.634  28.135  36.636  1.00  0.00     0.135 A 
ATOM     97  F   UNL A   1      46.258  30.932  34.965  1.00  0.00    -0.206 F 
ATOM     98  C   UNL A   1      47.129  29.368  36.483  1.00  0.00     0.059 A 
ATOM     99  C   UNL A   1      45.687  27.638  37.396  1.00  0.00     0.059 A 
ATOM    100  F   UNL A   1      43.441  27.527  36.732  1.00  0.00    -0.206 F 
ATOM    101  C   UNL A   1      46.933  28.259  37.310  1.00  0.00     0.060 A 
BRANCH 101 102
ATOM    102  S   UNL A   1      48.315  27.667  38.309  1.00  0.00     0.124 S 
ATOM    103  O   UNL A   1      47.762  27.757  39.656  1.00  0.00    -0.237 OA
ATOM    104  O   UNL A   1      48.518  26.316  37.795  1.00  0.00    -0.237 OA
ATOM    105  O   UNL A   1      49.384  28.614  38.002  1.00  0.00    -0.744 OA
ENDBRANCH 101 102
ENDBRANCH  69  94
ENDBRANCH  43  44
ENDBRANCH  35  38
ENDBRANCH  33  34
ENDBRANCH  32  33
ENDBRANCH   1  32
TORSDOF 17
ENDMDL
MODEL 2
REMARK VINA RESULT:     -12.4      0.539      7.856
REMARK SMILES C[C@H](C(=O)NCCCCNC(=O)c1ccc(-c2c3nc(c(-c4c(F)cc(S(=O)(=O)[O-])cc4F)c4ccc([nH]4)c(-c4c(F)cc(S(=O)(=O)[O-])cc4F)c4nc(c(-c5c(F)cc(S(=O)(=O)[O-])cc5F)c5ccc2[nH]5)C=C4)C=C3)cc1)c1ccc2c3cc(Cl)ccc3n(C(=O)c3ccc(Cl)cc3)c2c1
REMARK SMILES IDX 7 1 6 2 5 3 3 4 4 5 2 7 1 8 79 9 80 10 101 11 81 12 100 13
REMARK SMILES IDX 82 14 90 15 83 16 89 17 84 18 88 19 85 20 87 21 86 22 91 23
REMARK SMILES IDX 92 24 93 25 94 26 99 27 95 28 98 29 96 30 97 31 8 32 9 33
REMARK SMILES IDX 10 34 11 35 12 37 13 38 14 39 78 40 15 41 77 42 16 43 17 44
REMARK SMILES IDX 18 45 71 46 19 47 76 48 70 49 72 50 20 51 75 52 69 53 68 54
REMARK SMILES IDX 21 56 55 57 34 58 54 59 35 60 38 61 53 62 73 63 36 64 37 65
REMARK SMILES IDX 52 67 74 68 39 69 22 70 23 71 32 72 24 73 25 74 31 75 33 76
REMARK SMILES IDX 26 77 27 78 28 79 29 80 30 81 56 82 57 83 66 84 58 85 59 86
REMARK SMILES IDX 65 87 67 88 60 89 61 90 62 91 63 92 64 93 40 94 41 95 50 96
REMARK SMILES IDX 42 97 43 98 49 99 51 100 44 101 45 102 46 103 47 104 48 105
REMARK H PARENT 5 6 10 36 72 55 38 66
REMARK Flexibility Score: inf
ROOT
ATOM      1  C   UNL A   1      35.675  30.726  27.647  1.00  0.00     0.023 C 
ENDROOT
BRANCH   1   2
ATOM      2  C   UNL A   1      34.602  29.640  27.597  1.00  0.00     0.116 C 
BRANCH   2   3
ATOM      3  N   UNL A   1      34.398  29.167  26.245  1.00  0.00    -0.356 N 
ATOM      4  C   UNL A   1      33.788  28.081  25.718  1.00  0.00     0.227 C 
ATOM      5  O   UNL A   1      33.873  28.003  24.481  1.00  0.00    -0.274 OA
ATOM      6  H   UNL A   1      34.787  29.764  25.563  1.00  0.00     0.163 HD
BRANCH   4   7
ATOM      7  C   UNL A   1      33.015  26.977  26.462  1.00  0.00     0.105 C 
ATOM      8  C   UNL A   1      31.578  27.456  26.710  1.00  0.00     0.023 C 
BRANCH   7   9
ATOM      9  C   UNL A   1      33.030  25.530  25.995  1.00  0.00    -0.034 A 
ATOM     10  C   UNL A   1      31.849  24.783  26.015  1.00  0.00     0.005 A 
ATOM     11  C   UNL A   1      34.191  24.927  25.485  1.00  0.00     0.032 A 
ATOM     12  C   UNL A   1      31.825  23.451  25.588  1.00  0.00     0.011 A 
ATOM     13  C   UNL A   1      34.210  23.539  25.208  1.00  0.00     0.057 A 
ATOM     14  C   UNL A   1      33.029  22.807  25.234  1.00  0.00     0.008 A 
ATOM     15  N   UNL A   1      35.279  22.654  24.943  1.00  0.00    -0.276 N 
ATOM     16  C   UNL A   1      33.354  21.469  24.895  1.00  0.00     0.009 A 
ATOM     17  C   UNL A   1      34.753  21.351  24.934  1.00  0.00     0.057 A 
ATOM     18  C   UNL A   1      32.553  20.329  24.665  1.00  0.00     0.031 A 
ATOM     19  C   UNL A   1      35.337  20.069  24.922  1.00  0.00     0.029 A 
ATOM     20  C   UNL A   1      33.155  19.084  24.530  1.00  0.00     0.041 A 
ATOM     21  C   UNL A   1      34.524  18.947  24.697  1.00  0.00     0.023 A 
ATOM     22  Cl  UNL A   1      32.185  17.703  24.194  1.00  0.00    -0.084 Cl
BRANCH  15  23
ATOM     23  C   UNL A   1      36.627  23.095  24.779  1.00  0.00     0.262 C 
ATOM     24  O   UNL A   1      36.890  23.711  23.742  1.00  0.00    -0.268 OA
BRANCH  23  25
ATOM     25  C   UNL A   1      37.775  22.991  25.704  1.00  0.00     0.040 A 
ATOM     26  C   UNL A   1      38.135  24.171  26.380  1.00  0.00     0.015 A 
ATOM     27  C   UNL A   1      38.604  21.875  25.799  1.00  0.00     0.015 A 
ATOM     28  C   UNL A   1      39.265  24.219  27.195  1.00  0.00     0.021 A 
ATOM     29  C   UNL A   1      39.725  21.912  26.641  1.00  0.00     0.021 A 
ATOM     30  C   UNL A   1      40.050  23.080  27.335  1.00  0.00     0.041 A 
ATOM     31  Cl  UNL A   1      41.449  23.129  28.332  1.00  0.00    -0.084 Cl
ENDBRANCH  23  25
ENDBRANCH  15  23
ENDBRANCH   7   9
ENDBRANCH   4   7
ENDBRANCH   2   3
ENDBRANCH   1   2
BRANCH   1  32
ATOM     32  C   UNL A   1      35.155  32.158  27.664  1.00  0.00     0.023 C 
BRANCH  32  33
ATOM     33  C   UNL A   1      33.661  32.297  27.927  1.00  0.00     0.116 C 
BRANCH  33  34
ATOM     34  N   UNL A   1      33.235  33.650  28.279  1.00  0.00    -0.352 N 
ATOM     35  C   UNL A   1      33.637  34.442  29.337  1.00  0.00     0.251 C 
ATOM     36  H   UNL A   1      32.567  34.053  27.678  1.00  0.00     0.163 HD
ATOM     37  O   UNL A   1      33.111  35.525  29.533  1.00  0.00    -0.269 OA
BRANCH  35  38
ATOM     38  C   UNL A   1      34.690  33.930  30.241  1.00  0.00     0.039 A 
ATOM     39  C   UNL A   1      34.418  32.842  31.073  1.00  0.00     0.014 A 
ATOM     40  C   UNL A   1      35.972  34.478  30.186  1.00  0.00     0.014 A 
ATOM     41  C   UNL A   1      35.468  32.229  31.766  1.00  0.00     0.010 A 
ATOM     42  C   UNL A   1      37.024  33.814  30.800  1.00  0.00     0.010 A 
ATOM     43  C   UNL A   1      36.787  32.676  31.588  1.00  0.00    -0.014 A 
BRANCH  43  44
ATOM     44  C   UNL A   1      37.960  31.990  32.190  1.00  0.00     0.031 A 
ATOM     45  C   UNL A   1      38.358  32.323  33.602  1.00  0.00     0.074 A 
ATOM     46  C   UNL A   1      38.747  31.203  31.428  1.00  0.00     0.049 A 
ATOM     47  N   UNL A   1      39.467  32.046  34.236  1.00  0.00    -0.248 NA
ATOM     48  C   UNL A   1      37.400  33.120  34.386  1.00  0.00     0.031 C 
ATOM     49  C   UNL A   1      38.501  30.852  30.028  1.00  0.00     0.029 A 
ATOM     50  N   UNL A   1      39.940  30.585  31.717  1.00  0.00    -0.354 N 
ATOM     51  C   UNL A   1      39.361  32.678  35.469  1.00  0.00     0.074 A 
ATOM     52  C   UNL A   1      38.097  33.380  35.481  1.00  0.00     0.031 C 
ATOM     53  C   UNL A   1      39.508  30.081  29.582  1.00  0.00     0.029 A 
ATOM     54  C   UNL A   1      40.493  29.922  30.646  1.00  0.00     0.049 A 
ATOM     55  H   UNL A   1      40.359  30.614  32.608  1.00  0.00     0.167 HD
ATOM     56  C   UNL A   1      40.234  32.659  36.505  1.00  0.00     0.037 A 
ATOM     57  C   UNL A   1      41.673  29.281  30.528  1.00  0.00     0.037 A 
ATOM     58  C   UNL A   1      41.455  31.899  36.510  1.00  0.00     0.049 A 
ATOM     59  C   UNL A   1      42.604  29.234  31.709  1.00  0.00     0.074 A 
ATOM     60  C   UNL A   1      42.352  31.724  37.548  1.00  0.00     0.029 A 
ATOM     61  N   UNL A   1      41.943  31.180  35.430  1.00  0.00    -0.354 N 
ATOM     62  N   UNL A   1      42.459  29.781  32.894  1.00  0.00    -0.248 NA
ATOM     63  C   UNL A   1      43.858  28.487  31.542  1.00  0.00     0.031 C 
ATOM     64  C   UNL A   1      43.401  30.922  37.086  1.00  0.00     0.029 A 
ATOM     65  C   UNL A   1      43.139  30.573  35.771  1.00  0.00     0.049 A 
ATOM     66  H   UNL A   1      41.505  31.113  34.551  1.00  0.00     0.167 HD
ATOM     67  C   UNL A   1      43.593  29.427  33.617  1.00  0.00     0.074 A 
ATOM     68  C   UNL A   1      44.410  28.611  32.742  1.00  0.00     0.031 C 
ATOM     69  C   UNL A   1      43.929  29.751  34.888  1.00  0.00     0.037 A 
BRANCH  56  70
ATOM     70  C   UNL A   1      39.893  33.473  37.720  1.00  0.00     0.058 A 
ATOM     71  C   UNL A   1      40.490  34.719  37.966  1.00  0.00     0.135 A 
ATOM     72  C   UNL A   1      38.931  33.015  38.635  1.00  0.00     0.135 A 
ATOM     73  F   UNL A   1      41.428  35.195  37.132  1.00  0.00    -0.206 F 
ATOM     74  C   UNL A   1      40.169  35.469  39.092  1.00  0.00     0.059 A 
ATOM     75  C   UNL A   1      38.574  33.761  39.755  1.00  0.00     0.059 A 
ATOM     76  F   UNL A   1      38.330  31.828  38.449  1.00  0.00    -0.206 F 
ATOM     77  C   UNL A   1      39.211  34.981  39.982  1.00  0.00     0.060 A 
BRANCH  77  78
ATOM     78  S   UNL A   1      38.800  35.970  41.435  1.00  0.00     0.124 S 
ATOM     79  O   UNL A   1      37.549  35.349  41.862  1.00  0.00    -0.237 OA
ATOM     80  O   UNL A   1      39.949  35.742  42.305  1.00  0.00    -0.237 OA
ATOM     81  O   UNL A   1      38.679  37.323  40.900  1.00  0.00    -0.744 OA
ENDBRANCH  77  78
ENDBRANCH  56  70
BRANCH  57  82
ATOM     82  C   UNL A   1      42.042  28.627  29.245  1.00  0.00     0.058 A 
ATOM     83  C   UNL A   1      41.590  27.334  28.944  1.00  0.00     0.135 A 
ATOM     84  C   UNL A   1      42.845  29.277  28.296  1.00  0.00     0.135 A 
ATOM     85  F   UNL A   1      40.826  26.669  29.824  1.00  0.00    -0.206 F 
ATOM     86  C   UNL A   1      41.936  26.699  27.756  1.00  0.00     0.059 A 
ATOM     87  C   UNL A   1      43.186  28.671  27.090  1.00  0.00     0.059 A 
ATOM     88  F   UNL A   1      43.288  30.522  28.528  1.00  0.00    -0.206 F 
ATOM     89  C   UNL A   1      42.736  27.376  26.834  1.00  0.00     0.060 A 
BRANCH  89  90
ATOM     90  S   UNL A   1      43.144  26.560  25.275  1.00  0.00     0.124 S 
ATOM     91  O   UNL A   1      42.281  25.386  25.325  1.00  0.00    -0.237 OA
ATOM     92  O   UNL A   1      42.783  27.576  24.291  1.00  0.00    -0.237 OA
ATOM     93  O   UNL A   1      44.575  26.301  25.399  1.00  0.00    -0.744 OA
ENDBRANCH  89  90
ENDBRANCH  57  82
BRANCH  69  94
ATOM     94  C   UNL A   1      45.219  29.205  35.426  1.00  0.00     0.058 A 
ATOM     95  C   UNL A   1      46.409  29.943  35.367  1.00  0.00     0.135 A 
ATOM     96  C   UNL A   1      45.244  27.963  36.083  1.00  0.00     0.135 A 
ATOM     97  F   UNL A   1      46.435  31.133  34.744  1.00  0.00    -0.206 F 
ATOM     98  C   UNL A   1      47.586  29.469  35.937  1.00  0.00     0.059 A 
ATOM     99  C   UNL A   1      46.404  27.479  36.678  1.00  0.00     0.059 A 
ATOM    100  F   UNL A   1      44.128  27.222  36.172  1.00  0.00    -0.206 F 
ATOM    101  C   UNL A   1      47.572  28.237  36.595  1.00  0.00     0.060 A 
BRANCH 101 102
ATOM    102  S   UNL A   1      49.088  27.661  37.387  1.00  0.00     0.124 S 
ATOM    103  O   UNL A   1      48.821  26.234  37.529  1.00  0.00    -0.237 OA
ATOM    104  O   UNL A   1      50.110  28.020  36.408  1.00  0.00    -0.237 OA
ATOM    105  O   UNL A   1      49.129  28.422  38.633  1.00  0.00    -0.744 OA
ENDBRANCH 101 102
ENDBRANCH  69  94
ENDBRANCH  43  44
ENDBRANCH  35  38
ENDBRANCH  33  34
ENDBRANCH  32  33
ENDBRANCH   1  32
TORSDOF 17
ENDMDL
MODEL 3
REMARK VINA RESULT:     -12.3      5.845     12.337
REMARK SMILES C[C@H](C(=O)NCCCCNC(=O)c1ccc(-c2c3nc(c(-c4c(F)cc(S(=O)(=O)[O-])cc4F)c4ccc([nH]4)c(-c4c(F)cc(S(=O)(=O)[O-])cc4F)c4nc(c(-c5c(F)cc(S(=O)(=O)[O-])cc5F)c5ccc2[nH]5)C=C4)C=C3)cc1)c1ccc2c3cc(Cl)ccc3n(C(=O)c3ccc(Cl)cc3)c2c1
REMARK SMILES IDX 7 1 6 2 5 3 3 4 4 5 2 7 1 8 79 9 80 10 101 11 81 12 100 13
REMARK SMILES IDX 82 14 90 15 83 16 89 17 84 18 88 19 85 20 87 21 86 22 91 23
REMARK SMILES IDX 92 24 93 25 94 26 99 27 95 28 98 29 96 30 97 31 8 32 9 33
REMARK SMILES IDX 10 34 11 35 12 37 13 38 14 39 78 40 15 41 77 42 16 43 17 44
REMARK SMILES IDX 18 45 71 46 19 47 76 48 70 49 72 50 20 51 75 52 69 53 68 54
REMARK SMILES IDX 21 56 55 57 34 58 54 59 35 60 38 61 53 62 73 63 36 64 37 65
REMARK SMILES IDX 52 67 74 68 39 69 22 70 23 71 32 72 24 73 25 74 31 75 33 76
REMARK SMILES IDX 26 77 27 78 28 79 29 80 30 81 56 82 57 83 66 84 58 85 59 86
REMARK SMILES IDX 65 87 67 88 60 89 61 90 62 91 63 92 64 93 40 94 41 95 50 96
REMARK SMILES IDX 42 97 43 98 49 99 51 100 44 101 45 102 46 103 47 104 48 105
REMARK H PARENT 5 6 10 36 72 55 38 66
REMARK Flexibility Score: inf
ROOT
ATOM      1  C   UNL A   1      36.364  34.200  31.351  1.00  0.00     0.023 C 
ENDROOT
BRANCH   1   2
ATOM      2  C   UNL A   1      37.180  33.635  32.513  1.00  0.00     0.116 C 
BRANCH   2   3
ATOM      3  N   UNL A   1      36.474  33.783  33.767  1.00  0.00    -0.356 N 
ATOM      4  C   UNL A   1      36.806  33.549  35.058  1.00  0.00     0.227 C 
ATOM      5  O   UNL A   1      35.884  33.758  35.864  1.00  0.00    -0.274 OA
ATOM      6  H   UNL A   1      35.557  34.126  33.659  1.00  0.00     0.163 HD
BRANCH   4   7
ATOM      7  C   UNL A   1      38.163  33.082  35.615  1.00  0.00     0.105 C 
ATOM      8  C   UNL A   1      37.955  32.519  37.027  1.00  0.00     0.023 C 
BRANCH   7   9
ATOM      9  C   UNL A   1      39.100  32.194  34.811  1.00  0.00    -0.034 A 
ATOM     10  C   UNL A   1      38.933  30.807  34.838  1.00  0.00     0.005 A 
ATOM     11  C   UNL A   1      40.104  32.729  33.986  1.00  0.00     0.032 A 
ATOM     12  C   UNL A   1      39.773  29.960  34.106  1.00  0.00     0.011 A 
ATOM     13  C   UNL A   1      41.055  31.875  33.378  1.00  0.00     0.057 A 
ATOM     14  C   UNL A   1      40.879  30.497  33.415  1.00  0.00     0.008 A 
ATOM     15  N   UNL A   1      42.282  32.153  32.734  1.00  0.00    -0.276 N 
ATOM     16  C   UNL A   1      41.963  29.915  32.710  1.00  0.00     0.009 A 
ATOM     17  C   UNL A   1      42.916  30.923  32.491  1.00  0.00     0.057 A 
ATOM     18  C   UNL A   1      42.244  28.581  32.340  1.00  0.00     0.031 A 
ATOM     19  C   UNL A   1      44.212  30.566  32.070  1.00  0.00     0.029 A 
ATOM     20  C   UNL A   1      43.489  28.266  31.808  1.00  0.00     0.041 A 
ATOM     21  C   UNL A   1      44.475  29.235  31.712  1.00  0.00     0.023 A 
ATOM     22  Cl  UNL A   1      43.814  26.652  31.305  1.00  0.00    -0.084 Cl
BRANCH  15  23
ATOM     23  C   UNL A   1      42.733  33.481  32.467  1.00  0.00     0.262 C 
ATOM     24  O   UNL A   1      43.420  34.022  33.338  1.00  0.00    -0.268 OA
BRANCH  23  25
ATOM     25  C   UNL A   1      42.564  34.311  31.257  1.00  0.00     0.040 A 
ATOM     26  C   UNL A   1      41.305  34.249  30.633  1.00  0.00     0.015 A 
ATOM     27  C   UNL A   1      43.605  34.985  30.620  1.00  0.00     0.015 A 
ATOM     28  C   UNL A   1      41.065  34.906  29.426  1.00  0.00     0.021 A 
ATOM     29  C   UNL A   1      43.357  35.671  29.421  1.00  0.00     0.021 A 
ATOM     30  C   UNL A   1      42.092  35.630  28.831  1.00  0.00     0.041 A 
ATOM     31  Cl  UNL A   1      41.809  36.439  27.341  1.00  0.00    -0.084 Cl
ENDBRANCH  23  25
ENDBRANCH  15  23
ENDBRANCH   7   9
ENDBRANCH   4   7
ENDBRANCH   2   3
ENDBRANCH   1   2
BRANCH   1  32
ATOM     32  C   UNL A   1      35.616  33.169  30.515  1.00  0.00     0.023 C 
BRANCH  32  33
ATOM     33  C   UNL A   1      36.133  31.742  30.642  1.00  0.00     0.116 C 
BRANCH  33  34
ATOM     34  N   UNL A   1      35.485  30.786  29.747  1.00  0.00    -0.352 N 
ATOM     35  C   UNL A   1      36.058  29.893  28.863  1.00  0.00     0.251 C 
ATOM     36  H   UNL A   1      34.500  30.777  29.778  1.00  0.00     0.163 HD
ATOM     37  O   UNL A   1      35.359  29.221  28.122  1.00  0.00    -0.269 OA
BRANCH  35  38
ATOM     38  C   UNL A   1      37.534  29.799  28.814  1.00  0.00     0.039 A 
ATOM     39  C   UNL A   1      38.255  29.605  29.995  1.00  0.00     0.014 A 
ATOM     40  C   UNL A   1      38.184  29.811  27.580  1.00  0.00     0.014 A 
ATOM     41  C   UNL A   1      39.619  29.306  29.924  1.00  0.00     0.010 A 
ATOM     42  C   UNL A   1      39.514  29.425  27.507  1.00  0.00     0.010 A 
ATOM     43  C   UNL A   1      40.245  29.157  28.676  1.00  0.00    -0.014 A 
BRANCH  43  44
ATOM     44  C   UNL A   1      41.656  28.714  28.529  1.00  0.00     0.031 A 
ATOM     45  C   UNL A   1      42.752  29.745  28.529  1.00  0.00     0.074 A 
ATOM     46  C   UNL A   1      41.934  27.426  28.240  1.00  0.00     0.049 A 
ATOM     47  N   UNL A   1      44.003  29.623  28.172  1.00  0.00    -0.248 NA
ATOM     48  C   UNL A   1      42.373  31.108  28.936  1.00  0.00     0.031 C 
ATOM     49  C   UNL A   1      40.953  26.342  28.152  1.00  0.00     0.029 A 
ATOM     50  N   UNL A   1      43.125  26.818  27.927  1.00  0.00    -0.354 N 
ATOM     51  C   UNL A   1      44.545  30.900  28.261  1.00  0.00     0.074 A 
ATOM     52  C   UNL A   1      43.478  31.787  28.671  1.00  0.00     0.031 C 
ATOM     53  C   UNL A   1      41.581  25.204  27.811  1.00  0.00     0.029 A 
ATOM     54  C   UNL A   1      42.999  25.484  27.611  1.00  0.00     0.049 A 
ATOM     55  H   UNL A   1      43.988  27.291  27.930  1.00  0.00     0.167 HD
ATOM     56  C   UNL A   1      45.821  31.293  28.035  1.00  0.00     0.037 A 
ATOM     57  C   UNL A   1      43.917  24.596  27.182  1.00  0.00     0.037 A 
ATOM     58  C   UNL A   1      46.890  30.392  27.698  1.00  0.00     0.049 A 
ATOM     59  C   UNL A   1      45.339  25.047  26.986  1.00  0.00     0.074 A 
ATOM     60  C   UNL A   1      48.236  30.671  27.559  1.00  0.00     0.029 A 
ATOM     61  N   UNL A   1      46.733  29.035  27.458  1.00  0.00    -0.354 N 
ATOM     62  N   UNL A   1      45.851  26.246  27.139  1.00  0.00    -0.248 NA
ATOM     63  C   UNL A   1      46.309  24.031  26.557  1.00  0.00     0.031 C 
ATOM     64  C   UNL A   1      48.892  29.488  27.204  1.00  0.00     0.029 A 
ATOM     65  C   UNL A   1      47.957  28.466  27.155  1.00  0.00     0.049 A 
ATOM     66  H   UNL A   1      45.878  28.549  27.497  1.00  0.00     0.167 HD
ATOM     67  C   UNL A   1      47.204  26.122  26.845  1.00  0.00     0.074 A 
ATOM     68  C   UNL A   1      47.435  24.731  26.515  1.00  0.00     0.031 C 
ATOM     69  C   UNL A   1      48.168  27.075  26.844  1.00  0.00     0.037 A 
BRANCH  56  70
ATOM     70  C   UNL A   1      46.133  32.757  28.161  1.00  0.00     0.058 A 
ATOM     71  C   UNL A   1      46.651  33.303  29.346  1.00  0.00     0.135 A 
ATOM     72  C   UNL A   1      45.942  33.621  27.070  1.00  0.00     0.135 A 
ATOM     73  F   UNL A   1      46.835  32.524  30.423  1.00  0.00    -0.206 F 
ATOM     74  C   UNL A   1      46.939  34.658  29.455  1.00  0.00     0.059 A 
ATOM     75  C   UNL A   1      46.249  34.975  27.148  1.00  0.00     0.059 A 
ATOM     76  F   UNL A   1      45.447  33.150  25.913  1.00  0.00    -0.206 F 
ATOM     77  C   UNL A   1      46.733  35.487  28.352  1.00  0.00     0.060 A 
BRANCH  77  78
ATOM     78  S   UNL A   1      47.120  37.244  28.508  1.00  0.00     0.124 S 
ATOM     79  O   UNL A   1      45.913  37.855  27.958  1.00  0.00    -0.237 OA
ATOM     80  O   UNL A   1      47.307  37.397  29.948  1.00  0.00    -0.237 OA
ATOM     81  O   UNL A   1      48.326  37.398  27.701  1.00  0.00    -0.744 OA
ENDBRANCH  77  78
ENDBRANCH  56  70
BRANCH  57  82
ATOM     82  C   UNL A   1      43.524  23.188  26.911  1.00  0.00     0.058 A 
ATOM     83  C   UNL A   1      43.207  22.318  27.965  1.00  0.00     0.135 A 
ATOM     84  C   UNL A   1      43.453  22.685  25.603  1.00  0.00     0.135 A 
ATOM     85  F   UNL A   1      43.267  22.751  29.233  1.00  0.00    -0.206 F 
ATOM     86  C   UNL A   1      42.851  20.993  27.733  1.00  0.00     0.059 A 
ATOM     87  C   UNL A   1      43.079  21.369  25.346  1.00  0.00     0.059 A 
ATOM     88  F   UNL A   1      43.730  23.482  24.560  1.00  0.00    -0.206 F 
ATOM     89  C   UNL A   1      42.790  20.527  26.419  1.00  0.00     0.060 A 
BRANCH  89  90
ATOM     90  S   UNL A   1      42.284  18.818  26.127  1.00  0.00     0.124 S 
ATOM     91  O   UNL A   1      43.198  18.421  25.062  1.00  0.00    -0.237 OA
ATOM     92  O   UNL A   1      42.516  18.200  27.429  1.00  0.00    -0.237 OA
ATOM     93  O   UNL A   1      40.882  18.946  25.744  1.00  0.00    -0.744 OA
ENDBRANCH  89  90
ENDBRANCH  57  82
BRANCH  69  94
ATOM     94  C   UNL A   1      49.566  26.648  26.506  1.00  0.00     0.058 A 
ATOM     95  C   UNL A   1      50.395  26.035  27.456  1.00  0.00     0.135 A 
ATOM     96  C   UNL A   1      50.050  26.778  25.194  1.00  0.00     0.135 A 
ATOM     97  F   UNL A   1      49.978  25.894  28.725  1.00  0.00    -0.206 F 
ATOM     98  C   UNL A   1      51.661  25.568  27.120  1.00  0.00     0.059 A 
ATOM     99  C   UNL A   1      51.304  26.300  24.831  1.00  0.00     0.059 A 
ATOM    100  F   UNL A   1      49.291  27.351  24.246  1.00  0.00    -0.206 F 
ATOM    101  C   UNL A   1      52.105  25.700  25.802  1.00  0.00     0.060 A 
BRANCH 101 102
ATOM    102  S   UNL A   1      53.723  25.033  25.362  1.00  0.00     0.124 S 
ATOM    103  O   UNL A   1      54.529  25.436  26.510  1.00  0.00    -0.237 OA
ATOM    104  O   UNL A   1      53.453  23.603  25.249  1.00  0.00    -0.237 OA
ATOM    105  O   UNL A   1      54.036  25.706  24.105  1.00  0.00    -0.744 OA
ENDBRANCH 101 102
ENDBRANCH  69  94
ENDBRANCH  43  44
ENDBRANCH  35  38
ENDBRANCH  33  34
ENDBRANCH  32  33
ENDBRANCH   1  32
TORSDOF 17
ENDMDL
