MODEL 1
REMARK VINA RESULT:     -14.6      0.000      0.000
REMARK SMILES Cc1ccc(-c2nc(NC(=O)[C@H]3[C@@H](C(=O)NCCCCNC(=O)c4ccc(-c5c6nc(c(-c7c(F)cc(S(=O)(=O)[O-])cc7F)c7ccc([nH]7)c(-c7c(F)cc(S(=O)(=O)[O-])cc7F)c7nc(c(-c8c(F)cc(S(=O)(=O)[O-])cc8F)c8ccc5[nH]8)C=C7)C=C6)cc4)[C@@H]4CC[C@H]3O4)sc2C)cc1
REMARK SMILES IDX 18 1 17 2 16 3 14 4 15 5 13 7 12 8 93 9 90 10 92 11 94 12
REMARK SMILES IDX 91 13 10 14 9 15 11 17 8 18 6 19 7 20 96 21 95 22 97 23 5 24
REMARK SMILES IDX 1 25 2 26 3 27 99 28 4 29 98 30 19 31 20 32 21 33 22 34
REMARK SMILES IDX 23 36 24 37 25 38 89 39 26 40 88 41 27 42 28 43 29 44 82 45
REMARK SMILES IDX 30 46 87 47 81 48 83 49 31 50 86 51 80 52 79 53 32 55 66 56
REMARK SMILES IDX 45 57 65 58 46 59 49 60 64 61 84 62 47 63 48 64 63 66 85 67
REMARK SMILES IDX 50 68 33 69 34 70 43 71 35 72 36 73 42 74 44 75 37 76 38 77
REMARK SMILES IDX 39 78 40 79 41 80 67 81 68 82 77 83 69 84 70 85 76 86 78 87
REMARK SMILES IDX 71 88 72 89 73 90 74 91 75 92 51 93 52 94 61 95 53 96 54 97
REMARK SMILES IDX 60 98 62 99 55 100 56 101 57 102 58 103 59 104
REMARK H PARENT 16 6 9 16 21 35 83 54 49 65
REMARK Flexibility Score: inf
ROOT
ATOM      1  C   UNL A   1      35.638  23.468  24.802  1.00  0.00     0.023 C 
ENDROOT
BRANCH   1   2
ATOM      2  C   UNL A   1      34.767  24.688  24.516  1.00  0.00     0.116 C 
BRANCH   2   3
ATOM      3  N   UNL A   1      33.899  24.626  23.340  1.00  0.00    -0.356 N 
ATOM      4  C   UNL A   1      33.386  25.681  22.640  1.00  0.00     0.226 C 
ATOM      5  O   UNL A   1      33.544  25.686  21.418  1.00  0.00    -0.275 OA
ATOM      6  H   UNL A   1      33.658  23.727  23.018  1.00  0.00     0.163 HD
BRANCH   4   7
ATOM      7  C   UNL A   1      32.784  26.852  23.374  1.00  0.00     0.122 C 
ATOM      8  C   UNL A   1      31.615  26.719  24.353  1.00  0.00     0.123 C 
ATOM      9  C   UNL A   1      30.937  28.082  24.170  1.00  0.00     0.132 C 
ATOM     10  C   UNL A   1      32.278  28.013  22.464  1.00  0.00     0.132 C 
ATOM     11  C   UNL A   1      31.917  29.255  24.424  1.00  0.00     0.035 C 
ATOM     12  O   UNL A   1      30.846  28.089  22.735  1.00  0.00    -0.373 OA
ATOM     13  C   UNL A   1      32.662  29.350  23.084  1.00  0.00     0.035 C 
BRANCH   8  14
ATOM     14  C   UNL A   1      30.522  25.645  24.521  1.00  0.00     0.232 C 
ATOM     15  N   UNL A   1      30.502  24.374  24.960  1.00  0.00    -0.302 N 
ATOM     16  H   UNL A   1      29.576  24.051  25.033  1.00  0.00     0.172 HD
ATOM     17  O   UNL A   1      29.389  26.023  24.141  1.00  0.00    -0.274 OA
BRANCH  15  18
ATOM     18  C   UNL A   1      31.379  23.397  25.334  1.00  0.00     0.190 A 
ATOM     19  C   UNL A   1      32.532  21.493  25.214  1.00  0.00     0.086 A 
ATOM     20  N   UNL A   1      31.702  22.394  24.538  1.00  0.00    -0.220 NA
ATOM     21  C   UNL A   1      32.866  21.901  26.499  1.00  0.00     0.031 A 
ATOM     22  S   UNL A   1      32.244  23.469  26.767  1.00  0.00    -0.101 S 
ATOM     23  C   UNL A   1      33.648  21.254  27.588  1.00  0.00     0.059 C 
BRANCH  19  24
ATOM     24  C   UNL A   1      33.043  20.257  24.606  1.00  0.00     0.001 A 
ATOM     25  C   UNL A   1      34.283  16.309  23.291  1.00  0.00     0.044 C 
ATOM     26  C   UNL A   1      33.874  17.690  23.717  1.00  0.00    -0.051 A 
ATOM     27  C   UNL A   1      34.734  18.503  24.467  1.00  0.00     0.004 A 
ATOM     28  C   UNL A   1      32.625  18.198  23.356  1.00  0.00     0.004 A 
ATOM     29  C   UNL A   1      34.323  19.774  24.909  1.00  0.00     0.010 A 
ATOM     30  C   UNL A   1      32.225  19.470  23.780  1.00  0.00     0.010 A 
ENDBRANCH  19  24
ENDBRANCH  15  18
ENDBRANCH   8  14
ENDBRANCH   4   7
ENDBRANCH   2   3
ENDBRANCH   1   2
BRANCH   1  31
ATOM     31  C   UNL A   1      36.554  23.590  26.013  1.00  0.00     0.023 C 
BRANCH  31  32
ATOM     32  C   UNL A   1      38.028  23.681  25.669  1.00  0.00     0.116 C 
BRANCH  32  33
ATOM     33  N   UNL A   1      38.912  23.166  26.701  1.00  0.00    -0.352 N 
ATOM     34  C   UNL A   1      39.902  23.903  27.343  1.00  0.00     0.251 C 
ATOM     35  H   UNL A   1      38.802  22.223  26.965  1.00  0.00     0.163 HD
ATOM     36  O   UNL A   1      40.939  23.433  27.752  1.00  0.00    -0.269 OA
BRANCH  34  37
ATOM     37  C   UNL A   1      39.519  25.298  27.662  1.00  0.00     0.039 A 
ATOM     38  C   UNL A   1      40.064  26.316  26.872  1.00  0.00     0.014 A 
ATOM     39  C   UNL A   1      38.920  25.574  28.886  1.00  0.00     0.014 A 
ATOM     40  C   UNL A   1      40.146  27.609  27.386  1.00  0.00     0.010 A 
ATOM     41  C   UNL A   1      39.104  26.826  29.434  1.00  0.00     0.010 A 
ATOM     42  C   UNL A   1      39.739  27.840  28.699  1.00  0.00    -0.014 A 
BRANCH  42  43
ATOM     43  C   UNL A   1      39.972  29.083  29.428  1.00  0.00     0.031 A 
ATOM     44  C   UNL A   1      38.935  30.143  29.435  1.00  0.00     0.074 A 
ATOM     45  C   UNL A   1      41.068  29.230  30.203  1.00  0.00     0.049 A 
ATOM     46  N   UNL A   1      39.157  31.375  29.753  1.00  0.00    -0.248 NA
ATOM     47  C   UNL A   1      37.546  29.891  29.057  1.00  0.00     0.031 C 
ATOM     48  C   UNL A   1      41.268  30.217  31.261  1.00  0.00     0.029 A 
ATOM     49  N   UNL A   1      42.310  28.613  30.073  1.00  0.00    -0.354 N 
ATOM     50  C   UNL A   1      37.940  32.002  29.875  1.00  0.00     0.074 A 
ATOM     51  C   UNL A   1      36.968  31.045  29.398  1.00  0.00     0.031 C 
ATOM     52  C   UNL A   1      42.579  30.318  31.525  1.00  0.00     0.029 A 
ATOM     53  C   UNL A   1      43.287  29.513  30.546  1.00  0.00     0.049 A 
ATOM     54  H   UNL A   1      42.476  27.712  29.716  1.00  0.00     0.167 HD
ATOM     55  C   UNL A   1      37.854  33.222  30.474  1.00  0.00     0.037 A 
ATOM     56  C   UNL A   1      44.253  29.990  29.702  1.00  0.00     0.037 A 
ATOM     57  C   UNL A   1      39.162  33.732  30.871  1.00  0.00     0.049 A 
ATOM     58  C   UNL A   1      44.148  31.471  29.396  1.00  0.00     0.074 A 
ATOM     59  C   UNL A   1      39.885  33.708  32.052  1.00  0.00     0.029 A 
ATOM     60  N   UNL A   1      40.055  34.110  29.885  1.00  0.00    -0.354 N 
ATOM     61  N   UNL A   1      43.253  32.273  29.902  1.00  0.00    -0.248 NA
ATOM     62  C   UNL A   1      45.008  32.147  28.420  1.00  0.00     0.031 C 
ATOM     63  C   UNL A   1      41.239  34.022  31.751  1.00  0.00     0.029 A 
ATOM     64  C   UNL A   1      41.337  34.241  30.389  1.00  0.00     0.049 A 
ATOM     65  H   UNL A   1      39.810  34.267  28.944  1.00  0.00     0.167 HD
ATOM     66  C   UNL A   1      43.331  33.489  29.276  1.00  0.00     0.074 A 
ATOM     67  C   UNL A   1      44.467  33.376  28.382  1.00  0.00     0.031 C 
ATOM     68  C   UNL A   1      42.434  34.494  29.476  1.00  0.00     0.037 A 
BRANCH  55  69
ATOM     69  C   UNL A   1      36.541  33.818  30.906  1.00  0.00     0.058 A 
ATOM     70  C   UNL A   1      35.583  34.219  29.954  1.00  0.00     0.135 A 
ATOM     71  C   UNL A   1      36.192  34.062  32.251  1.00  0.00     0.135 A 
ATOM     72  F   UNL A   1      35.757  33.989  28.645  1.00  0.00    -0.206 F 
ATOM     73  C   UNL A   1      34.417  34.901  30.298  1.00  0.00     0.059 A 
ATOM     74  C   UNL A   1      35.059  34.795  32.617  1.00  0.00     0.059 A 
ATOM     75  F   UNL A   1      36.940  33.581  33.255  1.00  0.00    -0.206 F 
ATOM     76  C   UNL A   1      34.180  35.218  31.629  1.00  0.00     0.060 A 
BRANCH  76  77
ATOM     77  S   UNL A   1      32.730  36.212  32.032  1.00  0.00     0.124 S 
ATOM     78  O   UNL A   1      31.779  35.203  32.489  1.00  0.00    -0.237 OA
ATOM     79  O   UNL A   1      33.254  37.103  33.062  1.00  0.00    -0.237 OA
ATOM     80  O   UNL A   1      32.392  36.847  30.762  1.00  0.00    -0.744 OA
ENDBRANCH  76  77
ENDBRANCH  55  69
BRANCH  56  81
ATOM     81  C   UNL A   1      44.726  28.946  28.752  1.00  0.00     0.058 A 
ATOM     82  C   UNL A   1      44.102  28.894  27.490  1.00  0.00     0.135 A 
ATOM     83  C   UNL A   1      46.011  28.397  28.870  1.00  0.00     0.135 A 
ATOM     84  F   UNL A   1      42.859  29.379  27.334  1.00  0.00    -0.206 F 
ATOM     85  C   UNL A   1      44.802  28.515  26.352  1.00  0.00     0.059 A 
ATOM     86  C   UNL A   1      46.726  27.999  27.741  1.00  0.00     0.059 A 
ATOM     87  F   UNL A   1      46.643  28.402  30.053  1.00  0.00    -0.206 F 
ATOM     88  C   UNL A   1      46.141  28.153  26.482  1.00  0.00     0.060 A 
BRANCH  88  89
ATOM     89  S   UNL A   1      47.147  28.080  24.982  1.00  0.00     0.124 S 
ATOM     90  O   UNL A   1      46.822  26.759  24.457  1.00  0.00    -0.237 OA
ATOM     91  O   UNL A   1      46.619  29.209  24.212  1.00  0.00    -0.237 OA
ATOM     92  O   UNL A   1      48.505  28.248  25.481  1.00  0.00    -0.744 OA
ENDBRANCH  88  89
ENDBRANCH  56  81
BRANCH  68  93
ATOM     93  C   UNL A   1      42.561  35.822  28.803  1.00  0.00     0.058 A 
ATOM     94  C   UNL A   1      43.144  36.916  29.460  1.00  0.00     0.135 A 
ATOM     95  C   UNL A   1      41.986  36.067  27.542  1.00  0.00     0.135 A 
ATOM     96  F   UNL A   1      43.692  36.767  30.677  1.00  0.00    -0.206 F 
ATOM     97  C   UNL A   1      43.169  38.187  28.891  1.00  0.00     0.059 A 
ATOM     98  C   UNL A   1      41.965  37.336  26.971  1.00  0.00     0.059 A 
ATOM     99  F   UNL A   1      41.443  35.070  26.826  1.00  0.00    -0.206 F 
ATOM    100  C   UNL A   1      42.573  38.388  27.648  1.00  0.00     0.060 A 
BRANCH 100 101
ATOM    101  S   UNL A   1      42.559  40.042  26.927  1.00  0.00     0.124 S 
ATOM    102  O   UNL A   1      42.937  40.890  28.055  1.00  0.00    -0.237 OA
ATOM    103  O   UNL A   1      43.562  39.908  25.876  1.00  0.00    -0.237 OA
ATOM    104  O   UNL A   1      41.181  40.195  26.471  1.00  0.00    -0.744 OA
ENDBRANCH 100 101
ENDBRANCH  68  93
ENDBRANCH  42  43
ENDBRANCH  34  37
ENDBRANCH  32  33
ENDBRANCH  31  32
ENDBRANCH   1  31
TORSDOF 17
ENDMDL
MODEL 2
REMARK VINA RESULT:     -14.4      4.622     10.606
REMARK SMILES Cc1ccc(-c2nc(NC(=O)[C@H]3[C@@H](C(=O)NCCCCNC(=O)c4ccc(-c5c6nc(c(-c7c(F)cc(S(=O)(=O)[O-])cc7F)c7ccc([nH]7)c(-c7c(F)cc(S(=O)(=O)[O-])cc7F)c7nc(c(-c8c(F)cc(S(=O)(=O)[O-])cc8F)c8ccc5[nH]8)C=C7)C=C6)cc4)[C@@H]4CC[C@H]3O4)sc2C)cc1
REMARK SMILES IDX 18 1 17 2 16 3 14 4 15 5 13 7 12 8 93 9 90 10 92 11 94 12
REMARK SMILES IDX 91 13 10 14 9 15 11 17 8 18 6 19 7 20 96 21 95 22 97 23 5 24
REMARK SMILES IDX 1 25 2 26 3 27 99 28 4 29 98 30 19 31 20 32 21 33 22 34
REMARK SMILES IDX 23 36 24 37 25 38 89 39 26 40 88 41 27 42 28 43 29 44 82 45
REMARK SMILES IDX 30 46 87 47 81 48 83 49 31 50 86 51 80 52 79 53 32 55 66 56
REMARK SMILES IDX 45 57 65 58 46 59 49 60 64 61 84 62 47 63 48 64 63 66 85 67
REMARK SMILES IDX 50 68 33 69 34 70 43 71 35 72 36 73 42 74 44 75 37 76 38 77
REMARK SMILES IDX 39 78 40 79 41 80 67 81 68 82 77 83 69 84 70 85 76 86 78 87
REMARK SMILES IDX 71 88 72 89 73 90 74 91 75 92 51 93 52 94 61 95 53 96 54 97
REMARK SMILES IDX 60 98 62 99 55 100 56 101 57 102 58 103 59 104
REMARK H PARENT 16 6 9 16 21 35 83 54 49 65
REMARK Flexibility Score: inf
ROOT
ATOM      1  C   UNL A   1      32.619  30.042  25.927  1.00  0.00     0.023 C 
ENDROOT
BRANCH   1   2
ATOM      2  C   UNL A   1      31.425  29.267  25.379  1.00  0.00     0.116 C 
BRANCH   2   3
ATOM      3  N   UNL A   1      30.860  29.723  24.109  1.00  0.00    -0.356 N 
ATOM      4  C   UNL A   1      30.438  28.944  23.070  1.00  0.00     0.226 C 
ATOM      5  O   UNL A   1      29.308  29.151  22.623  1.00  0.00    -0.275 OA
ATOM      6  H   UNL A   1      30.775  30.697  23.990  1.00  0.00     0.163 HD
BRANCH   4   7
ATOM      7  C   UNL A   1      31.284  27.787  22.603  1.00  0.00     0.122 C 
ATOM      8  C   UNL A   1      30.936  26.323  22.888  1.00  0.00     0.123 C 
ATOM      9  C   UNL A   1      32.339  25.707  22.951  1.00  0.00     0.132 C 
ATOM     10  C   UNL A   1      32.775  27.832  23.061  1.00  0.00     0.132 C 
ATOM     11  C   UNL A   1      33.153  25.983  21.662  1.00  0.00     0.035 C 
ATOM     12  O   UNL A   1      32.941  26.631  23.874  1.00  0.00    -0.373 OA
ATOM     13  C   UNL A   1      33.674  27.407  21.907  1.00  0.00     0.035 C 
BRANCH   8  14
ATOM     14  C   UNL A   1      30.058  25.658  23.965  1.00  0.00     0.232 C 
ATOM     15  N   UNL A   1      30.252  24.698  24.886  1.00  0.00    -0.302 N 
ATOM     16  H   UNL A   1      29.473  24.632  25.483  1.00  0.00     0.172 HD
ATOM     17  O   UNL A   1      28.880  26.085  23.981  1.00  0.00    -0.274 OA
BRANCH  15  18
ATOM     18  C   UNL A   1      31.204  23.786  25.242  1.00  0.00     0.190 A 
ATOM     19  C   UNL A   1      32.423  21.922  25.149  1.00  0.00     0.086 A 
ATOM     20  N   UNL A   1      31.492  22.736  24.494  1.00  0.00    -0.220 NA
ATOM     21  C   UNL A   1      32.863  22.441  26.361  1.00  0.00     0.031 A 
ATOM     22  S   UNL A   1      32.200  24.002  26.572  1.00  0.00    -0.101 S 
ATOM     23  C   UNL A   1      33.774  21.911  27.410  1.00  0.00     0.059 C 
BRANCH  19  24
ATOM     24  C   UNL A   1      32.927  20.662  24.586  1.00  0.00     0.001 A 
ATOM     25  C   UNL A   1      34.074  16.656  23.364  1.00  0.00     0.044 C 
ATOM     26  C   UNL A   1      33.701  18.056  23.761  1.00  0.00    -0.051 A 
ATOM     27  C   UNL A   1      34.514  18.807  24.621  1.00  0.00     0.004 A 
ATOM     28  C   UNL A   1      32.538  18.645  23.262  1.00  0.00     0.004 A 
ATOM     29  C   UNL A   1      34.131  20.098  25.031  1.00  0.00     0.010 A 
ATOM     30  C   UNL A   1      32.168  19.935  23.656  1.00  0.00     0.010 A 
ENDBRANCH  19  24
ENDBRANCH  15  18
ENDBRANCH   8  14
ENDBRANCH   4   7
ENDBRANCH   2   3
ENDBRANCH   1   2
BRANCH   1  31
ATOM     31  C   UNL A   1      33.838  29.200  26.280  1.00  0.00     0.023 C 
BRANCH  31  32
ATOM     32  C   UNL A   1      34.398  29.467  27.663  1.00  0.00     0.116 C 
BRANCH  32  33
ATOM     33  N   UNL A   1      35.169  30.694  27.767  1.00  0.00    -0.352 N 
ATOM     34  C   UNL A   1      36.307  30.856  28.550  1.00  0.00     0.251 C 
ATOM     35  H   UNL A   1      34.863  31.469  27.242  1.00  0.00     0.163 HD
ATOM     36  O   UNL A   1      36.627  31.900  29.072  1.00  0.00    -0.269 OA
BRANCH  34  37
ATOM     37  C   UNL A   1      37.220  29.689  28.557  1.00  0.00     0.039 A 
ATOM     38  C   UNL A   1      37.421  29.032  29.776  1.00  0.00     0.014 A 
ATOM     39  C   UNL A   1      38.070  29.486  27.476  1.00  0.00     0.014 A 
ATOM     40  C   UNL A   1      38.580  28.279  29.962  1.00  0.00     0.010 A 
ATOM     41  C   UNL A   1      39.266  28.835  27.701  1.00  0.00     0.010 A 
ATOM     42  C   UNL A   1      39.536  28.252  28.949  1.00  0.00    -0.014 A 
BRANCH  42  43
ATOM     43  C   UNL A   1      40.877  27.692  29.094  1.00  0.00     0.031 A 
ATOM     44  C   UNL A   1      41.153  26.307  28.642  1.00  0.00     0.074 A 
ATOM     45  C   UNL A   1      41.901  28.462  29.519  1.00  0.00     0.049 A 
ATOM     46  N   UNL A   1      42.177  25.611  29.014  1.00  0.00    -0.248 NA
ATOM     47  C   UNL A   1      40.267  25.581  27.735  1.00  0.00     0.031 C 
ATOM     48  C   UNL A   1      43.328  28.185  29.370  1.00  0.00     0.029 A 
ATOM     49  N   UNL A   1      41.857  29.589  30.337  1.00  0.00    -0.354 N 
ATOM     50  C   UNL A   1      42.229  24.488  28.223  1.00  0.00     0.074 A 
ATOM     51  C   UNL A   1      40.999  24.497  27.465  1.00  0.00     0.031 C 
ATOM     52  C   UNL A   1      44.015  28.942  30.238  1.00  0.00     0.029 A 
ATOM     53  C   UNL A   1      43.052  29.625  31.083  1.00  0.00     0.049 A 
ATOM     54  H   UNL A   1      41.124  30.243  30.384  1.00  0.00     0.167 HD
ATOM     55  C   UNL A   1      43.354  23.721  28.197  1.00  0.00     0.037 A 
ATOM     56  C   UNL A   1      43.017  29.535  32.448  1.00  0.00     0.037 A 
ATOM     57  C   UNL A   1      44.376  24.213  29.113  1.00  0.00     0.049 A 
ATOM     58  C   UNL A   1      43.611  28.259  33.012  1.00  0.00     0.074 A 
ATOM     59  C   UNL A   1      45.482  25.034  28.970  1.00  0.00     0.029 A 
ATOM     60  N   UNL A   1      44.153  24.108  30.475  1.00  0.00    -0.354 N 
ATOM     61  N   UNL A   1      44.158  27.315  32.297  1.00  0.00    -0.248 NA
ATOM     62  C   UNL A   1      43.558  27.915  34.436  1.00  0.00     0.031 C 
ATOM     63  C   UNL A   1      45.885  25.468  30.263  1.00  0.00     0.029 A 
ATOM     64  C   UNL A   1      45.028  24.906  31.191  1.00  0.00     0.049 A 
ATOM     65  H   UNL A   1      43.462  23.539  30.883  1.00  0.00     0.167 HD
ATOM     66  C   UNL A   1      44.420  26.236  33.100  1.00  0.00     0.074 A 
ATOM     67  C   UNL A   1      44.063  26.670  34.437  1.00  0.00     0.031 C 
ATOM     68  C   UNL A   1      44.855  25.036  32.625  1.00  0.00     0.037 A 
BRANCH  55  69
ATOM     69  C   UNL A   1      43.588  22.669  27.145  1.00  0.00     0.058 A 
ATOM     70  C   UNL A   1      42.816  21.491  27.119  1.00  0.00     0.135 A 
ATOM     71  C   UNL A   1      44.597  22.750  26.163  1.00  0.00     0.135 A 
ATOM     72  F   UNL A   1      41.784  21.311  27.954  1.00  0.00    -0.206 F 
ATOM     73  C   UNL A   1      43.087  20.430  26.256  1.00  0.00     0.059 A 
ATOM     74  C   UNL A   1      44.925  21.679  25.326  1.00  0.00     0.059 A 
ATOM     75  F   UNL A   1      45.288  23.884  25.977  1.00  0.00    -0.206 F 
ATOM     76  C   UNL A   1      44.167  20.517  25.387  1.00  0.00     0.060 A 
BRANCH  76  77
ATOM     77  S   UNL A   1      44.573  19.083  24.373  1.00  0.00     0.124 S 
ATOM     78  O   UNL A   1      45.952  18.807  24.763  1.00  0.00    -0.237 OA
ATOM     79  O   UNL A   1      43.581  18.110  24.817  1.00  0.00    -0.237 OA
ATOM     80  O   UNL A   1      44.406  19.575  23.008  1.00  0.00    -0.744 OA
ENDBRANCH  76  77
ENDBRANCH  55  69
BRANCH  56  81
ATOM     81  C   UNL A   1      41.860  30.274  33.024  1.00  0.00     0.058 A 
ATOM     82  C   UNL A   1      42.015  31.661  33.219  1.00  0.00     0.135 A 
ATOM     83  C   UNL A   1      40.557  29.771  32.907  1.00  0.00     0.135 A 
ATOM     84  F   UNL A   1      43.242  32.186  33.368  1.00  0.00    -0.206 F 
ATOM     85  C   UNL A   1      40.943  32.534  33.086  1.00  0.00     0.059 A 
ATOM     86  C   UNL A   1      39.466  30.631  32.784  1.00  0.00     0.059 A 
ATOM     87  F   UNL A   1      40.351  28.456  32.740  1.00  0.00    -0.206 F 
ATOM     88  C   UNL A   1      39.690  32.009  32.781  1.00  0.00     0.060 A 
BRANCH  88  89
ATOM     89  S   UNL A   1      38.416  33.150  32.193  1.00  0.00     0.124 S 
ATOM     90  O   UNL A   1      37.192  32.391  32.422  1.00  0.00    -0.237 OA
ATOM     91  O   UNL A   1      38.616  34.302  33.074  1.00  0.00    -0.237 OA
ATOM     92  O   UNL A   1      38.777  33.362  30.797  1.00  0.00    -0.744 OA
ENDBRANCH  88  89
ENDBRANCH  56  81
BRANCH  68  93
ATOM     93  C   UNL A   1      45.163  23.885  33.526  1.00  0.00     0.058 A 
ATOM     94  C   UNL A   1      46.474  23.633  33.959  1.00  0.00     0.135 A 
ATOM     95  C   UNL A   1      44.183  22.935  33.871  1.00  0.00     0.135 A 
ATOM     96  F   UNL A   1      47.469  24.480  33.650  1.00  0.00    -0.206 F 
ATOM     97  C   UNL A   1      46.796  22.502  34.706  1.00  0.00     0.059 A 
ATOM     98  C   UNL A   1      44.489  21.780  34.583  1.00  0.00     0.059 A 
ATOM     99  F   UNL A   1      42.897  23.118  33.532  1.00  0.00    -0.206 F 
ATOM    100  C   UNL A   1      45.798  21.579  35.010  1.00  0.00     0.060 A 
BRANCH 100 101
ATOM    101  S   UNL A   1      46.218  20.089  35.935  1.00  0.00     0.124 S 
ATOM    102  O   UNL A   1      45.613  20.337  37.241  1.00  0.00    -0.237 OA
ATOM    103  O   UNL A   1      45.575  19.057  35.128  1.00  0.00    -0.237 OA
ATOM    104  O   UNL A   1      47.678  20.087  35.918  1.00  0.00    -0.744 OA
ENDBRANCH 100 101
ENDBRANCH  68  93
ENDBRANCH  42  43
ENDBRANCH  34  37
ENDBRANCH  32  33
ENDBRANCH  31  32
ENDBRANCH   1  31
TORSDOF 17
ENDMDL
MODEL 3
REMARK VINA RESULT:     -14.3      1.282      1.999
REMARK SMILES Cc1ccc(-c2nc(NC(=O)[C@H]3[C@@H](C(=O)NCCCCNC(=O)c4ccc(-c5c6nc(c(-c7c(F)cc(S(=O)(=O)[O-])cc7F)c7ccc([nH]7)c(-c7c(F)cc(S(=O)(=O)[O-])cc7F)c7nc(c(-c8c(F)cc(S(=O)(=O)[O-])cc8F)c8ccc5[nH]8)C=C7)C=C6)cc4)[C@@H]4CC[C@H]3O4)sc2C)cc1
REMARK SMILES IDX 18 1 17 2 16 3 14 4 15 5 13 7 12 8 93 9 90 10 92 11 94 12
REMARK SMILES IDX 91 13 10 14 9 15 11 17 8 18 6 19 7 20 96 21 95 22 97 23 5 24
REMARK SMILES IDX 1 25 2 26 3 27 99 28 4 29 98 30 19 31 20 32 21 33 22 34
REMARK SMILES IDX 23 36 24 37 25 38 89 39 26 40 88 41 27 42 28 43 29 44 82 45
REMARK SMILES IDX 30 46 87 47 81 48 83 49 31 50 86 51 80 52 79 53 32 55 66 56
REMARK SMILES IDX 45 57 65 58 46 59 49 60 64 61 84 62 47 63 48 64 63 66 85 67
REMARK SMILES IDX 50 68 33 69 34 70 43 71 35 72 36 73 42 74 44 75 37 76 38 77
REMARK SMILES IDX 39 78 40 79 41 80 67 81 68 82 77 83 69 84 70 85 76 86 78 87
REMARK SMILES IDX 71 88 72 89 73 90 74 91 75 92 51 93 52 94 61 95 53 96 54 97
REMARK SMILES IDX 60 98 62 99 55 100 56 101 57 102 58 103 59 104
REMARK H PARENT 16 6 9 16 21 35 83 54 49 65
REMARK Flexibility Score: inf
ROOT
ATOM      1  C   UNL A   1      35.950  22.947  26.115  1.00  0.00     0.023 C 
ENDROOT
BRANCH   1   2
ATOM      2  C   UNL A   1      35.394  24.233  25.512  1.00  0.00     0.116 C 
BRANCH   2   3
ATOM      3  N   UNL A   1      34.412  24.094  24.437  1.00  0.00    -0.356 N 
ATOM      4  C   UNL A   1      33.997  25.066  23.572  1.00  0.00     0.226 C 
ATOM      5  O   UNL A   1      34.028  24.810  22.367  1.00  0.00    -0.275 OA
ATOM      6  H   UNL A   1      34.006  23.204  24.324  1.00  0.00     0.163 HD
BRANCH   4   7
ATOM      7  C   UNL A   1      33.657  26.441  24.090  1.00  0.00     0.122 C 
ATOM      8  C   UNL A   1      32.717  26.684  25.273  1.00  0.00     0.123 C 
ATOM      9  C   UNL A   1      32.122  28.043  24.886  1.00  0.00     0.132 C 
ATOM     10  C   UNL A   1      33.058  27.416  23.030  1.00  0.00     0.132 C 
ATOM     11  C   UNL A   1      33.220  29.110  24.648  1.00  0.00     0.035 C 
ATOM     12  O   UNL A   1      31.727  27.733  23.539  1.00  0.00    -0.373 OA
ATOM     13  C   UNL A   1      33.667  28.800  23.212  1.00  0.00     0.035 C 
BRANCH   8  14
ATOM     14  C   UNL A   1      31.607  25.825  25.908  1.00  0.00     0.232 C 
ATOM     15  N   UNL A   1      31.220  24.541  25.795  1.00  0.00    -0.302 N 
ATOM     16  H   UNL A   1      30.533  24.329  26.465  1.00  0.00     0.172 HD
ATOM     17  O   UNL A   1      30.870  26.463  26.695  1.00  0.00    -0.274 OA
BRANCH  15  18
ATOM     18  C   UNL A   1      31.495  23.444  25.029  1.00  0.00     0.190 A 
ATOM     19  C   UNL A   1      32.331  21.448  24.497  1.00  0.00     0.086 A 
ATOM     20  N   UNL A   1      32.077  22.366  25.522  1.00  0.00    -0.220 NA
ATOM     21  C   UNL A   1      31.854  21.851  23.256  1.00  0.00     0.031 A 
ATOM     22  S   UNL A   1      30.977  23.306  23.442  1.00  0.00    -0.101 S 
ATOM     23  C   UNL A   1      31.949  21.250  21.899  1.00  0.00     0.059 C 
BRANCH  19  24
ATOM     24  C   UNL A   1      32.995  20.156  24.720  1.00  0.00     0.001 A 
ATOM     25  C   UNL A   1      34.959  16.283  24.756  1.00  0.00     0.044 C 
ATOM     26  C   UNL A   1      34.279  17.622  24.782  1.00  0.00    -0.051 A 
ATOM     27  C   UNL A   1      32.890  17.728  24.943  1.00  0.00     0.004 A 
ATOM     28  C   UNL A   1      35.025  18.796  24.661  1.00  0.00     0.004 A 
ATOM     29  C   UNL A   1      32.253  18.982  24.912  1.00  0.00     0.010 A 
ATOM     30  C   UNL A   1      34.393  20.043  24.649  1.00  0.00     0.010 A 
ENDBRANCH  19  24
ENDBRANCH  15  18
ENDBRANCH   8  14
ENDBRANCH   4   7
ENDBRANCH   2   3
ENDBRANCH   1   2
BRANCH   1  31
ATOM     31  C   UNL A   1      37.380  22.603  25.716  1.00  0.00     0.023 C 
BRANCH  31  32
ATOM     32  C   UNL A   1      38.359  23.752  25.864  1.00  0.00     0.116 C 
BRANCH  32  33
ATOM     33  N   UNL A   1      39.555  23.420  26.619  1.00  0.00    -0.352 N 
ATOM     34  C   UNL A   1      40.563  24.320  26.951  1.00  0.00     0.251 C 
ATOM     35  H   UNL A   1      39.661  22.487  26.918  1.00  0.00     0.163 HD
ATOM     36  O   UNL A   1      41.729  24.020  27.064  1.00  0.00    -0.269 OA
BRANCH  34  37
ATOM     37  C   UNL A   1      40.081  25.665  27.342  1.00  0.00     0.039 A 
ATOM     38  C   UNL A   1      40.516  26.756  26.580  1.00  0.00     0.014 A 
ATOM     39  C   UNL A   1      39.503  25.842  28.594  1.00  0.00     0.014 A 
ATOM     40  C   UNL A   1      40.512  28.029  27.147  1.00  0.00     0.010 A 
ATOM     41  C   UNL A   1      39.605  27.081  29.190  1.00  0.00     0.010 A 
ATOM     42  C   UNL A   1      40.131  28.172  28.480  1.00  0.00    -0.014 A 
BRANCH  42  43
ATOM     43  C   UNL A   1      40.288  29.400  29.255  1.00  0.00     0.031 A 
ATOM     44  C   UNL A   1      39.192  30.397  29.293  1.00  0.00     0.074 A 
ATOM     45  C   UNL A   1      41.371  29.581  30.043  1.00  0.00     0.049 A 
ATOM     46  N   UNL A   1      39.341  31.628  29.657  1.00  0.00    -0.248 NA
ATOM     47  C   UNL A   1      37.822  30.080  28.896  1.00  0.00     0.031 C 
ATOM     48  C   UNL A   1      41.508  30.539  31.137  1.00  0.00     0.029 A 
ATOM     49  N   UNL A   1      42.647  29.042  29.900  1.00  0.00    -0.354 N 
ATOM     50  C   UNL A   1      38.089  32.179  29.792  1.00  0.00     0.074 A 
ATOM     51  C   UNL A   1      37.176  31.185  29.275  1.00  0.00     0.031 C 
ATOM     52  C   UNL A   1      42.810  30.705  31.413  1.00  0.00     0.029 A 
ATOM     53  C   UNL A   1      43.568  29.979  30.411  1.00  0.00     0.049 A 
ATOM     54  H   UNL A   1      42.866  28.165  29.511  1.00  0.00     0.167 HD
ATOM     55  C   UNL A   1      37.931  33.369  30.435  1.00  0.00     0.037 A 
ATOM     56  C   UNL A   1      44.509  30.541  29.592  1.00  0.00     0.037 A 
ATOM     57  C   UNL A   1      39.204  33.938  30.858  1.00  0.00     0.049 A 
ATOM     58  C   UNL A   1      44.320  32.023  29.338  1.00  0.00     0.074 A 
ATOM     59  C   UNL A   1      39.922  33.914  32.043  1.00  0.00     0.029 A 
ATOM     60  N   UNL A   1      40.079  34.403  29.893  1.00  0.00    -0.354 N 
ATOM     61  N   UNL A   1      43.378  32.754  29.867  1.00  0.00    -0.248 NA
ATOM     62  C   UNL A   1      45.144  32.783  28.393  1.00  0.00     0.031 C 
ATOM     63  C   UNL A   1      41.257  34.315  31.763  1.00  0.00     0.029 A 
ATOM     64  C   UNL A   1      41.348  34.589  30.410  1.00  0.00     0.049 A 
ATOM     65  H   UNL A   1      39.830  34.580  28.957  1.00  0.00     0.167 HD
ATOM     66  C   UNL A   1      43.389  33.993  29.285  1.00  0.00     0.074 A 
ATOM     67  C   UNL A   1      44.534  33.979  28.396  1.00  0.00     0.031 C 
ATOM     68  C   UNL A   1      42.434  34.938  29.514  1.00  0.00     0.037 A 
BRANCH  55  69
ATOM     69  C   UNL A   1      36.582  33.872  30.878  1.00  0.00     0.058 A 
ATOM     70  C   UNL A   1      35.642  34.339  29.939  1.00  0.00     0.135 A 
ATOM     71  C   UNL A   1      36.182  33.962  32.228  1.00  0.00     0.135 A 
ATOM     72  F   UNL A   1      35.867  34.254  28.621  1.00  0.00    -0.206 F 
ATOM     73  C   UNL A   1      34.441  34.943  30.310  1.00  0.00     0.059 A 
ATOM     74  C   UNL A   1      35.011  34.614  32.627  1.00  0.00     0.059 A 
ATOM     75  F   UNL A   1      36.914  33.403  33.203  1.00  0.00    -0.206 F 
ATOM     76  C   UNL A   1      34.149  35.110  31.657  1.00  0.00     0.060 A 
BRANCH  76  77
ATOM     77  S   UNL A   1      32.652  36.007  32.109  1.00  0.00     0.124 S 
ATOM     78  O   UNL A   1      32.270  36.630  30.845  1.00  0.00    -0.237 OA
ATOM     79  O   UNL A   1      31.785  34.930  32.574  1.00  0.00    -0.237 OA
ATOM     80  O   UNL A   1      33.112  36.935  33.139  1.00  0.00    -0.744 OA
ENDBRANCH  76  77
ENDBRANCH  55  69
BRANCH  56  81
ATOM     81  C   UNL A   1      45.046  29.560  28.608  1.00  0.00     0.058 A 
ATOM     82  C   UNL A   1      46.096  28.726  29.039  1.00  0.00     0.135 A 
ATOM     83  C   UNL A   1      44.264  29.124  27.530  1.00  0.00     0.135 A 
ATOM     84  F   UNL A   1      46.893  29.114  30.049  1.00  0.00    -0.206 F 
ATOM     85  C   UNL A   1      46.228  27.426  28.568  1.00  0.00     0.059 A 
ATOM     86  C   UNL A   1      44.389  27.826  27.033  1.00  0.00     0.059 A 
ATOM     87  F   UNL A   1      43.264  29.888  27.066  1.00  0.00    -0.206 F 
ATOM     88  C   UNL A   1      45.310  26.962  27.627  1.00  0.00     0.060 A 
BRANCH  88  89
ATOM     89  S   UNL A   1      45.219  25.179  27.344  1.00  0.00     0.124 S 
ATOM     90  O   UNL A   1      44.568  25.106  26.042  1.00  0.00    -0.237 OA
ATOM     91  O   UNL A   1      46.633  24.800  27.362  1.00  0.00    -0.237 OA
ATOM     92  O   UNL A   1      44.432  24.701  28.474  1.00  0.00    -0.744 OA
ENDBRANCH  88  89
ENDBRANCH  56  81
BRANCH  68  93
ATOM     93  C   UNL A   1      42.487  36.295  28.891  1.00  0.00     0.058 A 
ATOM     94  C   UNL A   1      41.997  36.517  27.595  1.00  0.00     0.135 A 
ATOM     95  C   UNL A   1      43.145  37.369  29.518  1.00  0.00     0.135 A 
ATOM     96  F   UNL A   1      41.378  35.534  26.922  1.00  0.00    -0.206 F 
ATOM     97  C   UNL A   1      42.140  37.747  26.957  1.00  0.00     0.059 A 
ATOM     98  C   UNL A   1      43.333  38.594  28.885  1.00  0.00     0.059 A 
ATOM     99  F   UNL A   1      43.609  37.255  30.772  1.00  0.00    -0.206 F 
ATOM    100  C   UNL A   1      42.813  38.778  27.608  1.00  0.00     0.060 A 
BRANCH 100 101
ATOM    101  S   UNL A   1      43.044  40.358  26.768  1.00  0.00     0.124 S 
ATOM    102  O   UNL A   1      43.526  41.227  27.838  1.00  0.00    -0.237 OA
ATOM    103  O   UNL A   1      44.031  40.003  25.753  1.00  0.00    -0.237 OA
ATOM    104  O   UNL A   1      41.708  40.669  26.270  1.00  0.00    -0.744 OA
ENDBRANCH 100 101
ENDBRANCH  68  93
ENDBRANCH  42  43
ENDBRANCH  34  37
ENDBRANCH  32  33
ENDBRANCH  31  32
ENDBRANCH   1  31
TORSDOF 17
ENDMDL
