MODEL 1
REMARK VINA RESULT:     -11.3      0.000      0.000
REMARK SMILES C[C@@H]1CCC[C@]1(Sc1ccc(F)cc1)C(=O)NCCCCNC(=O)c1ccc(-c2c3nc(c(-c4c(F)cc(S(=O)(=O)[O-])cc4F)c4ccc([nH]4)c(-c4c(F)cc(S(=O)(=O)[O-])cc4F)c4nc(c(-c5c(F)cc(S(=O)(=O)[O-])cc5F)c5ccc2[nH]5)C=C4)C=C3)cc1
REMARK SMILES IDX 20 1 19 2 18 3 17 4 15 5 16 6 6 8 1 9 2 10 3 11 4 12 5 13
REMARK SMILES IDX 7 14 8 15 9 16 14 17 10 18 13 19 11 20 12 21 21 22 22 23
REMARK SMILES IDX 23 24 24 26 25 27 26 28 90 29 27 30 89 31 28 32 29 33 30 34
REMARK SMILES IDX 83 35 31 36 88 37 82 38 84 39 32 40 87 41 81 42 80 43 33 45
REMARK SMILES IDX 67 46 46 47 66 48 47 49 50 50 65 51 85 52 48 53 49 54 64 56
REMARK SMILES IDX 86 57 51 58 34 59 35 60 44 61 36 62 37 63 43 64 45 65 38 66
REMARK SMILES IDX 39 67 40 68 41 69 42 70 68 71 69 72 78 73 70 74 71 75 77 76
REMARK SMILES IDX 79 77 72 78 73 79 74 80 75 81 76 82 52 83 53 84 62 85 54 86
REMARK SMILES IDX 55 87 61 88 63 89 56 90 57 91 58 92 59 93 60 94
REMARK H PARENT 17 7 22 25 84 44 50 55
REMARK Flexibility Score: inf
ROOT
ATOM      1  C   UNL A   1      34.042  28.351  25.738  1.00  0.00     0.023 C 
ENDROOT
BRANCH   1   2
ATOM      2  C   UNL A   1      32.922  28.445  24.704  1.00  0.00     0.023 C 
BRANCH   2   3
ATOM      3  C   UNL A   1      32.329  27.108  24.276  1.00  0.00     0.116 C 
BRANCH   3   4
ATOM      4  N   UNL A   1      31.267  26.649  25.156  1.00  0.00    -0.355 N 
ATOM      5  C   UNL A   1      31.042  25.418  25.715  1.00  0.00     0.236 C 
ATOM      6  O   UNL A   1      30.108  25.332  26.518  1.00  0.00    -0.273 OA
ATOM      7  H   UNL A   1      30.599  27.335  25.388  1.00  0.00     0.163 HD
BRANCH   5   8
ATOM      8  C   UNL A   1      31.919  24.186  25.334  1.00  0.00     0.102 C 
ATOM      9  C   UNL A   1      30.387  24.058  23.244  1.00  0.00     0.009 C 
ATOM     10  C   UNL A   1      31.796  23.821  23.829  1.00  0.00     0.012 C 
ATOM     11  C   UNL A   1      32.077  22.313  23.746  1.00  0.00     0.005 C 
ATOM     12  C   UNL A   1      31.783  21.735  25.123  1.00  0.00     0.002 C 
ATOM     13  C   UNL A   1      31.394  22.907  26.021  1.00  0.00     0.028 C 
BRANCH   8  14
ATOM     14  S   UNL A   1      33.612  24.615  26.074  1.00  0.00    -0.109 SA
BRANCH  14  15
ATOM     15  C   UNL A   1      34.787  23.462  25.427  1.00  0.00     0.008 A 
ATOM     16  C   UNL A   1      35.499  23.718  24.250  1.00  0.00     0.018 A 
ATOM     17  C   UNL A   1      35.136  22.353  26.208  1.00  0.00     0.018 A 
ATOM     18  C   UNL A   1      36.493  22.835  23.821  1.00  0.00     0.040 A 
ATOM     19  C   UNL A   1      36.144  21.482  25.792  1.00  0.00     0.040 A 
ATOM     20  C   UNL A   1      36.805  21.725  24.596  1.00  0.00     0.123 A 
ATOM     21  F   UNL A   1      37.770  20.889  24.192  1.00  0.00    -0.207 F 
ENDBRANCH  14  15
ENDBRANCH   8  14
ENDBRANCH   5   8
ENDBRANCH   3   4
ENDBRANCH   2   3
ENDBRANCH   1   2
BRANCH   1  22
ATOM     22  C   UNL A   1      33.600  28.525  27.186  1.00  0.00     0.116 C 
BRANCH  22  23
ATOM     23  N   UNL A   1      33.523  29.920  27.595  1.00  0.00    -0.352 N 
ATOM     24  C   UNL A   1      34.489  30.690  28.199  1.00  0.00     0.251 C 
ATOM     25  H   UNL A   1      32.667  30.372  27.415  1.00  0.00     0.163 HD
ATOM     26  O   UNL A   1      34.222  31.819  28.596  1.00  0.00    -0.269 OA
BRANCH  24  27
ATOM     27  C   UNL A   1      35.840  30.126  28.393  1.00  0.00     0.039 A 
ATOM     28  C   UNL A   1      36.765  30.197  27.349  1.00  0.00     0.014 A 
ATOM     29  C   UNL A   1      36.201  29.569  29.624  1.00  0.00     0.014 A 
ATOM     30  C   UNL A   1      38.078  29.773  27.562  1.00  0.00     0.010 A 
ATOM     31  C   UNL A   1      37.524  29.212  29.855  1.00  0.00     0.010 A 
ATOM     32  C   UNL A   1      38.475  29.311  28.827  1.00  0.00    -0.014 A 
BRANCH  32  33
ATOM     33  C   UNL A   1      39.873  28.903  29.108  1.00  0.00     0.031 A 
ATOM     34  C   UNL A   1      40.819  29.889  29.736  1.00  0.00     0.074 A 
ATOM     35  C   UNL A   1      40.312  27.687  28.732  1.00  0.00     0.049 A 
ATOM     36  N   UNL A   1      42.107  29.790  29.931  1.00  0.00    -0.248 NA
ATOM     37  C   UNL A   1      40.238  31.167  30.178  1.00  0.00     0.031 C 
ATOM     38  C   UNL A   1      39.495  26.650  28.100  1.00  0.00     0.029 A 
ATOM     39  N   UNL A   1      41.560  27.121  28.816  1.00  0.00    -0.354 N 
ATOM     40  C   UNL A   1      42.495  30.997  30.497  1.00  0.00     0.074 A 
ATOM     41  C   UNL A   1      41.316  31.831  30.567  1.00  0.00     0.031 C 
ATOM     42  C   UNL A   1      40.255  25.565  27.880  1.00  0.00     0.029 A 
ATOM     43  C   UNL A   1      41.623  25.845  28.311  1.00  0.00     0.049 A 
ATOM     44  H   UNL A   1      42.337  27.587  29.202  1.00  0.00     0.167 HD
ATOM     45  C   UNL A   1      43.720  31.368  30.939  1.00  0.00     0.037 A 
ATOM     46  C   UNL A   1      42.666  24.998  28.200  1.00  0.00     0.037 A 
ATOM     47  C   UNL A   1      44.884  30.524  30.888  1.00  0.00     0.049 A 
ATOM     48  C   UNL A   1      44.022  25.436  28.676  1.00  0.00     0.074 A 
ATOM     49  C   UNL A   1      46.166  30.799  31.328  1.00  0.00     0.029 A 
ATOM     50  N   UNL A   1      44.903  29.236  30.372  1.00  0.00    -0.354 N 
ATOM     51  N   UNL A   1      44.374  26.579  29.213  1.00  0.00    -0.248 NA
ATOM     52  C   UNL A   1      45.125  24.475  28.528  1.00  0.00     0.031 C 
ATOM     53  C   UNL A   1      46.968  29.686  31.053  1.00  0.00     0.029 A 
ATOM     54  C   UNL A   1      46.176  28.703  30.479  1.00  0.00     0.049 A 
ATOM     55  H   UNL A   1      44.125  28.769  29.988  1.00  0.00     0.167 HD
ATOM     56  C   UNL A   1      45.732  26.468  29.492  1.00  0.00     0.074 A 
ATOM     57  C   UNL A   1      46.139  25.145  29.062  1.00  0.00     0.031 C 
ATOM     58  C   UNL A   1      46.561  27.378  30.058  1.00  0.00     0.037 A 
BRANCH  45  59
ATOM     59  C   UNL A   1      43.851  32.748  31.520  1.00  0.00     0.058 A 
ATOM     60  C   UNL A   1      43.751  32.956  32.905  1.00  0.00     0.135 A 
ATOM     61  C   UNL A   1      44.080  33.868  30.703  1.00  0.00     0.135 A 
ATOM     62  F   UNL A   1      43.538  31.921  33.731  1.00  0.00    -0.206 F 
ATOM     63  C   UNL A   1      43.881  34.224  33.459  1.00  0.00     0.059 A 
ATOM     64  C   UNL A   1      44.240  35.141  31.239  1.00  0.00     0.059 A 
ATOM     65  F   UNL A   1      44.208  33.719  29.375  1.00  0.00    -0.206 F 
ATOM     66  C   UNL A   1      44.133  35.311  32.619  1.00  0.00     0.060 A 
BRANCH  66  67
ATOM     67  S   UNL A   1      44.394  36.938  33.358  1.00  0.00     0.124 S 
ATOM     68  O   UNL A   1      43.028  37.359  33.646  1.00  0.00    -0.237 OA
ATOM     69  O   UNL A   1      45.221  36.621  34.519  1.00  0.00    -0.237 OA
ATOM     70  O   UNL A   1      45.076  37.681  32.301  1.00  0.00    -0.744 OA
ENDBRANCH  66  67
ENDBRANCH  45  59
BRANCH  46  71
ATOM     71  C   UNL A   1      42.439  23.634  27.657  1.00  0.00     0.058 A 
ATOM     72  C   UNL A   1      42.299  22.520  28.498  1.00  0.00     0.135 A 
ATOM     73  C   UNL A   1      42.435  23.414  26.271  1.00  0.00     0.135 A 
ATOM     74  F   UNL A   1      42.305  22.678  29.830  1.00  0.00    -0.206 F 
ATOM     75  C   UNL A   1      42.203  21.231  27.985  1.00  0.00     0.059 A 
ATOM     76  C   UNL A   1      42.322  22.135  25.734  1.00  0.00     0.059 A 
ATOM     77  F   UNL A   1      42.552  24.451  25.429  1.00  0.00    -0.206 F 
ATOM     78  C   UNL A   1      42.228  21.048  26.601  1.00  0.00     0.060 A 
BRANCH  78  79
ATOM     79  S   UNL A   1      42.165  19.361  25.957  1.00  0.00     0.124 S 
ATOM     80  O   UNL A   1      42.716  18.602  27.076  1.00  0.00    -0.237 OA
ATOM     81  O   UNL A   1      40.739  19.182  25.707  1.00  0.00    -0.237 OA
ATOM     82  O   UNL A   1      43.007  19.423  24.766  1.00  0.00    -0.744 OA
ENDBRANCH  78  79
ENDBRANCH  46  71
BRANCH  58  83
ATOM     83  C   UNL A   1      47.992  26.983  30.285  1.00  0.00     0.058 A 
ATOM     84  C   UNL A   1      48.406  26.525  31.546  1.00  0.00     0.135 A 
ATOM     85  C   UNL A   1      48.970  27.175  29.299  1.00  0.00     0.135 A 
ATOM     86  F   UNL A   1      47.506  26.327  32.523  1.00  0.00    -0.206 F 
ATOM     87  C   UNL A   1      49.748  26.305  31.833  1.00  0.00     0.059 A 
ATOM     88  C   UNL A   1      50.318  26.942  29.558  1.00  0.00     0.059 A 
ATOM     89  F   UNL A   1      48.621  27.600  28.075  1.00  0.00    -0.206 F 
ATOM     90  C   UNL A   1      50.699  26.530  30.836  1.00  0.00     0.060 A 
BRANCH  90  91
ATOM     91  S   UNL A   1      52.441  26.277  31.237  1.00  0.00     0.124 S 
ATOM     92  O   UNL A   1      52.640  27.237  32.317  1.00  0.00    -0.237 OA
ATOM     93  O   UNL A   1      52.468  24.869  31.624  1.00  0.00    -0.237 OA
ATOM     94  O   UNL A   1      53.125  26.589  29.985  1.00  0.00    -0.744 OA
ENDBRANCH  90  91
ENDBRANCH  58  83
ENDBRANCH  32  33
ENDBRANCH  24  27
ENDBRANCH  22  23
ENDBRANCH   1  22
TORSDOF 16
ENDMDL
MODEL 2
REMARK VINA RESULT:     -11.2      4.797     10.397
REMARK SMILES C[C@@H]1CCC[C@]1(Sc1ccc(F)cc1)C(=O)NCCCCNC(=O)c1ccc(-c2c3nc(c(-c4c(F)cc(S(=O)(=O)[O-])cc4F)c4ccc([nH]4)c(-c4c(F)cc(S(=O)(=O)[O-])cc4F)c4nc(c(-c5c(F)cc(S(=O)(=O)[O-])cc5F)c5ccc2[nH]5)C=C4)C=C3)cc1
REMARK SMILES IDX 20 1 19 2 18 3 17 4 15 5 16 6 6 8 1 9 2 10 3 11 4 12 5 13
REMARK SMILES IDX 7 14 8 15 9 16 14 17 10 18 13 19 11 20 12 21 21 22 22 23
REMARK SMILES IDX 23 24 24 26 25 27 26 28 90 29 27 30 89 31 28 32 29 33 30 34
REMARK SMILES IDX 83 35 31 36 88 37 82 38 84 39 32 40 87 41 81 42 80 43 33 45
REMARK SMILES IDX 67 46 46 47 66 48 47 49 50 50 65 51 85 52 48 53 49 54 64 56
REMARK SMILES IDX 86 57 51 58 34 59 35 60 44 61 36 62 37 63 43 64 45 65 38 66
REMARK SMILES IDX 39 67 40 68 41 69 42 70 68 71 69 72 78 73 70 74 71 75 77 76
REMARK SMILES IDX 79 77 72 78 73 79 74 80 75 81 76 82 52 83 53 84 62 85 54 86
REMARK SMILES IDX 55 87 61 88 63 89 56 90 57 91 58 92 59 93 60 94
REMARK H PARENT 17 7 22 25 84 44 50 55
REMARK Flexibility Score: inf
ROOT
ATOM      1  C   UNL A   1      36.995  23.133  25.843  1.00  0.00     0.023 C 
ENDROOT
BRANCH   1   2
ATOM      2  C   UNL A   1      36.820  23.088  24.326  1.00  0.00     0.023 C 
BRANCH   2   3
ATOM      3  C   UNL A   1      35.442  23.508  23.826  1.00  0.00     0.116 C 
BRANCH   3   4
ATOM      4  N   UNL A   1      34.584  22.377  23.511  1.00  0.00    -0.355 N 
ATOM      5  C   UNL A   1      33.297  22.102  23.893  1.00  0.00     0.236 C 
ATOM      6  O   UNL A   1      32.766  21.108  23.389  1.00  0.00    -0.273 OA
ATOM      7  H   UNL A   1      34.995  21.698  22.928  1.00  0.00     0.163 HD
BRANCH   5   8
ATOM      8  C   UNL A   1      32.553  22.998  24.930  1.00  0.00     0.102 C 
ATOM      9  C   UNL A   1      33.831  21.585  26.692  1.00  0.00     0.009 C 
ATOM     10  C   UNL A   1      33.228  22.959  26.329  1.00  0.00     0.012 C 
ATOM     11  C   UNL A   1      32.103  23.244  27.337  1.00  0.00     0.005 C 
ATOM     12  C   UNL A   1      30.796  22.872  26.652  1.00  0.00     0.002 C 
ATOM     13  C   UNL A   1      31.148  22.435  25.232  1.00  0.00     0.028 C 
BRANCH   8  14
ATOM     14  S   UNL A   1      32.356  24.648  24.014  1.00  0.00    -0.109 SA
BRANCH  14  15
ATOM     15  C   UNL A   1      32.532  25.945  25.204  1.00  0.00     0.008 A 
ATOM     16  C   UNL A   1      33.763  26.568  25.438  1.00  0.00     0.018 A 
ATOM     17  C   UNL A   1      31.376  26.474  25.792  1.00  0.00     0.018 A 
ATOM     18  C   UNL A   1      33.848  27.657  26.309  1.00  0.00     0.040 A 
ATOM     19  C   UNL A   1      31.456  27.576  26.645  1.00  0.00     0.040 A 
ATOM     20  C   UNL A   1      32.693  28.150  26.904  1.00  0.00     0.123 A 
ATOM     21  F   UNL A   1      32.774  29.205  27.725  1.00  0.00    -0.207 F 
ENDBRANCH  14  15
ENDBRANCH   8  14
ENDBRANCH   5   8
ENDBRANCH   3   4
ENDBRANCH   2   3
ENDBRANCH   1   2
BRANCH   1  22
ATOM     22  C   UNL A   1      37.962  24.197  26.348  1.00  0.00     0.116 C 
BRANCH  22  23
ATOM     23  N   UNL A   1      39.359  23.842  26.142  1.00  0.00    -0.352 N 
ATOM     24  C   UNL A   1      40.482  24.464  26.635  1.00  0.00     0.251 C 
ATOM     25  H   UNL A   1      39.521  23.054  25.575  1.00  0.00     0.163 HD
ATOM     26  O   UNL A   1      41.597  24.113  26.263  1.00  0.00    -0.269 OA
BRANCH  24  27
ATOM     27  C   UNL A   1      40.326  25.579  27.591  1.00  0.00     0.039 A 
ATOM     28  C   UNL A   1      39.455  25.432  28.673  1.00  0.00     0.014 A 
ATOM     29  C   UNL A   1      41.075  26.749  27.436  1.00  0.00     0.014 A 
ATOM     30  C   UNL A   1      39.389  26.432  29.644  1.00  0.00     0.010 A 
ATOM     31  C   UNL A   1      41.059  27.712  28.438  1.00  0.00     0.010 A 
ATOM     32  C   UNL A   1      40.217  27.562  29.551  1.00  0.00    -0.014 A 
BRANCH  32  33
ATOM     33  C   UNL A   1      40.215  28.622  30.590  1.00  0.00     0.031 A 
ATOM     34  C   UNL A   1      41.176  28.528  31.743  1.00  0.00     0.074 A 
ATOM     35  C   UNL A   1      39.307  29.615  30.543  1.00  0.00     0.049 A 
ATOM     36  N   UNL A   1      41.243  29.258  32.825  1.00  0.00    -0.248 NA
ATOM     37  C   UNL A   1      42.177  27.451  31.678  1.00  0.00     0.031 C 
ATOM     38  C   UNL A   1      38.314  29.804  29.485  1.00  0.00     0.029 A 
ATOM     39  N   UNL A   1      39.066  30.648  31.414  1.00  0.00    -0.354 N 
ATOM     40  C   UNL A   1      42.276  28.717  33.579  1.00  0.00     0.074 A 
ATOM     41  C   UNL A   1      42.774  27.568  32.855  1.00  0.00     0.031 C 
ATOM     42  C   UNL A   1      37.589  30.902  29.754  1.00  0.00     0.029 A 
ATOM     43  C   UNL A   1      38.034  31.468  31.025  1.00  0.00     0.049 A 
ATOM     44  H   UNL A   1      39.584  30.788  32.240  1.00  0.00     0.167 HD
ATOM     45  C   UNL A   1      42.780  29.153  34.758  1.00  0.00     0.037 A 
ATOM     46  C   UNL A   1      37.501  32.550  31.628  1.00  0.00     0.037 A 
ATOM     47  C   UNL A   1      42.295  30.311  35.460  1.00  0.00     0.049 A 
ATOM     48  C   UNL A   1      38.059  33.005  32.948  1.00  0.00     0.074 A 
ATOM     49  C   UNL A   1      42.750  30.847  36.651  1.00  0.00     0.029 A 
ATOM     50  N   UNL A   1      41.251  31.117  35.030  1.00  0.00    -0.354 N 
ATOM     51  N   UNL A   1      39.039  32.487  33.648  1.00  0.00    -0.248 NA
ATOM     52  C   UNL A   1      37.438  34.187  33.564  1.00  0.00     0.031 C 
ATOM     53  C   UNL A   1      41.963  31.963  36.955  1.00  0.00     0.029 A 
ATOM     54  C   UNL A   1      41.043  32.144  35.934  1.00  0.00     0.049 A 
ATOM     55  H   UNL A   1      40.734  30.978  34.203  1.00  0.00     0.167 HD
ATOM     56  C   UNL A   1      39.172  33.293  34.773  1.00  0.00     0.074 A 
ATOM     57  C   UNL A   1      38.170  34.334  34.662  1.00  0.00     0.031 C 
ATOM     58  C   UNL A   1      40.049  33.181  35.799  1.00  0.00     0.037 A 
BRANCH  45  59
ATOM     59  C   UNL A   1      43.916  28.369  35.351  1.00  0.00     0.058 A 
ATOM     60  C   UNL A   1      43.673  27.340  36.275  1.00  0.00     0.135 A 
ATOM     61  C   UNL A   1      45.251  28.636  35.003  1.00  0.00     0.135 A 
ATOM     62  F   UNL A   1      42.417  27.040  36.639  1.00  0.00    -0.206 F 
ATOM     63  C   UNL A   1      44.712  26.598  36.825  1.00  0.00     0.059 A 
ATOM     64  C   UNL A   1      46.303  27.888  35.520  1.00  0.00     0.059 A 
ATOM     65  F   UNL A   1      45.535  29.593  34.106  1.00  0.00    -0.206 F 
ATOM     66  C   UNL A   1      46.025  26.874  36.436  1.00  0.00     0.060 A 
BRANCH  66  67
ATOM     67  S   UNL A   1      47.358  25.843  37.084  1.00  0.00     0.124 S 
ATOM     68  O   UNL A   1      47.992  26.741  38.043  1.00  0.00    -0.237 OA
ATOM     69  O   UNL A   1      46.627  24.715  37.655  1.00  0.00    -0.237 OA
ATOM     70  O   UNL A   1      48.146  25.527  35.896  1.00  0.00    -0.744 OA
ENDBRANCH  66  67
ENDBRANCH  45  59
BRANCH  46  71
ATOM     71  C   UNL A   1      36.410  33.295  30.950  1.00  0.00     0.058 A 
ATOM     72  C   UNL A   1      36.659  34.124  29.846  1.00  0.00     0.135 A 
ATOM     73  C   UNL A   1      35.100  33.247  31.452  1.00  0.00     0.135 A 
ATOM     74  F   UNL A   1      37.897  34.210  29.336  1.00  0.00    -0.206 F 
ATOM     75  C   UNL A   1      35.657  34.909  29.287  1.00  0.00     0.059 A 
ATOM     76  C   UNL A   1      34.077  34.010  30.897  1.00  0.00     0.059 A 
ATOM     77  F   UNL A   1      34.813  32.459  32.498  1.00  0.00    -0.206 F 
ATOM     78  C   UNL A   1      34.371  34.854  29.828  1.00  0.00     0.060 A 
BRANCH  78  79
ATOM     79  S   UNL A   1      33.098  35.928  29.127  1.00  0.00     0.124 S 
ATOM     80  O   UNL A   1      33.908  36.915  28.420  1.00  0.00    -0.237 OA
ATOM     81  O   UNL A   1      32.346  35.002  28.287  1.00  0.00    -0.237 OA
ATOM     82  O   UNL A   1      32.389  36.423  30.303  1.00  0.00    -0.744 OA
ENDBRANCH  78  79
ENDBRANCH  46  71
BRANCH  58  83
ATOM     83  C   UNL A   1      40.004  34.221  36.882  1.00  0.00     0.058 A 
ATOM     84  C   UNL A   1      39.199  34.025  38.017  1.00  0.00     0.135 A 
ATOM     85  C   UNL A   1      40.654  35.455  36.740  1.00  0.00     0.135 A 
ATOM     86  F   UNL A   1      38.556  32.860  38.196  1.00  0.00    -0.206 F 
ATOM     87  C   UNL A   1      39.012  35.032  38.956  1.00  0.00     0.059 A 
ATOM     88  C   UNL A   1      40.497  36.471  37.678  1.00  0.00     0.059 A 
ATOM     89  F   UNL A   1      41.443  35.684  35.679  1.00  0.00    -0.206 F 
ATOM     90  C   UNL A   1      39.655  36.258  38.771  1.00  0.00     0.060 A 
BRANCH  90  91
ATOM     91  S   UNL A   1      39.369  37.568  39.979  1.00  0.00     0.124 S 
ATOM     92  O   UNL A   1      38.303  38.334  39.342  1.00  0.00    -0.237 OA
ATOM     93  O   UNL A   1      38.987  36.814  41.169  1.00  0.00    -0.237 OA
ATOM     94  O   UNL A   1      40.662  38.241  40.061  1.00  0.00    -0.744 OA
ENDBRANCH  90  91
ENDBRANCH  58  83
ENDBRANCH  32  33
ENDBRANCH  24  27
ENDBRANCH  22  23
ENDBRANCH   1  22
TORSDOF 16
ENDMDL
MODEL 3
REMARK VINA RESULT:     -11.1      1.037      1.785
REMARK SMILES C[C@@H]1CCC[C@]1(Sc1ccc(F)cc1)C(=O)NCCCCNC(=O)c1ccc(-c2c3nc(c(-c4c(F)cc(S(=O)(=O)[O-])cc4F)c4ccc([nH]4)c(-c4c(F)cc(S(=O)(=O)[O-])cc4F)c4nc(c(-c5c(F)cc(S(=O)(=O)[O-])cc5F)c5ccc2[nH]5)C=C4)C=C3)cc1
REMARK SMILES IDX 20 1 19 2 18 3 17 4 15 5 16 6 6 8 1 9 2 10 3 11 4 12 5 13
REMARK SMILES IDX 7 14 8 15 9 16 14 17 10 18 13 19 11 20 12 21 21 22 22 23
REMARK SMILES IDX 23 24 24 26 25 27 26 28 90 29 27 30 89 31 28 32 29 33 30 34
REMARK SMILES IDX 83 35 31 36 88 37 82 38 84 39 32 40 87 41 81 42 80 43 33 45
REMARK SMILES IDX 67 46 46 47 66 48 47 49 50 50 65 51 85 52 48 53 49 54 64 56
REMARK SMILES IDX 86 57 51 58 34 59 35 60 44 61 36 62 37 63 43 64 45 65 38 66
REMARK SMILES IDX 39 67 40 68 41 69 42 70 68 71 69 72 78 73 70 74 71 75 77 76
REMARK SMILES IDX 79 77 72 78 73 79 74 80 75 81 76 82 52 83 53 84 62 85 54 86
REMARK SMILES IDX 55 87 61 88 63 89 56 90 57 91 58 92 59 93 60 94
REMARK H PARENT 17 7 22 25 84 44 50 55
REMARK Flexibility Score: inf
ROOT
ATOM      1  C   UNL A   1      32.677  28.206  26.103  1.00  0.00     0.023 C 
ENDROOT
BRANCH   1   2
ATOM      2  C   UNL A   1      31.378  27.556  26.573  1.00  0.00     0.023 C 
BRANCH   2   3
ATOM      3  C   UNL A   1      31.296  26.049  26.354  1.00  0.00     0.116 C 
BRANCH   3   4
ATOM      4  N   UNL A   1      30.617  25.692  25.119  1.00  0.00    -0.355 N 
ATOM      5  C   UNL A   1      30.949  24.780  24.151  1.00  0.00     0.236 C 
ATOM      6  O   UNL A   1      30.128  24.602  23.246  1.00  0.00    -0.273 OA
ATOM      7  H   UNL A   1      29.781  26.185  24.950  1.00  0.00     0.163 HD
BRANCH   5   8
ATOM      8  C   UNL A   1      32.311  24.020  24.190  1.00  0.00     0.102 C 
ATOM      9  C   UNL A   1      33.264  26.190  23.133  1.00  0.00     0.009 C 
ATOM     10  C   UNL A   1      33.523  24.984  24.061  1.00  0.00     0.012 C 
ATOM     11  C   UNL A   1      34.646  24.151  23.424  1.00  0.00     0.005 C 
ATOM     12  C   UNL A   1      33.974  23.002  22.686  1.00  0.00     0.002 C 
ATOM     13  C   UNL A   1      32.475  23.125  22.943  1.00  0.00     0.028 C 
BRANCH   8  14
ATOM     14  S   UNL A   1      32.140  22.904  25.715  1.00  0.00    -0.109 SA
BRANCH  14  15
ATOM     15  C   UNL A   1      32.914  21.359  25.336  1.00  0.00     0.008 A 
ATOM     16  C   UNL A   1      32.218  20.323  24.703  1.00  0.00     0.018 A 
ATOM     17  C   UNL A   1      34.298  21.243  25.515  1.00  0.00     0.018 A 
ATOM     18  C   UNL A   1      32.884  19.154  24.326  1.00  0.00     0.040 A 
ATOM     19  C   UNL A   1      34.969  20.085  25.118  1.00  0.00     0.040 A 
ATOM     20  C   UNL A   1      34.253  19.046  24.537  1.00  0.00     0.123 A 
ATOM     21  F   UNL A   1      34.894  17.932  24.159  1.00  0.00    -0.207 F 
ENDBRANCH  14  15
ENDBRANCH   8  14
ENDBRANCH   5   8
ENDBRANCH   3   4
ENDBRANCH   2   3
ENDBRANCH   1   2
BRANCH   1  22
ATOM     22  C   UNL A   1      33.666  28.545  27.211  1.00  0.00     0.116 C 
BRANCH  22  23
ATOM     23  N   UNL A   1      33.586  29.934  27.642  1.00  0.00    -0.352 N 
ATOM     24  C   UNL A   1      34.555  30.700  28.245  1.00  0.00     0.251 C 
ATOM     25  H   UNL A   1      32.725  30.382  27.479  1.00  0.00     0.163 HD
ATOM     26  O   UNL A   1      34.285  31.822  28.662  1.00  0.00    -0.269 OA
BRANCH  24  27
ATOM     27  C   UNL A   1      35.911  30.142  28.415  1.00  0.00     0.039 A 
ATOM     28  C   UNL A   1      36.807  30.193  27.345  1.00  0.00     0.014 A 
ATOM     29  C   UNL A   1      36.306  29.611  29.646  1.00  0.00     0.014 A 
ATOM     30  C   UNL A   1      38.126  29.775  27.531  1.00  0.00     0.010 A 
ATOM     31  C   UNL A   1      37.635  29.261  29.849  1.00  0.00     0.010 A 
ATOM     32  C   UNL A   1      38.558  29.340  28.794  1.00  0.00    -0.014 A 
BRANCH  32  33
ATOM     33  C   UNL A   1      39.964  28.940  29.046  1.00  0.00     0.031 A 
ATOM     34  C   UNL A   1      40.921  29.935  29.641  1.00  0.00     0.074 A 
ATOM     35  C   UNL A   1      40.398  27.721  28.672  1.00  0.00     0.049 A 
ATOM     36  N   UNL A   1      42.214  29.842  29.805  1.00  0.00    -0.248 NA
ATOM     37  C   UNL A   1      40.347  31.216  30.082  1.00  0.00     0.031 C 
ATOM     38  C   UNL A   1      39.570  26.675  28.071  1.00  0.00     0.029 A 
ATOM     39  N   UNL A   1      41.650  27.160  28.732  1.00  0.00    -0.354 N 
ATOM     40  C   UNL A   1      42.611  31.057  30.349  1.00  0.00     0.074 A 
ATOM     41  C   UNL A   1      41.431  31.887  30.439  1.00  0.00     0.031 C 
ATOM     42  C   UNL A   1      40.328  25.590  27.844  1.00  0.00     0.029 A 
ATOM     43  C   UNL A   1      41.705  25.879  28.239  1.00  0.00     0.049 A 
ATOM     44  H   UNL A   1      42.434  27.632  29.095  1.00  0.00     0.167 HD
ATOM     45  C   UNL A   1      43.845  31.437  30.758  1.00  0.00     0.037 A 
ATOM     46  C   UNL A   1      42.748  25.034  28.112  1.00  0.00     0.037 A 
ATOM     47  C   UNL A   1      45.010  30.596  30.688  1.00  0.00     0.049 A 
ATOM     48  C   UNL A   1      44.114  25.482  28.551  1.00  0.00     0.074 A 
ATOM     49  C   UNL A   1      46.301  30.880  31.094  1.00  0.00     0.029 A 
ATOM     50  N   UNL A   1      45.021  29.302  30.185  1.00  0.00    -0.354 N 
ATOM     51  N   UNL A   1      44.475  26.632  29.067  1.00  0.00    -0.248 NA
ATOM     52  C   UNL A   1      45.216  24.523  28.387  1.00  0.00     0.031 C 
ATOM     53  C   UNL A   1      47.100  29.766  30.812  1.00  0.00     0.029 A 
ATOM     54  C   UNL A   1      46.299  28.775  30.267  1.00  0.00     0.049 A 
ATOM     55  H   UNL A   1      44.236  28.829  29.825  1.00  0.00     0.167 HD
ATOM     56  C   UNL A   1      45.839  26.527  29.315  1.00  0.00     0.074 A 
ATOM     57  C   UNL A   1      46.241  25.202  28.889  1.00  0.00     0.031 C 
ATOM     58  C   UNL A   1      46.678  27.446  29.851  1.00  0.00     0.037 A 
BRANCH  45  59
ATOM     59  C   UNL A   1      43.985  32.823  31.321  1.00  0.00     0.058 A 
ATOM     60  C   UNL A   1      44.294  33.908  30.485  1.00  0.00     0.135 A 
ATOM     61  C   UNL A   1      43.813  33.078  32.691  1.00  0.00     0.135 A 
ATOM     62  F   UNL A   1      44.464  33.722  29.167  1.00  0.00    -0.206 F 
ATOM     63  C   UNL A   1      44.417  35.199  30.987  1.00  0.00     0.059 A 
ATOM     64  C   UNL A   1      43.905  34.366  33.210  1.00  0.00     0.059 A 
ATOM     65  F   UNL A   1      43.494  32.079  33.528  1.00  0.00    -0.206 F 
ATOM     66  C   UNL A   1      44.213  35.419  32.351  1.00  0.00     0.060 A 
BRANCH  66  67
ATOM     67  S   UNL A   1      44.282  37.112  32.977  1.00  0.00     0.124 S 
ATOM     68  O   UNL A   1      44.141  37.890  31.752  1.00  0.00    -0.237 OA
ATOM     69  O   UNL A   1      43.144  37.151  33.891  1.00  0.00    -0.237 OA
ATOM     70  O   UNL A   1      45.591  37.178  33.621  1.00  0.00    -0.744 OA
ENDBRANCH  66  67
ENDBRANCH  45  59
BRANCH  46  71
ATOM     71  C   UNL A   1      42.513  23.664  27.589  1.00  0.00     0.058 A 
ATOM     72  C   UNL A   1      42.323  22.570  28.447  1.00  0.00     0.135 A 
ATOM     73  C   UNL A   1      42.552  23.415  26.209  1.00  0.00     0.135 A 
ATOM     74  F   UNL A   1      42.287  22.756  29.775  1.00  0.00    -0.206 F 
ATOM     75  C   UNL A   1      42.219  21.273  27.957  1.00  0.00     0.059 A 
ATOM     76  C   UNL A   1      42.432  22.128  25.694  1.00  0.00     0.059 A 
ATOM     77  F   UNL A   1      42.718  24.432  25.351  1.00  0.00    -0.206 F 
ATOM     78  C   UNL A   1      42.288  21.060  26.579  1.00  0.00     0.060 A 
BRANCH  78  79
ATOM     79  S   UNL A   1      42.214  19.363  25.967  1.00  0.00     0.124 S 
ATOM     80  O   UNL A   1      42.765  18.621  27.098  1.00  0.00    -0.237 OA
ATOM     81  O   UNL A   1      40.786  19.186  25.726  1.00  0.00    -0.237 OA
ATOM     82  O   UNL A   1      43.050  19.397  24.772  1.00  0.00    -0.744 OA
ENDBRANCH  78  79
ENDBRANCH  46  71
BRANCH  58  83
ATOM     83  C   UNL A   1      48.115  27.059  30.048  1.00  0.00     0.058 A 
ATOM     84  C   UNL A   1      48.514  26.400  31.222  1.00  0.00     0.135 A 
ATOM     85  C   UNL A   1      49.110  27.448  29.139  1.00  0.00     0.135 A 
ATOM     86  F   UNL A   1      47.598  26.009  32.122  1.00  0.00    -0.206 F 
ATOM     87  C   UNL A   1      49.856  26.171  31.505  1.00  0.00     0.059 A 
ATOM     88  C   UNL A   1      50.458  27.211  29.393  1.00  0.00     0.059 A 
ATOM     89  F   UNL A   1      48.776  28.070  27.998  1.00  0.00    -0.206 F 
ATOM     90  C   UNL A   1      50.822  26.593  30.590  1.00  0.00     0.060 A 
BRANCH  90  91
ATOM     91  S   UNL A   1      52.561  26.324  30.992  1.00  0.00     0.124 S 
ATOM     92  O   UNL A   1      53.176  26.320  29.670  1.00  0.00    -0.237 OA
ATOM     93  O   UNL A   1      52.867  27.479  31.832  1.00  0.00    -0.237 OA
ATOM     94  O   UNL A   1      52.553  25.039  31.685  1.00  0.00    -0.744 OA
ENDBRANCH  90  91
ENDBRANCH  58  83
ENDBRANCH  32  33
ENDBRANCH  24  27
ENDBRANCH  22  23
ENDBRANCH   1  22
TORSDOF 16
ENDMDL
