MODEL 1
REMARK VINA RESULT:     -14.0      0.000      0.000
REMARK SMILES Cc1ccc([C@@H](C)Nc2ccccc2C(=O)NCCCCNC(=O)c2ccc(-c3c4nc(c(-c5c(F)cc(S(=O)(=O)[O-])cc5F)c5ccc([nH]5)c(-c5c(F)cc(S(=O)(=O)[O-])cc5F)c5nc(c(-c6c(F)cc(S(=O)(=O)[O-])cc6F)c6ccc3[nH]6)C=C5)C=C4)cc2)cc1F
REMARK SMILES IDX 19 1 18 2 17 3 15 4 16 5 14 7 9 8 10 9 11 10 13 11 12 12
REMARK SMILES IDX 8 13 6 15 7 16 5 17 1 18 2 19 3 20 92 21 4 22 91 23 93 24
REMARK SMILES IDX 20 25 21 26 22 27 23 28 24 30 25 31 26 32 90 33 27 34 89 35
REMARK SMILES IDX 28 36 29 37 30 38 83 39 31 40 88 41 82 42 84 43 32 44 87 45
REMARK SMILES IDX 81 46 80 47 33 49 67 50 46 51 66 52 47 53 50 54 65 55 85 56
REMARK SMILES IDX 48 57 49 58 64 60 86 61 51 62 34 63 35 64 44 65 36 66 37 67
REMARK SMILES IDX 43 68 45 69 38 70 39 71 40 72 41 73 42 74 68 75 69 76 78 77
REMARK SMILES IDX 70 78 71 79 77 80 79 81 72 82 73 83 74 84 75 85 76 86 52 87
REMARK SMILES IDX 53 88 62 89 54 90 55 91 61 92 63 93 56 94 57 95 58 96 59 97
REMARK SMILES IDX 60 98
REMARK H PARENT 17 6 8 14 22 29 84 48 50 59
REMARK Flexibility Score: inf
ROOT
ATOM      1  C   UNL A   1      32.547  30.573  26.892  1.00  0.00     0.023 C 
ENDROOT
BRANCH   1   2
ATOM      2  C   UNL A   1      31.709  30.361  25.624  1.00  0.00     0.116 C 
BRANCH   2   3
ATOM      3  N   UNL A   1      32.433  29.765  24.514  1.00  0.00    -0.352 N 
ATOM      4  C   UNL A   1      32.035  28.783  23.634  1.00  0.00     0.253 C 
ATOM      5  O   UNL A   1      32.793  28.471  22.714  1.00  0.00    -0.269 OA
ATOM      6  H   UNL A   1      33.341  30.114  24.369  1.00  0.00     0.163 HD
BRANCH   4   7
ATOM      7  C   UNL A   1      30.778  28.011  23.805  1.00  0.00     0.062 A 
ATOM      8  C   UNL A   1      30.647  26.791  24.488  1.00  0.00     0.047 A 
ATOM      9  C   UNL A   1      29.389  26.151  24.446  1.00  0.00     0.026 A 
ATOM     10  C   UNL A   1      28.292  26.707  23.784  1.00  0.00     0.002 A 
ATOM     11  C   UNL A   1      29.652  28.589  23.178  1.00  0.00     0.016 A 
ATOM     12  C   UNL A   1      28.418  27.942  23.164  1.00  0.00     0.001 A 
BRANCH   8  13
ATOM     13  N   UNL A   1      31.634  26.178  25.257  1.00  0.00    -0.378 N 
ATOM     14  H   UNL A   1      32.294  26.740  25.724  1.00  0.00     0.161 HD
BRANCH  13  15
ATOM     15  C   UNL A   1      31.723  24.714  25.391  1.00  0.00     0.106 C 
ATOM     16  C   UNL A   1      31.641  24.265  26.845  1.00  0.00     0.036 C 
BRANCH  15  17
ATOM     17  C   UNL A   1      33.046  24.201  24.816  1.00  0.00    -0.023 A 
ATOM     18  C   UNL A   1      36.758  22.883  23.023  1.00  0.00     0.047 C 
ATOM     19  C   UNL A   1      35.461  23.268  23.662  1.00  0.00    -0.015 A 
ATOM     20  C   UNL A   1      34.239  23.057  23.016  1.00  0.00     0.007 A 
ATOM     21  C   UNL A   1      35.454  23.903  24.902  1.00  0.00     0.126 A 
ATOM     22  C   UNL A   1      33.047  23.528  23.582  1.00  0.00     0.006 A 
ATOM     23  C   UNL A   1      34.269  24.321  25.497  1.00  0.00     0.045 A 
ATOM     24  F   UNL A   1      36.614  24.153  25.527  1.00  0.00    -0.207 F 
ENDBRANCH  15  17
ENDBRANCH  13  15
ENDBRANCH   8  13
ENDBRANCH   4   7
ENDBRANCH   2   3
ENDBRANCH   1   2
BRANCH   1  25
ATOM     25  C   UNL A   1      33.138  29.322  27.556  1.00  0.00     0.023 C 
BRANCH  25  26
ATOM     26  C   UNL A   1      34.652  29.310  27.695  1.00  0.00     0.116 C 
BRANCH  26  27
ATOM     27  N   UNL A   1      35.187  30.449  28.431  1.00  0.00    -0.352 N 
ATOM     28  C   UNL A   1      36.130  30.298  29.443  1.00  0.00     0.251 C 
ATOM     29  H   UNL A   1      34.870  31.354  28.206  1.00  0.00     0.163 HD
ATOM     30  O   UNL A   1      35.904  30.671  30.590  1.00  0.00    -0.269 OA
BRANCH  28  31
ATOM     31  C   UNL A   1      37.369  29.543  29.097  1.00  0.00     0.039 A 
ATOM     32  C   UNL A   1      38.153  29.892  27.992  1.00  0.00     0.014 A 
ATOM     33  C   UNL A   1      37.792  28.521  29.944  1.00  0.00     0.014 A 
ATOM     34  C   UNL A   1      39.407  29.295  27.822  1.00  0.00     0.010 A 
ATOM     35  C   UNL A   1      39.068  28.027  29.857  1.00  0.00     0.010 A 
ATOM     36  C   UNL A   1      39.880  28.403  28.792  1.00  0.00    -0.014 A 
BRANCH  36  37
ATOM     37  C   UNL A   1      41.212  27.809  28.777  1.00  0.00     0.031 A 
ATOM     38  C   UNL A   1      41.415  26.428  28.314  1.00  0.00     0.074 A 
ATOM     39  C   UNL A   1      42.250  28.556  29.208  1.00  0.00     0.049 A 
ATOM     40  N   UNL A   1      42.280  25.619  28.818  1.00  0.00    -0.248 NA
ATOM     41  C   UNL A   1      40.627  25.846  27.234  1.00  0.00     0.031 C 
ATOM     42  C   UNL A   1      43.670  28.239  29.241  1.00  0.00     0.029 A 
ATOM     43  N   UNL A   1      42.140  29.723  29.970  1.00  0.00    -0.354 N 
ATOM     44  C   UNL A   1      42.365  24.535  27.972  1.00  0.00     0.074 A 
ATOM     45  C   UNL A   1      41.245  24.671  27.067  1.00  0.00     0.031 C 
ATOM     46  C   UNL A   1      44.237  28.974  30.218  1.00  0.00     0.029 A 
ATOM     47  C   UNL A   1      43.163  29.667  30.921  1.00  0.00     0.049 A 
ATOM     48  H   UNL A   1      41.476  30.440  29.859  1.00  0.00     0.167 HD
ATOM     49  C   UNL A   1      43.471  23.736  28.012  1.00  0.00     0.037 A 
ATOM     50  C   UNL A   1      42.814  29.504  32.232  1.00  0.00     0.037 A 
ATOM     51  C   UNL A   1      44.431  24.226  29.004  1.00  0.00     0.049 A 
ATOM     52  C   UNL A   1      43.337  28.220  32.837  1.00  0.00     0.074 A 
ATOM     53  C   UNL A   1      45.575  25.004  28.912  1.00  0.00     0.029 A 
ATOM     54  N   UNL A   1      44.086  24.224  30.344  1.00  0.00    -0.354 N 
ATOM     55  N   UNL A   1      43.848  27.234  32.150  1.00  0.00    -0.248 NA
ATOM     56  C   UNL A   1      43.309  27.936  34.269  1.00  0.00     0.031 C 
ATOM     57  C   UNL A   1      45.915  25.460  30.215  1.00  0.00     0.029 A 
ATOM     58  C   UNL A   1      44.983  24.955  31.102  1.00  0.00     0.049 A 
ATOM     59  H   UNL A   1      43.300  23.761  30.713  1.00  0.00     0.167 HD
ATOM     60  C   UNL A   1      44.211  26.215  32.992  1.00  0.00     0.074 A 
ATOM     61  C   UNL A   1      43.834  26.698  34.309  1.00  0.00     0.031 C 
ATOM     62  C   UNL A   1      44.780  25.057  32.539  1.00  0.00     0.037 A 
BRANCH  49  63
ATOM     63  C   UNL A   1      43.802  22.728  26.930  1.00  0.00     0.058 A 
ATOM     64  C   UNL A   1      43.034  21.555  26.772  1.00  0.00     0.135 A 
ATOM     65  C   UNL A   1      44.893  22.843  26.043  1.00  0.00     0.135 A 
ATOM     66  F   UNL A   1      41.906  21.354  27.463  1.00  0.00    -0.206 F 
ATOM     67  C   UNL A   1      43.394  20.522  25.907  1.00  0.00     0.059 A 
ATOM     68  C   UNL A   1      45.302  21.801  25.199  1.00  0.00     0.059 A 
ATOM     69  F   UNL A   1      45.588  23.986  25.948  1.00  0.00    -0.206 F 
ATOM     70  C   UNL A   1      44.552  20.634  25.150  1.00  0.00     0.060 A 
BRANCH  70  71
ATOM     71  S   UNL A   1      45.044  19.237  24.121  1.00  0.00     0.124 S 
ATOM     72  O   UNL A   1      44.397  18.114  24.795  1.00  0.00    -0.237 OA
ATOM     73  O   UNL A   1      44.484  19.604  22.825  1.00  0.00    -0.237 OA
ATOM     74  O   UNL A   1      46.501  19.250  24.203  1.00  0.00    -0.744 OA
ENDBRANCH  70  71
ENDBRANCH  49  63
BRANCH  50  75
ATOM     75  C   UNL A   1      41.515  30.186  32.564  1.00  0.00     0.058 A 
ATOM     76  C   UNL A   1      40.413  29.372  32.903  1.00  0.00     0.135 A 
ATOM     77  C   UNL A   1      41.458  31.527  32.978  1.00  0.00     0.135 A 
ATOM     78  F   UNL A   1      40.397  28.080  32.532  1.00  0.00    -0.206 F 
ATOM     79  C   UNL A   1      39.385  29.821  33.732  1.00  0.00     0.059 A 
ATOM     80  C   UNL A   1      40.427  31.999  33.808  1.00  0.00     0.059 A 
ATOM     81  F   UNL A   1      42.459  32.367  32.676  1.00  0.00    -0.206 F 
ATOM     82  C   UNL A   1      39.434  31.116  34.235  1.00  0.00     0.060 A 
BRANCH  82  83
ATOM     83  S   UNL A   1      38.204  31.601  35.477  1.00  0.00     0.124 S 
ATOM     84  O   UNL A   1      38.081  30.393  36.288  1.00  0.00    -0.237 OA
ATOM     85  O   UNL A   1      38.849  32.732  36.145  1.00  0.00    -0.237 OA
ATOM     86  O   UNL A   1      37.032  31.927  34.675  1.00  0.00    -0.744 OA
ENDBRANCH  82  83
ENDBRANCH  50  75
BRANCH  62  87
ATOM     87  C   UNL A   1      45.179  23.893  33.414  1.00  0.00     0.058 A 
ATOM     88  C   UNL A   1      46.472  23.720  33.934  1.00  0.00     0.135 A 
ATOM     89  C   UNL A   1      44.267  22.847  33.694  1.00  0.00     0.135 A 
ATOM     90  F   UNL A   1      47.462  24.570  33.617  1.00  0.00    -0.206 F 
ATOM     91  C   UNL A   1      46.798  22.656  34.778  1.00  0.00     0.059 A 
ATOM     92  C   UNL A   1      44.585  21.751  34.487  1.00  0.00     0.059 A 
ATOM     93  F   UNL A   1      43.010  22.858  33.231  1.00  0.00    -0.206 F 
ATOM     94  C   UNL A   1      45.839  21.687  35.066  1.00  0.00     0.060 A 
BRANCH  94  95
ATOM     95  S   UNL A   1      46.235  20.348  36.201  1.00  0.00     0.124 S 
ATOM     96  O   UNL A   1      45.491  19.227  35.636  1.00  0.00    -0.237 OA
ATOM     97  O   UNL A   1      47.687  20.275  36.069  1.00  0.00    -0.237 OA
ATOM     98  O   UNL A   1      45.745  20.833  37.489  1.00  0.00    -0.744 OA
ENDBRANCH  94  95
ENDBRANCH  62  87
ENDBRANCH  36  37
ENDBRANCH  28  31
ENDBRANCH  26  27
ENDBRANCH  25  26
ENDBRANCH   1  25
TORSDOF 17
ENDMDL
MODEL 2
REMARK VINA RESULT:     -14.0      1.116      1.613
REMARK SMILES Cc1ccc([C@@H](C)Nc2ccccc2C(=O)NCCCCNC(=O)c2ccc(-c3c4nc(c(-c5c(F)cc(S(=O)(=O)[O-])cc5F)c5ccc([nH]5)c(-c5c(F)cc(S(=O)(=O)[O-])cc5F)c5nc(c(-c6c(F)cc(S(=O)(=O)[O-])cc6F)c6ccc3[nH]6)C=C5)C=C4)cc2)cc1F
REMARK SMILES IDX 19 1 18 2 17 3 15 4 16 5 14 7 9 8 10 9 11 10 13 11 12 12
REMARK SMILES IDX 8 13 6 15 7 16 5 17 1 18 2 19 3 20 92 21 4 22 91 23 93 24
REMARK SMILES IDX 20 25 21 26 22 27 23 28 24 30 25 31 26 32 90 33 27 34 89 35
REMARK SMILES IDX 28 36 29 37 30 38 83 39 31 40 88 41 82 42 84 43 32 44 87 45
REMARK SMILES IDX 81 46 80 47 33 49 67 50 46 51 66 52 47 53 50 54 65 55 85 56
REMARK SMILES IDX 48 57 49 58 64 60 86 61 51 62 34 63 35 64 44 65 36 66 37 67
REMARK SMILES IDX 43 68 45 69 38 70 39 71 40 72 41 73 42 74 68 75 69 76 78 77
REMARK SMILES IDX 70 78 71 79 77 80 79 81 72 82 73 83 74 84 75 85 76 86 52 87
REMARK SMILES IDX 53 88 62 89 54 90 55 91 61 92 63 93 56 94 57 95 58 96 59 97
REMARK SMILES IDX 60 98
REMARK H PARENT 17 6 8 14 22 29 84 48 50 59
REMARK Flexibility Score: inf
ROOT
ATOM      1  C   UNL A   1      32.535  30.301  26.776  1.00  0.00     0.023 C 
ENDROOT
BRANCH   1   2
ATOM      2  C   UNL A   1      31.637  30.338  25.532  1.00  0.00     0.116 C 
BRANCH   2   3
ATOM      3  N   UNL A   1      32.187  29.661  24.369  1.00  0.00    -0.352 N 
ATOM      4  C   UNL A   1      31.541  28.960  23.376  1.00  0.00     0.253 C 
ATOM      5  O   UNL A   1      32.205  28.520  22.435  1.00  0.00    -0.269 OA
ATOM      6  H   UNL A   1      33.165  29.712  24.278  1.00  0.00     0.163 HD
BRANCH   4   7
ATOM      7  C   UNL A   1      30.096  28.622  23.439  1.00  0.00     0.062 A 
ATOM      8  C   UNL A   1      29.558  27.351  23.701  1.00  0.00     0.047 A 
ATOM      9  C   UNL A   1      28.157  27.204  23.607  1.00  0.00     0.026 A 
ATOM     10  C   UNL A   1      27.314  28.274  23.298  1.00  0.00     0.002 A 
ATOM     11  C   UNL A   1      29.234  29.708  23.173  1.00  0.00     0.016 A 
ATOM     12  C   UNL A   1      27.852  29.537  23.101  1.00  0.00     0.001 A 
BRANCH   8  13
ATOM     13  N   UNL A   1      30.279  26.229  24.104  1.00  0.00    -0.378 N 
ATOM     14  H   UNL A   1      30.772  25.710  23.428  1.00  0.00     0.161 HD
BRANCH  13  15
ATOM     15  C   UNL A   1      30.325  25.795  25.511  1.00  0.00     0.106 C 
ATOM     16  C   UNL A   1      31.048  26.801  26.398  1.00  0.00     0.036 C 
BRANCH  15  17
ATOM     17  C   UNL A   1      31.053  24.454  25.635  1.00  0.00    -0.023 A 
ATOM     18  C   UNL A   1      33.251  20.731  25.838  1.00  0.00     0.047 C 
ATOM     19  C   UNL A   1      32.428  21.979  25.771  1.00  0.00    -0.015 A 
ATOM     20  C   UNL A   1      31.816  22.385  24.581  1.00  0.00     0.007 A 
ATOM     21  C   UNL A   1      32.303  22.796  26.893  1.00  0.00     0.126 A 
ATOM     22  C   UNL A   1      31.146  23.613  24.512  1.00  0.00     0.006 A 
ATOM     23  C   UNL A   1      31.589  23.988  26.847  1.00  0.00     0.045 A 
ATOM     24  F   UNL A   1      32.911  22.451  28.036  1.00  0.00    -0.207 F 
ENDBRANCH  15  17
ENDBRANCH  13  15
ENDBRANCH   8  13
ENDBRANCH   4   7
ENDBRANCH   2   3
ENDBRANCH   1   2
BRANCH   1  25
ATOM     25  C   UNL A   1      33.897  29.612  26.634  1.00  0.00     0.023 C 
BRANCH  25  26
ATOM     26  C   UNL A   1      34.622  29.322  27.940  1.00  0.00     0.116 C 
BRANCH  26  27
ATOM     27  N   UNL A   1      35.182  30.507  28.580  1.00  0.00    -0.352 N 
ATOM     28  C   UNL A   1      36.167  30.421  29.558  1.00  0.00     0.251 C 
ATOM     29  H   UNL A   1      34.852  31.395  28.311  1.00  0.00     0.163 HD
ATOM     30  O   UNL A   1      35.989  30.866  30.688  1.00  0.00    -0.269 OA
BRANCH  28  31
ATOM     31  C   UNL A   1      37.394  29.648  29.209  1.00  0.00     0.039 A 
ATOM     32  C   UNL A   1      38.181  29.986  28.103  1.00  0.00     0.014 A 
ATOM     33  C   UNL A   1      37.803  28.618  30.054  1.00  0.00     0.014 A 
ATOM     34  C   UNL A   1      39.426  29.371  27.930  1.00  0.00     0.010 A 
ATOM     35  C   UNL A   1      39.070  28.104  29.964  1.00  0.00     0.010 A 
ATOM     36  C   UNL A   1      39.886  28.470  28.898  1.00  0.00    -0.014 A 
BRANCH  36  37
ATOM     37  C   UNL A   1      41.209  27.856  28.879  1.00  0.00     0.031 A 
ATOM     38  C   UNL A   1      41.392  26.476  28.404  1.00  0.00     0.074 A 
ATOM     39  C   UNL A   1      42.258  28.582  29.319  1.00  0.00     0.049 A 
ATOM     40  N   UNL A   1      42.244  25.649  28.902  1.00  0.00    -0.248 NA
ATOM     41  C   UNL A   1      40.597  25.916  27.317  1.00  0.00     0.031 C 
ATOM     42  C   UNL A   1      43.673  28.243  29.352  1.00  0.00     0.029 A 
ATOM     43  N   UNL A   1      42.165  29.744  30.092  1.00  0.00    -0.354 N 
ATOM     44  C   UNL A   1      42.313  24.571  28.046  1.00  0.00     0.074 A 
ATOM     45  C   UNL A   1      41.197  24.734  27.140  1.00  0.00     0.031 C 
ATOM     46  C   UNL A   1      44.249  28.960  30.336  1.00  0.00     0.029 A 
ATOM     47  C   UNL A   1      43.185  29.663  31.044  1.00  0.00     0.049 A 
ATOM     48  H   UNL A   1      41.512  30.472  29.986  1.00  0.00     0.167 HD
ATOM     49  C   UNL A   1      43.407  23.756  28.080  1.00  0.00     0.037 A 
ATOM     50  C   UNL A   1      42.831  29.494  32.353  1.00  0.00     0.037 A 
ATOM     51  C   UNL A   1      44.373  24.221  29.078  1.00  0.00     0.049 A 
ATOM     52  C   UNL A   1      43.334  28.195  32.947  1.00  0.00     0.074 A 
ATOM     53  C   UNL A   1      45.528  24.982  28.996  1.00  0.00     0.029 A 
ATOM     54  N   UNL A   1      44.025  24.212  30.418  1.00  0.00    -0.354 N 
ATOM     55  N   UNL A   1      43.830  27.209  32.251  1.00  0.00    -0.248 NA
ATOM     56  C   UNL A   1      43.298  27.899  34.376  1.00  0.00     0.031 C 
ATOM     57  C   UNL A   1      45.873  25.421  30.303  1.00  0.00     0.029 A 
ATOM     58  C   UNL A   1      44.932  24.922  31.183  1.00  0.00     0.049 A 
ATOM     59  H   UNL A   1      43.231  23.758  30.781  1.00  0.00     0.167 HD
ATOM     60  C   UNL A   1      44.176  26.176  33.084  1.00  0.00     0.074 A 
ATOM     61  C   UNL A   1      43.804  26.652  34.405  1.00  0.00     0.031 C 
ATOM     62  C   UNL A   1      44.728  25.014  32.622  1.00  0.00     0.037 A 
BRANCH  49  63
ATOM     63  C   UNL A   1      43.724  22.753  26.989  1.00  0.00     0.058 A 
ATOM     64  C   UNL A   1      42.982  21.560  26.862  1.00  0.00     0.135 A 
ATOM     65  C   UNL A   1      44.779  22.892  26.063  1.00  0.00     0.135 A 
ATOM     66  F   UNL A   1      41.884  21.333  27.593  1.00  0.00    -0.206 F 
ATOM     67  C   UNL A   1      43.336  20.533  25.987  1.00  0.00     0.059 A 
ATOM     68  C   UNL A   1      45.183  21.858  25.207  1.00  0.00     0.059 A 
ATOM     69  F   UNL A   1      45.441  24.053  25.940  1.00  0.00    -0.206 F 
ATOM     70  C   UNL A   1      44.462  20.672  25.189  1.00  0.00     0.060 A 
BRANCH  70  71
ATOM     71  S   UNL A   1      44.953  19.285  24.145  1.00  0.00     0.124 S 
ATOM     72  O   UNL A   1      46.407  19.295  24.283  1.00  0.00    -0.237 OA
ATOM     73  O   UNL A   1      44.265  18.168  24.784  1.00  0.00    -0.237 OA
ATOM     74  O   UNL A   1      44.455  19.659  22.825  1.00  0.00    -0.744 OA
ENDBRANCH  70  71
ENDBRANCH  49  63
BRANCH  50  75
ATOM     75  C   UNL A   1      41.543  30.192  32.689  1.00  0.00     0.058 A 
ATOM     76  C   UNL A   1      40.427  29.393  33.018  1.00  0.00     0.135 A 
ATOM     77  C   UNL A   1      41.505  31.530  33.116  1.00  0.00     0.135 A 
ATOM     78  F   UNL A   1      40.392  28.105  32.634  1.00  0.00    -0.206 F 
ATOM     79  C   UNL A   1      39.405  29.849  33.849  1.00  0.00     0.059 A 
ATOM     80  C   UNL A   1      40.480  32.010  33.948  1.00  0.00     0.059 A 
ATOM     81  F   UNL A   1      42.520  32.357  32.824  1.00  0.00    -0.206 F 
ATOM     82  C   UNL A   1      39.473  31.139  34.365  1.00  0.00     0.060 A 
BRANCH  82  83
ATOM     83  S   UNL A   1      38.248  31.630  35.610  1.00  0.00     0.124 S 
ATOM     84  O   UNL A   1      38.908  32.748  36.278  1.00  0.00    -0.237 OA
ATOM     85  O   UNL A   1      37.089  31.994  34.795  1.00  0.00    -0.237 OA
ATOM     86  O   UNL A   1      38.098  30.430  36.421  1.00  0.00    -0.744 OA
ENDBRANCH  82  83
ENDBRANCH  50  75
BRANCH  62  87
ATOM     87  C   UNL A   1      45.107  23.835  33.486  1.00  0.00     0.058 A 
ATOM     88  C   UNL A   1      44.204  22.831  33.869  1.00  0.00     0.135 A 
ATOM     89  C   UNL A   1      46.408  23.724  34.033  1.00  0.00     0.135 A 
ATOM     90  F   UNL A   1      42.906  22.906  33.534  1.00  0.00    -0.206 F 
ATOM     91  C   UNL A   1      44.597  21.728  34.632  1.00  0.00     0.059 A 
ATOM     92  C   UNL A   1      46.808  22.663  34.838  1.00  0.00     0.059 A 
ATOM     93  F   UNL A   1      47.363  24.629  33.784  1.00  0.00    -0.206 F 
ATOM     94  C   UNL A   1      45.909  21.643  35.093  1.00  0.00     0.060 A 
BRANCH  94  95
ATOM     95  S   UNL A   1      46.437  20.196  36.024  1.00  0.00     0.124 S 
ATOM     96  O   UNL A   1      45.534  19.160  35.532  1.00  0.00    -0.237 OA
ATOM     97  O   UNL A   1      47.829  20.073  35.605  1.00  0.00    -0.237 OA
ATOM     98  O   UNL A   1      46.232  20.590  37.415  1.00  0.00    -0.744 OA
ENDBRANCH  94  95
ENDBRANCH  62  87
ENDBRANCH  36  37
ENDBRANCH  28  31
ENDBRANCH  26  27
ENDBRANCH  25  26
ENDBRANCH   1  25
TORSDOF 17
ENDMDL
MODEL 3
REMARK VINA RESULT:     -13.7      1.597      3.409
REMARK SMILES Cc1ccc([C@@H](C)Nc2ccccc2C(=O)NCCCCNC(=O)c2ccc(-c3c4nc(c(-c5c(F)cc(S(=O)(=O)[O-])cc5F)c5ccc([nH]5)c(-c5c(F)cc(S(=O)(=O)[O-])cc5F)c5nc(c(-c6c(F)cc(S(=O)(=O)[O-])cc6F)c6ccc3[nH]6)C=C5)C=C4)cc2)cc1F
REMARK SMILES IDX 19 1 18 2 17 3 15 4 16 5 14 7 9 8 10 9 11 10 13 11 12 12
REMARK SMILES IDX 8 13 6 15 7 16 5 17 1 18 2 19 3 20 92 21 4 22 91 23 93 24
REMARK SMILES IDX 20 25 21 26 22 27 23 28 24 30 25 31 26 32 90 33 27 34 89 35
REMARK SMILES IDX 28 36 29 37 30 38 83 39 31 40 88 41 82 42 84 43 32 44 87 45
REMARK SMILES IDX 81 46 80 47 33 49 67 50 46 51 66 52 47 53 50 54 65 55 85 56
REMARK SMILES IDX 48 57 49 58 64 60 86 61 51 62 34 63 35 64 44 65 36 66 37 67
REMARK SMILES IDX 43 68 45 69 38 70 39 71 40 72 41 73 42 74 68 75 69 76 78 77
REMARK SMILES IDX 70 78 71 79 77 80 79 81 72 82 73 83 74 84 75 85 76 86 52 87
REMARK SMILES IDX 53 88 62 89 54 90 55 91 61 92 63 93 56 94 57 95 58 96 59 97
REMARK SMILES IDX 60 98
REMARK H PARENT 17 6 8 14 22 29 84 48 50 59
REMARK Flexibility Score: inf
ROOT
ATOM      1  C   UNL A   1      33.510  26.901  25.198  1.00  0.00     0.023 C 
ENDROOT
BRANCH   1   2
ATOM      2  C   UNL A   1      34.250  25.561  25.102  1.00  0.00     0.116 C 
BRANCH   2   3
ATOM      3  N   UNL A   1      34.177  24.922  23.798  1.00  0.00    -0.352 N 
ATOM      4  C   UNL A   1      34.734  23.737  23.370  1.00  0.00     0.253 C 
ATOM      5  O   UNL A   1      34.485  23.346  22.228  1.00  0.00    -0.269 OA
ATOM      6  H   UNL A   1      33.653  25.406  23.122  1.00  0.00     0.163 HD
BRANCH   4   7
ATOM      7  C   UNL A   1      35.703  22.962  24.186  1.00  0.00     0.062 A 
ATOM      8  C   UNL A   1      35.485  21.687  24.733  1.00  0.00     0.047 A 
ATOM      9  C   UNL A   1      36.486  21.158  25.576  1.00  0.00     0.026 A 
ATOM     10  C   UNL A   1      37.672  21.846  25.846  1.00  0.00     0.002 A 
ATOM     11  C   UNL A   1      36.924  23.630  24.427  1.00  0.00     0.016 A 
ATOM     12  C   UNL A   1      37.902  23.078  25.253  1.00  0.00     0.001 A 
BRANCH   8  13
ATOM     13  N   UNL A   1      34.391  20.865  24.471  1.00  0.00    -0.378 N 
ATOM     14  H   UNL A   1      34.337  20.403  23.603  1.00  0.00     0.161 HD
BRANCH  13  15
ATOM     15  C   UNL A   1      33.311  20.666  25.452  1.00  0.00     0.106 C 
ATOM     16  C   UNL A   1      32.418  19.485  25.091  1.00  0.00     0.036 C 
BRANCH  15  17
ATOM     17  C   UNL A   1      32.427  21.913  25.538  1.00  0.00    -0.023 A 
ATOM     18  C   UNL A   1      30.105  25.554  25.824  1.00  0.00     0.047 C 
ATOM     19  C   UNL A   1      30.853  24.259  25.762  1.00  0.00    -0.015 A 
ATOM     20  C   UNL A   1      31.559  23.772  26.866  1.00  0.00     0.007 A 
ATOM     21  C   UNL A   1      30.906  23.540  24.570  1.00  0.00     0.126 A 
ATOM     22  C   UNL A   1      32.345  22.618  26.752  1.00  0.00     0.006 A 
ATOM     23  C   UNL A   1      31.637  22.361  24.466  1.00  0.00     0.045 A 
ATOM     24  F   UNL A   1      30.270  24.003  23.485  1.00  0.00    -0.207 F 
ENDBRANCH  15  17
ENDBRANCH  13  15
ENDBRANCH   8  13
ENDBRANCH   4   7
ENDBRANCH   2   3
ENDBRANCH   1   2
BRANCH   1  25
ATOM     25  C   UNL A   1      33.671  27.697  26.499  1.00  0.00     0.023 C 
BRANCH  25  26
ATOM     26  C   UNL A   1      35.076  28.203  26.786  1.00  0.00     0.116 C 
BRANCH  26  27
ATOM     27  N   UNL A   1      35.141  29.631  27.078  1.00  0.00    -0.352 N 
ATOM     28  C   UNL A   1      35.705  30.120  28.252  1.00  0.00     0.251 C 
ATOM     29  H   UNL A   1      34.774  30.268  26.423  1.00  0.00     0.163 HD
ATOM     30  O   UNL A   1      35.053  30.793  29.044  1.00  0.00    -0.269 OA
BRANCH  28  31
ATOM     31  C   UNL A   1      37.094  29.675  28.564  1.00  0.00     0.039 A 
ATOM     32  C   UNL A   1      37.372  28.866  29.671  1.00  0.00     0.014 A 
ATOM     33  C   UNL A   1      38.121  30.010  27.683  1.00  0.00     0.014 A 
ATOM     34  C   UNL A   1      38.646  28.305  29.812  1.00  0.00     0.010 A 
ATOM     35  C   UNL A   1      39.329  29.366  27.744  1.00  0.00     0.010 A 
ATOM     36  C   UNL A   1      39.603  28.517  28.812  1.00  0.00    -0.014 A 
BRANCH  36  37
ATOM     37  C   UNL A   1      40.921  27.893  28.797  1.00  0.00     0.031 A 
ATOM     38  C   UNL A   1      41.088  26.497  28.368  1.00  0.00     0.074 A 
ATOM     39  C   UNL A   1      41.981  28.626  29.198  1.00  0.00     0.049 A 
ATOM     40  N   UNL A   1      41.940  25.680  28.883  1.00  0.00    -0.248 NA
ATOM     41  C   UNL A   1      40.274  25.905  27.311  1.00  0.00     0.031 C 
ATOM     42  C   UNL A   1      43.394  28.277  29.224  1.00  0.00     0.029 A 
ATOM     43  N   UNL A   1      41.907  29.814  29.931  1.00  0.00    -0.354 N 
ATOM     44  C   UNL A   1      41.990  24.573  28.063  1.00  0.00     0.074 A 
ATOM     45  C   UNL A   1      40.863  24.713  27.167  1.00  0.00     0.031 C 
ATOM     46  C   UNL A   1      43.988  29.023  30.175  1.00  0.00     0.029 A 
ATOM     47  C   UNL A   1      42.939  29.758  30.872  1.00  0.00     0.049 A 
ATOM     48  H   UNL A   1      41.257  30.544  29.809  1.00  0.00     0.167 HD
ATOM     49  C   UNL A   1      43.078  23.751  28.112  1.00  0.00     0.037 A 
ATOM     50  C   UNL A   1      42.601  29.637  32.191  1.00  0.00     0.037 A 
ATOM     51  C   UNL A   1      44.061  24.243  29.080  1.00  0.00     0.049 A 
ATOM     52  C   UNL A   1      43.101  28.356  32.823  1.00  0.00     0.074 A 
ATOM     53  C   UNL A   1      45.220  24.992  28.957  1.00  0.00     0.029 A 
ATOM     54  N   UNL A   1      43.731  24.283  30.424  1.00  0.00    -0.354 N 
ATOM     55  N   UNL A   1      43.581  27.342  32.155  1.00  0.00    -0.248 NA
ATOM     56  C   UNL A   1      43.083  28.109  34.261  1.00  0.00     0.031 C 
ATOM     57  C   UNL A   1      45.585  25.473  30.244  1.00  0.00     0.029 A 
ATOM     58  C   UNL A   1      44.653  25.012  31.153  1.00  0.00     0.049 A 
ATOM     59  H   UNL A   1      42.938  23.847  30.813  1.00  0.00     0.167 HD
ATOM     60  C   UNL A   1      43.931  26.337  33.018  1.00  0.00     0.074 A 
ATOM     61  C   UNL A   1      43.580  26.860  34.327  1.00  0.00     0.031 C 
ATOM     62  C   UNL A   1      44.468  25.154  32.590  1.00  0.00     0.037 A 
BRANCH  49  63
ATOM     63  C   UNL A   1      43.373  22.709  27.051  1.00  0.00     0.058 A 
ATOM     64  C   UNL A   1      42.649  21.499  27.001  1.00  0.00     0.135 A 
ATOM     65  C   UNL A   1      44.392  22.827  26.082  1.00  0.00     0.135 A 
ATOM     66  F   UNL A   1      41.583  21.285  27.782  1.00  0.00    -0.206 F 
ATOM     67  C   UNL A   1      42.990  20.443  26.157  1.00  0.00     0.059 A 
ATOM     68  C   UNL A   1      44.783  21.764  25.256  1.00  0.00     0.059 A 
ATOM     69  F   UNL A   1      45.028  23.992  25.887  1.00  0.00    -0.206 F 
ATOM     70  C   UNL A   1      44.084  20.567  25.313  1.00  0.00     0.060 A 
BRANCH  70  71
ATOM     71  S   UNL A   1      44.561  19.146  24.310  1.00  0.00     0.124 S 
ATOM     72  O   UNL A   1      44.375  19.650  22.952  1.00  0.00    -0.237 OA
ATOM     73  O   UNL A   1      45.944  18.935  24.723  1.00  0.00    -0.237 OA
ATOM     74  O   UNL A   1      43.618  18.109  24.717  1.00  0.00    -0.744 OA
ENDBRANCH  70  71
ENDBRANCH  49  63
BRANCH  50  75
ATOM     75  C   UNL A   1      41.322  30.356  32.519  1.00  0.00     0.058 A 
ATOM     76  C   UNL A   1      40.207  29.578  32.897  1.00  0.00     0.135 A 
ATOM     77  C   UNL A   1      41.299  31.710  32.893  1.00  0.00     0.135 A 
ATOM     78  F   UNL A   1      40.158  28.276  32.566  1.00  0.00    -0.206 F 
ATOM     79  C   UNL A   1      39.201  30.074  33.726  1.00  0.00     0.059 A 
ATOM     80  C   UNL A   1      40.290  32.229  33.722  1.00  0.00     0.059 A 
ATOM     81  F   UNL A   1      42.314  32.518  32.552  1.00  0.00    -0.206 F 
ATOM     82  C   UNL A   1      39.285  31.382  34.189  1.00  0.00     0.060 A 
BRANCH  82  83
ATOM     83  S   UNL A   1      38.083  31.930  35.432  1.00  0.00     0.124 S 
ATOM     84  O   UNL A   1      36.927  32.292  34.617  1.00  0.00    -0.237 OA
ATOM     85  O   UNL A   1      37.907  30.736  36.259  1.00  0.00    -0.237 OA
ATOM     86  O   UNL A   1      38.757  33.050  36.076  1.00  0.00    -0.744 OA
ENDBRANCH  82  83
ENDBRANCH  50  75
BRANCH  62  87
ATOM     87  C   UNL A   1      44.851  24.003  33.489  1.00  0.00     0.058 A 
ATOM     88  C   UNL A   1      43.917  23.136  34.079  1.00  0.00     0.135 A 
ATOM     89  C   UNL A   1      46.201  23.785  33.855  1.00  0.00     0.135 A 
ATOM     90  F   UNL A   1      42.599  23.333  33.923  1.00  0.00    -0.206 F 
ATOM     91  C   UNL A   1      44.306  22.052  34.870  1.00  0.00     0.059 A 
ATOM     92  C   UNL A   1      46.606  22.744  34.683  1.00  0.00     0.059 A 
ATOM     93  F   UNL A   1      47.195  24.557  33.400  1.00  0.00    -0.206 F 
ATOM     94  C   UNL A   1      45.656  21.852  35.148  1.00  0.00     0.060 A 
BRANCH  94  95
ATOM     95  S   UNL A   1      46.167  20.423  36.115  1.00  0.00     0.124 S 
ATOM     96  O   UNL A   1      45.669  20.750  37.447  1.00  0.00    -0.237 OA
ATOM     97  O   UNL A   1      45.470  19.342  35.426  1.00  0.00    -0.237 OA
ATOM     98  O   UNL A   1      47.621  20.419  35.980  1.00  0.00    -0.744 OA
ENDBRANCH  94  95
ENDBRANCH  62  87
ENDBRANCH  36  37
ENDBRANCH  28  31
ENDBRANCH  26  27
ENDBRANCH  25  26
ENDBRANCH   1  25
TORSDOF 17
ENDMDL
