MODEL 1
REMARK VINA RESULT:     -15.3      0.000      0.000
REMARK SMILES Cc1c(NC(=O)c2cccc(-c3cc4ccccc4oc3=O)c2)cccc1C(=O)NCCCCNC(=O)c1ccc(-c2c3nc(c(-c4c(F)cc(S(=O)(=O)[O-])cc4F)c4ccc([nH]4)c(-c4c(F)cc(S(=O)(=O)[O-])cc4F)c4nc(c(-c5c(F)cc(S(=O)(=O)[O-])cc5F)c5ccc2[nH]5)C=C4)C=C3)cc1
REMARK SMILES IDX 32 1 31 2 30 3 28 4 29 5 27 7 1 8 2 9 3 10 24 11 26 12 25 13
REMARK SMILES IDX 4 14 5 15 6 17 7 18 8 19 23 20 9 21 11 22 10 23 12 24 13 25
REMARK SMILES IDX 21 26 14 27 20 28 22 29 15 30 19 31 16 32 18 33 17 34 33 35
REMARK SMILES IDX 34 36 35 37 36 38 37 40 38 41 39 42 103 43 40 44 102 45
REMARK SMILES IDX 41 46 42 47 43 48 96 49 44 50 101 51 95 52 97 53 45 54
REMARK SMILES IDX 100 55 94 56 93 57 46 59 80 60 59 61 79 62 60 63 63 64 78 65
REMARK SMILES IDX 98 66 61 67 62 68 77 70 99 71 64 72 47 73 48 74 57 75 49 76
REMARK SMILES IDX 50 77 56 78 58 79 51 80 52 81 53 82 54 83 55 84 81 85 82 86
REMARK SMILES IDX 91 87 83 88 84 89 90 90 92 91 85 92 86 93 87 94 88 95 89 96
REMARK SMILES IDX 65 97 66 98 75 99 67 100 68 101 74 102 76 103 69 104 70 105
REMARK SMILES IDX 71 106 72 107 73 108
REMARK H PARENT 30 6 4 16 35 39 97 58 63 69
REMARK Flexibility Score: inf
ROOT
ATOM      1  C   UNL A   1      32.483  31.203  26.831  1.00  0.00     0.023 C 
ENDROOT
BRANCH   1   2
ATOM      2  C   UNL A   1      31.598  30.503  25.779  1.00  0.00     0.116 C 
BRANCH   2   3
ATOM      3  N   UNL A   1      32.388  29.911  24.714  1.00  0.00    -0.352 N 
ATOM      4  C   UNL A   1      32.445  28.749  23.996  1.00  0.00     0.251 C 
ATOM      5  O   UNL A   1      33.362  28.769  23.157  1.00  0.00    -0.269 OA
ATOM      6  H   UNL A   1      33.094  30.532  24.422  1.00  0.00     0.163 HD
BRANCH   4   7
ATOM      7  C   UNL A   1      31.620  27.477  24.075  1.00  0.00     0.044 A 
ATOM      8  C   UNL A   1      31.276  27.173  26.602  1.00  0.00     0.047 C 
ATOM      9  C   UNL A   1      31.121  26.740  25.179  1.00  0.00    -0.015 A 
ATOM     10  C   UNL A   1      30.507  25.467  24.960  1.00  0.00     0.045 A 
ATOM     11  C   UNL A   1      30.389  24.928  23.678  1.00  0.00     0.026 A 
ATOM     12  C   UNL A   1      31.454  26.885  22.791  1.00  0.00     0.014 A 
ATOM     13  C   UNL A   1      30.864  25.638  22.592  1.00  0.00     0.003 A 
BRANCH  10  14
ATOM     14  N   UNL A   1      29.984  24.758  26.060  1.00  0.00    -0.322 N 
ATOM     15  C   UNL A   1      30.461  23.686  26.775  1.00  0.00     0.255 C 
ATOM     16  H   UNL A   1      29.113  25.094  26.374  1.00  0.00     0.170 HD
ATOM     17  O   UNL A   1      29.681  23.067  27.502  1.00  0.00    -0.269 OA
BRANCH  15  18
ATOM     18  C   UNL A   1      31.905  23.316  26.817  1.00  0.00     0.040 A 
ATOM     19  C   UNL A   1      32.356  22.584  27.923  1.00  0.00     0.014 A 
ATOM     20  C   UNL A   1      32.845  23.788  25.889  1.00  0.00     0.022 A 
ATOM     21  C   UNL A   1      33.710  22.292  28.076  1.00  0.00     0.001 A 
ATOM     22  C   UNL A   1      34.212  23.492  26.022  1.00  0.00    -0.010 A 
ATOM     23  C   UNL A   1      34.630  22.737  27.127  1.00  0.00     0.009 A 
BRANCH  22  24
ATOM     24  C   UNL A   1      35.262  24.042  25.123  1.00  0.00     0.068 A 
ATOM     25  C   UNL A   1      36.551  24.196  25.498  1.00  0.00     0.028 A 
ATOM     26  C   UNL A   1      35.184  23.538  23.714  1.00  0.00     0.344 A 
ATOM     27  C   UNL A   1      37.331  22.946  25.361  1.00  0.00     0.018 A 
ATOM     28  O   UNL A   1      35.862  22.334  23.517  1.00  0.00    -0.422 OA
ATOM     29  O   UNL A   1      34.514  24.089  22.850  1.00  0.00    -0.246 OA
ATOM     30  C   UNL A   1      38.438  22.665  26.155  1.00  0.00     0.012 A 
ATOM     31  C   UNL A   1      36.892  22.002  24.423  1.00  0.00     0.138 A 
ATOM     32  C   UNL A   1      39.058  21.419  26.037  1.00  0.00     0.001 A 
ATOM     33  C   UNL A   1      37.472  20.745  24.334  1.00  0.00     0.048 A 
ATOM     34  C   UNL A   1      38.557  20.453  25.157  1.00  0.00     0.004 A 
ENDBRANCH  22  24
ENDBRANCH  15  18
ENDBRANCH  10  14
ENDBRANCH   4   7
ENDBRANCH   2   3
ENDBRANCH   1   2
BRANCH   1  35
ATOM     35  C   UNL A   1      33.331  30.282  27.710  1.00  0.00     0.023 C 
BRANCH  35  36
ATOM     36  C   UNL A   1      34.760  30.167  27.211  1.00  0.00     0.116 C 
BRANCH  36  37
ATOM     37  N   UNL A   1      35.641  31.273  27.554  1.00  0.00    -0.352 N 
ATOM     38  C   UNL A   1      36.810  31.202  28.300  1.00  0.00     0.251 C 
ATOM     39  H   UNL A   1      35.381  32.164  27.225  1.00  0.00     0.163 HD
ATOM     40  O   UNL A   1      37.326  32.194  28.799  1.00  0.00    -0.269 OA
BRANCH  38  41
ATOM     41  C   UNL A   1      37.487  29.886  28.357  1.00  0.00     0.039 A 
ATOM     42  C   UNL A   1      37.557  29.265  29.610  1.00  0.00     0.014 A 
ATOM     43  C   UNL A   1      38.329  29.500  27.321  1.00  0.00     0.014 A 
ATOM     44  C   UNL A   1      38.627  28.420  29.896  1.00  0.00     0.010 A 
ATOM     45  C   UNL A   1      39.454  28.769  27.643  1.00  0.00     0.010 A 
ATOM     46  C   UNL A   1      39.631  28.269  28.944  1.00  0.00    -0.014 A 
BRANCH  46  47
ATOM     47  C   UNL A   1      40.939  27.678  29.214  1.00  0.00     0.031 A 
ATOM     48  C   UNL A   1      41.200  26.275  28.813  1.00  0.00     0.074 A 
ATOM     49  C   UNL A   1      41.945  28.442  29.693  1.00  0.00     0.049 A 
ATOM     50  N   UNL A   1      42.219  25.575  29.179  1.00  0.00    -0.248 NA
ATOM     51  C   UNL A   1      40.264  25.519  27.990  1.00  0.00     0.031 C 
ATOM     52  C   UNL A   1      43.375  28.150  29.635  1.00  0.00     0.029 A 
ATOM     53  N   UNL A   1      41.865  29.570  30.503  1.00  0.00    -0.354 N 
ATOM     54  C   UNL A   1      42.236  24.419  28.428  1.00  0.00     0.074 A 
ATOM     55  C   UNL A   1      40.950  24.395  27.779  1.00  0.00     0.031 C 
ATOM     56  C   UNL A   1      44.017  28.913  30.533  1.00  0.00     0.029 A 
ATOM     57  C   UNL A   1      43.008  29.602  31.318  1.00  0.00     0.049 A 
ATOM     58  H   UNL A   1      41.135  30.230  30.505  1.00  0.00     0.167 HD
ATOM     59  C   UNL A   1      43.398  23.702  28.348  1.00  0.00     0.037 A 
ATOM     60  C   UNL A   1      42.903  29.502  32.679  1.00  0.00     0.037 A 
ATOM     61  C   UNL A   1      44.366  24.195  29.337  1.00  0.00     0.049 A 
ATOM     62  C   UNL A   1      43.519  28.246  33.259  1.00  0.00     0.074 A 
ATOM     63  C   UNL A   1      45.473  25.023  29.249  1.00  0.00     0.029 A 
ATOM     64  N   UNL A   1      44.073  24.079  30.695  1.00  0.00    -0.354 N 
ATOM     65  N   UNL A   1      43.885  27.216  32.547  1.00  0.00    -0.248 NA
ATOM     66  C   UNL A   1      43.762  28.043  34.685  1.00  0.00     0.031 C 
ATOM     67  C   UNL A   1      45.782  25.484  30.555  1.00  0.00     0.029 A 
ATOM     68  C   UNL A   1      44.886  24.912  31.442  1.00  0.00     0.049 A 
ATOM     69  H   UNL A   1      43.383  23.487  31.071  1.00  0.00     0.167 HD
ATOM     70  C   UNL A   1      44.349  26.222  33.369  1.00  0.00     0.074 A 
ATOM     71  C   UNL A   1      44.283  26.802  34.698  1.00  0.00     0.031 C 
ATOM     72  C   UNL A   1      44.733  25.002  32.889  1.00  0.00     0.037 A 
BRANCH  59  73
ATOM     73  C   UNL A   1      43.770  22.773  27.193  1.00  0.00     0.058 A 
ATOM     74  C   UNL A   1      43.019  21.597  26.950  1.00  0.00     0.135 A 
ATOM     75  C   UNL A   1      44.898  22.904  26.356  1.00  0.00     0.135 A 
ATOM     76  F   UNL A   1      41.862  21.363  27.584  1.00  0.00    -0.206 F 
ATOM     77  C   UNL A   1      43.420  20.597  26.055  1.00  0.00     0.059 A 
ATOM     78  C   UNL A   1      45.339  21.905  25.482  1.00  0.00     0.059 A 
ATOM     79  F   UNL A   1      45.614  24.026  26.294  1.00  0.00    -0.206 F 
ATOM     80  C   UNL A   1      44.604  20.743  25.349  1.00  0.00     0.060 A 
BRANCH  80  81
ATOM     81  S   UNL A   1      45.160  19.424  24.255  1.00  0.00     0.124 S 
ATOM     82  O   UNL A   1      44.726  18.229  24.974  1.00  0.00    -0.237 OA
ATOM     83  O   UNL A   1      44.440  19.724  23.023  1.00  0.00    -0.237 OA
ATOM     84  O   UNL A   1      46.607  19.617  24.194  1.00  0.00    -0.744 OA
ENDBRANCH  80  81
ENDBRANCH  59  73
BRANCH  60  85
ATOM     85  C   UNL A   1      41.720  30.228  33.218  1.00  0.00     0.058 A 
ATOM     86  C   UNL A   1      41.839  31.625  33.351  1.00  0.00     0.135 A 
ATOM     87  C   UNL A   1      40.428  29.692  33.110  1.00  0.00     0.135 A 
ATOM     88  F   UNL A   1      43.053  32.185  33.481  1.00  0.00    -0.206 F 
ATOM     89  C   UNL A   1      40.749  32.469  33.179  1.00  0.00     0.059 A 
ATOM     90  C   UNL A   1      39.317  30.522  32.945  1.00  0.00     0.059 A 
ATOM     91  F   UNL A   1      40.253  28.368  32.989  1.00  0.00    -0.206 F 
ATOM     92  C   UNL A   1      39.508  31.904  32.894  1.00  0.00     0.060 A 
BRANCH  92  93
ATOM     93  S   UNL A   1      38.228  32.998  32.232  1.00  0.00     0.124 S 
ATOM     94  O   UNL A   1      37.192  32.052  31.832  1.00  0.00    -0.237 OA
ATOM     95  O   UNL A   1      37.921  33.816  33.404  1.00  0.00    -0.237 OA
ATOM     96  O   UNL A   1      38.910  33.686  31.142  1.00  0.00    -0.744 OA
ENDBRANCH  92  93
ENDBRANCH  60  85
BRANCH  72  97
ATOM     97  C   UNL A   1      45.079  23.797  33.733  1.00  0.00     0.058 A 
ATOM     98  C   UNL A   1      44.150  22.816  34.123  1.00  0.00     0.135 A 
ATOM     99  C   UNL A   1      46.429  23.524  34.061  1.00  0.00     0.135 A 
ATOM    100  F   UNL A   1      42.858  22.907  33.779  1.00  0.00    -0.206 F 
ATOM    101  C   UNL A   1      44.521  21.679  34.844  1.00  0.00     0.059 A 
ATOM    102  C   UNL A   1      46.828  22.370  34.731  1.00  0.00     0.059 A 
ATOM    103  F   UNL A   1      47.413  24.373  33.728  1.00  0.00    -0.206 F 
ATOM    104  C   UNL A   1      45.863  21.463  35.144  1.00  0.00     0.060 A 
BRANCH 104 105
ATOM    105  S   UNL A   1      46.364  19.970  36.020  1.00  0.00     0.124 S 
ATOM    106  O   UNL A   1      47.813  20.138  36.077  1.00  0.00    -0.237 OA
ATOM    107  O   UNL A   1      45.667  20.091  37.297  1.00  0.00    -0.237 OA
ATOM    108  O   UNL A   1      45.883  18.900  35.152  1.00  0.00    -0.744 OA
ENDBRANCH 104 105
ENDBRANCH  72  97
ENDBRANCH  46  47
ENDBRANCH  38  41
ENDBRANCH  36  37
ENDBRANCH  35  36
ENDBRANCH   1  35
TORSDOF 17
ENDMDL
MODEL 2
REMARK VINA RESULT:     -14.1      1.630      2.197
REMARK SMILES Cc1c(NC(=O)c2cccc(-c3cc4ccccc4oc3=O)c2)cccc1C(=O)NCCCCNC(=O)c1ccc(-c2c3nc(c(-c4c(F)cc(S(=O)(=O)[O-])cc4F)c4ccc([nH]4)c(-c4c(F)cc(S(=O)(=O)[O-])cc4F)c4nc(c(-c5c(F)cc(S(=O)(=O)[O-])cc5F)c5ccc2[nH]5)C=C4)C=C3)cc1
REMARK SMILES IDX 32 1 31 2 30 3 28 4 29 5 27 7 1 8 2 9 3 10 24 11 26 12 25 13
REMARK SMILES IDX 4 14 5 15 6 17 7 18 8 19 23 20 9 21 11 22 10 23 12 24 13 25
REMARK SMILES IDX 21 26 14 27 20 28 22 29 15 30 19 31 16 32 18 33 17 34 33 35
REMARK SMILES IDX 34 36 35 37 36 38 37 40 38 41 39 42 103 43 40 44 102 45
REMARK SMILES IDX 41 46 42 47 43 48 96 49 44 50 101 51 95 52 97 53 45 54
REMARK SMILES IDX 100 55 94 56 93 57 46 59 80 60 59 61 79 62 60 63 63 64 78 65
REMARK SMILES IDX 98 66 61 67 62 68 77 70 99 71 64 72 47 73 48 74 57 75 49 76
REMARK SMILES IDX 50 77 56 78 58 79 51 80 52 81 53 82 54 83 55 84 81 85 82 86
REMARK SMILES IDX 91 87 83 88 84 89 90 90 92 91 85 92 86 93 87 94 88 95 89 96
REMARK SMILES IDX 65 97 66 98 75 99 67 100 68 101 74 102 76 103 69 104 70 105
REMARK SMILES IDX 71 106 72 107 73 108
REMARK H PARENT 30 6 4 16 35 39 97 58 63 69
REMARK Flexibility Score: inf
ROOT
ATOM      1  C   UNL A   1      31.398  32.030  26.803  1.00  0.00     0.023 C 
ENDROOT
BRANCH   1   2
ATOM      2  C   UNL A   1      30.954  31.160  25.609  1.00  0.00     0.116 C 
BRANCH   2   3
ATOM      3  N   UNL A   1      32.066  30.429  25.028  1.00  0.00    -0.352 N 
ATOM      4  C   UNL A   1      32.348  29.170  24.577  1.00  0.00     0.251 C 
ATOM      5  O   UNL A   1      33.514  29.081  24.155  1.00  0.00    -0.269 OA
ATOM      6  H   UNL A   1      32.851  31.014  24.932  1.00  0.00     0.163 HD
BRANCH   4   7
ATOM      7  C   UNL A   1      31.511  27.904  24.535  1.00  0.00     0.044 A 
ATOM      8  C   UNL A   1      31.193  27.348  27.023  1.00  0.00     0.047 C 
ATOM      9  C   UNL A   1      31.016  27.064  25.565  1.00  0.00    -0.015 A 
ATOM     10  C   UNL A   1      30.386  25.825  25.226  1.00  0.00     0.045 A 
ATOM     11  C   UNL A   1      30.247  25.422  23.897  1.00  0.00     0.026 A 
ATOM     12  C   UNL A   1      31.323  27.448  23.201  1.00  0.00     0.014 A 
ATOM     13  C   UNL A   1      30.717  26.233  22.883  1.00  0.00     0.003 A 
BRANCH  10  14
ATOM     14  N   UNL A   1      29.868  25.013  26.254  1.00  0.00    -0.322 N 
ATOM     15  C   UNL A   1      30.329  23.855  26.833  1.00  0.00     0.255 C 
ATOM     16  H   UNL A   1      29.016  25.336  26.627  1.00  0.00     0.170 HD
ATOM     17  O   UNL A   1      29.548  23.180  27.507  1.00  0.00    -0.269 OA
BRANCH  15  18
ATOM     18  C   UNL A   1      31.762  23.443  26.793  1.00  0.00     0.040 A 
ATOM     19  C   UNL A   1      32.226  22.612  27.821  1.00  0.00     0.014 A 
ATOM     20  C   UNL A   1      32.684  23.961  25.874  1.00  0.00     0.022 A 
ATOM     21  C   UNL A   1      33.575  22.271  27.903  1.00  0.00     0.001 A 
ATOM     22  C   UNL A   1      34.045  23.617  25.934  1.00  0.00    -0.010 A 
ATOM     23  C   UNL A   1      34.476  22.764  26.960  1.00  0.00     0.009 A 
BRANCH  22  24
ATOM     24  C   UNL A   1      35.081  24.207  25.044  1.00  0.00     0.068 A 
ATOM     25  C   UNL A   1      36.337  24.488  25.455  1.00  0.00     0.028 A 
ATOM     26  C   UNL A   1      35.099  23.630  23.661  1.00  0.00     0.344 A 
ATOM     27  C   UNL A   1      37.222  23.302  25.411  1.00  0.00     0.018 A 
ATOM     28  O   UNL A   1      35.881  22.478  23.552  1.00  0.00    -0.422 OA
ATOM     29  O   UNL A   1      34.421  24.080  22.747  1.00  0.00    -0.246 OA
ATOM     30  C   UNL A   1      38.316  23.154  26.257  1.00  0.00     0.012 A 
ATOM     31  C   UNL A   1      36.898  22.279  24.509  1.00  0.00     0.138 A 
ATOM     32  C   UNL A   1      39.040  21.960  26.227  1.00  0.00     0.001 A 
ATOM     33  C   UNL A   1      37.582  21.072  24.507  1.00  0.00     0.048 A 
ATOM     34  C   UNL A   1      38.654  20.913  25.382  1.00  0.00     0.004 A 
ENDBRANCH  22  24
ENDBRANCH  15  18
ENDBRANCH  10  14
ENDBRANCH   4   7
ENDBRANCH   2   3
ENDBRANCH   1   2
BRANCH   1  35
ATOM     35  C   UNL A   1      32.895  32.332  26.890  1.00  0.00     0.023 C 
BRANCH  35  36
ATOM     36  C   UNL A   1      33.583  31.518  27.972  1.00  0.00     0.116 C 
BRANCH  36  37
ATOM     37  N   UNL A   1      33.562  30.074  27.787  1.00  0.00    -0.352 N 
ATOM     38  C   UNL A   1      34.663  29.235  27.683  1.00  0.00     0.251 C 
ATOM     39  H   UNL A   1      32.675  29.649  27.729  1.00  0.00     0.163 HD
ATOM     40  O   UNL A   1      34.577  28.099  27.231  1.00  0.00    -0.269 OA
BRANCH  38  41
ATOM     41  C   UNL A   1      35.933  29.723  28.269  1.00  0.00     0.039 A 
ATOM     42  C   UNL A   1      36.887  30.229  27.377  1.00  0.00     0.014 A 
ATOM     43  C   UNL A   1      36.292  29.334  29.554  1.00  0.00     0.014 A 
ATOM     44  C   UNL A   1      38.240  30.126  27.693  1.00  0.00     0.010 A 
ATOM     45  C   UNL A   1      37.630  29.115  29.811  1.00  0.00     0.010 A 
ATOM     46  C   UNL A   1      38.604  29.464  28.861  1.00  0.00    -0.014 A 
BRANCH  46  47
ATOM     47  C   UNL A   1      39.960  29.012  29.163  1.00  0.00     0.031 A 
ATOM     48  C   UNL A   1      40.354  27.622  28.833  1.00  0.00     0.074 A 
ATOM     49  C   UNL A   1      40.887  29.890  29.605  1.00  0.00     0.049 A 
ATOM     50  N   UNL A   1      41.431  27.039  29.236  1.00  0.00    -0.248 NA
ATOM     51  C   UNL A   1      39.497  26.741  28.049  1.00  0.00     0.031 C 
ATOM     52  C   UNL A   1      42.339  29.731  29.564  1.00  0.00     0.029 A 
ATOM     53  N   UNL A   1      40.697  31.044  30.357  1.00  0.00    -0.354 N 
ATOM     54  C   UNL A   1      41.561  25.853  28.544  1.00  0.00     0.074 A 
ATOM     55  C   UNL A   1      40.287  25.678  27.895  1.00  0.00     0.031 C 
ATOM     56  C   UNL A   1      42.901  30.594  30.424  1.00  0.00     0.029 A 
ATOM     57  C   UNL A   1      41.827  31.223  31.171  1.00  0.00     0.049 A 
ATOM     58  H   UNL A   1      39.909  31.632  30.325  1.00  0.00     0.167 HD
ATOM     59  C   UNL A   1      42.785  25.246  28.502  1.00  0.00     0.037 A 
ATOM     60  C   UNL A   1      41.723  31.182  32.536  1.00  0.00     0.037 A 
ATOM     61  C   UNL A   1      43.696  25.875  29.466  1.00  0.00     0.049 A 
ATOM     62  C   UNL A   1      42.450  30.020  33.179  1.00  0.00     0.074 A 
ATOM     63  C   UNL A   1      44.722  26.798  29.339  1.00  0.00     0.029 A 
ATOM     64  N   UNL A   1      43.407  25.801  30.829  1.00  0.00    -0.354 N 
ATOM     65  N   UNL A   1      42.915  28.994  32.520  1.00  0.00    -0.248 NA
ATOM     66  C   UNL A   1      42.702  29.912  34.614  1.00  0.00     0.031 C 
ATOM     67  C   UNL A   1      44.979  27.351  30.620  1.00  0.00     0.029 A 
ATOM     68  C   UNL A   1      44.134  26.743  31.534  1.00  0.00     0.049 A 
ATOM     69  H   UNL A   1      42.773  25.166  31.233  1.00  0.00     0.167 HD
ATOM     70  C   UNL A   1      43.465  28.091  33.392  1.00  0.00     0.074 A 
ATOM     71  C   UNL A   1      43.336  28.728  34.690  1.00  0.00     0.031 C 
ATOM     72  C   UNL A   1      43.965  26.889  32.975  1.00  0.00     0.037 A 
BRANCH  59  73
ATOM     73  C   UNL A   1      43.250  24.299  27.396  1.00  0.00     0.058 A 
ATOM     74  C   UNL A   1      42.766  22.969  27.342  1.00  0.00     0.135 A 
ATOM     75  C   UNL A   1      44.236  24.579  26.427  1.00  0.00     0.135 A 
ATOM     76  F   UNL A   1      41.756  22.560  28.122  1.00  0.00    -0.206 F 
ATOM     77  C   UNL A   1      43.298  21.988  26.495  1.00  0.00     0.059 A 
ATOM     78  C   UNL A   1      44.809  23.611  25.596  1.00  0.00     0.059 A 
ATOM     79  F   UNL A   1      44.670  25.816  26.188  1.00  0.00    -0.206 F 
ATOM     80  C   UNL A   1      44.348  22.309  25.648  1.00  0.00     0.060 A 
BRANCH  80  81
ATOM     81  S   UNL A   1      45.085  21.031  24.615  1.00  0.00     0.124 S 
ATOM     82  O   UNL A   1      46.511  21.226  24.859  1.00  0.00    -0.237 OA
ATOM     83  O   UNL A   1      44.503  19.815  25.171  1.00  0.00    -0.237 OA
ATOM     84  O   UNL A   1      44.635  21.378  23.270  1.00  0.00    -0.744 OA
ENDBRANCH  80  81
ENDBRANCH  59  73
BRANCH  60  85
ATOM     85  C   UNL A   1      40.474  31.821  33.036  1.00  0.00     0.058 A 
ATOM     86  C   UNL A   1      39.418  30.959  33.388  1.00  0.00     0.135 A 
ATOM     87  C   UNL A   1      40.494  33.098  33.616  1.00  0.00     0.135 A 
ATOM     88  F   UNL A   1      39.341  29.734  32.843  1.00  0.00    -0.206 F 
ATOM     89  C   UNL A   1      38.540  31.267  34.420  1.00  0.00     0.059 A 
ATOM     90  C   UNL A   1      39.615  33.432  34.649  1.00  0.00     0.059 A 
ATOM     91  F   UNL A   1      41.472  33.964  33.312  1.00  0.00    -0.206 F 
ATOM     92  C   UNL A   1      38.703  32.474  35.096  1.00  0.00     0.060 A 
BRANCH  92  93
ATOM     93  S   UNL A   1      37.873  32.653  36.694  1.00  0.00     0.124 S 
ATOM     94  O   UNL A   1      38.908  33.277  37.510  1.00  0.00    -0.237 OA
ATOM     95  O   UNL A   1      36.747  33.513  36.331  1.00  0.00    -0.237 OA
ATOM     96  O   UNL A   1      37.531  31.280  37.046  1.00  0.00    -0.744 OA
ENDBRANCH  92  93
ENDBRANCH  60  85
BRANCH  72  97
ATOM     97  C   UNL A   1      44.416  25.766  33.879  1.00  0.00     0.058 A 
ATOM     98  C   UNL A   1      43.539  24.892  34.545  1.00  0.00     0.135 A 
ATOM     99  C   UNL A   1      45.792  25.449  33.984  1.00  0.00     0.135 A 
ATOM    100  F   UNL A   1      42.210  25.021  34.434  1.00  0.00    -0.206 F 
ATOM    101  C   UNL A   1      43.995  23.820  35.316  1.00  0.00     0.059 A 
ATOM    102  C   UNL A   1      46.265  24.354  34.703  1.00  0.00     0.059 A 
ATOM    103  F   UNL A   1      46.727  26.196  33.379  1.00  0.00    -0.206 F 
ATOM    104  C   UNL A   1      45.360  23.558  35.389  1.00  0.00     0.060 A 
BRANCH 104 105
ATOM    105  S   UNL A   1      45.959  22.142  36.331  1.00  0.00     0.124 S 
ATOM    106  O   UNL A   1      47.368  22.116  35.952  1.00  0.00    -0.237 OA
ATOM    107  O   UNL A   1      45.686  22.529  37.712  1.00  0.00    -0.237 OA
ATOM    108  O   UNL A   1      45.145  21.041  35.826  1.00  0.00    -0.744 OA
ENDBRANCH 104 105
ENDBRANCH  72  97
ENDBRANCH  46  47
ENDBRANCH  38  41
ENDBRANCH  36  37
ENDBRANCH  35  36
ENDBRANCH   1  35
TORSDOF 17
ENDMDL
MODEL 3
REMARK VINA RESULT:     -13.6      2.474      3.161
REMARK SMILES Cc1c(NC(=O)c2cccc(-c3cc4ccccc4oc3=O)c2)cccc1C(=O)NCCCCNC(=O)c1ccc(-c2c3nc(c(-c4c(F)cc(S(=O)(=O)[O-])cc4F)c4ccc([nH]4)c(-c4c(F)cc(S(=O)(=O)[O-])cc4F)c4nc(c(-c5c(F)cc(S(=O)(=O)[O-])cc5F)c5ccc2[nH]5)C=C4)C=C3)cc1
REMARK SMILES IDX 32 1 31 2 30 3 28 4 29 5 27 7 1 8 2 9 3 10 24 11 26 12 25 13
REMARK SMILES IDX 4 14 5 15 6 17 7 18 8 19 23 20 9 21 11 22 10 23 12 24 13 25
REMARK SMILES IDX 21 26 14 27 20 28 22 29 15 30 19 31 16 32 18 33 17 34 33 35
REMARK SMILES IDX 34 36 35 37 36 38 37 40 38 41 39 42 103 43 40 44 102 45
REMARK SMILES IDX 41 46 42 47 43 48 96 49 44 50 101 51 95 52 97 53 45 54
REMARK SMILES IDX 100 55 94 56 93 57 46 59 80 60 59 61 79 62 60 63 63 64 78 65
REMARK SMILES IDX 98 66 61 67 62 68 77 70 99 71 64 72 47 73 48 74 57 75 49 76
REMARK SMILES IDX 50 77 56 78 58 79 51 80 52 81 53 82 54 83 55 84 81 85 82 86
REMARK SMILES IDX 91 87 83 88 84 89 90 90 92 91 85 92 86 93 87 94 88 95 89 96
REMARK SMILES IDX 65 97 66 98 75 99 67 100 68 101 74 102 76 103 69 104 70 105
REMARK SMILES IDX 71 106 72 107 73 108
REMARK H PARENT 30 6 4 16 35 39 97 58 63 69
REMARK Flexibility Score: inf
ROOT
ATOM      1  C   UNL A   1      32.896  30.838  27.259  1.00  0.00     0.023 C 
ENDROOT
BRANCH   1   2
ATOM      2  C   UNL A   1      31.964  30.488  26.081  1.00  0.00     0.116 C 
BRANCH   2   3
ATOM      3  N   UNL A   1      32.692  29.898  24.972  1.00  0.00    -0.352 N 
ATOM      4  C   UNL A   1      32.666  28.765  24.208  1.00  0.00     0.251 C 
ATOM      5  O   UNL A   1      33.560  28.769  23.345  1.00  0.00    -0.269 OA
ATOM      6  H   UNL A   1      33.424  30.491  24.685  1.00  0.00     0.163 HD
BRANCH   4   7
ATOM      7  C   UNL A   1      31.773  27.538  24.258  1.00  0.00     0.044 A 
ATOM      8  C   UNL A   1      31.568  27.084  26.778  1.00  0.00     0.047 C 
ATOM      9  C   UNL A   1      31.299  26.757  25.343  1.00  0.00    -0.015 A 
ATOM     10  C   UNL A   1      30.599  25.537  25.085  1.00  0.00     0.045 A 
ATOM     11  C   UNL A   1      30.371  25.094  23.781  1.00  0.00     0.026 A 
ATOM     12  C   UNL A   1      31.493  27.044  22.953  1.00  0.00     0.014 A 
ATOM     13  C   UNL A   1      30.819  25.847  22.714  1.00  0.00     0.003 A 
BRANCH  10  14
ATOM     14  N   UNL A   1      30.103  24.786  26.169  1.00  0.00    -0.322 N 
ATOM     15  C   UNL A   1      30.578  23.664  26.804  1.00  0.00     0.255 C 
ATOM     16  H   UNL A   1      29.259  25.129  26.540  1.00  0.00     0.170 HD
ATOM     17  O   UNL A   1      29.812  23.029  27.532  1.00  0.00    -0.269 OA
BRANCH  15  18
ATOM     18  C   UNL A   1      32.010  23.250  26.759  1.00  0.00     0.040 A 
ATOM     19  C   UNL A   1      32.504  22.502  27.836  1.00  0.00     0.014 A 
ATOM     20  C   UNL A   1      32.907  23.696  25.778  1.00  0.00     0.022 A 
ATOM     21  C   UNL A   1      33.855  22.169  27.908  1.00  0.00     0.001 A 
ATOM     22  C   UNL A   1      34.270  23.358  25.829  1.00  0.00    -0.010 A 
ATOM     23  C   UNL A   1      34.730  22.588  26.906  1.00  0.00     0.009 A 
BRANCH  22  24
ATOM     24  C   UNL A   1      35.280  23.878  24.869  1.00  0.00     0.068 A 
ATOM     25  C   UNL A   1      36.463  24.407  25.253  1.00  0.00     0.028 A 
ATOM     26  C   UNL A   1      35.460  23.025  23.650  1.00  0.00     0.344 A 
ATOM     27  C   UNL A   1      37.489  23.369  25.505  1.00  0.00     0.018 A 
ATOM     28  O   UNL A   1      36.383  21.993  23.826  1.00  0.00    -0.422 OA
ATOM     29  O   UNL A   1      34.792  23.173  22.634  1.00  0.00    -0.246 OA
ATOM     30  C   UNL A   1      38.535  23.555  26.402  1.00  0.00     0.012 A 
ATOM     31  C   UNL A   1      37.353  22.142  24.840  1.00  0.00     0.138 A 
ATOM     32  C   UNL A   1      39.401  22.491  26.663  1.00  0.00     0.001 A 
ATOM     33  C   UNL A   1      38.180  21.066  25.129  1.00  0.00     0.048 A 
ATOM     34  C   UNL A   1      39.204  21.245  26.056  1.00  0.00     0.004 A 
ENDBRANCH  22  24
ENDBRANCH  15  18
ENDBRANCH  10  14
ENDBRANCH   4   7
ENDBRANCH   2   3
ENDBRANCH   1   2
BRANCH   1  35
ATOM     35  C   UNL A   1      34.284  30.198  27.227  1.00  0.00     0.023 C 
BRANCH  35  36
ATOM     36  C   UNL A   1      35.275  30.932  28.113  1.00  0.00     0.116 C 
BRANCH  36  37
ATOM     37  N   UNL A   1      35.436  30.402  29.458  1.00  0.00    -0.352 N 
ATOM     38  C   UNL A   1      36.563  29.776  29.974  1.00  0.00     0.251 C 
ATOM     39  H   UNL A   1      34.666  30.495  30.065  1.00  0.00     0.163 HD
ATOM     40  O   UNL A   1      36.521  29.095  30.992  1.00  0.00    -0.269 OA
BRANCH  38  41
ATOM     41  C   UNL A   1      37.854  30.075  29.315  1.00  0.00     0.039 A 
ATOM     42  C   UNL A   1      37.996  29.662  27.985  1.00  0.00     0.014 A 
ATOM     43  C   UNL A   1      38.967  30.383  30.090  1.00  0.00     0.014 A 
ATOM     44  C   UNL A   1      39.261  29.332  27.503  1.00  0.00     0.010 A 
ATOM     45  C   UNL A   1      40.198  29.936  29.656  1.00  0.00     0.010 A 
ATOM     46  C   UNL A   1      40.339  29.363  28.382  1.00  0.00    -0.014 A 
BRANCH  46  47
ATOM     47  C   UNL A   1      41.641  28.757  28.110  1.00  0.00     0.031 A 
ATOM     48  C   UNL A   1      41.796  27.288  28.224  1.00  0.00     0.074 A 
ATOM     49  C   UNL A   1      42.653  29.507  27.623  1.00  0.00     0.049 A 
ATOM     50  N   UNL A   1      42.921  26.657  28.224  1.00  0.00    -0.248 NA
ATOM     51  C   UNL A   1      40.654  26.401  28.416  1.00  0.00     0.031 C 
ATOM     52  C   UNL A   1      43.843  29.030  26.923  1.00  0.00     0.029 A 
ATOM     53  N   UNL A   1      42.901  30.861  27.824  1.00  0.00    -0.354 N 
ATOM     54  C   UNL A   1      42.655  25.308  28.112  1.00  0.00     0.074 A 
ATOM     55  C   UNL A   1      41.235  25.204  28.331  1.00  0.00     0.031 C 
ATOM     56  C   UNL A   1      44.781  29.990  26.944  1.00  0.00     0.029 A 
ATOM     57  C   UNL A   1      44.291  31.056  27.801  1.00  0.00     0.049 A 
ATOM     58  H   UNL A   1      42.221  31.560  27.958  1.00  0.00     0.167 HD
ATOM     59  C   UNL A   1      43.658  24.471  27.708  1.00  0.00     0.037 A 
ATOM     60  C   UNL A   1      44.955  31.508  28.910  1.00  0.00     0.037 A 
ATOM     61  C   UNL A   1      44.946  25.177  27.728  1.00  0.00     0.049 A 
ATOM     62  C   UNL A   1      45.923  30.506  29.504  1.00  0.00     0.074 A 
ATOM     63  C   UNL A   1      45.726  25.752  26.739  1.00  0.00     0.029 A 
ATOM     64  N   UNL A   1      45.454  25.637  28.942  1.00  0.00    -0.354 N 
ATOM     65  N   UNL A   1      45.955  29.241  29.184  1.00  0.00    -0.248 NA
ATOM     66  C   UNL A   1      46.924  30.842  30.515  1.00  0.00     0.031 C 
ATOM     67  C   UNL A   1      46.643  26.639  27.361  1.00  0.00     0.029 A 
ATOM     68  C   UNL A   1      46.444  26.580  28.730  1.00  0.00     0.049 A 
ATOM     69  H   UNL A   1      45.151  25.333  29.827  1.00  0.00     0.167 HD
ATOM     70  C   UNL A   1      46.899  28.593  29.937  1.00  0.00     0.074 A 
ATOM     71  C   UNL A   1      47.502  29.647  30.732  1.00  0.00     0.031 C 
ATOM     72  C   UNL A   1      47.094  27.243  29.854  1.00  0.00     0.037 A 
BRANCH  59  73
ATOM     73  C   UNL A   1      43.443  23.125  27.015  1.00  0.00     0.058 A 
ATOM     74  C   UNL A   1      42.856  22.045  27.717  1.00  0.00     0.135 A 
ATOM     75  C   UNL A   1      43.876  22.785  25.716  1.00  0.00     0.135 A 
ATOM     76  F   UNL A   1      42.299  22.214  28.923  1.00  0.00    -0.206 F 
ATOM     77  C   UNL A   1      42.820  20.734  27.223  1.00  0.00     0.059 A 
ATOM     78  C   UNL A   1      43.885  21.480  25.215  1.00  0.00     0.059 A 
ATOM     79  F   UNL A   1      44.272  23.702  24.833  1.00  0.00    -0.206 F 
ATOM     80  C   UNL A   1      43.371  20.452  25.982  1.00  0.00     0.060 A 
BRANCH  80  81
ATOM     81  S   UNL A   1      43.394  18.755  25.380  1.00  0.00     0.124 S 
ATOM     82  O   UNL A   1      43.707  18.938  23.966  1.00  0.00    -0.237 OA
ATOM     83  O   UNL A   1      44.446  18.156  26.194  1.00  0.00    -0.237 OA
ATOM     84  O   UNL A   1      42.043  18.275  25.657  1.00  0.00    -0.744 OA
ENDBRANCH  80  81
ENDBRANCH  59  73
BRANCH  60  85
ATOM     85  C   UNL A   1      44.184  32.535  29.662  1.00  0.00     0.058 A 
ATOM     86  C   UNL A   1      43.828  33.702  28.960  1.00  0.00     0.135 A 
ATOM     87  C   UNL A   1      43.412  32.188  30.782  1.00  0.00     0.135 A 
ATOM     88  F   UNL A   1      44.548  34.089  27.894  1.00  0.00    -0.206 F 
ATOM     89  C   UNL A   1      42.644  34.380  29.226  1.00  0.00     0.059 A 
ATOM     90  C   UNL A   1      42.224  32.861  31.073  1.00  0.00     0.059 A 
ATOM     91  F   UNL A   1      43.710  31.091  31.494  1.00  0.00    -0.206 F 
ATOM     92  C   UNL A   1      41.812  33.897  30.233  1.00  0.00     0.060 A 
BRANCH  92  93
ATOM     93  S   UNL A   1      40.104  34.494  30.260  1.00  0.00     0.124 S 
ATOM     94  O   UNL A   1      39.382  33.388  29.642  1.00  0.00    -0.237 OA
ATOM     95  O   UNL A   1      39.888  34.670  31.695  1.00  0.00    -0.237 OA
ATOM     96  O   UNL A   1      40.169  35.723  29.476  1.00  0.00    -0.744 OA
ENDBRANCH  92  93
ENDBRANCH  60  85
BRANCH  72  97
ATOM     97  C   UNL A   1      47.974  26.427  30.771  1.00  0.00     0.058 A 
ATOM     98  C   UNL A   1      47.612  26.043  32.074  1.00  0.00     0.135 A 
ATOM     99  C   UNL A   1      49.187  25.877  30.287  1.00  0.00     0.135 A 
ATOM    100  F   UNL A   1      46.438  26.409  32.606  1.00  0.00    -0.206 F 
ATOM    101  C   UNL A   1      48.424  25.227  32.866  1.00  0.00     0.059 A 
ATOM    102  C   UNL A   1      49.983  25.019  31.039  1.00  0.00     0.059 A 
ATOM    103  F   UNL A   1      49.632  26.152  29.052  1.00  0.00    -0.206 F 
ATOM    104  C   UNL A   1      49.608  24.719  32.340  1.00  0.00     0.060 A 
BRANCH 104 105
ATOM    105  S   UNL A   1      50.635  23.615  33.329  1.00  0.00     0.124 S 
ATOM    106  O   UNL A   1      51.675  24.526  33.795  1.00  0.00    -0.237 OA
ATOM    107  O   UNL A   1      49.710  23.140  34.354  1.00  0.00    -0.237 OA
ATOM    108  O   UNL A   1      51.060  22.606  32.365  1.00  0.00    -0.744 OA
ENDBRANCH 104 105
ENDBRANCH  72  97
ENDBRANCH  46  47
ENDBRANCH  38  41
ENDBRANCH  36  37
ENDBRANCH  35  36
ENDBRANCH   1  35
TORSDOF 17
ENDMDL
