MODEL 1
REMARK VINA RESULT:     -12.2      0.000      0.000
REMARK SMILES COc1ccc(-c2cccc(/C=C\C(=O)NCCCCNC(=O)c3ccc(-c4c5nc(c(-c6c(F)cc(S(=O)(=O)[O-])cc6F)c6ccc([nH]6)c(-c6c(F)cc(S(=O)(=O)[O-])cc6F)c6nc(c(-c7c(F)cc(S(=O)(=O)[O-])cc7F)c7ccc4[nH]7)C=C6)C=C5)cc3)c2)c(Cl)c1OC
REMARK SMILES IDX 18 1 17 2 16 3 14 4 15 5 13 7 12 8 11 9 7 10 8 11 90 12 9 13
REMARK SMILES IDX 10 14 6 15 3 16 4 17 93 18 5 19 91 20 92 21 2 22 1 23 94 24
REMARK SMILES IDX 95 25 19 26 20 27 21 28 22 29 23 31 24 32 25 33 89 34 26 35
REMARK SMILES IDX 88 36 27 37 28 38 29 39 82 40 30 41 87 42 81 43 83 44 31 45
REMARK SMILES IDX 86 46 80 47 79 48 32 50 66 51 45 52 65 53 46 54 49 55 64 56
REMARK SMILES IDX 84 57 47 58 48 59 63 61 85 62 50 63 33 64 34 65 43 66 35 67
REMARK SMILES IDX 36 68 42 69 44 70 37 71 38 72 39 73 40 74 41 75 67 76 68 77
REMARK SMILES IDX 77 78 69 79 70 80 76 81 78 82 71 83 72 84 73 85 74 86 75 87
REMARK SMILES IDX 51 88 52 89 61 90 53 91 54 92 60 93 62 94 55 95 56 96 57 97
REMARK SMILES IDX 58 98 59 99
REMARK H PARENT 16 6 21 30 83 49 49 60
REMARK Flexibility Score: inf
ROOT
ATOM      1  C   UNL A   1      33.156  27.964  26.575  1.00  0.00     0.023 C 
ENDROOT
BRANCH   1   2
ATOM      2  C   UNL A   1      31.760  27.770  26.000  1.00  0.00     0.116 C 
BRANCH   2   3
ATOM      3  N   UNL A   1      31.017  26.660  26.557  1.00  0.00    -0.353 N 
ATOM      4  C   UNL A   1      29.993  25.948  26.014  1.00  0.00     0.243 C 
ATOM      5  O   UNL A   1      29.490  25.026  26.657  1.00  0.00    -0.270 OA
ATOM      6  H   UNL A   1      31.293  26.379  27.460  1.00  0.00     0.163 HD
BRANCH   4   7
ATOM      7  C   UNL A   1      29.374  26.306  24.708  1.00  0.00     0.072 C 
ATOM      8  C   UNL A   1      29.777  26.117  23.439  1.00  0.00     0.014 C 
BRANCH   8   9
ATOM      9  C   UNL A   1      31.033  25.519  22.978  1.00  0.00    -0.025 A 
ATOM     10  C   UNL A   1      32.546  23.587  22.991  1.00  0.00    -0.016 A 
ATOM     11  C   UNL A   1      33.208  24.169  21.892  1.00  0.00     0.009 A 
ATOM     12  C   UNL A   1      31.451  24.290  23.526  1.00  0.00     0.017 A 
ATOM     13  C   UNL A   1      32.864  25.433  21.411  1.00  0.00     0.001 A 
ATOM     14  C   UNL A   1      31.791  26.119  21.969  1.00  0.00     0.008 A 
BRANCH  10  15
ATOM     15  C   UNL A   1      33.075  22.331  23.586  1.00  0.00     0.004 A 
ATOM     16  C   UNL A   1      33.844  19.793  24.625  1.00  0.00     0.162 A 
ATOM     17  C   UNL A   1      32.637  19.941  23.951  1.00  0.00     0.051 A 
ATOM     18  C   UNL A   1      34.675  20.919  24.822  1.00  0.00     0.180 A 
ATOM     19  C   UNL A   1      32.277  21.179  23.426  1.00  0.00     0.014 A 
ATOM     20  C   UNL A   1      34.281  22.188  24.321  1.00  0.00     0.094 A 
ATOM     21  Cl  UNL A   1      35.210  23.609  24.710  1.00  0.00    -0.079 Cl
BRANCH  16  22
ATOM     22  O   UNL A   1      34.277  18.592  25.137  1.00  0.00    -0.493 OA
ATOM     23  C   UNL A   1      34.777  17.642  24.202  1.00  0.00     0.278 C 
ENDBRANCH  16  22
BRANCH  18  24
ATOM     24  O   UNL A   1      35.767  20.695  25.632  1.00  0.00    -0.491 OA
ATOM     25  C   UNL A   1      37.041  20.668  24.999  1.00  0.00     0.278 C 
ENDBRANCH  18  24
ENDBRANCH  10  15
ENDBRANCH   8   9
ENDBRANCH   4   7
ENDBRANCH   2   3
ENDBRANCH   1   2
BRANCH   1  26
ATOM     26  C   UNL A   1      33.396  29.266  27.341  1.00  0.00     0.023 C 
BRANCH  26  27
ATOM     27  C   UNL A   1      34.846  29.660  27.625  1.00  0.00     0.116 C 
BRANCH  27  28
ATOM     28  N   UNL A   1      35.026  30.566  28.753  1.00  0.00    -0.352 N 
ATOM     29  C   UNL A   1      36.153  30.800  29.520  1.00  0.00     0.251 C 
ATOM     30  H   UNL A   1      34.230  31.086  29.006  1.00  0.00     0.163 HD
ATOM     31  O   UNL A   1      36.143  31.619  30.417  1.00  0.00    -0.269 OA
BRANCH  29  32
ATOM     32  C   UNL A   1      37.370  29.998  29.254  1.00  0.00     0.039 A 
ATOM     33  C   UNL A   1      37.829  29.884  27.938  1.00  0.00     0.014 A 
ATOM     34  C   UNL A   1      38.098  29.455  30.312  1.00  0.00     0.014 A 
ATOM     35  C   UNL A   1      39.092  29.335  27.697  1.00  0.00     0.010 A 
ATOM     36  C   UNL A   1      39.380  28.968  30.074  1.00  0.00     0.010 A 
ATOM     37  C   UNL A   1      39.904  28.939  28.770  1.00  0.00    -0.014 A 
BRANCH  37  38
ATOM     38  C   UNL A   1      41.330  28.559  28.586  1.00  0.00     0.031 A 
ATOM     39  C   UNL A   1      42.390  29.622  28.566  1.00  0.00     0.074 A 
ATOM     40  C   UNL A   1      41.646  27.282  28.289  1.00  0.00     0.049 A 
ATOM     41  N   UNL A   1      43.639  29.538  28.191  1.00  0.00    -0.248 NA
ATOM     42  C   UNL A   1      41.976  30.969  28.992  1.00  0.00     0.031 C 
ATOM     43  C   UNL A   1      40.701  26.163  28.235  1.00  0.00     0.029 A 
ATOM     44  N   UNL A   1      42.847  26.712  27.942  1.00  0.00    -0.354 N 
ATOM     45  C   UNL A   1      44.152  30.826  28.294  1.00  0.00     0.074 A 
ATOM     46  C   UNL A   1      43.070  31.676  28.744  1.00  0.00     0.031 C 
ATOM     47  C   UNL A   1      41.357  25.047  27.881  1.00  0.00     0.029 A 
ATOM     48  C   UNL A   1      42.757  25.374  27.633  1.00  0.00     0.049 A 
ATOM     49  H   UNL A   1      43.694  27.215  27.917  1.00  0.00     0.167 HD
ATOM     50  C   UNL A   1      45.411  31.256  28.043  1.00  0.00     0.037 A 
ATOM     51  C   UNL A   1      43.688  24.513  27.177  1.00  0.00     0.037 A 
ATOM     52  C   UNL A   1      46.490  30.396  27.635  1.00  0.00     0.049 A 
ATOM     53  C   UNL A   1      45.089  25.007  26.936  1.00  0.00     0.074 A 
ATOM     54  C   UNL A   1      47.814  30.725  27.406  1.00  0.00     0.029 A 
ATOM     55  N   UNL A   1      46.370  29.033  27.405  1.00  0.00    -0.354 N 
ATOM     56  N   UNL A   1      45.564  26.221  27.068  1.00  0.00    -0.248 NA
ATOM     57  C   UNL A   1      46.079  24.018  26.484  1.00  0.00     0.031 C 
ATOM     58  C   UNL A   1      48.492  29.565  27.016  1.00  0.00     0.029 A 
ATOM     59  C   UNL A   1      47.596  28.506  27.036  1.00  0.00     0.049 A 
ATOM     60  H   UNL A   1      45.537  28.516  27.492  1.00  0.00     0.167 HD
ATOM     61  C   UNL A   1      46.915  26.138  26.749  1.00  0.00     0.074 A 
ATOM     62  C   UNL A   1      47.181  24.754  26.413  1.00  0.00     0.031 C 
ATOM     63  C   UNL A   1      47.848  27.119  26.737  1.00  0.00     0.037 A 
BRANCH  50  64
ATOM     64  C   UNL A   1      45.685  32.725  28.200  1.00  0.00     0.058 A 
ATOM     65  C   UNL A   1      45.482  33.629  27.146  1.00  0.00     0.135 A 
ATOM     66  C   UNL A   1      46.141  33.239  29.425  1.00  0.00     0.135 A 
ATOM     67  F   UNL A   1      45.061  33.187  25.950  1.00  0.00    -0.206 F 
ATOM     68  C   UNL A   1      45.759  34.984  27.286  1.00  0.00     0.059 A 
ATOM     69  C   UNL A   1      46.399  34.596  29.596  1.00  0.00     0.059 A 
ATOM     70  F   UNL A   1      46.349  32.420  30.467  1.00  0.00    -0.206 F 
ATOM     71  C   UNL A   1      46.223  35.457  28.514  1.00  0.00     0.060 A 
BRANCH  71  72
ATOM     72  S   UNL A   1      46.596  37.216  28.678  1.00  0.00     0.124 S 
ATOM     73  O   UNL A   1      46.278  37.449  30.084  1.00  0.00    -0.237 OA
ATOM     74  O   UNL A   1      48.013  37.272  28.333  1.00  0.00    -0.237 OA
ATOM     75  O   UNL A   1      45.696  37.845  27.718  1.00  0.00    -0.744 OA
ENDBRANCH  71  72
ENDBRANCH  50  64
BRANCH  51  76
ATOM     76  C   UNL A   1      43.328  23.091  26.934  1.00  0.00     0.058 A 
ATOM     77  C   UNL A   1      43.224  22.593  25.626  1.00  0.00     0.135 A 
ATOM     78  C   UNL A   1      43.109  22.197  27.993  1.00  0.00     0.135 A 
ATOM     79  F   UNL A   1      43.420  23.411  24.581  1.00  0.00    -0.206 F 
ATOM     80  C   UNL A   1      42.905  21.263  25.376  1.00  0.00     0.059 A 
ATOM     81  C   UNL A   1      42.807  20.857  27.769  1.00  0.00     0.059 A 
ATOM     82  F   UNL A   1      43.213  22.621  29.262  1.00  0.00    -0.206 F 
ATOM     83  C   UNL A   1      42.700  20.401  26.454  1.00  0.00     0.060 A 
BRANCH  83  84
ATOM     84  S   UNL A   1      42.345  18.662  26.119  1.00  0.00     0.124 S 
ATOM     85  O   UNL A   1      42.651  18.047  27.406  1.00  0.00    -0.237 OA
ATOM     86  O   UNL A   1      40.933  18.701  25.751  1.00  0.00    -0.237 OA
ATOM     87  O   UNL A   1      43.259  18.337  25.029  1.00  0.00    -0.744 OA
ENDBRANCH  83  84
ENDBRANCH  51  76
BRANCH  63  88
ATOM     88  C   UNL A   1      49.261  26.737  26.406  1.00  0.00     0.058 A 
ATOM     89  C   UNL A   1      50.090  26.104  27.344  1.00  0.00     0.135 A 
ATOM     90  C   UNL A   1      49.751  26.909  25.102  1.00  0.00     0.135 A 
ATOM     91  F   UNL A   1      49.670  25.927  28.606  1.00  0.00    -0.206 F 
ATOM     92  C   UNL A   1      51.357  25.647  26.996  1.00  0.00     0.059 A 
ATOM     93  C   UNL A   1      51.006  26.443  24.728  1.00  0.00     0.059 A 
ATOM     94  F   UNL A   1      48.991  27.505  24.168  1.00  0.00    -0.206 F 
ATOM     95  C   UNL A   1      51.802  25.812  25.682  1.00  0.00     0.060 A 
BRANCH  95  96
ATOM     96  S   UNL A   1      53.412  25.135  25.220  1.00  0.00     0.124 S 
ATOM     97  O   UNL A   1      53.186  23.703  25.377  1.00  0.00    -0.237 OA
ATOM     98  O   UNL A   1      53.566  25.606  23.846  1.00  0.00    -0.237 OA
ATOM     99  O   UNL A   1      54.324  25.739  26.188  1.00  0.00    -0.744 OA
ENDBRANCH  95  96
ENDBRANCH  63  88
ENDBRANCH  37  38
ENDBRANCH  29  32
ENDBRANCH  27  28
ENDBRANCH  26  27
ENDBRANCH   1  26
TORSDOF 18
ENDMDL
MODEL 2
REMARK VINA RESULT:     -12.1      4.767     10.494
REMARK SMILES COc1ccc(-c2cccc(/C=C\C(=O)NCCCCNC(=O)c3ccc(-c4c5nc(c(-c6c(F)cc(S(=O)(=O)[O-])cc6F)c6ccc([nH]6)c(-c6c(F)cc(S(=O)(=O)[O-])cc6F)c6nc(c(-c7c(F)cc(S(=O)(=O)[O-])cc7F)c7ccc4[nH]7)C=C6)C=C5)cc3)c2)c(Cl)c1OC
REMARK SMILES IDX 18 1 17 2 16 3 14 4 15 5 13 7 12 8 11 9 7 10 8 11 90 12 9 13
REMARK SMILES IDX 10 14 6 15 3 16 4 17 93 18 5 19 91 20 92 21 2 22 1 23 94 24
REMARK SMILES IDX 95 25 19 26 20 27 21 28 22 29 23 31 24 32 25 33 89 34 26 35
REMARK SMILES IDX 88 36 27 37 28 38 29 39 82 40 30 41 87 42 81 43 83 44 31 45
REMARK SMILES IDX 86 46 80 47 79 48 32 50 66 51 45 52 65 53 46 54 49 55 64 56
REMARK SMILES IDX 84 57 47 58 48 59 63 61 85 62 50 63 33 64 34 65 43 66 35 67
REMARK SMILES IDX 36 68 42 69 44 70 37 71 38 72 39 73 40 74 41 75 67 76 68 77
REMARK SMILES IDX 77 78 69 79 70 80 76 81 78 82 71 83 72 84 73 85 74 86 75 87
REMARK SMILES IDX 51 88 52 89 61 90 53 91 54 92 60 93 62 94 55 95 56 96 57 97
REMARK SMILES IDX 58 98 59 99
REMARK H PARENT 16 6 21 30 83 49 49 60
REMARK Flexibility Score: inf
ROOT
ATOM      1  C   UNL A   1      35.342  21.815  26.006  1.00  0.00     0.023 C 
ENDROOT
BRANCH   1   2
ATOM      2  C   UNL A   1      34.446  21.484  27.191  1.00  0.00     0.116 C 
BRANCH   2   3
ATOM      3  N   UNL A   1      33.487  22.512  27.539  1.00  0.00    -0.353 N 
ATOM      4  C   UNL A   1      32.222  22.704  27.077  1.00  0.00     0.243 C 
ATOM      5  O   UNL A   1      31.559  23.648  27.505  1.00  0.00    -0.270 OA
ATOM      6  H   UNL A   1      33.796  23.167  28.206  1.00  0.00     0.163 HD
BRANCH   4   7
ATOM      7  C   UNL A   1      31.636  21.877  25.986  1.00  0.00     0.072 C 
ATOM      8  C   UNL A   1      31.587  22.048  24.653  1.00  0.00     0.014 C 
BRANCH   8   9
ATOM      9  C   UNL A   1      32.083  23.188  23.878  1.00  0.00    -0.025 A 
ATOM     10  C   UNL A   1      32.145  25.621  23.562  1.00  0.00    -0.016 A 
ATOM     11  C   UNL A   1      33.238  25.425  22.695  1.00  0.00     0.009 A 
ATOM     12  C   UNL A   1      31.575  24.475  24.146  1.00  0.00     0.017 A 
ATOM     13  C   UNL A   1      33.680  24.148  22.345  1.00  0.00     0.001 A 
ATOM     14  C   UNL A   1      33.087  23.028  22.919  1.00  0.00     0.008 A 
BRANCH  10  15
ATOM     15  C   UNL A   1      31.592  26.990  23.749  1.00  0.00     0.004 A 
ATOM     16  C   UNL A   1      30.332  29.538  23.903  1.00  0.00     0.162 A 
ATOM     17  C   UNL A   1      29.853  28.568  23.028  1.00  0.00     0.051 A 
ATOM     18  C   UNL A   1      31.470  29.264  24.693  1.00  0.00     0.180 A 
ATOM     19  C   UNL A   1      30.460  27.318  22.974  1.00  0.00     0.014 A 
ATOM     20  C   UNL A   1      32.110  27.999  24.601  1.00  0.00     0.094 A 
ATOM     21  Cl  UNL A   1      33.611  27.716  25.437  1.00  0.00    -0.079 Cl
BRANCH  16  22
ATOM     22  O   UNL A   1      29.758  30.782  24.033  1.00  0.00    -0.493 OA
ATOM     23  C   UNL A   1      28.552  31.009  23.311  1.00  0.00     0.278 C 
ENDBRANCH  16  22
BRANCH  18  24
ATOM     24  O   UNL A   1      31.950  30.341  25.407  1.00  0.00    -0.491 OA
ATOM     25  C   UNL A   1      31.884  30.252  26.825  1.00  0.00     0.278 C 
ENDBRANCH  18  24
ENDBRANCH  10  15
ENDBRANCH   8   9
ENDBRANCH   4   7
ENDBRANCH   2   3
ENDBRANCH   1   2
BRANCH   1  26
ATOM     26  C   UNL A   1      35.949  23.219  25.989  1.00  0.00     0.023 C 
BRANCH  26  27
ATOM     27  C   UNL A   1      37.173  23.447  25.102  1.00  0.00     0.116 C 
BRANCH  27  28
ATOM     28  N   UNL A   1      38.338  22.639  25.443  1.00  0.00    -0.352 N 
ATOM     29  C   UNL A   1      39.416  22.950  26.251  1.00  0.00     0.251 C 
ATOM     30  H   UNL A   1      38.361  21.742  25.038  1.00  0.00     0.163 HD
ATOM     31  O   UNL A   1      40.300  22.142  26.457  1.00  0.00    -0.269 OA
BRANCH  29  32
ATOM     32  C   UNL A   1      39.496  24.310  26.833  1.00  0.00     0.039 A 
ATOM     33  C   UNL A   1      38.936  24.538  28.094  1.00  0.00     0.014 A 
ATOM     34  C   UNL A   1      40.209  25.313  26.178  1.00  0.00     0.014 A 
ATOM     35  C   UNL A   1      39.204  25.740  28.756  1.00  0.00     0.010 A 
ATOM     36  C   UNL A   1      40.525  26.481  26.865  1.00  0.00     0.010 A 
ATOM     37  C   UNL A   1      40.059  26.688  28.175  1.00  0.00    -0.014 A 
BRANCH  37  38
ATOM     38  C   UNL A   1      40.552  27.874  28.924  1.00  0.00     0.031 A 
ATOM     39  C   UNL A   1      41.875  27.814  29.634  1.00  0.00     0.074 A 
ATOM     40  C   UNL A   1      39.745  28.943  29.087  1.00  0.00     0.049 A 
ATOM     41  N   UNL A   1      42.375  28.631  30.522  1.00  0.00    -0.248 NA
ATOM     42  C   UNL A   1      42.730  26.656  29.327  1.00  0.00     0.031 C 
ATOM     43  C   UNL A   1      38.419  29.106  28.484  1.00  0.00     0.029 A 
ATOM     44  N   UNL A   1      39.904  30.082  29.838  1.00  0.00    -0.354 N 
ATOM     45  C   UNL A   1      43.584  28.069  30.914  1.00  0.00     0.074 A 
ATOM     46  C   UNL A   1      43.729  26.829  30.182  1.00  0.00     0.031 C 
ATOM     47  C   UNL A   1      37.891  30.272  28.885  1.00  0.00     0.029 A 
ATOM     48  C   UNL A   1      38.814  30.921  29.811  1.00  0.00     0.049 A 
ATOM     49  H   UNL A   1      40.724  30.281  30.347  1.00  0.00     0.167 HD
ATOM     50  C   UNL A   1      44.492  28.549  31.796  1.00  0.00     0.037 A 
ATOM     51  C   UNL A   1      38.571  32.068  30.476  1.00  0.00     0.037 A 
ATOM     52  C   UNL A   1      44.358  29.804  32.487  1.00  0.00     0.049 A 
ATOM     53  C   UNL A   1      39.608  32.599  31.427  1.00  0.00     0.074 A 
ATOM     54  C   UNL A   1      45.246  30.404  33.362  1.00  0.00     0.029 A 
ATOM     55  N   UNL A   1      43.269  30.657  32.375  1.00  0.00    -0.354 N 
ATOM     56  N   UNL A   1      40.760  32.070  31.762  1.00  0.00    -0.248 NA
ATOM     57  C   UNL A   1      39.316  33.877  32.092  1.00  0.00     0.031 C 
ATOM     58  C   UNL A   1      44.685  31.610  33.796  1.00  0.00     0.029 A 
ATOM     59  C   UNL A   1      43.463  31.777  33.164  1.00  0.00     0.049 A 
ATOM     60  H   UNL A   1      42.476  30.490  31.815  1.00  0.00     0.167 HD
ATOM     61  C   UNL A   1      41.346  32.966  32.650  1.00  0.00     0.074 A 
ATOM     62  C   UNL A   1      40.420  34.069  32.803  1.00  0.00     0.031 C 
ATOM     63  C   UNL A   1      42.543  32.880  33.278  1.00  0.00     0.037 A 
BRANCH  50  64
ATOM     64  C   UNL A   1      45.709  27.709  32.064  1.00  0.00     0.058 A 
ATOM     65  C   UNL A   1      45.690  26.664  33.001  1.00  0.00     0.135 A 
ATOM     66  C   UNL A   1      46.904  27.940  31.364  1.00  0.00     0.135 A 
ATOM     67  F   UNL A   1      44.576  26.410  33.707  1.00  0.00    -0.206 F 
ATOM     68  C   UNL A   1      46.823  25.903  33.264  1.00  0.00     0.059 A 
ATOM     69  C   UNL A   1      48.043  27.173  31.592  1.00  0.00     0.059 A 
ATOM     70  F   UNL A   1      46.976  28.924  30.455  1.00  0.00    -0.206 F 
ATOM     71  C   UNL A   1      47.997  26.169  32.559  1.00  0.00     0.060 A 
BRANCH  71  72
ATOM     72  S   UNL A   1      49.467  25.187  32.923  1.00  0.00     0.124 S 
ATOM     73  O   UNL A   1      49.887  24.786  31.583  1.00  0.00    -0.237 OA
ATOM     74  O   UNL A   1      50.333  26.150  33.595  1.00  0.00    -0.237 OA
ATOM     75  O   UNL A   1      48.956  24.113  33.768  1.00  0.00    -0.744 OA
ENDBRANCH  71  72
ENDBRANCH  50  64
BRANCH  51  76
ATOM     76  C   UNL A   1      37.297  32.800  30.251  1.00  0.00     0.058 A 
ATOM     77  C   UNL A   1      37.166  33.694  29.178  1.00  0.00     0.135 A 
ATOM     78  C   UNL A   1      36.181  32.605  31.079  1.00  0.00     0.135 A 
ATOM     79  F   UNL A   1      38.207  33.919  28.362  1.00  0.00    -0.206 F 
ATOM     80  C   UNL A   1      35.978  34.377  28.939  1.00  0.00     0.059 A 
ATOM     81  C   UNL A   1      34.975  33.261  30.849  1.00  0.00     0.059 A 
ATOM     82  F   UNL A   1      36.250  31.747  32.108  1.00  0.00    -0.206 F 
ATOM     83  C   UNL A   1      34.886  34.153  29.779  1.00  0.00     0.060 A 
BRANCH  83  84
ATOM     84  S   UNL A   1      33.330  34.999  29.424  1.00  0.00     0.124 S 
ATOM     85  O   UNL A   1      33.804  36.276  28.903  1.00  0.00    -0.237 OA
ATOM     86  O   UNL A   1      32.706  34.105  28.454  1.00  0.00    -0.237 OA
ATOM     87  O   UNL A   1      32.674  35.051  30.727  1.00  0.00    -0.744 OA
ENDBRANCH  83  84
ENDBRANCH  51  76
BRANCH  63  88
ATOM     88  C   UNL A   1      42.960  34.031  34.148  1.00  0.00     0.058 A 
ATOM     89  C   UNL A   1      42.566  34.118  35.491  1.00  0.00     0.135 A 
ATOM     90  C   UNL A   1      43.854  34.995  33.658  1.00  0.00     0.135 A 
ATOM     91  F   UNL A   1      41.705  33.224  36.002  1.00  0.00    -0.206 F 
ATOM     92  C   UNL A   1      43.051  35.122  36.323  1.00  0.00     0.059 A 
ATOM     93  C   UNL A   1      44.366  35.996  34.476  1.00  0.00     0.059 A 
ATOM     94  F   UNL A   1      44.264  34.949  32.380  1.00  0.00    -0.206 F 
ATOM     95  C   UNL A   1      43.960  36.050  35.809  1.00  0.00     0.060 A 
BRANCH  95  96
ATOM     96  S   UNL A   1      44.651  37.295  36.920  1.00  0.00     0.124 S 
ATOM     97  O   UNL A   1      46.051  37.313  36.508  1.00  0.00    -0.237 OA
ATOM     98  O   UNL A   1      43.875  38.485  36.580  1.00  0.00    -0.237 OA
ATOM     99  O   UNL A   1      44.393  36.745  38.248  1.00  0.00    -0.744 OA
ENDBRANCH  95  96
ENDBRANCH  63  88
ENDBRANCH  37  38
ENDBRANCH  29  32
ENDBRANCH  27  28
ENDBRANCH  26  27
ENDBRANCH   1  26
TORSDOF 18
ENDMDL
MODEL 3
REMARK VINA RESULT:     -12.0      6.489     12.043
REMARK SMILES COc1ccc(-c2cccc(/C=C\C(=O)NCCCCNC(=O)c3ccc(-c4c5nc(c(-c6c(F)cc(S(=O)(=O)[O-])cc6F)c6ccc([nH]6)c(-c6c(F)cc(S(=O)(=O)[O-])cc6F)c6nc(c(-c7c(F)cc(S(=O)(=O)[O-])cc7F)c7ccc4[nH]7)C=C6)C=C5)cc3)c2)c(Cl)c1OC
REMARK SMILES IDX 18 1 17 2 16 3 14 4 15 5 13 7 12 8 11 9 7 10 8 11 90 12 9 13
REMARK SMILES IDX 10 14 6 15 3 16 4 17 93 18 5 19 91 20 92 21 2 22 1 23 94 24
REMARK SMILES IDX 95 25 19 26 20 27 21 28 22 29 23 31 24 32 25 33 89 34 26 35
REMARK SMILES IDX 88 36 27 37 28 38 29 39 82 40 30 41 87 42 81 43 83 44 31 45
REMARK SMILES IDX 86 46 80 47 79 48 32 50 66 51 45 52 65 53 46 54 49 55 64 56
REMARK SMILES IDX 84 57 47 58 48 59 63 61 85 62 50 63 33 64 34 65 43 66 35 67
REMARK SMILES IDX 36 68 42 69 44 70 37 71 38 72 39 73 40 74 41 75 67 76 68 77
REMARK SMILES IDX 77 78 69 79 70 80 76 81 78 82 71 83 72 84 73 85 74 86 75 87
REMARK SMILES IDX 51 88 52 89 61 90 53 91 54 92 60 93 62 94 55 95 56 96 57 97
REMARK SMILES IDX 58 98 59 99
REMARK H PARENT 16 6 21 30 83 49 49 60
REMARK Flexibility Score: inf
ROOT
ATOM      1  C   UNL A   1      36.019  22.811  24.840  1.00  0.00     0.023 C 
ENDROOT
BRANCH   1   2
ATOM      2  C   UNL A   1      35.731  22.093  26.151  1.00  0.00     0.116 C 
BRANCH   2   3
ATOM      3  N   UNL A   1      34.739  22.729  26.992  1.00  0.00    -0.353 N 
ATOM      4  C   UNL A   1      33.426  22.420  27.162  1.00  0.00     0.243 C 
ATOM      5  O   UNL A   1      32.742  23.089  27.936  1.00  0.00    -0.270 OA
ATOM      6  H   UNL A   1      35.063  23.496  27.517  1.00  0.00     0.163 HD
BRANCH   4   7
ATOM      7  C   UNL A   1      32.743  21.363  26.365  1.00  0.00     0.072 C 
ATOM      8  C   UNL A   1      32.359  21.312  25.078  1.00  0.00     0.014 C 
BRANCH   8   9
ATOM      9  C   UNL A   1      32.471  22.368  24.068  1.00  0.00    -0.025 A 
ATOM     10  C   UNL A   1      32.307  24.757  23.529  1.00  0.00    -0.016 A 
ATOM     11  C   UNL A   1      32.987  24.475  22.327  1.00  0.00     0.009 A 
ATOM     12  C   UNL A   1      32.054  23.675  24.392  1.00  0.00     0.017 A 
ATOM     13  C   UNL A   1      33.310  23.169  21.954  1.00  0.00     0.001 A 
ATOM     14  C   UNL A   1      33.031  22.113  22.814  1.00  0.00     0.008 A 
BRANCH  10  15
ATOM     15  C   UNL A   1      31.814  26.137  23.787  1.00  0.00     0.004 A 
ATOM     16  C   UNL A   1      30.730  28.759  24.024  1.00  0.00     0.162 A 
ATOM     17  C   UNL A   1      30.454  27.981  22.904  1.00  0.00     0.051 A 
ATOM     18  C   UNL A   1      31.581  28.252  25.031  1.00  0.00     0.180 A 
ATOM     19  C   UNL A   1      30.969  26.692  22.805  1.00  0.00     0.014 A 
ATOM     20  C   UNL A   1      32.138  26.952  24.903  1.00  0.00     0.094 A 
ATOM     21  Cl  UNL A   1      33.323  26.390  26.049  1.00  0.00    -0.079 Cl
BRANCH  16  22
ATOM     22  O   UNL A   1      30.226  30.026  24.203  1.00  0.00    -0.493 OA
ATOM     23  C   UNL A   1      29.226  30.453  23.282  1.00  0.00     0.278 C 
ENDBRANCH  16  22
BRANCH  18  24
ATOM     24  O   UNL A   1      31.911  29.158  26.017  1.00  0.00    -0.491 OA
ATOM     25  C   UNL A   1      33.210  29.735  25.948  1.00  0.00     0.278 C 
ENDBRANCH  18  24
ENDBRANCH  10  15
ENDBRANCH   8   9
ENDBRANCH   4   7
ENDBRANCH   2   3
ENDBRANCH   1   2
BRANCH   1  26
ATOM     26  C   UNL A   1      37.292  23.659  24.800  1.00  0.00     0.023 C 
BRANCH  26  27
ATOM     27  C   UNL A   1      38.017  23.905  26.123  1.00  0.00     0.116 C 
BRANCH  27  28
ATOM     28  N   UNL A   1      39.440  23.589  26.111  1.00  0.00    -0.352 N 
ATOM     29  C   UNL A   1      40.485  24.221  26.759  1.00  0.00     0.251 C 
ATOM     30  H   UNL A   1      39.694  22.813  25.561  1.00  0.00     0.163 HD
ATOM     31  O   UNL A   1      41.624  23.808  26.665  1.00  0.00    -0.269 OA
BRANCH  29  32
ATOM     32  C   UNL A   1      40.196  25.445  27.542  1.00  0.00     0.039 A 
ATOM     33  C   UNL A   1      39.329  25.358  28.635  1.00  0.00     0.014 A 
ATOM     34  C   UNL A   1      40.860  26.637  27.253  1.00  0.00     0.014 A 
ATOM     35  C   UNL A   1      39.228  26.436  29.519  1.00  0.00     0.010 A 
ATOM     36  C   UNL A   1      40.806  27.683  28.168  1.00  0.00     0.010 A 
ATOM     37  C   UNL A   1      40.021  27.578  29.329  1.00  0.00    -0.014 A 
BRANCH  37  38
ATOM     38  C   UNL A   1      40.118  28.654  30.352  1.00  0.00     0.031 A 
ATOM     39  C   UNL A   1      41.049  28.493  31.520  1.00  0.00     0.074 A 
ATOM     40  C   UNL A   1      39.264  29.697  30.305  1.00  0.00     0.049 A 
ATOM     41  N   UNL A   1      41.114  29.184  32.627  1.00  0.00    -0.248 NA
ATOM     42  C   UNL A   1      42.009  27.379  31.444  1.00  0.00     0.031 C 
ATOM     43  C   UNL A   1      38.283  29.945  29.245  1.00  0.00     0.029 A 
ATOM     44  N   UNL A   1      39.058  30.728  31.190  1.00  0.00    -0.354 N 
ATOM     45  C   UNL A   1      42.091  28.568  33.400  1.00  0.00     0.074 A 
ATOM     46  C   UNL A   1      42.573  27.432  32.642  1.00  0.00     0.031 C 
ATOM     47  C   UNL A   1      37.585  31.053  29.539  1.00  0.00     0.029 A 
ATOM     48  C   UNL A   1      38.031  31.570  30.829  1.00  0.00     0.049 A 
ATOM     49  H   UNL A   1      39.596  30.853  32.005  1.00  0.00     0.167 HD
ATOM     50  C   UNL A   1      42.548  28.923  34.624  1.00  0.00     0.037 A 
ATOM     51  C   UNL A   1      37.490  32.623  31.475  1.00  0.00     0.037 A 
ATOM     52  C   UNL A   1      42.091  30.078  35.350  1.00  0.00     0.049 A 
ATOM     53  C   UNL A   1      38.035  33.018  32.819  1.00  0.00     0.074 A 
ATOM     54  C   UNL A   1      42.527  30.553  36.574  1.00  0.00     0.029 A 
ATOM     55  N   UNL A   1      41.099  30.945  34.914  1.00  0.00    -0.354 N 
ATOM     56  N   UNL A   1      38.981  32.443  33.522  1.00  0.00    -0.248 NA
ATOM     57  C   UNL A   1      37.443  34.201  33.461  1.00  0.00     0.031 C 
ATOM     58  C   UNL A   1      41.785  31.696  36.889  1.00  0.00     0.029 A 
ATOM     59  C   UNL A   1      40.910  31.953  35.844  1.00  0.00     0.049 A 
ATOM     60  H   UNL A   1      40.605  30.858  34.067  1.00  0.00     0.167 HD
ATOM     61  C   UNL A   1      39.121  33.212  34.672  1.00  0.00     0.074 A 
ATOM     62  C   UNL A   1      38.161  34.291  34.573  1.00  0.00     0.031 C 
ATOM     63  C   UNL A   1      39.970  33.037  35.713  1.00  0.00     0.037 A 
BRANCH  50  64
ATOM     64  C   UNL A   1      43.594  28.047  35.254  1.00  0.00     0.058 A 
ATOM     65  C   UNL A   1      43.249  26.921  36.017  1.00  0.00     0.135 A 
ATOM     66  C   UNL A   1      44.959  28.327  35.079  1.00  0.00     0.135 A 
ATOM     67  F   UNL A   1      41.958  26.617  36.227  1.00  0.00    -0.206 F 
ATOM     68  C   UNL A   1      44.218  26.126  36.618  1.00  0.00     0.059 A 
ATOM     69  C   UNL A   1      45.946  27.529  35.648  1.00  0.00     0.059 A 
ATOM     70  F   UNL A   1      45.345  29.390  34.356  1.00  0.00    -0.206 F 
ATOM     71  C   UNL A   1      45.565  26.442  36.433  1.00  0.00     0.060 A 
BRANCH  71  72
ATOM     72  S   UNL A   1      46.812  25.412  37.235  1.00  0.00     0.124 S 
ATOM     73  O   UNL A   1      47.296  26.306  38.282  1.00  0.00    -0.237 OA
ATOM     74  O   UNL A   1      46.031  24.267  37.692  1.00  0.00    -0.237 OA
ATOM     75  O   UNL A   1      47.760  25.131  36.162  1.00  0.00    -0.744 OA
ENDBRANCH  71  72
ENDBRANCH  50  64
BRANCH  51  76
ATOM     76  C   UNL A   1      36.379  33.386  30.848  1.00  0.00     0.058 A 
ATOM     77  C   UNL A   1      35.079  33.317  31.372  1.00  0.00     0.135 A 
ATOM     78  C   UNL A   1      36.592  34.216  29.737  1.00  0.00     0.135 A 
ATOM     79  F   UNL A   1      34.824  32.533  32.430  1.00  0.00    -0.206 F 
ATOM     80  C   UNL A   1      34.028  34.036  30.812  1.00  0.00     0.059 A 
ATOM     81  C   UNL A   1      35.561  34.960  29.170  1.00  0.00     0.059 A 
ATOM     82  F   UNL A   1      37.821  34.329  29.209  1.00  0.00    -0.206 F 
ATOM     83  C   UNL A   1      34.279  34.857  29.711  1.00  0.00     0.060 A 
BRANCH  83  84
ATOM     84  S   UNL A   1      32.920  35.831  29.028  1.00  0.00     0.124 S 
ATOM     85  O   UNL A   1      32.166  36.165  30.230  1.00  0.00    -0.237 OA
ATOM     86  O   UNL A   1      33.625  36.937  28.388  1.00  0.00    -0.237 OA
ATOM     87  O   UNL A   1      32.270  34.900  28.111  1.00  0.00    -0.744 OA
ENDBRANCH  83  84
ENDBRANCH  51  76
BRANCH  63  88
ATOM     88  C   UNL A   1      39.952  34.062  36.810  1.00  0.00     0.058 A 
ATOM     89  C   UNL A   1      40.563  35.314  36.656  1.00  0.00     0.135 A 
ATOM     90  C   UNL A   1      39.218  33.824  37.983  1.00  0.00     0.135 A 
ATOM     91  F   UNL A   1      41.284  35.585  35.557  1.00  0.00    -0.206 F 
ATOM     92  C   UNL A   1      40.442  36.302  37.629  1.00  0.00     0.059 A 
ATOM     93  C   UNL A   1      39.069  34.803  38.959  1.00  0.00     0.059 A 
ATOM     94  F   UNL A   1      38.611  32.641  38.172  1.00  0.00    -0.206 F 
ATOM     95  C   UNL A   1      39.684  36.040  38.773  1.00  0.00     0.060 A 
BRANCH  95  96
ATOM     96  S   UNL A   1      39.459  37.358  39.987  1.00  0.00     0.124 S 
ATOM     97  O   UNL A   1      40.824  37.847  40.147  1.00  0.00    -0.237 OA
ATOM     98  O   UNL A   1      38.539  38.262  39.302  1.00  0.00    -0.237 OA
ATOM     99  O   UNL A   1      38.900  36.663  41.142  1.00  0.00    -0.744 OA
ENDBRANCH  95  96
ENDBRANCH  63  88
ENDBRANCH  37  38
ENDBRANCH  29  32
ENDBRANCH  27  28
ENDBRANCH  26  27
ENDBRANCH   1  26
TORSDOF 18
ENDMDL
