MODEL 1
REMARK VINA RESULT:     -11.8      0.000      0.000
REMARK SMILES O=C(CCc1ccccc1)Nc1ccccc1Oc1ccsc1C(=O)NCCCCNC(=O)c1ccc(-c2c3nc(c(-c4c(F)cc(S(=O)(=O)[O-])cc4F)c4ccc([nH]4)c(-c4c(F)cc(S(=O)(=O)[O-])cc4F)c4nc(c(-c5c(F)cc(S(=O)(=O)[O-])cc5F)c5ccc2[nH]5)C=C4)C=C3)cc1
REMARK SMILES IDX 27 1 26 2 24 3 25 4 23 6 19 7 20 8 21 9 22 10 18 11 17 12
REMARK SMILES IDX 12 13 13 14 14 15 16 16 15 17 11 18 1 19 2 20 3 22 4 23 5 24
REMARK SMILES IDX 6 25 10 26 7 27 9 28 8 29 28 30 29 31 30 32 31 33 32 34
REMARK SMILES IDX 33 36 34 37 35 38 99 39 36 40 98 41 37 42 38 43 39 44 92 45
REMARK SMILES IDX 40 46 97 47 91 48 93 49 41 50 96 51 90 52 89 53 42 55 76 56
REMARK SMILES IDX 55 57 75 58 56 59 59 60 74 61 94 62 57 63 58 64 73 66 95 67
REMARK SMILES IDX 60 68 43 69 44 70 53 71 45 72 46 73 52 74 54 75 47 76 48 77
REMARK SMILES IDX 49 78 50 79 51 80 77 81 78 82 87 83 79 84 80 85 86 86 88 87
REMARK SMILES IDX 81 88 82 89 83 90 84 91 85 92 61 93 62 94 71 95 63 96 64 97
REMARK SMILES IDX 70 98 72 99 65 100 66 101 67 102 68 103 69 104
REMARK H PARENT 26 5 11 21 31 35 93 54 59 65
REMARK Flexibility Score: inf
ROOT
ATOM      1  C   UNL A   1      33.034  30.849  27.075  1.00  0.00     0.116 C 
ENDROOT
BRANCH   1   2
ATOM      2  N   UNL A   1      32.255  29.711  27.499  1.00  0.00    -0.351 N 
ATOM      3  C   UNL A   1      32.013  28.472  26.975  1.00  0.00     0.265 C 
ATOM      4  O   UNL A   1      31.259  27.789  27.679  1.00  0.00    -0.268 OA
ATOM      5  H   UNL A   1      31.797  29.860  28.357  1.00  0.00     0.163 HD
BRANCH   3   6
ATOM      6  C   UNL A   1      32.559  27.961  25.715  1.00  0.00     0.135 A 
ATOM      7  C   UNL A   1      32.354  28.173  24.357  1.00  0.00     0.151 A 
ATOM      8  C   UNL A   1      33.095  27.283  23.518  1.00  0.00     0.059 A 
ATOM      9  C   UNL A   1      33.837  26.384  24.239  1.00  0.00     0.069 A 
ATOM     10  S   UNL A   1      33.696  26.648  25.911  1.00  0.00    -0.135 S 
BRANCH   7  11
ATOM     11  O   UNL A   1      31.543  29.110  23.830  1.00  0.00    -0.453 OA
BRANCH  11  12
ATOM     12  C   UNL A   1      30.230  28.906  23.440  1.00  0.00     0.151 A 
ATOM     13  C   UNL A   1      29.499  27.704  23.519  1.00  0.00     0.084 A 
ATOM     14  C   UNL A   1      28.108  27.753  23.365  1.00  0.00     0.030 A 
ATOM     15  C   UNL A   1      27.453  28.963  23.119  1.00  0.00     0.002 A 
ATOM     16  C   UNL A   1      29.563  30.113  23.169  1.00  0.00     0.049 A 
ATOM     17  C   UNL A   1      28.180  30.143  23.011  1.00  0.00     0.004 A 
BRANCH  13  18
ATOM     18  N   UNL A   1      30.158  26.481  23.719  1.00  0.00    -0.323 N 
ATOM     19  O   UNL A   1      29.434  25.772  25.815  1.00  0.00    -0.275 OA
ATOM     20  C   UNL A   1      30.054  25.598  24.773  1.00  0.00     0.224 C 
ATOM     21  H   UNL A   1      30.784  26.216  23.007  1.00  0.00     0.170 HD
BRANCH  20  22
ATOM     22  C   UNL A   1      30.849  24.327  24.510  1.00  0.00     0.105 C 
BRANCH  22  23
ATOM     23  C   UNL A   1      31.116  23.557  25.800  1.00  0.00     0.045 C 
BRANCH  23  24
ATOM     24  C   UNL A   1      32.472  22.894  25.912  1.00  0.00    -0.048 A 
ATOM     25  C   UNL A   1      33.027  22.719  27.188  1.00  0.00     0.004 A 
ATOM     26  C   UNL A   1      33.202  22.449  24.800  1.00  0.00     0.004 A 
ATOM     27  C   UNL A   1      34.247  22.060  27.355  1.00  0.00     0.000 A 
ATOM     28  C   UNL A   1      34.410  21.767  24.968  1.00  0.00     0.000 A 
ATOM     29  C   UNL A   1      34.929  21.568  26.246  1.00  0.00     0.000 A 
ENDBRANCH  23  24
ENDBRANCH  22  23
ENDBRANCH  20  22
ENDBRANCH  13  18
ENDBRANCH  11  12
ENDBRANCH   7  11
ENDBRANCH   3   6
ENDBRANCH   1   2
BRANCH   1  30
ATOM     30  C   UNL A   1      34.310  30.958  27.911  1.00  0.00     0.023 C 
BRANCH  30  31
ATOM     31  C   UNL A   1      35.265  29.772  27.788  1.00  0.00     0.023 C 
BRANCH  31  32
ATOM     32  C   UNL A   1      35.976  29.393  29.083  1.00  0.00     0.116 C 
BRANCH  32  33
ATOM     33  N   UNL A   1      35.794  30.347  30.170  1.00  0.00    -0.352 N 
ATOM     34  C   UNL A   1      36.767  31.053  30.838  1.00  0.00     0.251 C 
ATOM     35  H   UNL A   1      34.866  30.504  30.460  1.00  0.00     0.163 HD
ATOM     36  O   UNL A   1      36.481  31.780  31.783  1.00  0.00    -0.269 OA
BRANCH  34  37
ATOM     37  C   UNL A   1      38.170  30.863  30.423  1.00  0.00     0.039 A 
ATOM     38  C   UNL A   1      39.106  30.456  31.374  1.00  0.00     0.014 A 
ATOM     39  C   UNL A   1      38.517  30.966  29.074  1.00  0.00     0.014 A 
ATOM     40  C   UNL A   1      40.378  30.068  30.956  1.00  0.00     0.010 A 
ATOM     41  C   UNL A   1      39.754  30.499  28.652  1.00  0.00     0.010 A 
ATOM     42  C   UNL A   1      40.694  30.042  29.587  1.00  0.00    -0.014 A 
BRANCH  42  43
ATOM     43  C   UNL A   1      42.000  29.530  29.105  1.00  0.00     0.031 A 
ATOM     44  C   UNL A   1      43.179  30.457  29.013  1.00  0.00     0.074 A 
ATOM     45  C   UNL A   1      42.100  28.257  28.673  1.00  0.00     0.049 A 
ATOM     46  N   UNL A   1      44.379  30.223  28.549  1.00  0.00    -0.248 NA
ATOM     47  C   UNL A   1      42.968  31.839  29.469  1.00  0.00     0.031 C 
ATOM     48  C   UNL A   1      41.010  27.278  28.658  1.00  0.00     0.029 A 
ATOM     49  N   UNL A   1      43.168  27.569  28.156  1.00  0.00    -0.354 N 
ATOM     50  C   UNL A   1      45.056  31.433  28.634  1.00  0.00     0.074 A 
ATOM     51  C   UNL A   1      44.116  32.410  29.137  1.00  0.00     0.031 C 
ATOM     52  C   UNL A   1      41.476  26.108  28.195  1.00  0.00     0.029 A 
ATOM     53  C   UNL A   1      42.884  26.261  27.845  1.00  0.00     0.049 A 
ATOM     54  H   UNL A   1      44.055  27.975  28.021  1.00  0.00     0.167 HD
ATOM     55  C   UNL A   1      46.353  31.701  28.347  1.00  0.00     0.037 A 
ATOM     56  C   UNL A   1      43.673  25.293  27.341  1.00  0.00     0.037 A 
ATOM     57  C   UNL A   1      47.290  30.716  27.876  1.00  0.00     0.049 A 
ATOM     58  C   UNL A   1      45.113  25.606  27.040  1.00  0.00     0.074 A 
ATOM     59  C   UNL A   1      48.641  30.864  27.620  1.00  0.00     0.029 A 
ATOM     60  N   UNL A   1      46.969  29.396  27.590  1.00  0.00    -0.354 N 
ATOM     61  N   UNL A   1      45.758  26.738  27.189  1.00  0.00    -0.248 NA
ATOM     62  C   UNL A   1      45.932  24.510  26.506  1.00  0.00     0.031 C 
ATOM     63  C   UNL A   1      49.130  29.641  27.145  1.00  0.00     0.029 A 
ATOM     64  C   UNL A   1      48.092  28.721  27.143  1.00  0.00     0.049 A 
ATOM     65  H   UNL A   1      46.074  28.998  27.689  1.00  0.00     0.167 HD
ATOM     66  C   UNL A   1      47.066  26.486  26.792  1.00  0.00     0.074 A 
ATOM     67  C   UNL A   1      47.120  25.091  26.401  1.00  0.00     0.031 C 
ATOM     68  C   UNL A   1      48.126  27.331  26.759  1.00  0.00     0.037 A 
BRANCH  55  69
ATOM     69  C   UNL A   1      46.814  33.119  28.537  1.00  0.00     0.058 A 
ATOM     70  C   UNL A   1      46.766  34.056  27.490  1.00  0.00     0.135 A 
ATOM     71  C   UNL A   1      47.344  33.541  29.766  1.00  0.00     0.135 A 
ATOM     72  F   UNL A   1      46.283  33.702  26.288  1.00  0.00    -0.206 F 
ATOM     73  C   UNL A   1      47.284  35.338  27.637  1.00  0.00     0.059 A 
ATOM     74  C   UNL A   1      47.840  34.829  29.944  1.00  0.00     0.059 A 
ATOM     75  F   UNL A   1      47.410  32.690  30.802  1.00  0.00    -0.206 F 
ATOM     76  C   UNL A   1      47.831  35.711  28.864  1.00  0.00     0.060 A 
BRANCH  76  77
ATOM     77  S   UNL A   1      48.549  37.359  29.027  1.00  0.00     0.124 S 
ATOM     78  O   UNL A   1      49.367  37.437  27.820  1.00  0.00    -0.237 OA
ATOM     79  O   UNL A   1      47.369  38.217  29.047  1.00  0.00    -0.237 OA
ATOM     80  O   UNL A   1      49.288  37.285  30.283  1.00  0.00    -0.744 OA
ENDBRANCH  76  77
ENDBRANCH  55  69
BRANCH  56  81
ATOM     81  C   UNL A   1      43.128  23.924  27.150  1.00  0.00     0.058 A 
ATOM     82  C   UNL A   1      42.714  23.495  25.881  1.00  0.00     0.135 A 
ATOM     83  C   UNL A   1      43.058  23.004  28.209  1.00  0.00     0.135 A 
ATOM     84  F   UNL A   1      42.757  24.339  24.841  1.00  0.00    -0.206 F 
ATOM     85  C   UNL A   1      42.249  22.201  25.665  1.00  0.00     0.059 A 
ATOM     86  C   UNL A   1      42.616  21.699  28.014  1.00  0.00     0.059 A 
ATOM     87  F   UNL A   1      43.458  23.364  29.437  1.00  0.00    -0.206 F 
ATOM     88  C   UNL A   1      42.212  21.308  26.737  1.00  0.00     0.060 A 
BRANCH  88  89
ATOM     89  S   UNL A   1      41.685  19.608  26.424  1.00  0.00     0.124 S 
ATOM     90  O   UNL A   1      42.095  18.942  27.654  1.00  0.00    -0.237 OA
ATOM     91  O   UNL A   1      40.247  19.765  26.230  1.00  0.00    -0.237 OA
ATOM     92  O   UNL A   1      42.435  19.241  25.226  1.00  0.00    -0.744 OA
ENDBRANCH  88  89
ENDBRANCH  56  81
BRANCH  68  93
ATOM     93  C   UNL A   1      49.444  26.766  26.311  1.00  0.00     0.058 A 
ATOM     94  C   UNL A   1      49.928  26.971  25.010  1.00  0.00     0.135 A 
ATOM     95  C   UNL A   1      50.256  26.057  27.211  1.00  0.00     0.135 A 
ATOM     96  F   UNL A   1      49.187  27.635  24.109  1.00  0.00    -0.206 F 
ATOM     97  C   UNL A   1      51.167  26.478  24.612  1.00  0.00     0.059 A 
ATOM     98  C   UNL A   1      51.507  25.575  26.841  1.00  0.00     0.059 A 
ATOM     99  F   UNL A   1      49.840  25.841  28.470  1.00  0.00    -0.206 F 
ATOM    100  C   UNL A   1      51.950  25.782  25.535  1.00  0.00     0.060 A 
BRANCH 100 101
ATOM    101  S   UNL A   1      53.572  25.182  25.020  1.00  0.00     0.124 S 
ATOM    102  O   UNL A   1      53.442  23.747  25.252  1.00  0.00    -0.237 OA
ATOM    103  O   UNL A   1      53.630  25.596  23.621  1.00  0.00    -0.237 OA
ATOM    104  O   UNL A   1      54.492  25.882  25.912  1.00  0.00    -0.744 OA
ENDBRANCH 100 101
ENDBRANCH  68  93
ENDBRANCH  42  43
ENDBRANCH  34  37
ENDBRANCH  32  33
ENDBRANCH  31  32
ENDBRANCH  30  31
ENDBRANCH   1  30
TORSDOF 20
ENDMDL
MODEL 2
REMARK VINA RESULT:     -11.7      2.136      8.755
REMARK SMILES O=C(CCc1ccccc1)Nc1ccccc1Oc1ccsc1C(=O)NCCCCNC(=O)c1ccc(-c2c3nc(c(-c4c(F)cc(S(=O)(=O)[O-])cc4F)c4ccc([nH]4)c(-c4c(F)cc(S(=O)(=O)[O-])cc4F)c4nc(c(-c5c(F)cc(S(=O)(=O)[O-])cc5F)c5ccc2[nH]5)C=C4)C=C3)cc1
REMARK SMILES IDX 27 1 26 2 24 3 25 4 23 6 19 7 20 8 21 9 22 10 18 11 17 12
REMARK SMILES IDX 12 13 13 14 14 15 16 16 15 17 11 18 1 19 2 20 3 22 4 23 5 24
REMARK SMILES IDX 6 25 10 26 7 27 9 28 8 29 28 30 29 31 30 32 31 33 32 34
REMARK SMILES IDX 33 36 34 37 35 38 99 39 36 40 98 41 37 42 38 43 39 44 92 45
REMARK SMILES IDX 40 46 97 47 91 48 93 49 41 50 96 51 90 52 89 53 42 55 76 56
REMARK SMILES IDX 55 57 75 58 56 59 59 60 74 61 94 62 57 63 58 64 73 66 95 67
REMARK SMILES IDX 60 68 43 69 44 70 53 71 45 72 46 73 52 74 54 75 47 76 48 77
REMARK SMILES IDX 49 78 50 79 51 80 77 81 78 82 87 83 79 84 80 85 86 86 88 87
REMARK SMILES IDX 81 88 82 89 83 90 84 91 85 92 61 93 62 94 71 95 63 96 64 97
REMARK SMILES IDX 70 98 72 99 65 100 66 101 67 102 68 103 69 104
REMARK H PARENT 26 5 11 21 31 35 93 54 59 65
REMARK Flexibility Score: inf
ROOT
ATOM      1  C   UNL A   1      36.172  23.132  25.312  1.00  0.00     0.116 C 
ENDROOT
BRANCH   1   2
ATOM      2  N   UNL A   1      35.546  23.053  24.015  1.00  0.00    -0.351 N 
ATOM      3  C   UNL A   1      34.261  23.180  23.566  1.00  0.00     0.265 C 
ATOM      4  O   UNL A   1      34.160  23.028  22.342  1.00  0.00    -0.268 OA
ATOM      5  H   UNL A   1      36.187  22.867  23.292  1.00  0.00     0.163 HD
BRANCH   3   6
ATOM      6  C   UNL A   1      33.093  23.464  24.403  1.00  0.00     0.135 A 
ATOM      7  C   UNL A   1      32.324  24.574  24.733  1.00  0.00     0.151 A 
ATOM      8  C   UNL A   1      31.338  24.311  25.735  1.00  0.00     0.059 A 
ATOM      9  C   UNL A   1      31.379  23.015  26.181  1.00  0.00     0.069 A 
ATOM     10  S   UNL A   1      32.551  22.103  25.355  1.00  0.00    -0.135 S 
BRANCH   7  11
ATOM     11  O   UNL A   1      32.456  25.800  24.194  1.00  0.00    -0.453 OA
BRANCH  11  12
ATOM     12  C   UNL A   1      32.505  26.987  24.905  1.00  0.00     0.151 A 
ATOM     13  C   UNL A   1      31.514  27.988  24.955  1.00  0.00     0.084 A 
ATOM     14  C   UNL A   1      31.598  28.967  25.952  1.00  0.00     0.030 A 
ATOM     15  C   UNL A   1      32.652  28.971  26.871  1.00  0.00     0.002 A 
ATOM     16  C   UNL A   1      33.572  27.015  25.819  1.00  0.00     0.049 A 
ATOM     17  C   UNL A   1      33.645  28.000  26.801  1.00  0.00     0.004 A 
BRANCH  13  18
ATOM     18  N   UNL A   1      30.480  28.015  24.005  1.00  0.00    -0.323 N 
ATOM     19  O   UNL A   1      29.003  26.360  24.714  1.00  0.00    -0.275 OA
ATOM     20  C   UNL A   1      29.314  27.279  23.966  1.00  0.00     0.224 C 
ATOM     21  H   UNL A   1      30.606  28.647  23.262  1.00  0.00     0.170 HD
BRANCH  20  22
ATOM     22  C   UNL A   1      28.413  27.733  22.827  1.00  0.00     0.105 C 
BRANCH  22  23
ATOM     23  C   UNL A   1      27.489  28.866  23.261  1.00  0.00     0.045 C 
BRANCH  23  24
ATOM     24  C   UNL A   1      27.841  30.247  22.750  1.00  0.00    -0.048 A 
ATOM     25  C   UNL A   1      27.952  30.440  21.366  1.00  0.00     0.004 A 
ATOM     26  C   UNL A   1      28.065  31.342  23.597  1.00  0.00     0.004 A 
ATOM     27  C   UNL A   1      28.215  31.705  20.837  1.00  0.00     0.000 A 
ATOM     28  C   UNL A   1      28.304  32.614  23.067  1.00  0.00     0.000 A 
ATOM     29  C   UNL A   1      28.373  32.795  21.688  1.00  0.00     0.000 A 
ENDBRANCH  23  24
ENDBRANCH  22  23
ENDBRANCH  20  22
ENDBRANCH  13  18
ENDBRANCH  11  12
ENDBRANCH   7  11
ENDBRANCH   3   6
ENDBRANCH   1   2
BRANCH   1  30
ATOM     30  C   UNL A   1      37.678  22.887  25.188  1.00  0.00     0.023 C 
BRANCH  30  31
ATOM     31  C   UNL A   1      38.110  21.432  25.357  1.00  0.00     0.023 C 
BRANCH  31  32
ATOM     32  C   UNL A   1      39.291  21.226  26.299  1.00  0.00     0.116 C 
BRANCH  32  33
ATOM     33  N   UNL A   1      40.014  19.977  26.093  1.00  0.00    -0.352 N 
ATOM     34  C   UNL A   1      41.376  19.786  26.094  1.00  0.00     0.251 C 
ATOM     35  H   UNL A   1      39.463  19.177  25.935  1.00  0.00     0.163 HD
ATOM     36  O   UNL A   1      41.858  18.686  25.843  1.00  0.00    -0.269 OA
BRANCH  34  37
ATOM     37  C   UNL A   1      42.240  20.954  26.348  1.00  0.00     0.039 A 
ATOM     38  C   UNL A   1      42.653  21.735  25.267  1.00  0.00     0.014 A 
ATOM     39  C   UNL A   1      42.526  21.337  27.660  1.00  0.00     0.014 A 
ATOM     40  C   UNL A   1      43.286  22.953  25.510  1.00  0.00     0.010 A 
ATOM     41  C   UNL A   1      43.078  22.588  27.899  1.00  0.00     0.010 A 
ATOM     42  C   UNL A   1      43.459  23.410  26.828  1.00  0.00    -0.014 A 
BRANCH  42  43
ATOM     43  C   UNL A   1      44.027  24.749  27.114  1.00  0.00     0.031 A 
ATOM     44  C   UNL A   1      43.132  25.855  27.597  1.00  0.00     0.074 A 
ATOM     45  C   UNL A   1      45.329  24.991  26.858  1.00  0.00     0.049 A 
ATOM     46  N   UNL A   1      43.419  27.109  27.830  1.00  0.00    -0.248 NA
ATOM     47  C   UNL A   1      41.717  25.511  27.810  1.00  0.00     0.031 C 
ATOM     48  C   UNL A   1      46.285  24.014  26.331  1.00  0.00     0.029 A 
ATOM     49  N   UNL A   1      46.070  26.135  27.000  1.00  0.00    -0.354 N 
ATOM     50  C   UNL A   1      42.220  27.708  28.193  1.00  0.00     0.074 A 
ATOM     51  C   UNL A   1      41.192  26.694  28.090  1.00  0.00     0.031 C 
ATOM     52  C   UNL A   1      47.493  24.590  26.233  1.00  0.00     0.029 A 
ATOM     53  C   UNL A   1      47.391  25.985  26.652  1.00  0.00     0.049 A 
ATOM     54  H   UNL A   1      45.692  26.986  27.322  1.00  0.00     0.167 HD
ATOM     55  C   UNL A   1      41.997  28.979  28.602  1.00  0.00     0.037 A 
ATOM     56  C   UNL A   1      48.407  26.869  26.675  1.00  0.00     0.037 A 
ATOM     57  C   UNL A   1      43.029  29.973  28.731  1.00  0.00     0.049 A 
ATOM     58  C   UNL A   1      48.142  28.273  27.145  1.00  0.00     0.074 A 
ATOM     59  C   UNL A   1      42.925  31.269  29.202  1.00  0.00     0.029 A 
ATOM     60  N   UNL A   1      44.359  29.777  28.386  1.00  0.00    -0.354 N 
ATOM     61  N   UNL A   1      47.015  28.807  27.549  1.00  0.00    -0.248 NA
ATOM     62  C   UNL A   1      49.288  29.192  27.164  1.00  0.00     0.031 C 
ATOM     63  C   UNL A   1      44.186  31.869  29.107  1.00  0.00     0.029 A 
ATOM     64  C   UNL A   1      45.084  30.934  28.616  1.00  0.00     0.049 A 
ATOM     65  H   UNL A   1      44.733  28.939  28.029  1.00  0.00     0.167 HD
ATOM     66  C   UNL A   1      47.318  30.119  27.897  1.00  0.00     0.074 A 
ATOM     67  C   UNL A   1      48.738  30.293  27.659  1.00  0.00     0.031 C 
ATOM     68  C   UNL A   1      46.498  31.088  28.373  1.00  0.00     0.037 A 
BRANCH  55  69
ATOM     69  C   UNL A   1      40.578  29.350  28.933  1.00  0.00     0.058 A 
ATOM     70  C   UNL A   1      39.624  29.582  27.927  1.00  0.00     0.135 A 
ATOM     71  C   UNL A   1      40.173  29.513  30.267  1.00  0.00     0.135 A 
ATOM     72  F   UNL A   1      39.961  29.455  26.634  1.00  0.00    -0.206 F 
ATOM     73  C   UNL A   1      38.339  30.021  28.230  1.00  0.00     0.059 A 
ATOM     74  C   UNL A   1      38.884  29.922  30.594  1.00  0.00     0.059 A 
ATOM     75  F   UNL A   1      41.041  29.302  31.268  1.00  0.00    -0.206 F 
ATOM     76  C   UNL A   1      37.983  30.201  29.566  1.00  0.00     0.060 A 
BRANCH  76  77
ATOM     77  S   UNL A   1      36.331  30.823  29.945  1.00  0.00     0.124 S 
ATOM     78  O   UNL A   1      36.484  32.245  29.647  1.00  0.00    -0.237 OA
ATOM     79  O   UNL A   1      35.490  30.070  29.021  1.00  0.00    -0.237 OA
ATOM     80  O   UNL A   1      36.159  30.492  31.356  1.00  0.00    -0.744 OA
ENDBRANCH  76  77
ENDBRANCH  55  69
BRANCH  56  81
ATOM     81  C   UNL A   1      49.775  26.429  26.298  1.00  0.00     0.058 A 
ATOM     82  C   UNL A   1      50.252  26.630  24.995  1.00  0.00     0.135 A 
ATOM     83  C   UNL A   1      50.647  25.852  27.234  1.00  0.00     0.135 A 
ATOM     84  F   UNL A   1      49.453  27.172  24.065  1.00  0.00    -0.206 F 
ATOM     85  C   UNL A   1      51.547  26.276  24.630  1.00  0.00     0.059 A 
ATOM     86  C   UNL A   1      51.953  25.508  26.899  1.00  0.00     0.059 A 
ATOM     87  F   UNL A   1      50.242  25.655  28.497  1.00  0.00    -0.206 F 
ATOM     88  C   UNL A   1      52.393  25.723  25.592  1.00  0.00     0.060 A 
BRANCH  88  89
ATOM     89  S   UNL A   1      54.097  25.344  25.125  1.00  0.00     0.124 S 
ATOM     90  O   UNL A   1      54.044  23.896  24.965  1.00  0.00    -0.237 OA
ATOM     91  O   UNL A   1      54.257  26.118  23.899  1.00  0.00    -0.237 OA
ATOM     92  O   UNL A   1      54.870  25.826  26.267  1.00  0.00    -0.744 OA
ENDBRANCH  88  89
ENDBRANCH  56  81
BRANCH  68  93
ATOM     93  C   UNL A   1      47.118  32.417  28.697  1.00  0.00     0.058 A 
ATOM     94  C   UNL A   1      47.209  33.439  27.740  1.00  0.00     0.135 A 
ATOM     95  C   UNL A   1      47.576  32.690  29.996  1.00  0.00     0.135 A 
ATOM     96  F   UNL A   1      46.793  33.227  26.482  1.00  0.00    -0.206 F 
ATOM     97  C   UNL A   1      47.749  34.682  28.056  1.00  0.00     0.059 A 
ATOM     98  C   UNL A   1      48.098  33.932  30.340  1.00  0.00     0.059 A 
ATOM     99  F   UNL A   1      47.503  31.748  30.950  1.00  0.00    -0.206 F 
ATOM    100  C   UNL A   1      48.190  34.920  29.359  1.00  0.00     0.060 A 
BRANCH 100 101
ATOM    101  S   UNL A   1      48.851  36.549  29.769  1.00  0.00     0.124 S 
ATOM    102  O   UNL A   1      49.123  36.406  31.195  1.00  0.00    -0.237 OA
ATOM    103  O   UNL A   1      50.025  36.636  28.905  1.00  0.00    -0.237 OA
ATOM    104  O   UNL A   1      47.759  37.454  29.425  1.00  0.00    -0.744 OA
ENDBRANCH 100 101
ENDBRANCH  68  93
ENDBRANCH  42  43
ENDBRANCH  34  37
ENDBRANCH  32  33
ENDBRANCH  31  32
ENDBRANCH  30  31
ENDBRANCH   1  30
TORSDOF 20
ENDMDL
MODEL 3
REMARK VINA RESULT:     -11.6      5.980     11.603
REMARK SMILES O=C(CCc1ccccc1)Nc1ccccc1Oc1ccsc1C(=O)NCCCCNC(=O)c1ccc(-c2c3nc(c(-c4c(F)cc(S(=O)(=O)[O-])cc4F)c4ccc([nH]4)c(-c4c(F)cc(S(=O)(=O)[O-])cc4F)c4nc(c(-c5c(F)cc(S(=O)(=O)[O-])cc5F)c5ccc2[nH]5)C=C4)C=C3)cc1
REMARK SMILES IDX 27 1 26 2 24 3 25 4 23 6 19 7 20 8 21 9 22 10 18 11 17 12
REMARK SMILES IDX 12 13 13 14 14 15 16 16 15 17 11 18 1 19 2 20 3 22 4 23 5 24
REMARK SMILES IDX 6 25 10 26 7 27 9 28 8 29 28 30 29 31 30 32 31 33 32 34
REMARK SMILES IDX 33 36 34 37 35 38 99 39 36 40 98 41 37 42 38 43 39 44 92 45
REMARK SMILES IDX 40 46 97 47 91 48 93 49 41 50 96 51 90 52 89 53 42 55 76 56
REMARK SMILES IDX 55 57 75 58 56 59 59 60 74 61 94 62 57 63 58 64 73 66 95 67
REMARK SMILES IDX 60 68 43 69 44 70 53 71 45 72 46 73 52 74 54 75 47 76 48 77
REMARK SMILES IDX 49 78 50 79 51 80 77 81 78 82 87 83 79 84 80 85 86 86 88 87
REMARK SMILES IDX 81 88 82 89 83 90 84 91 85 92 61 93 62 94 71 95 63 96 64 97
REMARK SMILES IDX 70 98 72 99 65 100 66 101 67 102 68 103 69 104
REMARK H PARENT 26 5 11 21 31 35 93 54 59 65
REMARK Flexibility Score: inf
ROOT
ATOM      1  C   UNL A   1      37.165  23.991  26.010  1.00  0.00     0.116 C 
ENDROOT
BRANCH   1   2
ATOM      2  N   UNL A   1      36.581  23.793  24.706  1.00  0.00    -0.351 N 
ATOM      3  C   UNL A   1      35.305  23.821  24.218  1.00  0.00     0.265 C 
ATOM      4  O   UNL A   1      35.247  23.583  23.005  1.00  0.00    -0.268 OA
ATOM      5  H   UNL A   1      37.252  23.595  24.014  1.00  0.00     0.163 HD
BRANCH   3   6
ATOM      6  C   UNL A   1      34.100  24.096  25.004  1.00  0.00     0.135 A 
ATOM      7  C   UNL A   1      33.305  25.199  25.296  1.00  0.00     0.151 A 
ATOM      8  C   UNL A   1      32.281  24.930  26.258  1.00  0.00     0.059 A 
ATOM      9  C   UNL A   1      32.319  23.637  26.712  1.00  0.00     0.069 A 
ATOM     10  S   UNL A   1      33.534  22.734  25.941  1.00  0.00    -0.135 S 
BRANCH   7  11
ATOM     11  O   UNL A   1      33.445  26.423  24.755  1.00  0.00    -0.453 OA
BRANCH  11  12
ATOM     12  C   UNL A   1      33.262  27.621  25.425  1.00  0.00     0.151 A 
ATOM     13  C   UNL A   1      32.125  28.452  25.382  1.00  0.00     0.084 A 
ATOM     14  C   UNL A   1      31.991  29.458  26.347  1.00  0.00     0.030 A 
ATOM     15  C   UNL A   1      32.970  29.652  27.325  1.00  0.00     0.002 A 
ATOM     16  C   UNL A   1      34.251  27.841  26.400  1.00  0.00     0.049 A 
ATOM     17  C   UNL A   1      34.105  28.850  27.348  1.00  0.00     0.004 A 
BRANCH  13  18
ATOM     18  N   UNL A   1      31.163  28.290  24.372  1.00  0.00    -0.323 N 
ATOM     19  O   UNL A   1      29.851  26.512  25.106  1.00  0.00    -0.275 OA
ATOM     20  C   UNL A   1      30.099  27.415  24.315  1.00  0.00     0.224 C 
ATOM     21  H   UNL A   1      31.262  28.886  23.595  1.00  0.00     0.170 HD
BRANCH  20  22
ATOM     22  C   UNL A   1      29.230  27.680  23.095  1.00  0.00     0.105 C 
BRANCH  22  23
ATOM     23  C   UNL A   1      29.844  28.745  22.191  1.00  0.00     0.045 C 
BRANCH  23  24
ATOM     24  C   UNL A   1      29.249  30.133  22.298  1.00  0.00    -0.048 A 
ATOM     25  C   UNL A   1      28.752  30.738  21.134  1.00  0.00     0.004 A 
ATOM     26  C   UNL A   1      29.176  30.845  23.503  1.00  0.00     0.004 A 
ATOM     27  C   UNL A   1      28.139  31.991  21.184  1.00  0.00     0.000 A 
ATOM     28  C   UNL A   1      28.540  32.088  23.558  1.00  0.00     0.000 A 
ATOM     29  C   UNL A   1      28.017  32.658  22.400  1.00  0.00     0.000 A 
ENDBRANCH  23  24
ENDBRANCH  22  23
ENDBRANCH  20  22
ENDBRANCH  13  18
ENDBRANCH  11  12
ENDBRANCH   7  11
ENDBRANCH   3   6
ENDBRANCH   1   2
BRANCH   1  30
ATOM     30  C   UNL A   1      38.463  23.190  26.136  1.00  0.00     0.023 C 
BRANCH  30  31
ATOM     31  C   UNL A   1      39.547  23.849  26.987  1.00  0.00     0.023 C 
BRANCH  31  32
ATOM     32  C   UNL A   1      40.167  25.097  26.369  1.00  0.00     0.116 C 
BRANCH  32  33
ATOM     33  N   UNL A   1      41.490  24.889  25.793  1.00  0.00    -0.352 N 
ATOM     34  C   UNL A   1      42.685  25.416  26.223  1.00  0.00     0.251 C 
ATOM     35  H   UNL A   1      41.533  24.303  25.003  1.00  0.00     0.163 HD
ATOM     36  O   UNL A   1      43.724  25.210  25.605  1.00  0.00    -0.269 OA
BRANCH  34  37
ATOM     37  C   UNL A   1      42.671  26.284  27.416  1.00  0.00     0.039 A 
ATOM     38  C   UNL A   1      42.931  27.646  27.263  1.00  0.00     0.014 A 
ATOM     39  C   UNL A   1      42.275  25.764  28.651  1.00  0.00     0.014 A 
ATOM     40  C   UNL A   1      42.711  28.507  28.337  1.00  0.00     0.010 A 
ATOM     41  C   UNL A   1      41.976  26.633  29.691  1.00  0.00     0.010 A 
ATOM     42  C   UNL A   1      42.186  28.013  29.543  1.00  0.00    -0.014 A 
BRANCH  42  43
ATOM     43  C   UNL A   1      41.838  28.919  30.664  1.00  0.00     0.031 A 
ATOM     44  C   UNL A   1      42.657  28.898  31.925  1.00  0.00     0.074 A 
ATOM     45  C   UNL A   1      40.740  29.695  30.579  1.00  0.00     0.049 A 
ATOM     46  N   UNL A   1      42.472  29.555  33.040  1.00  0.00    -0.248 NA
ATOM     47  C   UNL A   1      43.814  27.991  31.944  1.00  0.00     0.031 C 
ATOM     48  C   UNL A   1      39.832  29.758  29.431  1.00  0.00     0.029 A 
ATOM     49  N   UNL A   1      40.195  30.575  31.479  1.00  0.00    -0.354 N 
ATOM     50  C   UNL A   1      43.474  29.122  33.900  1.00  0.00     0.074 A 
ATOM     51  C   UNL A   1      44.224  28.104  33.198  1.00  0.00     0.031 C 
ATOM     52  C   UNL A   1      38.869  30.658  29.680  1.00  0.00     0.029 A 
ATOM     53  C   UNL A   1      39.065  31.208  31.018  1.00  0.00     0.049 A 
ATOM     54  H   UNL A   1      40.578  30.738  32.372  1.00  0.00     0.167 HD
ATOM     55  C   UNL A   1      43.761  29.553  35.152  1.00  0.00     0.037 A 
ATOM     56  C   UNL A   1      38.281  32.132  31.605  1.00  0.00     0.037 A 
ATOM     57  C   UNL A   1      43.028  30.587  35.832  1.00  0.00     0.049 A 
ATOM     58  C   UNL A   1      38.624  32.608  32.990  1.00  0.00     0.074 A 
ATOM     59  C   UNL A   1      43.276  31.148  37.072  1.00  0.00     0.029 A 
ATOM     60  N   UNL A   1      41.900  31.218  35.325  1.00  0.00    -0.354 N 
ATOM     61  N   UNL A   1      39.614  32.238  33.766  1.00  0.00    -0.248 NA
ATOM     62  C   UNL A   1      37.744  33.627  33.578  1.00  0.00     0.031 C 
ATOM     63  C   UNL A   1      42.276  32.093  37.330  1.00  0.00     0.029 A 
ATOM     64  C   UNL A   1      41.428  32.150  36.234  1.00  0.00     0.049 A 
ATOM     65  H   UNL A   1      41.494  31.030  34.448  1.00  0.00     0.167 HD
ATOM     66  C   UNL A   1      39.494  32.997  34.925  1.00  0.00     0.074 A 
ATOM     67  C   UNL A   1      38.336  33.851  34.743  1.00  0.00     0.031 C 
ATOM     68  C   UNL A   1      40.274  32.992  36.034  1.00  0.00     0.037 A 
BRANCH  55  69
ATOM     69  C   UNL A   1      44.916  28.893  35.851  1.00  0.00     0.058 A 
ATOM     70  C   UNL A   1      46.234  29.354  35.693  1.00  0.00     0.135 A 
ATOM     71  C   UNL A   1      44.712  27.764  36.660  1.00  0.00     0.135 A 
ATOM     72  F   UNL A   1      46.488  30.421  34.918  1.00  0.00    -0.206 F 
ATOM     73  C   UNL A   1      47.313  28.685  36.261  1.00  0.00     0.059 A 
ATOM     74  C   UNL A   1      45.774  27.096  37.262  1.00  0.00     0.059 A 
ATOM     75  F   UNL A   1      43.474  27.282  36.850  1.00  0.00    -0.206 F 
ATOM     76  C   UNL A   1      47.074  27.548  37.032  1.00  0.00     0.060 A 
BRANCH  76  77
ATOM     77  S   UNL A   1      48.484  26.655  37.719  1.00  0.00     0.124 S 
ATOM     78  O   UNL A   1      47.910  25.330  37.932  1.00  0.00    -0.237 OA
ATOM     79  O   UNL A   1      49.471  26.752  36.649  1.00  0.00    -0.237 OA
ATOM     80  O   UNL A   1      48.803  27.404  38.930  1.00  0.00    -0.744 OA
ENDBRANCH  76  77
ENDBRANCH  55  69
BRANCH  56  81
ATOM     81  C   UNL A   1      37.136  32.709  30.855  1.00  0.00     0.058 A 
ATOM     82  C   UNL A   1      35.845  32.187  31.019  1.00  0.00     0.135 A 
ATOM     83  C   UNL A   1      37.292  33.817  30.008  1.00  0.00     0.135 A 
ATOM     84  F   UNL A   1      35.647  31.125  31.814  1.00  0.00    -0.206 F 
ATOM     85  C   UNL A   1      34.746  32.742  30.370  1.00  0.00     0.059 A 
ATOM     86  C   UNL A   1      36.206  34.402  29.364  1.00  0.00     0.059 A 
ATOM     87  F   UNL A   1      38.505  34.362  29.833  1.00  0.00    -0.206 F 
ATOM     88  C   UNL A   1      34.936  33.855  29.551  1.00  0.00     0.060 A 
BRANCH  88  89
ATOM     89  S   UNL A   1      33.489  34.615  28.781  1.00  0.00     0.124 S 
ATOM     90  O   UNL A   1      34.069  35.811  28.181  1.00  0.00    -0.237 OA
ATOM     91  O   UNL A   1      33.058  33.578  27.850  1.00  0.00    -0.237 OA
ATOM     92  O   UNL A   1      32.592  34.846  29.910  1.00  0.00    -0.744 OA
ENDBRANCH  88  89
ENDBRANCH  56  81
BRANCH  68  93
ATOM     93  C   UNL A   1      39.919  33.957  37.130  1.00  0.00     0.058 A 
ATOM     94  C   UNL A   1      39.072  33.591  38.186  1.00  0.00     0.135 A 
ATOM     95  C   UNL A   1      40.480  35.244  37.151  1.00  0.00     0.135 A 
ATOM     96  F   UNL A   1      38.504  32.375  38.209  1.00  0.00    -0.206 F 
ATOM     97  C   UNL A   1      38.778  34.476  39.219  1.00  0.00     0.059 A 
ATOM     98  C   UNL A   1      40.218  36.136  38.185  1.00  0.00     0.059 A 
ATOM     99  F   UNL A   1      41.304  35.639  36.167  1.00  0.00    -0.206 F 
ATOM    100  C   UNL A   1      39.357  35.747  39.210  1.00  0.00     0.060 A 
BRANCH 100 101
ATOM    101  S   UNL A   1      39.001  36.873  40.576  1.00  0.00     0.124 S 
ATOM    102  O   UNL A   1      38.225  36.017  41.467  1.00  0.00    -0.237 OA
ATOM    103  O   UNL A   1      40.338  37.229  41.044  1.00  0.00    -0.237 OA
ATOM    104  O   UNL A   1      38.259  37.955  39.937  1.00  0.00    -0.744 OA
ENDBRANCH 100 101
ENDBRANCH  68  93
ENDBRANCH  42  43
ENDBRANCH  34  37
ENDBRANCH  32  33
ENDBRANCH  31  32
ENDBRANCH  30  31
ENDBRANCH   1  30
TORSDOF 20
ENDMDL
