MODEL 1
REMARK VINA RESULT:     -12.4      0.000      0.000
REMARK SMILES COC(=O)c1cc(F)cc(-c2ccccc2C(=O)NCCCCNC(=O)c2ccc(-c3c4nc(c(-c5c(F)cc(S(=O)(=O)[O-])cc5F)c5ccc([nH]5)c(-c5c(F)cc(S(=O)(=O)[O-])cc5F)c5nc(c(-c6c(F)cc(S(=O)(=O)[O-])cc6F)c6ccc3[nH]6)C=C5)C=C4)cc2)c1
REMARK SMILES IDX 21 1 20 2 19 3 17 4 18 5 16 7 11 8 12 9 13 10 15 11 14 12
REMARK SMILES IDX 10 13 5 14 6 15 93 16 7 17 8 18 9 19 3 20 4 21 2 22 1 23
REMARK SMILES IDX 22 24 23 25 24 26 25 27 26 29 27 30 28 31 92 32 29 33 91 34
REMARK SMILES IDX 30 35 31 36 32 37 85 38 33 39 90 40 84 41 86 42 34 43 89 44
REMARK SMILES IDX 83 45 82 46 35 48 69 49 48 50 68 51 49 52 52 53 67 54 87 55
REMARK SMILES IDX 50 56 51 57 66 59 88 60 53 61 36 62 37 63 46 64 38 65 39 66
REMARK SMILES IDX 45 67 47 68 40 69 41 70 42 71 43 72 44 73 70 74 71 75 80 76
REMARK SMILES IDX 72 77 73 78 79 79 81 80 74 81 75 82 76 83 77 84 78 85 54 86
REMARK SMILES IDX 55 87 64 88 56 89 57 90 63 91 65 92 58 93 59 94 60 95 61 96
REMARK SMILES IDX 62 97
REMARK H PARENT 19 6 24 28 86 47 52 58
REMARK Flexibility Score: inf
ROOT
ATOM      1  C   UNL A   1      39.327  21.885  26.185  1.00  0.00     0.023 C 
ENDROOT
BRANCH   1   2
ATOM      2  C   UNL A   1      37.981  22.527  25.881  1.00  0.00     0.116 C 
BRANCH   2   3
ATOM      3  N   UNL A   1      37.645  22.720  24.494  1.00  0.00    -0.352 N 
ATOM      4  C   UNL A   1      36.437  22.593  23.845  1.00  0.00     0.251 C 
ATOM      5  O   UNL A   1      36.403  22.933  22.658  1.00  0.00    -0.269 OA
ATOM      6  H   UNL A   1      38.399  22.984  23.918  1.00  0.00     0.163 HD
BRANCH   4   7
ATOM      7  C   UNL A   1      35.191  21.987  24.428  1.00  0.00     0.047 A 
ATOM      8  C   UNL A   1      33.947  22.612  24.689  1.00  0.00    -0.005 A 
ATOM      9  C   UNL A   1      32.886  21.810  25.180  1.00  0.00     0.009 A 
ATOM     10  C   UNL A   1      33.027  20.439  25.393  1.00  0.00     0.001 A 
ATOM     11  C   UNL A   1      35.303  20.591  24.639  1.00  0.00     0.014 A 
ATOM     12  C   UNL A   1      34.238  19.826  25.117  1.00  0.00     0.001 A 
BRANCH   8  13
ATOM     13  C   UNL A   1      33.650  24.037  24.484  1.00  0.00    -0.014 A 
ATOM     14  C   UNL A   1      32.925  25.885  23.078  1.00  0.00     0.063 A 
ATOM     15  C   UNL A   1      33.333  26.810  24.044  1.00  0.00     0.055 A 
ATOM     16  C   UNL A   1      33.060  24.506  23.304  1.00  0.00     0.024 A 
ATOM     17  C   UNL A   1      33.853  26.341  25.240  1.00  0.00     0.124 A 
ATOM     18  F   UNL A   1      34.274  27.208  26.171  1.00  0.00    -0.207 F 
ATOM     19  C   UNL A   1      34.002  24.978  25.472  1.00  0.00     0.048 A 
BRANCH  14  20
ATOM     20  C   UNL A   1      32.402  26.316  21.767  1.00  0.00     0.337 C 
ATOM     21  O   UNL A   1      31.327  26.875  21.625  1.00  0.00    -0.246 OA
BRANCH  20  22
ATOM     22  O   UNL A   1      33.233  25.884  20.792  1.00  0.00    -0.465 OA
ATOM     23  C   UNL A   1      32.558  25.419  19.624  1.00  0.00     0.282 C 
ENDBRANCH  20  22
ENDBRANCH  14  20
ENDBRANCH   8  13
ENDBRANCH   4   7
ENDBRANCH   2   3
ENDBRANCH   1   2
BRANCH   1  24
ATOM     24  C   UNL A   1      40.163  22.461  27.328  1.00  0.00     0.023 C 
BRANCH  24  25
ATOM     25  C   UNL A   1      41.499  23.128  27.001  1.00  0.00     0.116 C 
BRANCH  25  26
ATOM     26  N   UNL A   1      41.470  24.114  25.935  1.00  0.00    -0.352 N 
ATOM     27  C   UNL A   1      41.485  25.492  26.001  1.00  0.00     0.251 C 
ATOM     28  H   UNL A   1      41.435  23.740  25.024  1.00  0.00     0.163 HD
ATOM     29  O   UNL A   1      41.522  26.130  24.950  1.00  0.00    -0.269 OA
BRANCH  27  30
ATOM     30  C   UNL A   1      41.395  26.219  27.297  1.00  0.00     0.039 A 
ATOM     31  C   UNL A   1      42.468  27.042  27.667  1.00  0.00     0.014 A 
ATOM     32  C   UNL A   1      40.293  26.117  28.149  1.00  0.00     0.014 A 
ATOM     33  C   UNL A   1      42.392  27.828  28.825  1.00  0.00     0.010 A 
ATOM     34  C   UNL A   1      40.191  26.938  29.274  1.00  0.00     0.010 A 
ATOM     35  C   UNL A   1      41.230  27.817  29.611  1.00  0.00    -0.014 A 
BRANCH  35  36
ATOM     36  C   UNL A   1      41.053  28.765  30.741  1.00  0.00     0.031 A 
ATOM     37  C   UNL A   1      41.875  28.632  31.993  1.00  0.00     0.074 A 
ATOM     38  C   UNL A   1      40.074  29.691  30.666  1.00  0.00     0.049 A 
ATOM     39  N   UNL A   1      41.815  29.334  33.096  1.00  0.00    -0.248 NA
ATOM     40  C   UNL A   1      42.880  27.557  32.021  1.00  0.00     0.031 C 
ATOM     41  C   UNL A   1      39.160  29.861  29.533  1.00  0.00     0.029 A 
ATOM     42  N   UNL A   1      39.668  30.646  31.563  1.00  0.00    -0.354 N 
ATOM     43  C   UNL A   1      42.765  28.785  33.949  1.00  0.00     0.074 A 
ATOM     44  C   UNL A   1      43.360  27.665  33.252  1.00  0.00     0.031 C 
ATOM     45  C   UNL A   1      38.303  30.858  29.803  1.00  0.00     0.029 A 
ATOM     46  C   UNL A   1      38.594  31.391  31.130  1.00  0.00     0.049 A 
ATOM     47  H   UNL A   1      40.102  30.786  32.435  1.00  0.00     0.167 HD
ATOM     48  C   UNL A   1      43.119  29.194  35.191  1.00  0.00     0.037 A 
ATOM     49  C   UNL A   1      37.922  32.392  31.731  1.00  0.00     0.037 A 
ATOM     50  C   UNL A   1      42.536  30.326  35.865  1.00  0.00     0.049 A 
ATOM     51  C   UNL A   1      38.378  32.865  33.083  1.00  0.00     0.074 A 
ATOM     52  C   UNL A   1      42.869  30.858  37.100  1.00  0.00     0.029 A 
ATOM     53  N   UNL A   1      41.505  31.105  35.360  1.00  0.00    -0.354 N 
ATOM     54  N   UNL A   1      39.329  32.381  33.844  1.00  0.00    -0.248 NA
ATOM     55  C   UNL A   1      37.688  34.032  33.650  1.00  0.00     0.031 C 
ATOM     56  C   UNL A   1      42.022  31.943  37.351  1.00  0.00     0.029 A 
ATOM     57  C   UNL A   1      41.189  32.111  36.257  1.00  0.00     0.049 A 
ATOM     58  H   UNL A   1      41.065  30.964  34.491  1.00  0.00     0.167 HD
ATOM     59  C   UNL A   1      39.374  33.202  34.964  1.00  0.00     0.074 A 
ATOM     60  C   UNL A   1      38.358  34.218  34.779  1.00  0.00     0.031 C 
ATOM     61  C   UNL A   1      40.184  33.122  36.048  1.00  0.00     0.037 A 
BRANCH  48  62
ATOM     62  C   UNL A   1      44.212  28.444  35.902  1.00  0.00     0.058 A 
ATOM     63  C   UNL A   1      45.563  28.754  35.675  1.00  0.00     0.135 A 
ATOM     64  C   UNL A   1      43.923  27.349  36.733  1.00  0.00     0.135 A 
ATOM     65  F   UNL A   1      45.896  29.796  34.896  1.00  0.00    -0.206 F 
ATOM     66  C   UNL A   1      46.587  27.990  36.226  1.00  0.00     0.059 A 
ATOM     67  C   UNL A   1      44.932  26.584  37.311  1.00  0.00     0.059 A 
ATOM     68  F   UNL A   1      42.648  27.023  37.000  1.00  0.00    -0.206 F 
ATOM     69  C   UNL A   1      46.262  26.900  37.035  1.00  0.00     0.060 A 
BRANCH  69  70
ATOM     70  S   UNL A   1      47.601  25.911  37.735  1.00  0.00     0.124 S 
ATOM     71  O   UNL A   1      48.294  25.453  36.537  1.00  0.00    -0.237 OA
ATOM     72  O   UNL A   1      48.314  26.894  38.548  1.00  0.00    -0.237 OA
ATOM     73  O   UNL A   1      46.898  24.879  38.491  1.00  0.00    -0.744 OA
ENDBRANCH  69  70
ENDBRANCH  48  62
BRANCH  49  74
ATOM     74  C   UNL A   1      36.785  33.044  31.031  1.00  0.00     0.058 A 
ATOM     75  C   UNL A   1      35.460  32.843  31.449  1.00  0.00     0.135 A 
ATOM     76  C   UNL A   1      37.001  33.857  29.908  1.00  0.00     0.135 A 
ATOM     77  F   UNL A   1      35.199  32.064  32.509  1.00  0.00    -0.206 F 
ATOM     78  C   UNL A   1      34.389  33.415  30.770  1.00  0.00     0.059 A 
ATOM     79  C   UNL A   1      35.946  34.458  29.225  1.00  0.00     0.059 A 
ATOM     80  F   UNL A   1      38.251  34.083  29.477  1.00  0.00    -0.206 F 
ATOM     81  C   UNL A   1      34.642  34.217  29.656  1.00  0.00     0.060 A 
BRANCH  81  82
ATOM     82  S   UNL A   1      33.241  34.950  28.784  1.00  0.00     0.124 S 
ATOM     83  O   UNL A   1      32.369  35.321  29.896  1.00  0.00    -0.237 OA
ATOM     84  O   UNL A   1      33.866  36.060  28.072  1.00  0.00    -0.237 OA
ATOM     85  O   UNL A   1      32.759  33.860  27.943  1.00  0.00    -0.744 OA
ENDBRANCH  81  82
ENDBRANCH  49  74
BRANCH  61  86
ATOM     86  C   UNL A   1      40.033  34.180  37.102  1.00  0.00     0.058 A 
ATOM     87  C   UNL A   1      39.180  33.973  38.197  1.00  0.00     0.135 A 
ATOM     88  C   UNL A   1      40.689  35.416  37.002  1.00  0.00     0.135 A 
ATOM     89  F   UNL A   1      38.527  32.808  38.336  1.00  0.00    -0.206 F 
ATOM     90  C   UNL A   1      38.979  34.957  39.157  1.00  0.00     0.059 A 
ATOM     91  C   UNL A   1      40.520  36.408  37.963  1.00  0.00     0.059 A 
ATOM     92  F   UNL A   1      41.522  35.658  35.977  1.00  0.00    -0.206 F 
ATOM     93  C   UNL A   1      39.652  36.174  39.029  1.00  0.00     0.060 A 
BRANCH  93  94
ATOM     94  S   UNL A   1      39.412  37.432  40.303  1.00  0.00     0.124 S 
ATOM     95  O   UNL A   1      38.578  38.405  39.607  1.00  0.00    -0.237 OA
ATOM     96  O   UNL A   1      38.755  36.677  41.366  1.00  0.00    -0.237 OA
ATOM     97  O   UNL A   1      40.773  37.867  40.605  1.00  0.00    -0.744 OA
ENDBRANCH  93  94
ENDBRANCH  61  86
ENDBRANCH  35  36
ENDBRANCH  27  30
ENDBRANCH  25  26
ENDBRANCH  24  25
ENDBRANCH   1  24
TORSDOF 17
ENDMDL
MODEL 2
REMARK VINA RESULT:     -12.3      1.566      3.012
REMARK SMILES COC(=O)c1cc(F)cc(-c2ccccc2C(=O)NCCCCNC(=O)c2ccc(-c3c4nc(c(-c5c(F)cc(S(=O)(=O)[O-])cc5F)c5ccc([nH]5)c(-c5c(F)cc(S(=O)(=O)[O-])cc5F)c5nc(c(-c6c(F)cc(S(=O)(=O)[O-])cc6F)c6ccc3[nH]6)C=C5)C=C4)cc2)c1
REMARK SMILES IDX 21 1 20 2 19 3 17 4 18 5 16 7 11 8 12 9 13 10 15 11 14 12
REMARK SMILES IDX 10 13 5 14 6 15 93 16 7 17 8 18 9 19 3 20 4 21 2 22 1 23
REMARK SMILES IDX 22 24 23 25 24 26 25 27 26 29 27 30 28 31 92 32 29 33 91 34
REMARK SMILES IDX 30 35 31 36 32 37 85 38 33 39 90 40 84 41 86 42 34 43 89 44
REMARK SMILES IDX 83 45 82 46 35 48 69 49 48 50 68 51 49 52 52 53 67 54 87 55
REMARK SMILES IDX 50 56 51 57 66 59 88 60 53 61 36 62 37 63 46 64 38 65 39 66
REMARK SMILES IDX 45 67 47 68 40 69 41 70 42 71 43 72 44 73 70 74 71 75 80 76
REMARK SMILES IDX 72 77 73 78 79 79 81 80 74 81 75 82 76 83 77 84 78 85 54 86
REMARK SMILES IDX 55 87 64 88 56 89 57 90 63 91 65 92 58 93 59 94 60 95 61 96
REMARK SMILES IDX 62 97
REMARK H PARENT 19 6 24 28 86 47 52 58
REMARK Flexibility Score: inf
ROOT
ATOM      1  C   UNL A   1      39.020  21.965  25.949  1.00  0.00     0.023 C 
ENDROOT
BRANCH   1   2
ATOM      2  C   UNL A   1      37.618  22.491  25.679  1.00  0.00     0.116 C 
BRANCH   2   3
ATOM      3  N   UNL A   1      37.176  22.504  24.308  1.00  0.00    -0.352 N 
ATOM      4  C   UNL A   1      36.052  23.062  23.741  1.00  0.00     0.251 C 
ATOM      5  O   UNL A   1      35.973  23.026  22.509  1.00  0.00    -0.269 OA
ATOM      6  H   UNL A   1      37.771  22.039  23.677  1.00  0.00     0.163 HD
BRANCH   4   7
ATOM      7  C   UNL A   1      34.877  23.619  24.496  1.00  0.00     0.047 A 
ATOM      8  C   UNL A   1      33.605  23.030  24.703  1.00  0.00    -0.005 A 
ATOM      9  C   UNL A   1      32.674  23.722  25.518  1.00  0.00     0.009 A 
ATOM     10  C   UNL A   1      32.977  24.939  26.126  1.00  0.00     0.001 A 
ATOM     11  C   UNL A   1      35.165  24.848  25.137  1.00  0.00     0.014 A 
ATOM     12  C   UNL A   1      34.229  25.501  25.940  1.00  0.00     0.001 A 
BRANCH   8  13
ATOM     13  C   UNL A   1      33.162  21.743  24.149  1.00  0.00    -0.014 A 
ATOM     14  C   UNL A   1      33.159  19.310  24.139  1.00  0.00     0.063 A 
ATOM     15  C   UNL A   1      32.499  19.293  22.906  1.00  0.00     0.055 A 
ATOM     16  C   UNL A   1      33.469  20.526  24.769  1.00  0.00     0.024 A 
ATOM     17  C   UNL A   1      32.135  20.498  22.326  1.00  0.00     0.124 A 
ATOM     18  F   UNL A   1      31.524  20.508  21.134  1.00  0.00    -0.207 F 
ATOM     19  C   UNL A   1      32.445  21.709  22.935  1.00  0.00     0.048 A 
BRANCH  14  20
ATOM     20  C   UNL A   1      33.612  18.067  24.791  1.00  0.00     0.337 C 
ATOM     21  O   UNL A   1      34.660  17.507  24.511  1.00  0.00    -0.246 OA
BRANCH  20  22
ATOM     22  O   UNL A   1      32.643  17.620  25.622  1.00  0.00    -0.465 OA
ATOM     23  C   UNL A   1      32.447  16.207  25.572  1.00  0.00     0.282 C 
ENDBRANCH  20  22
ENDBRANCH  14  20
ENDBRANCH   8  13
ENDBRANCH   4   7
ENDBRANCH   2   3
ENDBRANCH   1   2
BRANCH   1  24
ATOM     24  C   UNL A   1      39.758  22.471  27.190  1.00  0.00     0.023 C 
BRANCH  24  25
ATOM     25  C   UNL A   1      41.152  23.075  27.022  1.00  0.00     0.116 C 
BRANCH  25  26
ATOM     26  N   UNL A   1      41.295  24.053  25.958  1.00  0.00    -0.352 N 
ATOM     27  C   UNL A   1      41.446  25.422  26.027  1.00  0.00     0.251 C 
ATOM     28  H   UNL A   1      41.284  23.680  25.046  1.00  0.00     0.163 HD
ATOM     29  O   UNL A   1      41.619  26.048  24.981  1.00  0.00    -0.269 OA
BRANCH  27  30
ATOM     30  C   UNL A   1      41.345  26.162  27.315  1.00  0.00     0.039 A 
ATOM     31  C   UNL A   1      42.418  26.982  27.692  1.00  0.00     0.014 A 
ATOM     32  C   UNL A   1      40.231  26.074  28.154  1.00  0.00     0.014 A 
ATOM     33  C   UNL A   1      42.333  27.778  28.840  1.00  0.00     0.010 A 
ATOM     34  C   UNL A   1      40.121  26.907  29.270  1.00  0.00     0.010 A 
ATOM     35  C   UNL A   1      41.161  27.782  29.612  1.00  0.00    -0.014 A 
BRANCH  35  36
ATOM     36  C   UNL A   1      40.976  28.742  30.731  1.00  0.00     0.031 A 
ATOM     37  C   UNL A   1      41.780  28.614  31.995  1.00  0.00     0.074 A 
ATOM     38  C   UNL A   1      40.005  29.674  30.634  1.00  0.00     0.049 A 
ATOM     39  N   UNL A   1      41.711  29.326  33.090  1.00  0.00    -0.248 NA
ATOM     40  C   UNL A   1      42.777  27.533  32.046  1.00  0.00     0.031 C 
ATOM     41  C   UNL A   1      39.107  29.840  29.488  1.00  0.00     0.029 A 
ATOM     42  N   UNL A   1      39.593  30.640  31.518  1.00  0.00    -0.354 N 
ATOM     43  C   UNL A   1      42.646  28.779  33.961  1.00  0.00     0.074 A 
ATOM     44  C   UNL A   1      43.242  27.648  33.282  1.00  0.00     0.031 C 
ATOM     45  C   UNL A   1      38.253  30.846  29.738  1.00  0.00     0.029 A 
ATOM     46  C   UNL A   1      38.531  31.388  31.064  1.00  0.00     0.049 A 
ATOM     47  H   UNL A   1      40.017  30.785  32.394  1.00  0.00     0.167 HD
ATOM     48  C   UNL A   1      42.986  29.197  35.204  1.00  0.00     0.037 A 
ATOM     49  C   UNL A   1      37.858  32.399  31.647  1.00  0.00     0.037 A 
ATOM     50  C   UNL A   1      42.403  30.339  35.860  1.00  0.00     0.049 A 
ATOM     51  C   UNL A   1      38.299  32.881  33.000  1.00  0.00     0.074 A 
ATOM     52  C   UNL A   1      42.722  30.880  37.094  1.00  0.00     0.029 A 
ATOM     53  N   UNL A   1      41.384  31.120  35.334  1.00  0.00    -0.354 N 
ATOM     54  N   UNL A   1      39.237  32.397  33.778  1.00  0.00    -0.248 NA
ATOM     55  C   UNL A   1      37.610  34.058  33.547  1.00  0.00     0.031 C 
ATOM     56  C   UNL A   1      41.880  31.973  37.325  1.00  0.00     0.029 A 
ATOM     57  C   UNL A   1      41.063  32.136  36.218  1.00  0.00     0.049 A 
ATOM     58  H   UNL A   1      40.954  30.974  34.461  1.00  0.00     0.167 HD
ATOM     59  C   UNL A   1      39.273  33.228  34.892  1.00  0.00     0.074 A 
ATOM     60  C   UNL A   1      38.266  34.249  34.684  1.00  0.00     0.031 C 
ATOM     61  C   UNL A   1      40.067  33.152  35.987  1.00  0.00     0.037 A 
BRANCH  48  62
ATOM     62  C   UNL A   1      44.065  28.446  35.936  1.00  0.00     0.058 A 
ATOM     63  C   UNL A   1      45.418  28.770  35.753  1.00  0.00     0.135 A 
ATOM     64  C   UNL A   1      43.761  27.337  36.743  1.00  0.00     0.135 A 
ATOM     65  F   UNL A   1      45.765  29.825  34.999  1.00  0.00    -0.206 F 
ATOM     66  C   UNL A   1      46.433  28.007  36.322  1.00  0.00     0.059 A 
ATOM     67  C   UNL A   1      44.759  26.572  37.340  1.00  0.00     0.059 A 
ATOM     68  F   UNL A   1      42.481  26.997  36.968  1.00  0.00    -0.206 F 
ATOM     69  C   UNL A   1      46.093  26.903  37.107  1.00  0.00     0.060 A 
BRANCH  69  70
ATOM     70  S   UNL A   1      47.419  25.915  37.832  1.00  0.00     0.124 S 
ATOM     71  O   UNL A   1      47.228  24.627  37.176  1.00  0.00    -0.237 OA
ATOM     72  O   UNL A   1      48.610  26.663  37.434  1.00  0.00    -0.237 OA
ATOM     73  O   UNL A   1      47.121  25.946  39.261  1.00  0.00    -0.744 OA
ENDBRANCH  69  70
ENDBRANCH  48  62
BRANCH  49  74
ATOM     74  C   UNL A   1      36.734  33.052  30.926  1.00  0.00     0.058 A 
ATOM     75  C   UNL A   1      36.964  33.893  29.826  1.00  0.00     0.135 A 
ATOM     76  C   UNL A   1      35.407  32.870  31.344  1.00  0.00     0.135 A 
ATOM     77  F   UNL A   1      38.216  34.110  29.395  1.00  0.00    -0.206 F 
ATOM     78  C   UNL A   1      35.920  34.542  29.176  1.00  0.00     0.059 A 
ATOM     79  C   UNL A   1      34.343  33.492  30.696  1.00  0.00     0.059 A 
ATOM     80  F   UNL A   1      35.139  32.069  32.386  1.00  0.00    -0.206 F 
ATOM     81  C   UNL A   1      34.612  34.339  29.621  1.00  0.00     0.060 A 
BRANCH  81  82
ATOM     82  S   UNL A   1      33.268  35.190  28.768  1.00  0.00     0.124 S 
ATOM     83  O   UNL A   1      32.476  35.681  29.891  1.00  0.00    -0.237 OA
ATOM     84  O   UNL A   1      33.982  36.208  28.003  1.00  0.00    -0.237 OA
ATOM     85  O   UNL A   1      32.649  34.132  27.976  1.00  0.00    -0.744 OA
ENDBRANCH  81  82
ENDBRANCH  49  74
BRANCH  61  86
ATOM     86  C   UNL A   1      39.911  34.222  37.029  1.00  0.00     0.058 A 
ATOM     87  C   UNL A   1      39.093  34.004  38.149  1.00  0.00     0.135 A 
ATOM     88  C   UNL A   1      40.524  35.476  36.894  1.00  0.00     0.135 A 
ATOM     89  F   UNL A   1      38.480  32.822  38.321  1.00  0.00    -0.206 F 
ATOM     90  C   UNL A   1      38.885  34.996  39.099  1.00  0.00     0.059 A 
ATOM     91  C   UNL A   1      40.349  36.476  37.845  1.00  0.00     0.059 A 
ATOM     92  F   UNL A   1      41.323  35.728  35.845  1.00  0.00    -0.206 F 
ATOM     93  C   UNL A   1      39.516  36.231  38.937  1.00  0.00     0.060 A 
BRANCH  93  94
ATOM     94  S   UNL A   1      39.269  37.500  40.198  1.00  0.00     0.124 S 
ATOM     95  O   UNL A   1      38.821  36.706  41.337  1.00  0.00    -0.237 OA
ATOM     96  O   UNL A   1      40.601  38.085  40.316  1.00  0.00    -0.237 OA
ATOM     97  O   UNL A   1      38.262  38.374  39.603  1.00  0.00    -0.744 OA
ENDBRANCH  93  94
ENDBRANCH  61  86
ENDBRANCH  35  36
ENDBRANCH  27  30
ENDBRANCH  25  26
ENDBRANCH  24  25
ENDBRANCH   1  24
TORSDOF 17
ENDMDL
MODEL 3
REMARK VINA RESULT:     -12.2      6.497     11.981
REMARK SMILES COC(=O)c1cc(F)cc(-c2ccccc2C(=O)NCCCCNC(=O)c2ccc(-c3c4nc(c(-c5c(F)cc(S(=O)(=O)[O-])cc5F)c5ccc([nH]5)c(-c5c(F)cc(S(=O)(=O)[O-])cc5F)c5nc(c(-c6c(F)cc(S(=O)(=O)[O-])cc6F)c6ccc3[nH]6)C=C5)C=C4)cc2)c1
REMARK SMILES IDX 21 1 20 2 19 3 17 4 18 5 16 7 11 8 12 9 13 10 15 11 14 12
REMARK SMILES IDX 10 13 5 14 6 15 93 16 7 17 8 18 9 19 3 20 4 21 2 22 1 23
REMARK SMILES IDX 22 24 23 25 24 26 25 27 26 29 27 30 28 31 92 32 29 33 91 34
REMARK SMILES IDX 30 35 31 36 32 37 85 38 33 39 90 40 84 41 86 42 34 43 89 44
REMARK SMILES IDX 83 45 82 46 35 48 69 49 48 50 68 51 49 52 52 53 67 54 87 55
REMARK SMILES IDX 50 56 51 57 66 59 88 60 53 61 36 62 37 63 46 64 38 65 39 66
REMARK SMILES IDX 45 67 47 68 40 69 41 70 42 71 43 72 44 73 70 74 71 75 80 76
REMARK SMILES IDX 72 77 73 78 79 79 81 80 74 81 75 82 76 83 77 84 78 85 54 86
REMARK SMILES IDX 55 87 64 88 56 89 57 90 63 91 65 92 58 93 59 94 60 95 61 96
REMARK SMILES IDX 62 97
REMARK H PARENT 19 6 24 28 86 47 52 58
REMARK Flexibility Score: inf
ROOT
ATOM      1  C   UNL A   1      35.343  29.792  27.472  1.00  0.00     0.023 C 
ENDROOT
BRANCH   1   2
ATOM      2  C   UNL A   1      34.278  28.940  26.798  1.00  0.00     0.116 C 
BRANCH   2   3
ATOM      3  N   UNL A   1      33.070  28.690  27.543  1.00  0.00    -0.352 N 
ATOM      4  C   UNL A   1      31.874  28.140  27.140  1.00  0.00     0.251 C 
ATOM      5  O   UNL A   1      31.033  27.931  28.019  1.00  0.00    -0.269 OA
ATOM      6  H   UNL A   1      33.106  28.955  28.490  1.00  0.00     0.163 HD
BRANCH   4   7
ATOM      7  C   UNL A   1      31.473  27.867  25.717  1.00  0.00     0.047 A 
ATOM      8  C   UNL A   1      31.302  26.615  25.076  1.00  0.00    -0.005 A 
ATOM      9  C   UNL A   1      30.845  26.610  23.734  1.00  0.00     0.009 A 
ATOM     10  C   UNL A   1      30.545  27.784  23.044  1.00  0.00     0.001 A 
ATOM     11  C   UNL A   1      31.148  29.043  24.999  1.00  0.00     0.014 A 
ATOM     12  C   UNL A   1      30.692  29.005  23.681  1.00  0.00     0.001 A 
BRANCH   8  13
ATOM     13  C   UNL A   1      31.551  25.302  25.688  1.00  0.00    -0.014 A 
ATOM     14  C   UNL A   1      33.000  23.406  26.157  1.00  0.00     0.063 A 
ATOM     15  C   UNL A   1      31.917  22.672  26.654  1.00  0.00     0.055 A 
ATOM     16  C   UNL A   1      32.824  24.721  25.698  1.00  0.00     0.024 A 
ATOM     17  C   UNL A   1      30.671  23.275  26.708  1.00  0.00     0.124 A 
ATOM     18  F   UNL A   1      29.614  22.585  27.157  1.00  0.00    -0.207 F 
ATOM     19  C   UNL A   1      30.481  24.573  26.246  1.00  0.00     0.048 A 
BRANCH  14  20
ATOM     20  C   UNL A   1      34.345  22.812  26.033  1.00  0.00     0.337 C 
ATOM     21  O   UNL A   1      35.308  23.195  26.677  1.00  0.00    -0.246 OA
BRANCH  20  22
ATOM     22  O   UNL A   1      34.339  21.899  25.036  1.00  0.00    -0.465 OA
ATOM     23  C   UNL A   1      35.283  20.844  25.215  1.00  0.00     0.282 C 
ENDBRANCH  20  22
ENDBRANCH  14  20
ENDBRANCH   8  13
ENDBRANCH   4   7
ENDBRANCH   2   3
ENDBRANCH   1   2
BRANCH   1  24
ATOM     24  C   UNL A   1      34.961  31.200  27.932  1.00  0.00     0.023 C 
BRANCH  24  25
ATOM     25  C   UNL A   1      35.689  31.806  29.132  1.00  0.00     0.116 C 
BRANCH  25  26
ATOM     26  N   UNL A   1      35.604  31.053  30.370  1.00  0.00    -0.352 N 
ATOM     27  C   UNL A   1      36.590  30.396  31.078  1.00  0.00     0.251 C 
ATOM     28  H   UNL A   1      34.704  31.004  30.767  1.00  0.00     0.163 HD
ATOM     29  O   UNL A   1      36.295  29.874  32.152  1.00  0.00    -0.269 OA
BRANCH  27  30
ATOM     30  C   UNL A   1      37.975  30.252  30.550  1.00  0.00     0.039 A 
ATOM     31  C   UNL A   1      39.023  30.127  31.473  1.00  0.00     0.014 A 
ATOM     32  C   UNL A   1      38.268  30.235  29.184  1.00  0.00     0.014 A 
ATOM     33  C   UNL A   1      40.331  29.886  31.032  1.00  0.00     0.010 A 
ATOM     34  C   UNL A   1      39.560  29.941  28.743  1.00  0.00     0.010 A 
ATOM     35  C   UNL A   1      40.599  29.743  29.662  1.00  0.00    -0.014 A 
BRANCH  35  36
ATOM     36  C   UNL A   1      41.937  29.316  29.178  1.00  0.00     0.031 A 
ATOM     37  C   UNL A   1      43.058  30.309  29.038  1.00  0.00     0.074 A 
ATOM     38  C   UNL A   1      42.106  28.040  28.772  1.00  0.00     0.049 A 
ATOM     39  N   UNL A   1      44.269  30.124  28.580  1.00  0.00    -0.248 NA
ATOM     40  C   UNL A   1      42.775  31.696  29.442  1.00  0.00     0.031 C 
ATOM     41  C   UNL A   1      41.066  27.007  28.786  1.00  0.00     0.029 A 
ATOM     42  N   UNL A   1      43.201  27.398  28.250  1.00  0.00    -0.354 N 
ATOM     43  C   UNL A   1      44.891  31.366  28.635  1.00  0.00     0.074 A 
ATOM     44  C   UNL A   1      43.911  32.307  29.132  1.00  0.00     0.031 C 
ATOM     45  C   UNL A   1      41.572  25.864  28.297  1.00  0.00     0.029 A 
ATOM     46  C   UNL A   1      42.966  26.082  27.922  1.00  0.00     0.049 A 
ATOM     47  H   UNL A   1      44.072  27.837  28.122  1.00  0.00     0.167 HD
ATOM     48  C   UNL A   1      46.170  31.683  28.318  1.00  0.00     0.037 A 
ATOM     49  C   UNL A   1      43.781  25.154  27.384  1.00  0.00     0.037 A 
ATOM     50  C   UNL A   1      47.144  30.732  27.846  1.00  0.00     0.049 A 
ATOM     51  C   UNL A   1      45.211  25.518  27.101  1.00  0.00     0.074 A 
ATOM     52  C   UNL A   1      48.482  30.943  27.556  1.00  0.00     0.029 A 
ATOM     53  N   UNL A   1      46.890  29.391  27.603  1.00  0.00    -0.354 N 
ATOM     54  N   UNL A   1      45.803  26.681  27.230  1.00  0.00    -0.248 NA
ATOM     55  C   UNL A   1      46.092  24.444  26.621  1.00  0.00     0.031 C 
ATOM     56  C   UNL A   1      49.029  29.734  27.113  1.00  0.00     0.029 A 
ATOM     57  C   UNL A   1      48.043  28.763  27.164  1.00  0.00     0.049 A 
ATOM     58  H   UNL A   1      46.018  28.950  27.724  1.00  0.00     0.167 HD
ATOM     59  C   UNL A   1      47.131  26.473  26.879  1.00  0.00     0.074 A 
ATOM     60  C   UNL A   1      47.258  25.071  26.537  1.00  0.00     0.031 C 
ATOM     61  C   UNL A   1      48.153  27.362  26.843  1.00  0.00     0.037 A 
BRANCH  48  62
ATOM     62  C   UNL A   1      46.615  33.109  28.499  1.00  0.00     0.058 A 
ATOM     63  C   UNL A   1      47.064  33.569  29.747  1.00  0.00     0.135 A 
ATOM     64  C   UNL A   1      46.500  34.045  27.459  1.00  0.00     0.135 A 
ATOM     65  F   UNL A   1      47.201  32.715  30.774  1.00  0.00    -0.206 F 
ATOM     66  C   UNL A   1      47.359  34.911  29.965  1.00  0.00     0.059 A 
ATOM     67  C   UNL A   1      46.810  35.390  27.648  1.00  0.00     0.059 A 
ATOM     68  F   UNL A   1      46.096  33.654  26.240  1.00  0.00    -0.206 F 
ATOM     69  C   UNL A   1      47.220  35.816  28.911  1.00  0.00     0.060 A 
BRANCH  69  70
ATOM     70  S   UNL A   1      47.596  37.557  29.210  1.00  0.00     0.124 S 
ATOM     71  O   UNL A   1      49.050  37.574  29.097  1.00  0.00    -0.237 OA
ATOM     72  O   UNL A   1      46.865  38.217  28.131  1.00  0.00    -0.237 OA
ATOM     73  O   UNL A   1      47.064  37.792  30.549  1.00  0.00    -0.744 OA
ENDBRANCH  69  70
ENDBRANCH  48  62
BRANCH  49  74
ATOM     74  C   UNL A   1      43.272  23.780  27.132  1.00  0.00     0.058 A 
ATOM     75  C   UNL A   1      43.132  22.852  28.175  1.00  0.00     0.135 A 
ATOM     76  C   UNL A   1      42.945  23.361  25.834  1.00  0.00     0.135 A 
ATOM     77  F   UNL A   1      43.444  23.200  29.433  1.00  0.00    -0.206 F 
ATOM     78  C   UNL A   1      42.699  21.552  27.938  1.00  0.00     0.059 A 
ATOM     79  C   UNL A   1      42.489  22.071  25.574  1.00  0.00     0.059 A 
ATOM     80  F   UNL A   1      43.056  24.216  24.807  1.00  0.00    -0.206 F 
ATOM     81  C   UNL A   1      42.384  21.169  26.632  1.00  0.00     0.060 A 
BRANCH  81  82
ATOM     82  S   UNL A   1      41.826  19.477  26.341  1.00  0.00     0.124 S 
ATOM     83  O   UNL A   1      42.275  18.809  27.558  1.00  0.00    -0.237 OA
ATOM     84  O   UNL A   1      40.382  19.646  26.206  1.00  0.00    -0.237 OA
ATOM     85  O   UNL A   1      42.527  19.097  25.119  1.00  0.00    -0.744 OA
ENDBRANCH  81  82
ENDBRANCH  49  74
BRANCH  61  86
ATOM     86  C   UNL A   1      49.508  26.842  26.457  1.00  0.00     0.058 A 
ATOM     87  C   UNL A   1      49.935  26.904  25.122  1.00  0.00     0.135 A 
ATOM     88  C   UNL A   1      50.357  26.236  27.395  1.00  0.00     0.135 A 
ATOM     89  F   UNL A   1      49.156  27.470  24.186  1.00  0.00    -0.206 F 
ATOM     90  C   UNL A   1      51.160  26.379  24.728  1.00  0.00     0.059 A 
ATOM     91  C   UNL A   1      51.597  25.724  27.027  1.00  0.00     0.059 A 
ATOM     92  F   UNL A   1      49.996  26.162  28.685  1.00  0.00    -0.206 F 
ATOM     93  C   UNL A   1      51.984  25.788  25.688  1.00  0.00     0.060 A 
BRANCH  93  94
ATOM     94  S   UNL A   1      53.590  25.143  25.170  1.00  0.00     0.124 S 
ATOM     95  O   UNL A   1      53.398  23.706  25.326  1.00  0.00    -0.237 OA
ATOM     96  O   UNL A   1      53.691  25.626  23.796  1.00  0.00    -0.237 OA
ATOM     97  O   UNL A   1      54.519  25.762  26.112  1.00  0.00    -0.744 OA
ENDBRANCH  93  94
ENDBRANCH  61  86
ENDBRANCH  35  36
ENDBRANCH  27  30
ENDBRANCH  25  26
ENDBRANCH  24  25
ENDBRANCH   1  24
TORSDOF 17
ENDMDL
