MODEL 1
REMARK VINA RESULT:     -12.8      0.000      0.000
REMARK SMILES CC1=NN(c2ccc(Cl)cc2)C(=O)/C1=C/c1ccccc1OCC(=O)NCCCCNC(=O)c1ccc(-c2c3nc(c(-c4c(F)cc(S(=O)(=O)[O-])cc4F)c4ccc([nH]4)c(-c4c(F)cc(S(=O)(=O)[O-])cc4F)c4nc(c(-c5c(F)cc(S(=O)(=O)[O-])cc5F)c5ccc2[nH]5)C=C4)C=C3)cc1
REMARK SMILES IDX 28 1 27 2 26 3 24 4 25 5 23 7 22 8 21 9 16 10 17 11 18 12
REMARK SMILES IDX 20 13 19 14 15 15 1 16 2 17 3 18 14 19 4 20 12 21 13 22 5 23
REMARK SMILES IDX 6 24 11 25 7 26 10 27 8 28 9 29 29 30 30 31 31 32 32 33
REMARK SMILES IDX 33 35 34 36 35 37 99 38 36 39 98 40 37 41 38 42 39 43 92 44
REMARK SMILES IDX 40 45 97 46 91 47 93 48 41 49 96 50 90 51 89 52 42 54 76 55
REMARK SMILES IDX 55 56 75 57 56 58 59 59 74 60 94 61 57 62 58 63 73 65 95 66
REMARK SMILES IDX 60 67 43 68 44 69 53 70 45 71 46 72 52 73 54 74 47 75 48 76
REMARK SMILES IDX 49 77 50 78 51 79 77 80 78 81 87 82 79 83 80 84 86 85 88 86
REMARK SMILES IDX 81 87 82 88 83 89 84 90 85 91 61 92 62 93 71 94 63 95 64 96
REMARK SMILES IDX 70 97 72 98 65 99 66 100 67 101 68 102 69 103
REMARK H PARENT 26 6 31 34 93 53 59 64
REMARK Flexibility Score: inf
ROOT
ATOM      1  C   UNL A   1      41.452  21.183  26.545  1.00  0.00     0.023 C 
ENDROOT
BRANCH   1   2
ATOM      2  C   UNL A   1      39.983  21.058  26.154  1.00  0.00     0.116 C 
BRANCH   2   3
ATOM      3  N   UNL A   1      39.317  22.302  25.826  1.00  0.00    -0.353 N 
ATOM      4  C   UNL A   1      37.969  22.497  25.709  1.00  0.00     0.257 C 
ATOM      5  O   UNL A   1      37.512  23.608  25.982  1.00  0.00    -0.271 OA
ATOM      6  H   UNL A   1      39.892  23.085  25.670  1.00  0.00     0.163 HD
BRANCH   4   7
ATOM      7  C   UNL A   1      37.039  21.354  25.291  1.00  0.00     0.329 C 
BRANCH   7   8
ATOM      8  O   UNL A   1      35.776  21.289  25.916  1.00  0.00    -0.483 OA
BRANCH   8   9
ATOM      9  C   UNL A   1      34.727  20.558  25.441  1.00  0.00     0.127 A 
ATOM     10  C   UNL A   1      33.348  20.837  25.402  1.00  0.00     0.017 A 
ATOM     11  C   UNL A   1      32.478  19.900  24.807  1.00  0.00     0.012 A 
ATOM     12  C   UNL A   1      32.958  18.708  24.262  1.00  0.00     0.001 A 
ATOM     13  C   UNL A   1      35.185  19.348  24.891  1.00  0.00     0.047 A 
ATOM     14  C   UNL A   1      34.316  18.429  24.308  1.00  0.00     0.004 A 
BRANCH  10  15
ATOM     15  C   UNL A   1      32.705  22.029  25.954  1.00  0.00     0.027 C 
ATOM     16  C   UNL A   1      33.887  23.081  23.102  1.00  0.00     0.069 C 
ATOM     17  C   UNL A   1      33.315  23.862  24.232  1.00  0.00     0.071 C 
ATOM     18  N   UNL A   1      33.295  25.170  24.268  1.00  0.00    -0.169 NA
ATOM     19  C   UNL A   1      32.721  23.264  25.436  1.00  0.00     0.066 C 
ATOM     20  N   UNL A   1      32.706  25.513  25.488  1.00  0.00    -0.196 N 
ATOM     21  C   UNL A   1      32.227  24.419  26.226  1.00  0.00     0.280 C 
ATOM     22  O   UNL A   1      31.596  24.342  27.263  1.00  0.00    -0.267 OA
BRANCH  20  23
ATOM     23  C   UNL A   1      32.812  26.849  25.940  1.00  0.00     0.069 A 
ATOM     24  C   UNL A   1      31.665  27.623  26.173  1.00  0.00     0.030 A 
ATOM     25  C   UNL A   1      34.064  27.409  26.232  1.00  0.00     0.030 A 
ATOM     26  C   UNL A   1      31.764  28.921  26.685  1.00  0.00     0.023 A 
ATOM     27  C   UNL A   1      34.167  28.717  26.721  1.00  0.00     0.023 A 
ATOM     28  C   UNL A   1      33.016  29.466  26.949  1.00  0.00     0.041 A 
ATOM     29  Cl  UNL A   1      33.134  31.067  27.565  1.00  0.00    -0.084 Cl
ENDBRANCH  20  23
ENDBRANCH  10  15
ENDBRANCH   8   9
ENDBRANCH   7   8
ENDBRANCH   4   7
ENDBRANCH   2   3
ENDBRANCH   1   2
BRANCH   1  30
ATOM     30  C   UNL A   1      41.797  22.064  27.749  1.00  0.00     0.023 C 
BRANCH  30  31
ATOM     31  C   UNL A   1      42.689  23.273  27.502  1.00  0.00     0.116 C 
BRANCH  31  32
ATOM     32  N   UNL A   1      42.340  23.994  26.294  1.00  0.00    -0.352 N 
ATOM     33  C   UNL A   1      41.752  25.226  26.140  1.00  0.00     0.251 C 
ATOM     34  H   UNL A   1      42.559  23.529  25.454  1.00  0.00     0.163 HD
ATOM     35  O   UNL A   1      41.410  25.578  25.012  1.00  0.00    -0.269 OA
BRANCH  33  36
ATOM     36  C   UNL A   1      41.503  26.118  27.298  1.00  0.00     0.039 A 
ATOM     37  C   UNL A   1      42.377  27.189  27.510  1.00  0.00     0.014 A 
ATOM     38  C   UNL A   1      40.462  25.891  28.204  1.00  0.00     0.014 A 
ATOM     39  C   UNL A   1      42.188  28.047  28.598  1.00  0.00     0.010 A 
ATOM     40  C   UNL A   1      40.230  26.790  29.248  1.00  0.00     0.010 A 
ATOM     41  C   UNL A   1      41.097  27.872  29.467  1.00  0.00    -0.014 A 
BRANCH  41  42
ATOM     42  C   UNL A   1      40.872  28.803  30.607  1.00  0.00     0.031 A 
ATOM     43  C   UNL A   1      41.690  28.682  31.868  1.00  0.00     0.074 A 
ATOM     44  C   UNL A   1      39.902  29.737  30.524  1.00  0.00     0.049 A 
ATOM     45  N   UNL A   1      41.621  29.388  32.968  1.00  0.00    -0.248 NA
ATOM     46  C   UNL A   1      42.702  27.613  31.911  1.00  0.00     0.031 C 
ATOM     47  C   UNL A   1      39.000  29.923  29.384  1.00  0.00     0.029 A 
ATOM     48  N   UNL A   1      39.503  30.702  31.416  1.00  0.00    -0.354 N 
ATOM     49  C   UNL A   1      42.557  28.837  33.838  1.00  0.00     0.074 A 
ATOM     50  C   UNL A   1      43.157  27.714  33.152  1.00  0.00     0.031 C 
ATOM     51  C   UNL A   1      38.171  30.948  29.637  1.00  0.00     0.029 A 
ATOM     52  C   UNL A   1      38.455  31.474  30.968  1.00  0.00     0.049 A 
ATOM     53  H   UNL A   1      39.928  30.831  32.295  1.00  0.00     0.167 HD
ATOM     54  C   UNL A   1      42.898  29.241  35.085  1.00  0.00     0.037 A 
ATOM     55  C   UNL A   1      37.794  32.487  31.563  1.00  0.00     0.037 A 
ATOM     56  C   UNL A   1      42.332  30.390  35.746  1.00  0.00     0.049 A 
ATOM     57  C   UNL A   1      38.223  32.940  32.934  1.00  0.00     0.074 A 
ATOM     58  C   UNL A   1      42.677  30.931  36.973  1.00  0.00     0.029 A 
ATOM     59  N   UNL A   1      41.305  31.172  35.241  1.00  0.00    -0.354 N 
ATOM     60  N   UNL A   1      39.174  32.460  33.702  1.00  0.00    -0.248 NA
ATOM     61  C   UNL A   1      37.502  34.081  33.515  1.00  0.00     0.031 C 
ATOM     62  C   UNL A   1      41.827  32.009  37.232  1.00  0.00     0.029 A 
ATOM     63  C   UNL A   1      40.990  32.177  36.141  1.00  0.00     0.049 A 
ATOM     64  H   UNL A   1      40.866  31.034  34.371  1.00  0.00     0.167 HD
ATOM     65  C   UNL A   1      39.188  33.266  34.836  1.00  0.00     0.074 A 
ATOM     66  C   UNL A   1      38.163  34.270  34.648  1.00  0.00     0.031 C 
ATOM     67  C   UNL A   1      39.979  33.183  35.934  1.00  0.00     0.037 A 
BRANCH  54  68
ATOM     68  C   UNL A   1      43.939  28.450  35.831  1.00  0.00     0.058 A 
ATOM     69  C   UNL A   1      45.307  28.746  35.732  1.00  0.00     0.135 A 
ATOM     70  C   UNL A   1      43.551  27.441  36.730  1.00  0.00     0.135 A 
ATOM     71  F   UNL A   1      45.735  29.689  34.879  1.00  0.00    -0.206 F 
ATOM     72  C   UNL A   1      46.255  28.065  36.491  1.00  0.00     0.059 A 
ATOM     73  C   UNL A   1      44.479  26.766  37.518  1.00  0.00     0.059 A 
ATOM     74  F   UNL A   1      42.255  27.116  36.863  1.00  0.00    -0.206 F 
ATOM     75  C   UNL A   1      45.830  27.083  37.388  1.00  0.00     0.060 A 
BRANCH  75  76
ATOM     76  S   UNL A   1      47.069  26.248  38.402  1.00  0.00     0.124 S 
ATOM     77  O   UNL A   1      46.520  26.432  39.742  1.00  0.00    -0.237 OA
ATOM     78  O   UNL A   1      47.028  24.884  37.883  1.00  0.00    -0.237 OA
ATOM     79  O   UNL A   1      48.295  26.987  38.120  1.00  0.00    -0.744 OA
ENDBRANCH  75  76
ENDBRANCH  54  68
BRANCH  55  80
ATOM     80  C   UNL A   1      36.659  33.158  30.869  1.00  0.00     0.058 A 
ATOM     81  C   UNL A   1      36.883  34.068  29.824  1.00  0.00     0.135 A 
ATOM     82  C   UNL A   1      35.332  32.933  31.264  1.00  0.00     0.135 A 
ATOM     83  F   UNL A   1      38.134  34.321  29.411  1.00  0.00    -0.206 F 
ATOM     84  C   UNL A   1      35.836  34.761  29.223  1.00  0.00     0.059 A 
ATOM     85  C   UNL A   1      34.266  33.590  30.657  1.00  0.00     0.059 A 
ATOM     86  F   UNL A   1      35.061  32.057  32.243  1.00  0.00    -0.206 F 
ATOM     87  C   UNL A   1      34.531  34.520  29.652  1.00  0.00     0.060 A 
BRANCH  87  88
ATOM     88  S   UNL A   1      33.177  35.420  28.866  1.00  0.00     0.124 S 
ATOM     89  O   UNL A   1      33.902  36.409  28.077  1.00  0.00    -0.237 OA
ATOM     90  O   UNL A   1      32.504  34.367  28.111  1.00  0.00    -0.237 OA
ATOM     91  O   UNL A   1      32.422  35.945  30.000  1.00  0.00    -0.744 OA
ENDBRANCH  87  88
ENDBRANCH  55  80
BRANCH  67  92
ATOM     92  C   UNL A   1      39.810  34.241  36.990  1.00  0.00     0.058 A 
ATOM     93  C   UNL A   1      40.378  35.518  36.864  1.00  0.00     0.135 A 
ATOM     94  C   UNL A   1      39.050  33.975  38.142  1.00  0.00     0.135 A 
ATOM     95  F   UNL A   1      41.115  35.826  35.784  1.00  0.00    -0.206 F 
ATOM     96  C   UNL A   1      40.237  36.479  37.860  1.00  0.00     0.059 A 
ATOM     97  C   UNL A   1      38.869  34.931  39.136  1.00  0.00     0.059 A 
ATOM     98  F   UNL A   1      38.470  32.775  38.307  1.00  0.00    -0.206 F 
ATOM     99  C   UNL A   1      39.485  36.173  38.996  1.00  0.00     0.060 A 
BRANCH  99 100
ATOM    100  S   UNL A   1      39.313  37.423  40.286  1.00  0.00     0.124 S 
ATOM    101  O   UNL A   1      40.708  37.759  40.557  1.00  0.00    -0.237 OA
ATOM    102  O   UNL A   1      38.531  38.458  39.619  1.00  0.00    -0.237 OA
ATOM    103  O   UNL A   1      38.619  36.714  41.357  1.00  0.00    -0.744 OA
ENDBRANCH  99 100
ENDBRANCH  67  92
ENDBRANCH  41  42
ENDBRANCH  33  36
ENDBRANCH  31  32
ENDBRANCH  30  31
ENDBRANCH   1  30
TORSDOF 18
ENDMDL
MODEL 2
REMARK VINA RESULT:     -12.5      6.431     12.189
REMARK SMILES CC1=NN(c2ccc(Cl)cc2)C(=O)/C1=C/c1ccccc1OCC(=O)NCCCCNC(=O)c1ccc(-c2c3nc(c(-c4c(F)cc(S(=O)(=O)[O-])cc4F)c4ccc([nH]4)c(-c4c(F)cc(S(=O)(=O)[O-])cc4F)c4nc(c(-c5c(F)cc(S(=O)(=O)[O-])cc5F)c5ccc2[nH]5)C=C4)C=C3)cc1
REMARK SMILES IDX 28 1 27 2 26 3 24 4 25 5 23 7 22 8 21 9 16 10 17 11 18 12
REMARK SMILES IDX 20 13 19 14 15 15 1 16 2 17 3 18 14 19 4 20 12 21 13 22 5 23
REMARK SMILES IDX 6 24 11 25 7 26 10 27 8 28 9 29 29 30 30 31 31 32 32 33
REMARK SMILES IDX 33 35 34 36 35 37 99 38 36 39 98 40 37 41 38 42 39 43 92 44
REMARK SMILES IDX 40 45 97 46 91 47 93 48 41 49 96 50 90 51 89 52 42 54 76 55
REMARK SMILES IDX 55 56 75 57 56 58 59 59 74 60 94 61 57 62 58 63 73 65 95 66
REMARK SMILES IDX 60 67 43 68 44 69 53 70 45 71 46 72 52 73 54 74 47 75 48 76
REMARK SMILES IDX 49 77 50 78 51 79 77 80 78 81 87 82 79 83 80 84 86 85 88 86
REMARK SMILES IDX 81 87 82 88 83 89 84 90 85 91 61 92 62 93 71 94 63 95 64 96
REMARK SMILES IDX 70 97 72 98 65 99 66 100 67 101 68 102 69 103
REMARK H PARENT 26 6 31 34 93 53 59 64
REMARK Flexibility Score: inf
ROOT
ATOM      1  C   UNL A   1      34.556  33.352  28.173  1.00  0.00     0.023 C 
ENDROOT
BRANCH   1   2
ATOM      2  C   UNL A   1      33.676  32.168  27.786  1.00  0.00     0.116 C 
BRANCH   2   3
ATOM      3  N   UNL A   1      34.205  30.862  28.122  1.00  0.00    -0.353 N 
ATOM      4  C   UNL A   1      34.244  29.766  27.306  1.00  0.00     0.257 C 
ATOM      5  O   UNL A   1      35.156  28.952  27.461  1.00  0.00    -0.271 OA
ATOM      6  H   UNL A   1      34.574  30.753  29.028  1.00  0.00     0.163 HD
BRANCH   4   7
ATOM      7  C   UNL A   1      33.205  29.569  26.198  1.00  0.00     0.329 C 
BRANCH   7   8
ATOM      8  O   UNL A   1      32.703  28.264  26.010  1.00  0.00    -0.483 OA
BRANCH   8   9
ATOM      9  C   UNL A   1      31.710  27.949  25.129  1.00  0.00     0.127 A 
ATOM     10  C   UNL A   1      31.093  26.720  24.832  1.00  0.00     0.017 A 
ATOM     11  C   UNL A   1      30.047  26.691  23.887  1.00  0.00     0.012 A 
ATOM     12  C   UNL A   1      29.617  27.852  23.244  1.00  0.00     0.001 A 
ATOM     13  C   UNL A   1      31.263  29.104  24.464  1.00  0.00     0.047 A 
ATOM     14  C   UNL A   1      30.230  29.064  23.530  1.00  0.00     0.004 A 
BRANCH  10  15
ATOM     15  C   UNL A   1      31.455  25.425  25.407  1.00  0.00     0.027 C 
ATOM     16  C   UNL A   1      33.464  25.686  22.852  1.00  0.00     0.069 C 
ATOM     17  C   UNL A   1      33.186  24.507  23.716  1.00  0.00     0.071 C 
ATOM     18  N   UNL A   1      33.676  23.315  23.490  1.00  0.00    -0.169 NA
ATOM     19  C   UNL A   1      32.325  24.538  24.907  1.00  0.00     0.066 C 
ATOM     20  N   UNL A   1      33.165  22.492  24.498  1.00  0.00    -0.196 N 
ATOM     21  C   UNL A   1      32.415  23.169  25.471  1.00  0.00     0.280 C 
ATOM     22  O   UNL A   1      31.904  22.804  26.513  1.00  0.00    -0.267 OA
BRANCH  20  23
ATOM     23  C   UNL A   1      33.283  21.090  24.351  1.00  0.00     0.069 A 
ATOM     24  C   UNL A   1      32.327  20.358  23.630  1.00  0.00     0.030 A 
ATOM     25  C   UNL A   1      34.396  20.408  24.865  1.00  0.00     0.030 A 
ATOM     26  C   UNL A   1      32.477  18.983  23.425  1.00  0.00     0.023 A 
ATOM     27  C   UNL A   1      34.535  19.026  24.683  1.00  0.00     0.023 A 
ATOM     28  C   UNL A   1      33.576  18.321  23.960  1.00  0.00     0.041 A 
ATOM     29  Cl  UNL A   1      33.750  16.627  23.719  1.00  0.00    -0.084 Cl
ENDBRANCH  20  23
ENDBRANCH  10  15
ENDBRANCH   8   9
ENDBRANCH   7   8
ENDBRANCH   4   7
ENDBRANCH   2   3
ENDBRANCH   1   2
BRANCH   1  30
ATOM     30  C   UNL A   1      36.050  33.092  28.386  1.00  0.00     0.023 C 
BRANCH  30  31
ATOM     31  C   UNL A   1      36.595  33.243  29.799  1.00  0.00     0.116 C 
BRANCH  31  32
ATOM     32  N   UNL A   1      36.114  32.216  30.702  1.00  0.00    -0.352 N 
ATOM     33  C   UNL A   1      36.629  30.974  30.981  1.00  0.00     0.251 C 
ATOM     34  H   UNL A   1      35.291  32.444  31.190  1.00  0.00     0.163 HD
ATOM     35  O   UNL A   1      35.967  30.203  31.674  1.00  0.00    -0.269 OA
BRANCH  33  36
ATOM     36  C   UNL A   1      37.944  30.540  30.448  1.00  0.00     0.039 A 
ATOM     37  C   UNL A   1      39.027  30.469  31.330  1.00  0.00     0.014 A 
ATOM     38  C   UNL A   1      38.143  30.255  29.093  1.00  0.00     0.014 A 
ATOM     39  C   UNL A   1      40.288  30.079  30.867  1.00  0.00     0.010 A 
ATOM     40  C   UNL A   1      39.384  29.796  28.645  1.00  0.00     0.010 A 
ATOM     41  C   UNL A   1      40.475  29.714  29.524  1.00  0.00    -0.014 A 
BRANCH  41  42
ATOM     42  C   UNL A   1      41.808  29.265  29.033  1.00  0.00     0.031 A 
ATOM     43  C   UNL A   1      42.954  30.241  28.928  1.00  0.00     0.074 A 
ATOM     44  C   UNL A   1      41.980  27.985  28.645  1.00  0.00     0.049 A 
ATOM     45  N   UNL A   1      44.175  30.036  28.505  1.00  0.00    -0.248 NA
ATOM     46  C   UNL A   1      42.688  31.634  29.326  1.00  0.00     0.031 C 
ATOM     47  C   UNL A   1      40.938  26.954  28.641  1.00  0.00     0.029 A 
ATOM     48  N   UNL A   1      43.089  27.330  28.169  1.00  0.00    -0.354 N 
ATOM     49  C   UNL A   1      44.813  31.272  28.563  1.00  0.00     0.074 A 
ATOM     50  C   UNL A   1      43.834  32.229  29.027  1.00  0.00     0.031 C 
ATOM     51  C   UNL A   1      41.461  25.797  28.206  1.00  0.00     0.029 A 
ATOM     52  C   UNL A   1      42.865  26.005  27.867  1.00  0.00     0.049 A 
ATOM     53  H   UNL A   1      43.964  27.766  28.055  1.00  0.00     0.167 HD
ATOM     54  C   UNL A   1      46.101  31.576  28.274  1.00  0.00     0.037 A 
ATOM     55  C   UNL A   1      43.695  25.066  27.369  1.00  0.00     0.037 A 
ATOM     56  C   UNL A   1      47.087  30.611  27.857  1.00  0.00     0.049 A 
ATOM     57  C   UNL A   1      45.132  25.426  27.096  1.00  0.00     0.074 A 
ATOM     58  C   UNL A   1      48.438  30.808  27.628  1.00  0.00     0.029 A 
ATOM     59  N   UNL A   1      46.832  29.272  27.606  1.00  0.00    -0.354 N 
ATOM     60  N   UNL A   1      45.737  26.581  27.245  1.00  0.00    -0.248 NA
ATOM     61  C   UNL A   1      46.005  24.352  26.602  1.00  0.00     0.031 C 
ATOM     62  C   UNL A   1      48.990  29.601  27.191  1.00  0.00     0.029 A 
ATOM     63  C   UNL A   1      47.995  28.637  27.204  1.00  0.00     0.049 A 
ATOM     64  H   UNL A   1      45.954  28.837  27.701  1.00  0.00     0.167 HD
ATOM     65  C   UNL A   1      47.066  26.361  26.900  1.00  0.00     0.074 A 
ATOM     66  C   UNL A   1      47.180  24.961  26.549  1.00  0.00     0.031 C 
ATOM     67  C   UNL A   1      48.100  27.238  26.875  1.00  0.00     0.037 A 
BRANCH  54  68
ATOM     68  C   UNL A   1      46.540  33.011  28.400  1.00  0.00     0.058 A 
ATOM     69  C   UNL A   1      47.202  33.486  29.542  1.00  0.00     0.135 A 
ATOM     70  C   UNL A   1      46.378  33.898  27.322  1.00  0.00     0.135 A 
ATOM     71  F   UNL A   1      47.371  32.687  30.607  1.00  0.00    -0.206 F 
ATOM     72  C   UNL A   1      47.680  34.791  29.616  1.00  0.00     0.059 A 
ATOM     73  C   UNL A   1      46.871  35.199  27.363  1.00  0.00     0.059 A 
ATOM     74  F   UNL A   1      45.749  33.497  26.205  1.00  0.00    -0.206 F 
ATOM     75  C   UNL A   1      47.518  35.638  28.517  1.00  0.00     0.060 A 
BRANCH  75  76
ATOM     76  S   UNL A   1      48.192  37.310  28.610  1.00  0.00     0.124 S 
ATOM     77  O   UNL A   1      49.293  37.234  27.656  1.00  0.00    -0.237 OA
ATOM     78  O   UNL A   1      47.054  38.127  28.201  1.00  0.00    -0.237 OA
ATOM     79  O   UNL A   1      48.583  37.442  30.010  1.00  0.00    -0.744 OA
ENDBRANCH  75  76
ENDBRANCH  54  68
BRANCH  55  80
ATOM     80  C   UNL A   1      43.199  23.687  27.103  1.00  0.00     0.058 A 
ATOM     81  C   UNL A   1      43.028  22.762  28.145  1.00  0.00     0.135 A 
ATOM     82  C   UNL A   1      42.925  23.254  25.797  1.00  0.00     0.135 A 
ATOM     83  F   UNL A   1      43.281  23.125  29.412  1.00  0.00    -0.206 F 
ATOM     84  C   UNL A   1      42.644  21.448  27.899  1.00  0.00     0.059 A 
ATOM     85  C   UNL A   1      42.508  21.954  25.529  1.00  0.00     0.059 A 
ATOM     86  F   UNL A   1      43.051  24.104  24.766  1.00  0.00    -0.206 F 
ATOM     87  C   UNL A   1      42.392  21.051  26.585  1.00  0.00     0.060 A 
BRANCH  87  88
ATOM     88  S   UNL A   1      41.891  19.345  26.272  1.00  0.00     0.124 S 
ATOM     89  O   UNL A   1      40.464  19.503  26.013  1.00  0.00    -0.237 OA
ATOM     90  O   UNL A   1      42.714  18.988  25.121  1.00  0.00    -0.237 OA
ATOM     91  O   UNL A   1      42.235  18.662  27.515  1.00  0.00    -0.744 OA
ENDBRANCH  87  88
ENDBRANCH  55  80
BRANCH  67  92
ATOM     92  C   UNL A   1      49.457  26.696  26.516  1.00  0.00     0.058 A 
ATOM     93  C   UNL A   1      50.297  26.099  27.469  1.00  0.00     0.135 A 
ATOM     94  C   UNL A   1      49.916  26.763  25.190  1.00  0.00     0.135 A 
ATOM     95  F   UNL A   1      49.909  26.010  28.751  1.00  0.00    -0.206 F 
ATOM     96  C   UNL A   1      51.562  25.627  27.130  1.00  0.00     0.059 A 
ATOM     97  C   UNL A   1      51.163  26.269  24.822  1.00  0.00     0.059 A 
ATOM     98  F   UNL A   1      49.147  27.310  24.235  1.00  0.00    -0.206 F 
ATOM     99  C   UNL A   1      51.988  25.723  25.804  1.00  0.00     0.060 A 
BRANCH  99 100
ATOM    100  S   UNL A   1      53.632  25.114  25.374  1.00  0.00     0.124 S 
ATOM    101  O   UNL A   1      53.374  23.693  25.167  1.00  0.00    -0.237 OA
ATOM    102  O   UNL A   1      53.947  25.882  24.174  1.00  0.00    -0.237 OA
ATOM    103  O   UNL A   1      54.434  25.442  26.549  1.00  0.00    -0.744 OA
ENDBRANCH  99 100
ENDBRANCH  67  92
ENDBRANCH  41  42
ENDBRANCH  33  36
ENDBRANCH  31  32
ENDBRANCH  30  31
ENDBRANCH   1  30
TORSDOF 18
ENDMDL
MODEL 3
REMARK VINA RESULT:     -12.5      6.438     12.189
REMARK SMILES CC1=NN(c2ccc(Cl)cc2)C(=O)/C1=C/c1ccccc1OCC(=O)NCCCCNC(=O)c1ccc(-c2c3nc(c(-c4c(F)cc(S(=O)(=O)[O-])cc4F)c4ccc([nH]4)c(-c4c(F)cc(S(=O)(=O)[O-])cc4F)c4nc(c(-c5c(F)cc(S(=O)(=O)[O-])cc5F)c5ccc2[nH]5)C=C4)C=C3)cc1
REMARK SMILES IDX 28 1 27 2 26 3 24 4 25 5 23 7 22 8 21 9 16 10 17 11 18 12
REMARK SMILES IDX 20 13 19 14 15 15 1 16 2 17 3 18 14 19 4 20 12 21 13 22 5 23
REMARK SMILES IDX 6 24 11 25 7 26 10 27 8 28 9 29 29 30 30 31 31 32 32 33
REMARK SMILES IDX 33 35 34 36 35 37 99 38 36 39 98 40 37 41 38 42 39 43 92 44
REMARK SMILES IDX 40 45 97 46 91 47 93 48 41 49 96 50 90 51 89 52 42 54 76 55
REMARK SMILES IDX 55 56 75 57 56 58 59 59 74 60 94 61 57 62 58 63 73 65 95 66
REMARK SMILES IDX 60 67 43 68 44 69 53 70 45 71 46 72 52 73 54 74 47 75 48 76
REMARK SMILES IDX 49 77 50 78 51 79 77 80 78 81 87 82 79 83 80 84 86 85 88 86
REMARK SMILES IDX 81 87 82 88 83 89 84 90 85 91 61 92 62 93 71 94 63 95 64 96
REMARK SMILES IDX 70 97 72 98 65 99 66 100 67 101 68 102 69 103
REMARK H PARENT 26 6 31 34 93 53 59 64
REMARK Flexibility Score: inf
ROOT
ATOM      1  C   UNL A   1      35.312  32.429  27.909  1.00  0.00     0.023 C 
ENDROOT
BRANCH   1   2
ATOM      2  C   UNL A   1      34.013  31.635  28.011  1.00  0.00     0.116 C 
BRANCH   2   3
ATOM      3  N   UNL A   1      34.155  30.195  27.946  1.00  0.00    -0.353 N 
ATOM      4  C   UNL A   1      33.682  29.376  26.959  1.00  0.00     0.257 C 
ATOM      5  O   UNL A   1      34.301  28.339  26.713  1.00  0.00    -0.271 OA
ATOM      6  H   UNL A   1      34.641  29.764  28.685  1.00  0.00     0.163 HD
BRANCH   4   7
ATOM      7  C   UNL A   1      32.439  29.751  26.149  1.00  0.00     0.329 C 
BRANCH   7   8
ATOM      8  O   UNL A   1      32.432  29.407  24.781  1.00  0.00    -0.483 OA
BRANCH   8   9
ATOM      9  C   UNL A   1      31.303  29.333  24.018  1.00  0.00     0.127 A 
ATOM     10  C   UNL A   1      30.904  28.399  23.045  1.00  0.00     0.017 A 
ATOM     11  C   UNL A   1      29.644  28.549  22.430  1.00  0.00     0.012 A 
ATOM     12  C   UNL A   1      28.792  29.601  22.767  1.00  0.00     0.001 A 
ATOM     13  C   UNL A   1      30.430  30.388  24.337  1.00  0.00     0.047 A 
ATOM     14  C   UNL A   1      29.188  30.528  23.721  1.00  0.00     0.004 A 
BRANCH  10  15
ATOM     15  C   UNL A   1      31.701  27.265  22.576  1.00  0.00     0.027 C 
ATOM     16  C   UNL A   1      30.325  26.124  25.303  1.00  0.00     0.069 C 
ATOM     17  C   UNL A   1      31.413  25.533  24.477  1.00  0.00     0.071 C 
ATOM     18  N   UNL A   1      32.066  24.450  24.812  1.00  0.00    -0.169 NA
ATOM     19  C   UNL A   1      31.886  26.098  23.205  1.00  0.00     0.066 C 
ATOM     20  N   UNL A   1      33.009  24.242  23.801  1.00  0.00    -0.196 N 
ATOM     21  C   UNL A   1      32.908  25.136  22.724  1.00  0.00     0.280 C 
ATOM     22  O   UNL A   1      33.486  25.201  21.656  1.00  0.00    -0.267 OA
BRANCH  20  23
ATOM     23  C   UNL A   1      34.054  23.316  24.029  1.00  0.00     0.069 A 
ATOM     24  C   UNL A   1      35.396  23.728  24.021  1.00  0.00     0.030 A 
ATOM     25  C   UNL A   1      33.770  21.978  24.340  1.00  0.00     0.030 A 
ATOM     26  C   UNL A   1      36.426  22.830  24.315  1.00  0.00     0.023 A 
ATOM     27  C   UNL A   1      34.802  21.071  24.610  1.00  0.00     0.023 A 
ATOM     28  C   UNL A   1      36.126  21.502  24.599  1.00  0.00     0.041 A 
ATOM     29  Cl  UNL A   1      37.397  20.396  24.946  1.00  0.00    -0.084 Cl
ENDBRANCH  20  23
ENDBRANCH  10  15
ENDBRANCH   8   9
ENDBRANCH   7   8
ENDBRANCH   4   7
ENDBRANCH   2   3
ENDBRANCH   1   2
BRANCH   1  30
ATOM     30  C   UNL A   1      35.557  33.531  28.944  1.00  0.00     0.023 C 
BRANCH  30  31
ATOM     31  C   UNL A   1      36.541  33.234  30.067  1.00  0.00     0.116 C 
BRANCH  31  32
ATOM     32  N   UNL A   1      36.089  32.176  30.949  1.00  0.00    -0.352 N 
ATOM     33  C   UNL A   1      36.621  30.932  31.180  1.00  0.00     0.251 C 
ATOM     34  H   UNL A   1      35.274  32.383  31.461  1.00  0.00     0.163 HD
ATOM     35  O   UNL A   1      35.981  30.134  31.864  1.00  0.00    -0.269 OA
BRANCH  33  36
ATOM     36  C   UNL A   1      37.928  30.526  30.606  1.00  0.00     0.039 A 
ATOM     37  C   UNL A   1      39.001  30.323  31.479  1.00  0.00     0.014 A 
ATOM     38  C   UNL A   1      38.128  30.394  29.228  1.00  0.00     0.014 A 
ATOM     39  C   UNL A   1      40.254  29.954  30.980  1.00  0.00     0.010 A 
ATOM     40  C   UNL A   1      39.360  29.955  28.736  1.00  0.00     0.010 A 
ATOM     41  C   UNL A   1      40.442  29.742  29.604  1.00  0.00    -0.014 A 
BRANCH  41  42
ATOM     42  C   UNL A   1      41.766  29.316  29.071  1.00  0.00     0.031 A 
ATOM     43  C   UNL A   1      42.893  30.310  28.936  1.00  0.00     0.074 A 
ATOM     44  C   UNL A   1      41.945  28.041  28.670  1.00  0.00     0.049 A 
ATOM     45  N   UNL A   1      44.104  30.126  28.475  1.00  0.00    -0.248 NA
ATOM     46  C   UNL A   1      42.618  31.696  29.350  1.00  0.00     0.031 C 
ATOM     47  C   UNL A   1      40.919  26.994  28.692  1.00  0.00     0.029 A 
ATOM     48  N   UNL A   1      43.049  27.405  28.158  1.00  0.00    -0.354 N 
ATOM     49  C   UNL A   1      44.725  31.370  28.520  1.00  0.00     0.074 A 
ATOM     50  C   UNL A   1      43.746  32.310  29.019  1.00  0.00     0.031 C 
ATOM     51  C   UNL A   1      41.447  25.847  28.235  1.00  0.00     0.029 A 
ATOM     52  C   UNL A   1      42.836  26.078  27.856  1.00  0.00     0.049 A 
ATOM     53  H   UNL A   1      43.914  27.855  28.019  1.00  0.00     0.167 HD
ATOM     54  C   UNL A   1      45.999  31.696  28.194  1.00  0.00     0.037 A 
ATOM     55  C   UNL A   1      43.664  25.155  27.327  1.00  0.00     0.037 A 
ATOM     56  C   UNL A   1      46.986  30.748  27.742  1.00  0.00     0.049 A 
ATOM     57  C   UNL A   1      45.087  25.538  27.012  1.00  0.00     0.074 A 
ATOM     58  C   UNL A   1      48.326  30.967  27.473  1.00  0.00     0.029 A 
ATOM     59  N   UNL A   1      46.744  29.406  27.492  1.00  0.00    -0.354 N 
ATOM     60  N   UNL A   1      45.678  26.701  27.149  1.00  0.00    -0.248 NA
ATOM     61  C   UNL A   1      45.960  24.480  26.487  1.00  0.00     0.031 C 
ATOM     62  C   UNL A   1      48.883  29.770  27.013  1.00  0.00     0.029 A 
ATOM     63  C   UNL A   1      47.903  28.791  27.051  1.00  0.00     0.049 A 
ATOM     64  H   UNL A   1      45.875  28.958  27.611  1.00  0.00     0.167 HD
ATOM     65  C   UNL A   1      47.000  26.503  26.763  1.00  0.00     0.074 A 
ATOM     66  C   UNL A   1      47.124  25.107  26.402  1.00  0.00     0.031 C 
ATOM     67  C   UNL A   1      48.019  27.395  26.712  1.00  0.00     0.037 A 
BRANCH  54  68
ATOM     68  C   UNL A   1      46.420  33.137  28.314  1.00  0.00     0.058 A 
ATOM     69  C   UNL A   1      46.994  33.645  29.489  1.00  0.00     0.135 A 
ATOM     70  C   UNL A   1      46.332  33.995  27.204  1.00  0.00     0.135 A 
ATOM     71  F   UNL A   1      47.089  32.875  30.584  1.00  0.00    -0.206 F 
ATOM     72  C   UNL A   1      47.458  34.956  29.563  1.00  0.00     0.059 A 
ATOM     73  C   UNL A   1      46.814  35.300  27.247  1.00  0.00     0.059 A 
ATOM     74  F   UNL A   1      45.789  33.560  26.055  1.00  0.00    -0.206 F 
ATOM     75  C   UNL A   1      47.372  35.773  28.434  1.00  0.00     0.060 A 
BRANCH  75  76
ATOM     76  S   UNL A   1      48.028  37.452  28.533  1.00  0.00     0.124 S 
ATOM     77  O   UNL A   1      48.596  37.464  29.878  1.00  0.00    -0.237 OA
ATOM     78  O   UNL A   1      48.993  37.474  27.438  1.00  0.00    -0.237 OA
ATOM     79  O   UNL A   1      46.849  38.291  28.343  1.00  0.00    -0.744 OA
ENDBRANCH  75  76
ENDBRANCH  54  68
BRANCH  55  80
ATOM     80  C   UNL A   1      43.182  23.769  27.069  1.00  0.00     0.058 A 
ATOM     81  C   UNL A   1      43.047  22.840  28.112  1.00  0.00     0.135 A 
ATOM     82  C   UNL A   1      42.884  23.336  25.768  1.00  0.00     0.135 A 
ATOM     83  F   UNL A   1      43.323  23.204  29.374  1.00  0.00    -0.206 F 
ATOM     84  C   UNL A   1      42.675  21.521  27.871  1.00  0.00     0.059 A 
ATOM     85  C   UNL A   1      42.479  22.031  25.506  1.00  0.00     0.059 A 
ATOM     86  F   UNL A   1      42.975  24.189  24.737  1.00  0.00    -0.206 F 
ATOM     87  C   UNL A   1      42.399  21.124  26.563  1.00  0.00     0.060 A 
BRANCH  87  88
ATOM     88  S   UNL A   1      41.914  19.412  26.256  1.00  0.00     0.124 S 
ATOM     89  O   UNL A   1      42.345  18.761  27.488  1.00  0.00    -0.237 OA
ATOM     90  O   UNL A   1      40.471  19.530  26.066  1.00  0.00    -0.237 OA
ATOM     91  O   UNL A   1      42.669  19.060  25.058  1.00  0.00    -0.744 OA
ENDBRANCH  87  88
ENDBRANCH  55  80
BRANCH  67  92
ATOM     92  C   UNL A   1      49.373  26.877  26.309  1.00  0.00     0.058 A 
ATOM     93  C   UNL A   1      49.865  27.015  25.002  1.00  0.00     0.135 A 
ATOM     94  C   UNL A   1      50.197  26.245  27.255  1.00  0.00     0.135 A 
ATOM     95  F   UNL A   1      49.118  27.609  24.058  1.00  0.00    -0.206 F 
ATOM     96  C   UNL A   1      51.107  26.506  24.635  1.00  0.00     0.059 A 
ATOM     97  C   UNL A   1      51.456  25.757  26.918  1.00  0.00     0.059 A 
ATOM     98  F   UNL A   1      49.783  26.100  28.524  1.00  0.00    -0.206 F 
ATOM     99  C   UNL A   1      51.893  25.873  25.600  1.00  0.00     0.060 A 
BRANCH  99 100
ATOM    100  S   UNL A   1      53.500  25.210  25.114  1.00  0.00     0.124 S 
ATOM    101  O   UNL A   1      53.536  25.543  23.693  1.00  0.00    -0.237 OA
ATOM    102  O   UNL A   1      54.419  25.959  25.964  1.00  0.00    -0.237 OA
ATOM    103  O   UNL A   1      53.388  23.788  25.422  1.00  0.00    -0.744 OA
ENDBRANCH  99 100
ENDBRANCH  67  92
ENDBRANCH  41  42
ENDBRANCH  33  36
ENDBRANCH  31  32
ENDBRANCH  30  31
ENDBRANCH   1  30
TORSDOF 18
ENDMDL
