MODEL 1
REMARK VINA RESULT:     -11.7      0.000      0.000
REMARK SMILES CCc1cc2c(-c3ccccc3)cc(=O)oc2cc1OCC(=O)NCCCCNC(=O)c1ccc(-c2c3nc(c(-c4c(F)cc(S(=O)(=O)[O-])cc4F)c4ccc([nH]4)c(-c4c(F)cc(S(=O)(=O)[O-])cc4F)c4nc(c(-c5c(F)cc(S(=O)(=O)[O-])cc5F)c5ccc2[nH]5)C=C4)C=C3)cc1
REMARK SMILES IDX 26 1 25 2 24 3 22 4 23 5 21 7 20 8 19 9 3 10 4 11 5 12 18 13
REMARK SMILES IDX 6 14 17 15 13 16 16 17 14 18 15 19 2 20 1 21 7 22 8 23 12 24
REMARK SMILES IDX 9 25 11 26 10 27 27 28 28 29 29 30 30 31 31 33 32 34 33 35
REMARK SMILES IDX 97 36 34 37 96 38 35 39 36 40 37 41 90 42 38 43 95 44 89 45
REMARK SMILES IDX 91 46 39 47 94 48 88 49 87 50 40 52 74 53 53 54 73 55 54 56
REMARK SMILES IDX 57 57 72 58 92 59 55 60 56 61 71 63 93 64 58 65 41 66 42 67
REMARK SMILES IDX 51 68 43 69 44 70 50 71 52 72 45 73 46 74 47 75 48 76 49 77
REMARK SMILES IDX 75 78 76 79 85 80 77 81 78 82 84 83 86 84 79 85 80 86 81 87
REMARK SMILES IDX 82 88 83 89 59 90 60 91 69 92 61 93 62 94 68 95 70 96 63 97
REMARK SMILES IDX 64 98 65 99 66 100 67 101
REMARK H PARENT 24 6 29 32 91 51 57 62
REMARK Flexibility Score: inf
ROOT
ATOM      1  C   UNL A   1      35.739  21.706  24.283  1.00  0.00     0.023 C 
ENDROOT
BRANCH   1   2
ATOM      2  C   UNL A   1      35.151  20.993  25.500  1.00  0.00     0.116 C 
BRANCH   2   3
ATOM      3  N   UNL A   1      34.290  19.887  25.130  1.00  0.00    -0.353 N 
ATOM      4  C   UNL A   1      33.084  19.928  24.489  1.00  0.00     0.257 C 
ATOM      5  O   UNL A   1      32.515  18.868  24.223  1.00  0.00    -0.271 OA
ATOM      6  H   UNL A   1      34.617  18.991  25.371  1.00  0.00     0.163 HD
BRANCH   4   7
ATOM      7  C   UNL A   1      32.491  21.276  24.065  1.00  0.00     0.329 C 
BRANCH   7   8
ATOM      8  O   UNL A   1      31.829  22.031  25.065  1.00  0.00    -0.483 OA
BRANCH   8   9
ATOM      9  C   UNL A   1      31.850  23.394  24.995  1.00  0.00     0.127 A 
ATOM     10  C   UNL A   1      32.605  24.069  25.973  1.00  0.00    -0.005 A 
ATOM     11  C   UNL A   1      32.598  25.482  25.970  1.00  0.00     0.020 A 
ATOM     12  C   UNL A   1      31.924  26.229  24.998  1.00  0.00     0.026 A 
ATOM     13  C   UNL A   1      31.168  24.134  24.020  1.00  0.00     0.094 A 
ATOM     14  C   UNL A   1      31.943  27.701  24.972  1.00  0.00    -0.000 A 
ATOM     15  C   UNL A   1      31.216  25.530  24.033  1.00  0.00     0.142 A 
ATOM     16  C   UNL A   1      31.245  28.310  24.001  1.00  0.00     0.103 A 
ATOM     17  O   UNL A   1      30.502  26.203  23.026  1.00  0.00    -0.423 OA
ATOM     18  C   UNL A   1      30.483  27.585  22.971  1.00  0.00     0.336 A 
ATOM     19  O   UNL A   1      29.881  28.198  22.096  1.00  0.00    -0.246 OA
BRANCH  10  20
ATOM     20  C   UNL A   1      33.417  23.439  27.090  1.00  0.00     0.036 C 
ATOM     21  C   UNL A   1      32.788  22.400  28.006  1.00  0.00     0.009 C 
ENDBRANCH  10  20
BRANCH  14  22
ATOM     22  C   UNL A   1      32.688  28.558  25.923  1.00  0.00    -0.017 A 
ATOM     23  C   UNL A   1      32.072  29.692  26.474  1.00  0.00     0.009 A 
ATOM     24  C   UNL A   1      34.034  28.305  26.218  1.00  0.00     0.009 A 
ATOM     25  C   UNL A   1      32.799  30.580  27.267  1.00  0.00     0.001 A 
ATOM     26  C   UNL A   1      34.756  29.186  27.026  1.00  0.00     0.001 A 
ATOM     27  C   UNL A   1      34.142  30.328  27.539  1.00  0.00     0.000 A 
ENDBRANCH  14  22
ENDBRANCH   8   9
ENDBRANCH   7   8
ENDBRANCH   4   7
ENDBRANCH   2   3
ENDBRANCH   1   2
BRANCH   1  28
ATOM     28  C   UNL A   1      35.771  23.233  24.377  1.00  0.00     0.023 C 
BRANCH  28  29
ATOM     29  C   UNL A   1      37.037  23.832  24.980  1.00  0.00     0.116 C 
BRANCH  29  30
ATOM     30  N   UNL A   1      38.049  22.834  25.291  1.00  0.00    -0.352 N 
ATOM     31  C   UNL A   1      39.192  22.967  26.044  1.00  0.00     0.251 C 
ATOM     32  H   UNL A   1      37.894  21.940  24.910  1.00  0.00     0.163 HD
ATOM     33  O   UNL A   1      39.996  22.040  26.099  1.00  0.00    -0.269 OA
BRANCH  31  34
ATOM     34  C   UNL A   1      39.469  24.236  26.755  1.00  0.00     0.039 A 
ATOM     35  C   UNL A   1      38.972  24.402  28.052  1.00  0.00     0.014 A 
ATOM     36  C   UNL A   1      40.222  25.250  26.160  1.00  0.00     0.014 A 
ATOM     37  C   UNL A   1      39.294  25.555  28.775  1.00  0.00     0.010 A 
ATOM     38  C   UNL A   1      40.601  26.364  26.907  1.00  0.00     0.010 A 
ATOM     39  C   UNL A   1      40.145  26.527  28.224  1.00  0.00    -0.014 A 
BRANCH  39  40
ATOM     40  C   UNL A   1      40.578  27.711  29.012  1.00  0.00     0.031 A 
ATOM     41  C   UNL A   1      41.903  27.705  29.726  1.00  0.00     0.074 A 
ATOM     42  C   UNL A   1      39.748  28.765  29.143  1.00  0.00     0.049 A 
ATOM     43  N   UNL A   1      42.417  28.609  30.519  1.00  0.00    -0.248 NA
ATOM     44  C   UNL A   1      42.749  26.515  29.545  1.00  0.00     0.031 C 
ATOM     45  C   UNL A   1      38.416  28.873  28.542  1.00  0.00     0.029 A 
ATOM     46  N   UNL A   1      39.893  29.943  29.835  1.00  0.00    -0.354 N 
ATOM     47  C   UNL A   1      43.638  28.094  30.941  1.00  0.00     0.074 A 
ATOM     48  C   UNL A   1      43.763  26.776  30.357  1.00  0.00     0.031 C 
ATOM     49  C   UNL A   1      37.876  30.056  28.875  1.00  0.00     0.029 A 
ATOM     50  C   UNL A   1      38.802  30.776  29.744  1.00  0.00     0.049 A 
ATOM     51  H   UNL A   1      40.702  30.169  30.348  1.00  0.00     0.167 HD
ATOM     52  C   UNL A   1      44.578  28.675  31.726  1.00  0.00     0.037 A 
ATOM     53  C   UNL A   1      38.569  31.979  30.304  1.00  0.00     0.037 A 
ATOM     54  C   UNL A   1      44.459  29.997  32.287  1.00  0.00     0.049 A 
ATOM     55  C   UNL A   1      39.627  32.603  31.174  1.00  0.00     0.074 A 
ATOM     56  C   UNL A   1      45.381  30.695  33.047  1.00  0.00     0.029 A 
ATOM     57  N   UNL A   1      43.349  30.818  32.153  1.00  0.00    -0.354 N 
ATOM     58  N   UNL A   1      40.803  32.128  31.509  1.00  0.00    -0.248 NA
ATOM     59  C   UNL A   1      39.331  33.927  31.737  1.00  0.00     0.031 C 
ATOM     60  C   UNL A   1      44.813  31.921  33.408  1.00  0.00     0.029 A 
ATOM     61  C   UNL A   1      43.555  32.008  32.832  1.00  0.00     0.049 A 
ATOM     62  H   UNL A   1      42.534  30.589  31.649  1.00  0.00     0.167 HD
ATOM     63  C   UNL A   1      41.398  33.107  32.298  1.00  0.00     0.074 A 
ATOM     64  C   UNL A   1      40.456  34.205  32.381  1.00  0.00     0.031 C 
ATOM     65  C   UNL A   1      42.613  33.097  32.899  1.00  0.00     0.037 A 
BRANCH  52  66
ATOM     66  C   UNL A   1      45.825  27.886  32.021  1.00  0.00     0.058 A 
ATOM     67  C   UNL A   1      46.971  27.992  31.216  1.00  0.00     0.135 A 
ATOM     68  C   UNL A   1      45.889  27.040  33.140  1.00  0.00     0.135 A 
ATOM     69  F   UNL A   1      46.962  28.774  30.125  1.00  0.00    -0.206 F 
ATOM     70  C   UNL A   1      48.125  27.265  31.492  1.00  0.00     0.059 A 
ATOM     71  C   UNL A   1      47.042  26.326  33.452  1.00  0.00     0.059 A 
ATOM     72  F   UNL A   1      44.824  26.901  33.945  1.00  0.00    -0.206 F 
ATOM     73  C   UNL A   1      48.151  26.433  32.613  1.00  0.00     0.060 A 
BRANCH  73  74
ATOM     74  S   UNL A   1      49.656  25.499  32.957  1.00  0.00     0.124 S 
ATOM     75  O   UNL A   1      49.189  24.561  33.974  1.00  0.00    -0.237 OA
ATOM     76  O   UNL A   1      49.969  24.919  31.656  1.00  0.00    -0.237 OA
ATOM     77  O   UNL A   1      50.589  26.518  33.426  1.00  0.00    -0.744 OA
ENDBRANCH  73  74
ENDBRANCH  52  66
BRANCH  53  78
ATOM     78  C   UNL A   1      37.285  32.684  30.044  1.00  0.00     0.058 A 
ATOM     79  C   UNL A   1      37.175  33.623  29.007  1.00  0.00     0.135 A 
ATOM     80  C   UNL A   1      36.141  32.427  30.816  1.00  0.00     0.135 A 
ATOM     81  F   UNL A   1      38.241  33.909  28.245  1.00  0.00    -0.206 F 
ATOM     82  C   UNL A   1      35.983  34.296  28.756  1.00  0.00     0.059 A 
ATOM     83  C   UNL A   1      34.931  33.067  30.568  1.00  0.00     0.059 A 
ATOM     84  F   UNL A   1      36.189  31.524  31.809  1.00  0.00    -0.206 F 
ATOM     85  C   UNL A   1      34.865  34.008  29.541  1.00  0.00     0.060 A 
BRANCH  85  86
ATOM     86  S   UNL A   1      33.309  34.850  29.173  1.00  0.00     0.124 S 
ATOM     87  O   UNL A   1      32.744  33.986  28.144  1.00  0.00    -0.237 OA
ATOM     88  O   UNL A   1      32.636  34.829  30.468  1.00  0.00    -0.237 OA
ATOM     89  O   UNL A   1      33.742  36.170  28.724  1.00  0.00    -0.744 OA
ENDBRANCH  85  86
ENDBRANCH  53  78
BRANCH  65  90
ATOM     90  C   UNL A   1      43.016  34.324  33.670  1.00  0.00     0.058 A 
ATOM     91  C   UNL A   1      42.805  34.432  35.054  1.00  0.00     0.135 A 
ATOM     92  C   UNL A   1      43.670  35.386  33.022  1.00  0.00     0.135 A 
ATOM     93  F   UNL A   1      42.179  33.448  35.719  1.00  0.00    -0.206 F 
ATOM     94  C   UNL A   1      43.208  35.557  35.764  1.00  0.00     0.059 A 
ATOM     95  C   UNL A   1      44.107  36.509  33.718  1.00  0.00     0.059 A 
ATOM     96  F   UNL A   1      43.906  35.330  31.701  1.00  0.00    -0.206 F 
ATOM     97  C   UNL A   1      43.861  36.590  35.088  1.00  0.00     0.060 A 
BRANCH  97  98
ATOM     98  S   UNL A   1      44.411  38.030  36.028  1.00  0.00     0.124 S 
ATOM     99  O   UNL A   1      45.843  37.775  36.145  1.00  0.00    -0.237 OA
ATOM    100  O   UNL A   1      44.033  39.137  35.156  1.00  0.00    -0.237 OA
ATOM    101  O   UNL A   1      43.653  37.934  37.272  1.00  0.00    -0.744 OA
ENDBRANCH  97  98
ENDBRANCH  65  90
ENDBRANCH  39  40
ENDBRANCH  31  34
ENDBRANCH  29  30
ENDBRANCH  28  29
ENDBRANCH   1  28
TORSDOF 18
ENDMDL
MODEL 2
REMARK VINA RESULT:     -11.5      4.690     10.520
REMARK SMILES CCc1cc2c(-c3ccccc3)cc(=O)oc2cc1OCC(=O)NCCCCNC(=O)c1ccc(-c2c3nc(c(-c4c(F)cc(S(=O)(=O)[O-])cc4F)c4ccc([nH]4)c(-c4c(F)cc(S(=O)(=O)[O-])cc4F)c4nc(c(-c5c(F)cc(S(=O)(=O)[O-])cc5F)c5ccc2[nH]5)C=C4)C=C3)cc1
REMARK SMILES IDX 26 1 25 2 24 3 22 4 23 5 21 7 20 8 19 9 3 10 4 11 5 12 18 13
REMARK SMILES IDX 6 14 17 15 13 16 16 17 14 18 15 19 2 20 1 21 7 22 8 23 12 24
REMARK SMILES IDX 9 25 11 26 10 27 27 28 28 29 29 30 30 31 31 33 32 34 33 35
REMARK SMILES IDX 97 36 34 37 96 38 35 39 36 40 37 41 90 42 38 43 95 44 89 45
REMARK SMILES IDX 91 46 39 47 94 48 88 49 87 50 40 52 74 53 53 54 73 55 54 56
REMARK SMILES IDX 57 57 72 58 92 59 55 60 56 61 71 63 93 64 58 65 41 66 42 67
REMARK SMILES IDX 51 68 43 69 44 70 50 71 52 72 45 73 46 74 47 75 48 76 49 77
REMARK SMILES IDX 75 78 76 79 85 80 77 81 78 82 84 83 86 84 79 85 80 86 81 87
REMARK SMILES IDX 82 88 83 89 59 90 60 91 69 92 61 93 62 94 68 95 70 96 63 97
REMARK SMILES IDX 64 98 65 99 66 100 67 101
REMARK H PARENT 24 6 29 32 91 51 57 62
REMARK Flexibility Score: inf
ROOT
ATOM      1  C   UNL A   1      34.042  31.269  27.891  1.00  0.00     0.023 C 
ENDROOT
BRANCH   1   2
ATOM      2  C   UNL A   1      34.301  29.943  27.178  1.00  0.00     0.116 C 
BRANCH   2   3
ATOM      3  N   UNL A   1      33.614  29.856  25.905  1.00  0.00    -0.353 N 
ATOM      4  C   UNL A   1      33.284  28.738  25.193  1.00  0.00     0.257 C 
ATOM      5  O   UNL A   1      32.659  28.867  24.139  1.00  0.00    -0.271 OA
ATOM      6  H   UNL A   1      33.352  30.714  25.501  1.00  0.00     0.163 HD
BRANCH   4   7
ATOM      7  C   UNL A   1      33.642  27.352  25.740  1.00  0.00     0.329 C 
BRANCH   7   8
ATOM      8  O   UNL A   1      32.916  26.249  25.222  1.00  0.00    -0.483 OA
BRANCH   8   9
ATOM      9  C   UNL A   1      33.506  25.018  25.193  1.00  0.00     0.127 A 
ATOM     10  C   UNL A   1      32.663  23.915  24.963  1.00  0.00    -0.005 A 
ATOM     11  C   UNL A   1      33.227  22.620  24.991  1.00  0.00     0.020 A 
ATOM     12  C   UNL A   1      34.597  22.402  25.174  1.00  0.00     0.026 A 
ATOM     13  C   UNL A   1      34.878  24.808  25.383  1.00  0.00     0.094 A 
ATOM     14  C   UNL A   1      35.194  21.055  25.171  1.00  0.00    -0.000 A 
ATOM     15  C   UNL A   1      35.401  23.513  25.369  1.00  0.00     0.142 A 
ATOM     16  C   UNL A   1      36.518  20.967  25.374  1.00  0.00     0.103 A 
ATOM     17  O   UNL A   1      36.786  23.382  25.572  1.00  0.00    -0.423 OA
ATOM     18  C   UNL A   1      37.387  22.135  25.587  1.00  0.00     0.336 A 
ATOM     19  O   UNL A   1      38.594  21.992  25.747  1.00  0.00    -0.246 OA
BRANCH  10  20
ATOM     20  C   UNL A   1      31.164  23.950  24.722  1.00  0.00     0.036 C 
ATOM     21  C   UNL A   1      30.611  24.428  23.388  1.00  0.00     0.009 C 
ENDBRANCH  10  20
BRANCH  14  22
ATOM     22  C   UNL A   1      34.449  19.796  24.939  1.00  0.00    -0.017 A 
ATOM     23  C   UNL A   1      33.133  19.667  25.409  1.00  0.00     0.009 A 
ATOM     24  C   UNL A   1      35.066  18.695  24.332  1.00  0.00     0.009 A 
ATOM     25  C   UNL A   1      32.463  18.447  25.315  1.00  0.00     0.001 A 
ATOM     26  C   UNL A   1      34.388  17.479  24.224  1.00  0.00     0.001 A 
ATOM     27  C   UNL A   1      33.093  17.352  24.726  1.00  0.00     0.000 A 
ENDBRANCH  14  22
ENDBRANCH   8   9
ENDBRANCH   7   8
ENDBRANCH   4   7
ENDBRANCH   2   3
ENDBRANCH   1   2
BRANCH   1  28
ATOM     28  C   UNL A   1      35.168  32.300  27.776  1.00  0.00     0.023 C 
BRANCH  28  29
ATOM     29  C   UNL A   1      36.014  32.496  29.031  1.00  0.00     0.116 C 
BRANCH  29  30
ATOM     30  N   UNL A   1      35.665  31.578  30.104  1.00  0.00    -0.352 N 
ATOM     31  C   UNL A   1      36.397  30.538  30.626  1.00  0.00     0.251 C 
ATOM     32  H   UNL A   1      34.781  31.723  30.515  1.00  0.00     0.163 HD
ATOM     33  O   UNL A   1      35.887  29.790  31.456  1.00  0.00    -0.269 OA
BRANCH  31  34
ATOM     34  C   UNL A   1      37.782  30.300  30.160  1.00  0.00     0.039 A 
ATOM     35  C   UNL A   1      38.817  30.294  31.101  1.00  0.00     0.014 A 
ATOM     36  C   UNL A   1      38.063  30.069  28.811  1.00  0.00     0.014 A 
ATOM     37  C   UNL A   1      40.119  29.985  30.697  1.00  0.00     0.010 A 
ATOM     38  C   UNL A   1      39.347  29.692  28.423  1.00  0.00     0.010 A 
ATOM     39  C   UNL A   1      40.389  29.641  29.362  1.00  0.00    -0.014 A 
BRANCH  39  40
ATOM     40  C   UNL A   1      41.748  29.214  28.934  1.00  0.00     0.031 A 
ATOM     41  C   UNL A   1      42.866  30.217  28.844  1.00  0.00     0.074 A 
ATOM     42  C   UNL A   1      41.958  27.936  28.560  1.00  0.00     0.049 A 
ATOM     43  N   UNL A   1      44.092  30.050  28.421  1.00  0.00    -0.248 NA
ATOM     44  C   UNL A   1      42.557  31.595  29.258  1.00  0.00     0.031 C 
ATOM     45  C   UNL A   1      40.944  26.879  28.554  1.00  0.00     0.029 A 
ATOM     46  N   UNL A   1      43.089  27.310  28.098  1.00  0.00    -0.354 N 
ATOM     47  C   UNL A   1      44.697  31.299  28.506  1.00  0.00     0.074 A 
ATOM     48  C   UNL A   1      43.687  32.225  28.972  1.00  0.00     0.031 C 
ATOM     49  C   UNL A   1      41.503  25.734  28.130  1.00  0.00     0.029 A 
ATOM     50  C   UNL A   1      42.902  25.981  27.795  1.00  0.00     0.049 A 
ATOM     51  H   UNL A   1      43.953  27.769  27.993  1.00  0.00     0.167 HD
ATOM     52  C   UNL A   1      45.982  31.640  28.241  1.00  0.00     0.037 A 
ATOM     53  C   UNL A   1      43.757  25.066  27.296  1.00  0.00     0.037 A 
ATOM     54  C   UNL A   1      46.990  30.709  27.800  1.00  0.00     0.049 A 
ATOM     55  C   UNL A   1      45.178  25.469  27.008  1.00  0.00     0.074 A 
ATOM     56  C   UNL A   1      48.332  30.946  27.560  1.00  0.00     0.029 A 
ATOM     57  N   UNL A   1      46.767  29.368  27.528  1.00  0.00    -0.354 N 
ATOM     58  N   UNL A   1      45.749  26.640  27.157  1.00  0.00    -0.248 NA
ATOM     59  C   UNL A   1      46.074  24.425  26.490  1.00  0.00     0.031 C 
ATOM     60  C   UNL A   1      48.912  29.758  27.103  1.00  0.00     0.029 A 
ATOM     61  C   UNL A   1      47.942  28.768  27.104  1.00  0.00     0.049 A 
ATOM     62  H   UNL A   1      45.900  28.909  27.621  1.00  0.00     0.167 HD
ATOM     63  C   UNL A   1      47.076  26.468  26.778  1.00  0.00     0.074 A 
ATOM     64  C   UNL A   1      47.225  25.076  26.404  1.00  0.00     0.031 C 
ATOM     65  C   UNL A   1      48.079  27.379  26.743  1.00  0.00     0.037 A 
BRANCH  52  66
ATOM     66  C   UNL A   1      46.375  33.080  28.429  1.00  0.00     0.058 A 
ATOM     67  C   UNL A   1      46.282  34.011  27.381  1.00  0.00     0.135 A 
ATOM     68  C   UNL A   1      46.814  33.545  29.679  1.00  0.00     0.135 A 
ATOM     69  F   UNL A   1      45.883  33.619  26.161  1.00  0.00    -0.206 F 
ATOM     70  C   UNL A   1      46.641  35.344  27.558  1.00  0.00     0.059 A 
ATOM     71  C   UNL A   1      47.150  34.880  29.886  1.00  0.00     0.059 A 
ATOM     72  F   UNL A   1      46.919  32.700  30.716  1.00  0.00    -0.206 F 
ATOM     73  C   UNL A   1      47.076  35.769  28.814  1.00  0.00     0.060 A 
BRANCH  73  74
ATOM     74  S   UNL A   1      47.535  37.502  29.025  1.00  0.00     0.124 S 
ATOM     75  O   UNL A   1      46.251  38.168  28.826  1.00  0.00    -0.237 OA
ATOM     76  O   UNL A   1      48.055  37.523  30.388  1.00  0.00    -0.237 OA
ATOM     77  O   UNL A   1      48.525  37.721  27.976  1.00  0.00    -0.744 OA
ENDBRANCH  73  74
ENDBRANCH  52  66
BRANCH  53  78
ATOM     78  C   UNL A   1      43.296  23.672  27.055  1.00  0.00     0.058 A 
ATOM     79  C   UNL A   1      42.934  23.245  25.769  1.00  0.00     0.135 A 
ATOM     80  C   UNL A   1      43.221  22.737  28.099  1.00  0.00     0.135 A 
ATOM     81  F   UNL A   1      42.982  24.103  24.739  1.00  0.00    -0.206 F 
ATOM     82  C   UNL A   1      42.495  21.947  25.528  1.00  0.00     0.059 A 
ATOM     83  C   UNL A   1      42.811  21.426  27.880  1.00  0.00     0.059 A 
ATOM     84  F   UNL A   1      43.574  23.091  29.346  1.00  0.00    -0.206 F 
ATOM     85  C   UNL A   1      42.440  21.043  26.591  1.00  0.00     0.060 A 
BRANCH  85  86
ATOM     86  S   UNL A   1      41.917  19.346  26.258  1.00  0.00     0.124 S 
ATOM     87  O   UNL A   1      42.300  18.673  27.493  1.00  0.00    -0.237 OA
ATOM     88  O   UNL A   1      40.484  19.505  26.034  1.00  0.00    -0.237 OA
ATOM     89  O   UNL A   1      42.691  18.985  25.073  1.00  0.00    -0.744 OA
ENDBRANCH  85  86
ENDBRANCH  53  78
BRANCH  65  90
ATOM     90  C   UNL A   1      49.440  26.897  26.323  1.00  0.00     0.058 A 
ATOM     91  C   UNL A   1      50.321  26.284  27.229  1.00  0.00     0.135 A 
ATOM     92  C   UNL A   1      49.848  27.002  24.983  1.00  0.00     0.135 A 
ATOM     93  F   UNL A   1      49.982  26.164  28.523  1.00  0.00    -0.206 F 
ATOM     94  C   UNL A   1      51.566  25.813  26.827  1.00  0.00     0.059 A 
ATOM     95  C   UNL A   1      51.078  26.513  24.552  1.00  0.00     0.059 A 
ATOM     96  F   UNL A   1      49.041  27.571  24.073  1.00  0.00    -0.206 F 
ATOM     97  C   UNL A   1      51.935  25.930  25.485  1.00  0.00     0.060 A 
BRANCH  97  98
ATOM     98  S   UNL A   1      53.539  25.282  24.968  1.00  0.00     0.124 S 
ATOM     99  O   UNL A   1      54.452  26.069  25.791  1.00  0.00    -0.237 OA
ATOM    100  O   UNL A   1      53.432  23.869  25.314  1.00  0.00    -0.237 OA
ATOM    101  O   UNL A   1      53.577  25.570  23.537  1.00  0.00    -0.744 OA
ENDBRANCH  97  98
ENDBRANCH  65  90
ENDBRANCH  39  40
ENDBRANCH  31  34
ENDBRANCH  29  30
ENDBRANCH  28  29
ENDBRANCH   1  28
TORSDOF 18
ENDMDL
MODEL 3
REMARK VINA RESULT:     -11.5      2.912      9.247
REMARK SMILES CCc1cc2c(-c3ccccc3)cc(=O)oc2cc1OCC(=O)NCCCCNC(=O)c1ccc(-c2c3nc(c(-c4c(F)cc(S(=O)(=O)[O-])cc4F)c4ccc([nH]4)c(-c4c(F)cc(S(=O)(=O)[O-])cc4F)c4nc(c(-c5c(F)cc(S(=O)(=O)[O-])cc5F)c5ccc2[nH]5)C=C4)C=C3)cc1
REMARK SMILES IDX 26 1 25 2 24 3 22 4 23 5 21 7 20 8 19 9 3 10 4 11 5 12 18 13
REMARK SMILES IDX 6 14 17 15 13 16 16 17 14 18 15 19 2 20 1 21 7 22 8 23 12 24
REMARK SMILES IDX 9 25 11 26 10 27 27 28 28 29 29 30 30 31 31 33 32 34 33 35
REMARK SMILES IDX 97 36 34 37 96 38 35 39 36 40 37 41 90 42 38 43 95 44 89 45
REMARK SMILES IDX 91 46 39 47 94 48 88 49 87 50 40 52 74 53 53 54 73 55 54 56
REMARK SMILES IDX 57 57 72 58 92 59 55 60 56 61 71 63 93 64 58 65 41 66 42 67
REMARK SMILES IDX 51 68 43 69 44 70 50 71 52 72 45 73 46 74 47 75 48 76 49 77
REMARK SMILES IDX 75 78 76 79 85 80 77 81 78 82 84 83 86 84 79 85 80 86 81 87
REMARK SMILES IDX 82 88 83 89 59 90 60 91 69 92 61 93 62 94 68 95 70 96 63 97
REMARK SMILES IDX 64 98 65 99 66 100 67 101
REMARK H PARENT 24 6 29 32 91 51 57 62
REMARK Flexibility Score: inf
ROOT
ATOM      1  C   UNL A   1      31.794  26.896  26.449  1.00  0.00     0.023 C 
ENDROOT
BRANCH   1   2
ATOM      2  C   UNL A   1      31.009  27.709  25.421  1.00  0.00     0.116 C 
BRANCH   2   3
ATOM      3  N   UNL A   1      29.880  26.978  24.883  1.00  0.00    -0.353 N 
ATOM      4  C   UNL A   1      29.656  26.591  23.592  1.00  0.00     0.257 C 
ATOM      5  O   UNL A   1      28.645  25.935  23.334  1.00  0.00    -0.271 OA
ATOM      6  H   UNL A   1      29.184  26.727  25.532  1.00  0.00     0.163 HD
BRANCH   4   7
ATOM      7  C   UNL A   1      30.683  26.927  22.506  1.00  0.00     0.329 C 
BRANCH   7   8
ATOM      8  O   UNL A   1      31.318  25.835  21.862  1.00  0.00    -0.483 OA
BRANCH   8   9
ATOM      9  C   UNL A   1      32.042  24.950  22.608  1.00  0.00     0.127 A 
ATOM     10  C   UNL A   1      33.349  25.334  22.958  1.00  0.00    -0.005 A 
ATOM     11  C   UNL A   1      34.151  24.416  23.675  1.00  0.00     0.020 A 
ATOM     12  C   UNL A   1      33.670  23.173  24.101  1.00  0.00     0.026 A 
ATOM     13  C   UNL A   1      31.555  23.705  23.027  1.00  0.00     0.094 A 
ATOM     14  C   UNL A   1      34.491  22.228  24.877  1.00  0.00    -0.000 A 
ATOM     15  C   UNL A   1      32.369  22.842  23.764  1.00  0.00     0.142 A 
ATOM     16  C   UNL A   1      33.929  21.057  25.217  1.00  0.00     0.103 A 
ATOM     17  O   UNL A   1      31.811  21.608  24.143  1.00  0.00    -0.423 OA
ATOM     18  C   UNL A   1      32.550  20.686  24.863  1.00  0.00     0.336 A 
ATOM     19  O   UNL A   1      32.085  19.608  25.220  1.00  0.00    -0.246 OA
BRANCH  10  20
ATOM     20  C   UNL A   1      34.038  26.642  22.610  1.00  0.00     0.036 C 
ATOM     21  C   UNL A   1      33.961  27.828  23.559  1.00  0.00     0.009 C 
ENDBRANCH  10  20
BRANCH  14  22
ATOM     22  C   UNL A   1      35.879  22.481  25.328  1.00  0.00    -0.017 A 
ATOM     23  C   UNL A   1      36.211  23.713  25.912  1.00  0.00     0.009 A 
ATOM     24  C   UNL A   1      36.893  21.540  25.103  1.00  0.00     0.009 A 
ATOM     25  C   UNL A   1      37.537  24.017  26.223  1.00  0.00     0.001 A 
ATOM     26  C   UNL A   1      38.217  21.840  25.430  1.00  0.00     0.001 A 
ATOM     27  C   UNL A   1      38.539  23.081  25.978  1.00  0.00     0.000 A 
ENDBRANCH  14  22
ENDBRANCH   8   9
ENDBRANCH   7   8
ENDBRANCH   4   7
ENDBRANCH   2   3
ENDBRANCH   1   2
BRANCH   1  28
ATOM     28  C   UNL A   1      32.414  27.710  27.587  1.00  0.00     0.023 C 
BRANCH  28  29
ATOM     29  C   UNL A   1      33.646  28.530  27.217  1.00  0.00     0.116 C 
BRANCH  29  30
ATOM     30  N   UNL A   1      33.556  29.919  27.640  1.00  0.00    -0.352 N 
ATOM     31  C   UNL A   1      34.510  30.701  28.247  1.00  0.00     0.251 C 
ATOM     32  H   UNL A   1      32.693  30.360  27.466  1.00  0.00     0.163 HD
ATOM     33  O   UNL A   1      34.213  31.825  28.644  1.00  0.00    -0.269 OA
BRANCH  31  34
ATOM     34  C   UNL A   1      35.878  30.176  28.455  1.00  0.00     0.039 A 
ATOM     35  C   UNL A   1      36.770  30.176  27.378  1.00  0.00     0.014 A 
ATOM     36  C   UNL A   1      36.289  29.699  29.703  1.00  0.00     0.014 A 
ATOM     37  C   UNL A   1      38.093  29.766  27.573  1.00  0.00     0.010 A 
ATOM     38  C   UNL A   1      37.625  29.359  29.911  1.00  0.00     0.010 A 
ATOM     39  C   UNL A   1      38.542  29.393  28.850  1.00  0.00    -0.014 A 
BRANCH  39  40
ATOM     40  C   UNL A   1      39.968  29.048  29.097  1.00  0.00     0.031 A 
ATOM     41  C   UNL A   1      40.915  30.081  29.644  1.00  0.00     0.074 A 
ATOM     42  C   UNL A   1      40.425  27.825  28.764  1.00  0.00     0.049 A 
ATOM     43  N   UNL A   1      42.203  29.992  29.854  1.00  0.00    -0.248 NA
ATOM     44  C   UNL A   1      40.344  31.397  29.974  1.00  0.00     0.031 C 
ATOM     45  C   UNL A   1      39.620  26.750  28.179  1.00  0.00     0.029 A 
ATOM     46  N   UNL A   1      41.683  27.281  28.854  1.00  0.00    -0.354 N 
ATOM     47  C   UNL A   1      42.599  31.238  30.327  1.00  0.00     0.074 A 
ATOM     48  C   UNL A   1      41.423  32.082  30.324  1.00  0.00     0.031 C 
ATOM     49  C   UNL A   1      40.396  25.674  27.981  1.00  0.00     0.029 A 
ATOM     50  C   UNL A   1      41.763  25.989  28.387  1.00  0.00     0.049 A 
ATOM     51  H   UNL A   1      42.455  27.770  29.219  1.00  0.00     0.167 HD
ATOM     52  C   UNL A   1      43.824  31.636  30.747  1.00  0.00     0.037 A 
ATOM     53  C   UNL A   1      42.817  25.156  28.287  1.00  0.00     0.037 A 
ATOM     54  C   UNL A   1      44.987  30.785  30.769  1.00  0.00     0.049 A 
ATOM     55  C   UNL A   1      44.169  25.622  28.757  1.00  0.00     0.074 A 
ATOM     56  C   UNL A   1      46.258  31.079  31.229  1.00  0.00     0.029 A 
ATOM     57  N   UNL A   1      45.021  29.477  30.310  1.00  0.00    -0.354 N 
ATOM     58  N   UNL A   1      44.510  26.783  29.262  1.00  0.00    -0.248 NA
ATOM     59  C   UNL A   1      45.278  24.664  28.649  1.00  0.00     0.031 C 
ATOM     60  C   UNL A   1      47.073  29.963  31.009  1.00  0.00     0.029 A 
ATOM     61  C   UNL A   1      46.297  28.956  30.457  1.00  0.00     0.049 A 
ATOM     62  H   UNL A   1      44.252  28.990  29.934  1.00  0.00     0.167 HD
ATOM     63  C   UNL A   1      45.866  26.686  29.558  1.00  0.00     0.074 A 
ATOM     64  C   UNL A   1      46.279  25.348  29.186  1.00  0.00     0.031 C 
ATOM     65  C   UNL A   1      46.692  27.619  30.090  1.00  0.00     0.037 A 
BRANCH  52  66
ATOM     66  C   UNL A   1      43.971  33.056  31.222  1.00  0.00     0.058 A 
ATOM     67  C   UNL A   1      44.330  34.093  30.346  1.00  0.00     0.135 A 
ATOM     68  C   UNL A   1      43.716  33.392  32.562  1.00  0.00     0.135 A 
ATOM     69  F   UNL A   1      44.600  33.828  29.058  1.00  0.00    -0.206 F 
ATOM     70  C   UNL A   1      44.460  35.407  30.787  1.00  0.00     0.059 A 
ATOM     71  C   UNL A   1      43.812  34.704  33.018  1.00  0.00     0.059 A 
ATOM     72  F   UNL A   1      43.367  32.441  33.443  1.00  0.00    -0.206 F 
ATOM     73  C   UNL A   1      44.200  35.702  32.126  1.00  0.00     0.060 A 
BRANCH  73  74
ATOM     74  S   UNL A   1      44.373  37.411  32.680  1.00  0.00     0.124 S 
ATOM     75  O   UNL A   1      43.360  37.479  33.730  1.00  0.00    -0.237 OA
ATOM     76  O   UNL A   1      45.759  37.455  33.133  1.00  0.00    -0.237 OA
ATOM     77  O   UNL A   1      44.084  38.188  31.479  1.00  0.00    -0.744 OA
ENDBRANCH  73  74
ENDBRANCH  52  66
BRANCH  53  78
ATOM     78  C   UNL A   1      42.633  23.787  27.735  1.00  0.00     0.058 A 
ATOM     79  C   UNL A   1      42.427  22.689  28.584  1.00  0.00     0.135 A 
ATOM     80  C   UNL A   1      42.648  23.549  26.352  1.00  0.00     0.135 A 
ATOM     81  F   UNL A   1      42.412  22.863  29.914  1.00  0.00    -0.206 F 
ATOM     82  C   UNL A   1      42.261  21.401  28.083  1.00  0.00     0.059 A 
ATOM     83  C   UNL A   1      42.458  22.275  25.826  1.00  0.00     0.059 A 
ATOM     84  F   UNL A   1      42.824  24.569  25.496  1.00  0.00    -0.206 F 
ATOM     85  C   UNL A   1      42.275  21.205  26.701  1.00  0.00     0.060 A 
BRANCH  85  86
ATOM     86  S   UNL A   1      42.007  19.538  26.061  1.00  0.00     0.124 S 
ATOM     87  O   UNL A   1      42.450  18.718  27.182  1.00  0.00    -0.237 OA
ATOM     88  O   UNL A   1      40.572  19.538  25.796  1.00  0.00    -0.237 OA
ATOM     89  O   UNL A   1      42.855  19.496  24.872  1.00  0.00    -0.744 OA
ENDBRANCH  85  86
ENDBRANCH  53  78
BRANCH  65  90
ATOM     90  C   UNL A   1      48.121  27.219  30.341  1.00  0.00     0.058 A 
ATOM     91  C   UNL A   1      49.135  27.471  29.403  1.00  0.00     0.135 A 
ATOM     92  C   UNL A   1      48.488  26.623  31.559  1.00  0.00     0.135 A 
ATOM     93  F   UNL A   1      48.836  28.032  28.221  1.00  0.00    -0.206 F 
ATOM     94  C   UNL A   1      50.458  27.125  29.654  1.00  0.00     0.059 A 
ATOM     95  C   UNL A   1      49.810  26.295  31.843  1.00  0.00     0.059 A 
ATOM     96  F   UNL A   1      47.559  26.370  32.495  1.00  0.00    -0.206 F 
ATOM     97  C   UNL A   1      50.787  26.539  30.879  1.00  0.00     0.060 A 
BRANCH  97  98
ATOM     98  S   UNL A   1      52.514  26.129  31.207  1.00  0.00     0.124 S 
ATOM     99  O   UNL A   1      52.388  24.832  31.863  1.00  0.00    -0.237 OA
ATOM    100  O   UNL A   1      53.091  26.108  29.867  1.00  0.00    -0.237 OA
ATOM    101  O   UNL A   1      52.967  27.223  32.061  1.00  0.00    -0.744 OA
ENDBRANCH  97  98
ENDBRANCH  65  90
ENDBRANCH  39  40
ENDBRANCH  31  34
ENDBRANCH  29  30
ENDBRANCH  28  29
ENDBRANCH   1  28
TORSDOF 18
ENDMDL
