MODEL 1
REMARK VINA RESULT:     -12.8      0.000      0.000
REMARK SMILES O=C(NCCCCNC(=O)c1ccc(-c2c3nc(c(-c4c(F)cc(S(=O)(=O)[O-])cc4F)c4ccc([nH]4)c(-c4c(F)cc(S(=O)(=O)[O-])cc4F)c4nc(c(-c5c(F)cc(S(=O)(=O)[O-])cc5F)c5ccc2[nH]5)C=C4)C=C3)cc1)C1=Cc2cc(Cl)c(Cl)c(Cl)c2O[C@@H]1C(F)(F)F
REMARK SMILES IDX 6 1 5 2 4 3 3 4 1 5 2 6 77 8 78 9 89 10 79 11 88 12 80 13
REMARK SMILES IDX 87 14 81 15 85 16 82 17 83 18 86 19 84 20 90 21 91 22 92 23
REMARK SMILES IDX 93 24 7 25 8 26 9 27 10 29 11 30 12 31 76 32 13 33 75 34
REMARK SMILES IDX 14 35 15 36 16 37 69 38 17 39 74 40 68 41 70 42 18 43 73 44
REMARK SMILES IDX 67 45 66 46 19 48 53 49 32 50 52 51 33 52 36 53 51 54 71 55
REMARK SMILES IDX 34 56 35 57 50 59 72 60 37 61 20 62 21 63 30 64 22 65 23 66
REMARK SMILES IDX 29 67 31 68 24 69 25 70 26 71 27 72 28 73 54 74 55 75 64 76
REMARK SMILES IDX 56 77 57 78 63 79 65 80 58 81 59 82 60 83 61 84 62 85 38 86
REMARK SMILES IDX 39 87 48 88 40 89 41 90 47 91 49 92 42 93 43 94 44 95 45 96
REMARK SMILES IDX 46 97
REMARK H PARENT 3 7 8 28 70 47 36 58
REMARK Flexibility Score: inf
ROOT
ATOM      1  C   UNL A   1      40.046  22.292  27.069  1.00  0.00     0.023 C 
ENDROOT
BRANCH   1   2
ATOM      2  C   UNL A   1      38.871  22.866  26.279  1.00  0.00     0.023 C 
BRANCH   2   3
ATOM      3  C   UNL A   1      37.907  21.826  25.708  1.00  0.00     0.116 C 
BRANCH   3   4
ATOM      4  N   UNL A   1      37.485  22.095  24.331  1.00  0.00    -0.352 N 
ATOM      5  O   UNL A   1      36.258  23.069  22.688  1.00  0.00    -0.270 OA
ATOM      6  C   UNL A   1      36.349  22.712  23.856  1.00  0.00     0.251 C 
ATOM      7  H   UNL A   1      38.111  21.787  23.637  1.00  0.00     0.163 HD
BRANCH   6   8
ATOM      8  C   UNL A   1      35.288  23.057  24.825  1.00  0.00     0.067 C 
ATOM      9  C   UNL A   1      35.279  24.248  25.439  1.00  0.00     0.025 C 
ATOM     10  C   UNL A   1      34.085  22.167  24.858  1.00  0.00     0.314 C 
ATOM     11  C   UNL A   1      33.982  24.929  25.254  1.00  0.00     0.020 A 
ATOM     12  O   UNL A   1      32.894  22.885  24.470  1.00  0.00    -0.474 OA
ATOM     13  C   UNL A   1      33.986  26.328  25.273  1.00  0.00     0.034 A 
ATOM     14  C   UNL A   1      32.897  24.252  24.656  1.00  0.00     0.148 A 
ATOM     15  C   UNL A   1      32.958  27.046  24.650  1.00  0.00     0.062 A 
ATOM     16  C   UNL A   1      31.846  24.976  24.062  1.00  0.00     0.103 A 
ATOM     17  Cl  UNL A   1      33.141  28.766  24.589  1.00  0.00    -0.083 Cl
ATOM     18  C   UNL A   1      31.887  26.379  24.035  1.00  0.00     0.082 A 
ATOM     19  Cl  UNL A   1      30.577  24.097  23.260  1.00  0.00    -0.079 Cl
ATOM     20  Cl  UNL A   1      30.665  27.281  23.194  1.00  0.00    -0.081 Cl
BRANCH  10  21
ATOM     21  C   UNL A   1      33.906  21.522  26.247  1.00  0.00     0.429 C 
ATOM     22  F   UNL A   1      35.089  21.421  26.900  1.00  0.00    -0.167 F 
ATOM     23  F   UNL A   1      33.079  22.243  27.039  1.00  0.00    -0.167 F 
ATOM     24  F   UNL A   1      33.390  20.271  26.169  1.00  0.00    -0.167 F 
ENDBRANCH  10  21
ENDBRANCH   6   8
ENDBRANCH   3   4
ENDBRANCH   2   3
ENDBRANCH   1   2
BRANCH   1  25
ATOM     25  C   UNL A   1      41.371  23.049  26.972  1.00  0.00     0.116 C 
BRANCH  25  26
ATOM     26  N   UNL A   1      41.431  24.043  25.908  1.00  0.00    -0.352 N 
ATOM     27  C   UNL A   1      41.463  25.418  26.022  1.00  0.00     0.251 C 
ATOM     28  H   UNL A   1      41.453  23.687  24.990  1.00  0.00     0.163 HD
ATOM     29  O   UNL A   1      41.467  26.121  25.014  1.00  0.00    -0.269 OA
BRANCH  27  30
ATOM     30  C   UNL A   1      41.418  26.036  27.364  1.00  0.00     0.039 A 
ATOM     31  C   UNL A   1      42.507  26.802  27.789  1.00  0.00     0.014 A 
ATOM     32  C   UNL A   1      40.265  25.952  28.149  1.00  0.00     0.014 A 
ATOM     33  C   UNL A   1      42.392  27.581  28.942  1.00  0.00     0.010 A 
ATOM     34  C   UNL A   1      40.124  26.792  29.251  1.00  0.00     0.010 A 
ATOM     35  C   UNL A   1      41.177  27.633  29.644  1.00  0.00    -0.014 A 
BRANCH  35  36
ATOM     36  C   UNL A   1      40.971  28.598  30.757  1.00  0.00     0.031 A 
ATOM     37  C   UNL A   1      41.816  28.515  31.999  1.00  0.00     0.074 A 
ATOM     38  C   UNL A   1      39.969  29.497  30.679  1.00  0.00     0.049 A 
ATOM     39  N   UNL A   1      41.745  29.228  33.093  1.00  0.00    -0.248 NA
ATOM     40  C   UNL A   1      42.854  27.474  32.025  1.00  0.00     0.031 C 
ATOM     41  C   UNL A   1      39.039  29.635  29.555  1.00  0.00     0.029 A 
ATOM     42  N   UNL A   1      39.558  30.462  31.564  1.00  0.00    -0.354 N 
ATOM     43  C   UNL A   1      42.716  28.713  33.943  1.00  0.00     0.074 A 
ATOM     44  C   UNL A   1      43.324  27.593  33.258  1.00  0.00     0.031 C 
ATOM     45  C   UNL A   1      38.194  30.649  29.802  1.00  0.00     0.029 A 
ATOM     46  C   UNL A   1      38.495  31.210  31.115  1.00  0.00     0.049 A 
ATOM     47  H   UNL A   1      39.985  30.607  32.440  1.00  0.00     0.167 HD
ATOM     48  C   UNL A   1      43.085  29.149  35.172  1.00  0.00     0.037 A 
ATOM     49  C   UNL A   1      37.839  32.236  31.693  1.00  0.00     0.037 A 
ATOM     50  C   UNL A   1      42.496  30.282  35.836  1.00  0.00     0.049 A 
ATOM     51  C   UNL A   1      38.276  32.711  33.050  1.00  0.00     0.074 A 
ATOM     52  C   UNL A   1      42.840  30.842  37.053  1.00  0.00     0.029 A 
ATOM     53  N   UNL A   1      41.437  31.027  35.338  1.00  0.00    -0.354 N 
ATOM     54  N   UNL A   1      39.243  32.256  33.811  1.00  0.00    -0.248 NA
ATOM     55  C   UNL A   1      37.536  33.842  33.628  1.00  0.00     0.031 C 
ATOM     56  C   UNL A   1      41.967  31.907  37.307  1.00  0.00     0.029 A 
ATOM     57  C   UNL A   1      41.105  32.033  36.230  1.00  0.00     0.049 A 
ATOM     58  H   UNL A   1      40.988  30.864  34.477  1.00  0.00     0.167 HD
ATOM     59  C   UNL A   1      39.247  33.061  34.944  1.00  0.00     0.074 A 
ATOM     60  C   UNL A   1      38.191  34.037  34.765  1.00  0.00     0.031 C 
ATOM     61  C   UNL A   1      40.054  33.000  36.032  1.00  0.00     0.037 A 
BRANCH  48  62
ATOM     62  C   UNL A   1      44.182  28.392  35.868  1.00  0.00     0.058 A 
ATOM     63  C   UNL A   1      45.536  28.708  35.665  1.00  0.00     0.135 A 
ATOM     64  C   UNL A   1      43.880  27.337  36.744  1.00  0.00     0.135 A 
ATOM     65  F   UNL A   1      45.881  29.698  34.827  1.00  0.00    -0.206 F 
ATOM     66  C   UNL A   1      46.552  27.975  36.270  1.00  0.00     0.059 A 
ATOM     67  C   UNL A   1      44.881  26.609  37.381  1.00  0.00     0.059 A 
ATOM     68  F   UNL A   1      42.604  26.994  36.976  1.00  0.00    -0.206 F 
ATOM     69  C   UNL A   1      46.215  26.922  37.120  1.00  0.00     0.060 A 
BRANCH  69  70
ATOM     70  S   UNL A   1      47.544  25.962  37.875  1.00  0.00     0.124 S 
ATOM     71  O   UNL A   1      48.724  26.683  37.408  1.00  0.00    -0.237 OA
ATOM     72  O   UNL A   1      47.250  26.084  39.299  1.00  0.00    -0.237 OA
ATOM     73  O   UNL A   1      47.360  24.628  37.313  1.00  0.00    -0.744 OA
ENDBRANCH  69  70
ENDBRANCH  48  62
BRANCH  49  74
ATOM     74  C   UNL A   1      36.729  32.912  30.969  1.00  0.00     0.058 A 
ATOM     75  C   UNL A   1      35.395  32.705  31.353  1.00  0.00     0.135 A 
ATOM     76  C   UNL A   1      36.972  33.785  29.899  1.00  0.00     0.135 A 
ATOM     77  F   UNL A   1      35.111  31.874  32.367  1.00  0.00    -0.206 F 
ATOM     78  C   UNL A   1      34.341  33.328  30.694  1.00  0.00     0.059 A 
ATOM     79  C   UNL A   1      35.936  34.437  29.237  1.00  0.00     0.059 A 
ATOM     80  F   UNL A   1      38.231  34.029  29.503  1.00  0.00    -0.206 F 
ATOM     81  C   UNL A   1      34.622  34.196  29.637  1.00  0.00     0.060 A 
BRANCH  81  82
ATOM     82  S   UNL A   1      33.250  35.044  28.823  1.00  0.00     0.124 S 
ATOM     83  O   UNL A   1      32.438  35.450  29.964  1.00  0.00    -0.237 OA
ATOM     84  O   UNL A   1      33.933  36.119  28.109  1.00  0.00    -0.237 OA
ATOM     85  O   UNL A   1      32.674  34.007  27.973  1.00  0.00    -0.744 OA
ENDBRANCH  81  82
ENDBRANCH  49  74
BRANCH  61  86
ATOM     86  C   UNL A   1      39.848  34.037  37.100  1.00  0.00     0.058 A 
ATOM     87  C   UNL A   1      39.053  33.781  38.229  1.00  0.00     0.135 A 
ATOM     88  C   UNL A   1      40.489  35.282  37.013  1.00  0.00     0.135 A 
ATOM     89  F   UNL A   1      38.412  32.609  38.354  1.00  0.00    -0.206 F 
ATOM     90  C   UNL A   1      38.887  34.736  39.227  1.00  0.00     0.059 A 
ATOM     91  C   UNL A   1      40.356  36.241  38.012  1.00  0.00     0.059 A 
ATOM     92  F   UNL A   1      41.267  35.570  35.958  1.00  0.00    -0.206 F 
ATOM     93  C   UNL A   1      39.543  35.963  39.110  1.00  0.00     0.060 A 
BRANCH  93  94
ATOM     94  S   UNL A   1      39.348  37.181  40.429  1.00  0.00     0.124 S 
ATOM     95  O   UNL A   1      40.733  37.569  40.676  1.00  0.00    -0.237 OA
ATOM     96  O   UNL A   1      38.509  38.195  39.798  1.00  0.00    -0.237 OA
ATOM     97  O   UNL A   1      38.707  36.422  41.499  1.00  0.00    -0.744 OA
ENDBRANCH  93  94
ENDBRANCH  61  86
ENDBRANCH  35  36
ENDBRANCH  27  30
ENDBRANCH  25  26
ENDBRANCH   1  25
TORSDOF 15
ENDMDL
MODEL 2
REMARK VINA RESULT:     -12.8      4.998     10.314
REMARK SMILES O=C(NCCCCNC(=O)c1ccc(-c2c3nc(c(-c4c(F)cc(S(=O)(=O)[O-])cc4F)c4ccc([nH]4)c(-c4c(F)cc(S(=O)(=O)[O-])cc4F)c4nc(c(-c5c(F)cc(S(=O)(=O)[O-])cc5F)c5ccc2[nH]5)C=C4)C=C3)cc1)C1=Cc2cc(Cl)c(Cl)c(Cl)c2O[C@@H]1C(F)(F)F
REMARK SMILES IDX 6 1 5 2 4 3 3 4 1 5 2 6 77 8 78 9 89 10 79 11 88 12 80 13
REMARK SMILES IDX 87 14 81 15 85 16 82 17 83 18 86 19 84 20 90 21 91 22 92 23
REMARK SMILES IDX 93 24 7 25 8 26 9 27 10 29 11 30 12 31 76 32 13 33 75 34
REMARK SMILES IDX 14 35 15 36 16 37 69 38 17 39 74 40 68 41 70 42 18 43 73 44
REMARK SMILES IDX 67 45 66 46 19 48 53 49 32 50 52 51 33 52 36 53 51 54 71 55
REMARK SMILES IDX 34 56 35 57 50 59 72 60 37 61 20 62 21 63 30 64 22 65 23 66
REMARK SMILES IDX 29 67 31 68 24 69 25 70 26 71 27 72 28 73 54 74 55 75 64 76
REMARK SMILES IDX 56 77 57 78 63 79 65 80 58 81 59 82 60 83 61 84 62 85 38 86
REMARK SMILES IDX 39 87 48 88 40 89 41 90 47 91 49 92 42 93 43 94 44 95 45 96
REMARK SMILES IDX 46 97
REMARK H PARENT 3 7 8 28 70 47 36 58
REMARK Flexibility Score: inf
ROOT
ATOM      1  C   UNL A   1      31.919  28.369  26.732  1.00  0.00     0.023 C 
ENDROOT
BRANCH   1   2
ATOM      2  C   UNL A   1      31.948  27.196  25.752  1.00  0.00     0.023 C 
BRANCH   2   3
ATOM      3  C   UNL A   1      30.805  26.193  25.911  1.00  0.00     0.116 C 
BRANCH   3   4
ATOM      4  N   UNL A   1      31.071  25.135  26.889  1.00  0.00    -0.352 N 
ATOM      5  O   UNL A   1      32.201  23.393  27.808  1.00  0.00    -0.270 OA
ATOM      6  C   UNL A   1      31.919  24.051  26.815  1.00  0.00     0.251 C 
ATOM      7  H   UNL A   1      30.565  25.209  27.730  1.00  0.00     0.163 HD
BRANCH   6   8
ATOM      8  C   UNL A   1      32.589  23.780  25.526  1.00  0.00     0.067 C 
ATOM      9  C   UNL A   1      33.845  24.193  25.305  1.00  0.00     0.025 C 
ATOM     10  C   UNL A   1      31.937  22.783  24.619  1.00  0.00     0.314 C 
ATOM     11  C   UNL A   1      34.703  23.069  24.877  1.00  0.00     0.020 A 
ATOM     12  O   UNL A   1      32.782  21.628  24.421  1.00  0.00    -0.474 OA
ATOM     13  C   UNL A   1      36.066  23.153  25.184  1.00  0.00     0.034 A 
ATOM     14  C   UNL A   1      34.139  21.808  24.587  1.00  0.00     0.148 A 
ATOM     15  C   UNL A   1      36.844  21.992  25.264  1.00  0.00     0.062 A 
ATOM     16  C   UNL A   1      34.933  20.646  24.632  1.00  0.00     0.103 A 
ATOM     17  Cl  UNL A   1      38.475  22.190  25.807  1.00  0.00    -0.083 Cl
ATOM     18  C   UNL A   1      36.286  20.733  24.997  1.00  0.00     0.082 A 
ATOM     19  Cl  UNL A   1      34.172  19.107  24.354  1.00  0.00    -0.079 Cl
ATOM     20  Cl  UNL A   1      37.242  19.296  25.182  1.00  0.00    -0.081 Cl
BRANCH  10  21
ATOM     21  C   UNL A   1      31.559  23.422  23.269  1.00  0.00     0.429 C 
ATOM     22  F   UNL A   1      32.133  22.763  22.233  1.00  0.00    -0.167 F 
ATOM     23  F   UNL A   1      30.222  23.403  23.055  1.00  0.00    -0.167 F 
ATOM     24  F   UNL A   1      31.956  24.715  23.183  1.00  0.00    -0.167 F 
ENDBRANCH  10  21
ENDBRANCH   6   8
ENDBRANCH   3   4
ENDBRANCH   2   3
ENDBRANCH   1   2
BRANCH   1  25
ATOM     25  C   UNL A   1      33.253  28.765  27.364  1.00  0.00     0.116 C 
BRANCH  25  26
ATOM     26  N   UNL A   1      33.336  30.154  27.798  1.00  0.00    -0.352 N 
ATOM     27  C   UNL A   1      34.433  30.835  28.285  1.00  0.00     0.251 C 
ATOM     28  H   UNL A   1      32.501  30.673  27.736  1.00  0.00     0.163 HD
ATOM     29  O   UNL A   1      34.322  32.002  28.654  1.00  0.00    -0.269 OA
BRANCH  27  30
ATOM     30  C   UNL A   1      35.722  30.125  28.426  1.00  0.00     0.039 A 
ATOM     31  C   UNL A   1      36.592  30.087  27.333  1.00  0.00     0.014 A 
ATOM     32  C   UNL A   1      36.117  29.601  29.660  1.00  0.00     0.014 A 
ATOM     33  C   UNL A   1      37.901  29.633  27.509  1.00  0.00     0.010 A 
ATOM     34  C   UNL A   1      37.444  29.227  29.853  1.00  0.00     0.010 A 
ATOM     35  C   UNL A   1      38.356  29.263  28.785  1.00  0.00    -0.014 A 
BRANCH  35  36
ATOM     36  C   UNL A   1      39.791  28.961  29.033  1.00  0.00     0.031 A 
ATOM     37  C   UNL A   1      40.696  30.009  29.620  1.00  0.00     0.074 A 
ATOM     38  C   UNL A   1      40.293  27.768  28.654  1.00  0.00     0.049 A 
ATOM     39  N   UNL A   1      41.982  29.951  29.853  1.00  0.00    -0.248 NA
ATOM     40  C   UNL A   1      40.081  31.301  29.959  1.00  0.00     0.031 C 
ATOM     41  C   UNL A   1      39.531  26.691  28.015  1.00  0.00     0.029 A 
ATOM     42  N   UNL A   1      41.565  27.260  28.744  1.00  0.00    -0.354 N 
ATOM     43  C   UNL A   1      42.332  31.200  30.350  1.00  0.00     0.074 A 
ATOM     44  C   UNL A   1      41.135  32.011  30.333  1.00  0.00     0.031 C 
ATOM     45  C   UNL A   1      40.341  25.640  27.807  1.00  0.00     0.029 A 
ATOM     46  C   UNL A   1      41.685  25.977  28.261  1.00  0.00     0.049 A 
ATOM     47  H   UNL A   1      42.321  27.766  29.120  1.00  0.00     0.167 HD
ATOM     48  C   UNL A   1      43.537  31.625  30.802  1.00  0.00     0.037 A 
ATOM     49  C   UNL A   1      42.757  25.163  28.196  1.00  0.00     0.037 A 
ATOM     50  C   UNL A   1      44.718  30.804  30.844  1.00  0.00     0.049 A 
ATOM     51  C   UNL A   1      44.079  25.651  28.719  1.00  0.00     0.074 A 
ATOM     52  C   UNL A   1      45.970  31.119  31.341  1.00  0.00     0.029 A 
ATOM     53  N   UNL A   1      44.794  29.503  30.367  1.00  0.00    -0.354 N 
ATOM     54  N   UNL A   1      44.377  26.814  29.250  1.00  0.00    -0.248 NA
ATOM     55  C   UNL A   1      45.212  24.718  28.637  1.00  0.00     0.031 C 
ATOM     56  C   UNL A   1      46.812  30.020  31.135  1.00  0.00     0.029 A 
ATOM     57  C   UNL A   1      46.074  29.007  30.544  1.00  0.00     0.049 A 
ATOM     58  H   UNL A   1      44.047  29.007  29.962  1.00  0.00     0.167 HD
ATOM     59  C   UNL A   1      45.722  26.742  29.591  1.00  0.00     0.074 A 
ATOM     60  C   UNL A   1      46.179  25.419  29.214  1.00  0.00     0.031 C 
ATOM     61  C   UNL A   1      46.508  27.685  30.168  1.00  0.00     0.037 A 
BRANCH  48  62
ATOM     62  C   UNL A   1      43.624  33.044  31.292  1.00  0.00     0.058 A 
ATOM     63  C   UNL A   1      44.063  34.085  30.457  1.00  0.00     0.135 A 
ATOM     64  C   UNL A   1      43.269  33.369  32.611  1.00  0.00     0.135 A 
ATOM     65  F   UNL A   1      44.429  33.827  29.192  1.00  0.00    -0.206 F 
ATOM     66  C   UNL A   1      44.192  35.388  30.926  1.00  0.00     0.059 A 
ATOM     67  C   UNL A   1      43.363  34.672  33.092  1.00  0.00     0.059 A 
ATOM     68  F   UNL A   1      42.840  32.414  33.451  1.00  0.00    -0.206 F 
ATOM     69  C   UNL A   1      43.847  35.671  32.247  1.00  0.00     0.060 A 
BRANCH  69  70
ATOM     70  S   UNL A   1      44.045  37.361  32.850  1.00  0.00     0.124 S 
ATOM     71  O   UNL A   1      45.407  37.323  33.374  1.00  0.00    -0.237 OA
ATOM     72  O   UNL A   1      43.855  38.151  31.639  1.00  0.00    -0.237 OA
ATOM     73  O   UNL A   1      42.991  37.489  33.851  1.00  0.00    -0.744 OA
ENDBRANCH  69  70
ENDBRANCH  48  62
BRANCH  49  74
ATOM     74  C   UNL A   1      42.613  23.785  27.656  1.00  0.00     0.058 A 
ATOM     75  C   UNL A   1      42.456  22.691  28.520  1.00  0.00     0.135 A 
ATOM     76  C   UNL A   1      42.613  23.531  26.276  1.00  0.00     0.135 A 
ATOM     77  F   UNL A   1      42.456  22.882  29.849  1.00  0.00    -0.206 F 
ATOM     78  C   UNL A   1      42.317  21.394  28.039  1.00  0.00     0.059 A 
ATOM     79  C   UNL A   1      42.454  22.245  25.769  1.00  0.00     0.059 A 
ATOM     80  F   UNL A   1      42.744  24.545  25.407  1.00  0.00    -0.206 F 
ATOM     81  C   UNL A   1      42.315  21.181  26.660  1.00  0.00     0.060 A 
BRANCH  81  82
ATOM     82  S   UNL A   1      42.077  19.499  26.042  1.00  0.00     0.124 S 
ATOM     83  O   UNL A   1      42.542  18.704  27.172  1.00  0.00    -0.237 OA
ATOM     84  O   UNL A   1      40.640  19.467  25.784  1.00  0.00    -0.237 OA
ATOM     85  O   UNL A   1      42.919  19.460  24.850  1.00  0.00    -0.744 OA
ENDBRANCH  81  82
ENDBRANCH  49  74
BRANCH  61  86
ATOM     86  C   UNL A   1      47.935  27.309  30.456  1.00  0.00     0.058 A 
ATOM     87  C   UNL A   1      48.284  26.565  31.594  1.00  0.00     0.135 A 
ATOM     88  C   UNL A   1      48.955  27.659  29.559  1.00  0.00     0.135 A 
ATOM     89  F   UNL A   1      47.345  26.213  32.487  1.00  0.00    -0.206 F 
ATOM     90  C   UNL A   1      49.603  26.198  31.842  1.00  0.00     0.059 A 
ATOM     91  C   UNL A   1      50.276  27.282  29.775  1.00  0.00     0.059 A 
ATOM     92  F   UNL A   1      48.671  28.362  28.452  1.00  0.00    -0.206 F 
ATOM     93  C   UNL A   1      50.592  26.561  30.926  1.00  0.00     0.060 A 
BRANCH  93  94
ATOM     94  S   UNL A   1      52.295  26.049  31.240  1.00  0.00     0.124 S 
ATOM     95  O   UNL A   1      52.838  25.993  29.887  1.00  0.00    -0.237 OA
ATOM     96  O   UNL A   1      52.798  27.131  32.080  1.00  0.00    -0.237 OA
ATOM     97  O   UNL A   1      52.144  24.761  31.911  1.00  0.00    -0.744 OA
ENDBRANCH  93  94
ENDBRANCH  61  86
ENDBRANCH  35  36
ENDBRANCH  27  30
ENDBRANCH  25  26
ENDBRANCH   1  25
TORSDOF 15
ENDMDL
MODEL 3
REMARK VINA RESULT:     -12.7      6.671     12.080
REMARK SMILES O=C(NCCCCNC(=O)c1ccc(-c2c3nc(c(-c4c(F)cc(S(=O)(=O)[O-])cc4F)c4ccc([nH]4)c(-c4c(F)cc(S(=O)(=O)[O-])cc4F)c4nc(c(-c5c(F)cc(S(=O)(=O)[O-])cc5F)c5ccc2[nH]5)C=C4)C=C3)cc1)C1=Cc2cc(Cl)c(Cl)c(Cl)c2O[C@@H]1C(F)(F)F
REMARK SMILES IDX 6 1 5 2 4 3 3 4 1 5 2 6 77 8 78 9 89 10 79 11 88 12 80 13
REMARK SMILES IDX 87 14 81 15 85 16 82 17 83 18 86 19 84 20 90 21 91 22 92 23
REMARK SMILES IDX 93 24 7 25 8 26 9 27 10 29 11 30 12 31 76 32 13 33 75 34
REMARK SMILES IDX 14 35 15 36 16 37 69 38 17 39 74 40 68 41 70 42 18 43 73 44
REMARK SMILES IDX 67 45 66 46 19 48 53 49 32 50 52 51 33 52 36 53 51 54 71 55
REMARK SMILES IDX 34 56 35 57 50 59 72 60 37 61 20 62 21 63 30 64 22 65 23 66
REMARK SMILES IDX 29 67 31 68 24 69 25 70 26 71 27 72 28 73 54 74 55 75 64 76
REMARK SMILES IDX 56 77 57 78 63 79 65 80 58 81 59 82 60 83 61 84 62 85 38 86
REMARK SMILES IDX 39 87 48 88 40 89 41 90 47 91 49 92 42 93 43 94 44 95 45 96
REMARK SMILES IDX 46 97
REMARK H PARENT 3 7 8 28 70 47 36 58
REMARK Flexibility Score: inf
ROOT
ATOM      1  C   UNL A   1      35.308  32.193  27.884  1.00  0.00     0.023 C 
ENDROOT
BRANCH   1   2
ATOM      2  C   UNL A   1      33.915  31.566  27.885  1.00  0.00     0.023 C 
BRANCH   2   3
ATOM      3  C   UNL A   1      33.823  30.196  27.213  1.00  0.00     0.116 C 
BRANCH   3   4
ATOM      4  N   UNL A   1      32.649  29.414  27.609  1.00  0.00    -0.352 N 
ATOM      5  O   UNL A   1      31.294  27.594  27.681  1.00  0.00    -0.270 OA
ATOM      6  C   UNL A   1      32.146  28.242  27.087  1.00  0.00     0.251 C 
ATOM      7  H   UNL A   1      32.139  29.784  28.365  1.00  0.00     0.163 HD
BRANCH   6   8
ATOM      8  C   UNL A   1      32.759  27.713  25.851  1.00  0.00     0.067 C 
ATOM      9  C   UNL A   1      33.886  26.990  25.899  1.00  0.00     0.025 C 
ATOM     10  C   UNL A   1      31.923  27.751  24.610  1.00  0.00     0.314 C 
ATOM     11  C   UNL A   1      33.714  25.694  25.211  1.00  0.00     0.020 A 
ATOM     12  O   UNL A   1      31.647  26.419  24.126  1.00  0.00    -0.474 OA
ATOM     13  C   UNL A   1      34.498  24.624  25.656  1.00  0.00     0.034 A 
ATOM     14  C   UNL A   1      32.542  25.428  24.471  1.00  0.00     0.148 A 
ATOM     15  C   UNL A   1      34.089  23.305  25.425  1.00  0.00     0.062 A 
ATOM     16  C   UNL A   1      32.153  24.101  24.208  1.00  0.00     0.103 A 
ATOM     17  Cl  UNL A   1      35.042  22.060  26.157  1.00  0.00    -0.083 Cl
ATOM     18  C   UNL A   1      32.914  23.032  24.708  1.00  0.00     0.082 A 
ATOM     19  Cl  UNL A   1      30.654  23.822  23.369  1.00  0.00    -0.079 Cl
ATOM     20  Cl  UNL A   1      32.376  21.395  24.504  1.00  0.00    -0.081 Cl
BRANCH  10  21
ATOM     21  C   UNL A   1      32.592  28.603  23.513  1.00  0.00     0.429 C 
ATOM     22  F   UNL A   1      33.282  29.639  24.047  1.00  0.00    -0.167 F 
ATOM     23  F   UNL A   1      33.470  27.884  22.776  1.00  0.00    -0.167 F 
ATOM     24  F   UNL A   1      31.689  29.132  22.652  1.00  0.00    -0.167 F 
ENDBRANCH  10  21
ENDBRANCH   6   8
ENDBRANCH   3   4
ENDBRANCH   2   3
ENDBRANCH   1   2
BRANCH   1  25
ATOM     25  C   UNL A   1      35.991  32.343  29.244  1.00  0.00     0.116 C 
BRANCH  25  26
ATOM     26  N   UNL A   1      35.739  31.254  30.178  1.00  0.00    -0.352 N 
ATOM     27  C   UNL A   1      36.609  30.268  30.598  1.00  0.00     0.251 C 
ATOM     28  H   UNL A   1      34.832  31.217  30.560  1.00  0.00     0.163 HD
ATOM     29  O   UNL A   1      36.222  29.388  31.363  1.00  0.00    -0.269 OA
BRANCH  27  30
ATOM     30  C   UNL A   1      37.987  30.241  30.062  1.00  0.00     0.039 A 
ATOM     31  C   UNL A   1      39.057  30.370  30.951  1.00  0.00     0.014 A 
ATOM     32  C   UNL A   1      38.221  29.976  28.710  1.00  0.00     0.014 A 
ATOM     33  C   UNL A   1      40.356  30.114  30.507  1.00  0.00     0.010 A 
ATOM     34  C   UNL A   1      39.505  29.642  28.289  1.00  0.00     0.010 A 
ATOM     35  C   UNL A   1      40.582  29.683  29.189  1.00  0.00    -0.014 A 
BRANCH  35  36
ATOM     36  C   UNL A   1      41.926  29.221  28.750  1.00  0.00     0.031 A 
ATOM     37  C   UNL A   1      43.072  30.191  28.668  1.00  0.00     0.074 A 
ATOM     38  C   UNL A   1      42.090  27.944  28.349  1.00  0.00     0.049 A 
ATOM     39  N   UNL A   1      44.296  29.988  28.254  1.00  0.00    -0.248 NA
ATOM     40  C   UNL A   1      42.797  31.578  29.076  1.00  0.00     0.031 C 
ATOM     41  C   UNL A   1      41.040  26.923  28.320  1.00  0.00     0.029 A 
ATOM     42  N   UNL A   1      43.200  27.285  27.881  1.00  0.00    -0.354 N 
ATOM     43  C   UNL A   1      44.931  31.221  28.335  1.00  0.00     0.074 A 
ATOM     44  C   UNL A   1      43.943  32.176  28.786  1.00  0.00     0.031 C 
ATOM     45  C   UNL A   1      41.565  25.761  27.897  1.00  0.00     0.029 A 
ATOM     46  C   UNL A   1      42.976  25.960  27.589  1.00  0.00     0.049 A 
ATOM     47  H   UNL A   1      44.076  27.721  27.767  1.00  0.00     0.167 HD
ATOM     48  C   UNL A   1      46.227  31.525  28.081  1.00  0.00     0.037 A 
ATOM     49  C   UNL A   1      43.815  25.011  27.128  1.00  0.00     0.037 A 
ATOM     50  C   UNL A   1      47.214  30.565  27.661  1.00  0.00     0.049 A 
ATOM     51  C   UNL A   1      45.252  25.369  26.868  1.00  0.00     0.074 A 
ATOM     52  C   UNL A   1      48.565  30.759  27.438  1.00  0.00     0.029 A 
ATOM     53  N   UNL A   1      46.953  29.228  27.397  1.00  0.00    -0.354 N 
ATOM     54  N   UNL A   1      45.853  26.526  27.017  1.00  0.00    -0.248 NA
ATOM     55  C   UNL A   1      46.127  24.294  26.381  1.00  0.00     0.031 C 
ATOM     56  C   UNL A   1      49.116  29.546  27.007  1.00  0.00     0.029 A 
ATOM     57  C   UNL A   1      48.115  28.589  26.999  1.00  0.00     0.049 A 
ATOM     58  H   UNL A   1      46.071  28.798  27.481  1.00  0.00     0.167 HD
ATOM     59  C   UNL A   1      47.181  26.311  26.669  1.00  0.00     0.074 A 
ATOM     60  C   UNL A   1      47.298  24.912  26.310  1.00  0.00     0.031 C 
ATOM     61  C   UNL A   1      48.212  27.193  26.652  1.00  0.00     0.037 A 
BRANCH  48  62
ATOM     62  C   UNL A   1      46.643  32.959  28.260  1.00  0.00     0.058 A 
ATOM     63  C   UNL A   1      47.148  33.432  29.483  1.00  0.00     0.135 A 
ATOM     64  C   UNL A   1      46.534  33.874  27.200  1.00  0.00     0.135 A 
ATOM     65  F   UNL A   1      47.260  32.603  30.533  1.00  0.00    -0.206 F 
ATOM     66  C   UNL A   1      47.485  34.769  29.663  1.00  0.00     0.059 A 
ATOM     67  C   UNL A   1      46.893  35.211  27.350  1.00  0.00     0.059 A 
ATOM     68  F   UNL A   1      46.061  33.476  26.009  1.00  0.00    -0.206 F 
ATOM     69  C   UNL A   1      47.346  35.653  28.593  1.00  0.00     0.060 A 
BRANCH  69  70
ATOM     70  S   UNL A   1      47.761  37.391  28.848  1.00  0.00     0.124 S 
ATOM     71  O   UNL A   1      46.453  38.024  28.708  1.00  0.00    -0.237 OA
ATOM     72  O   UNL A   1      48.321  37.387  30.195  1.00  0.00    -0.237 OA
ATOM     73  O   UNL A   1      48.713  37.673  27.777  1.00  0.00    -0.744 OA
ENDBRANCH  69  70
ENDBRANCH  48  62
BRANCH  49  74
ATOM     74  C   UNL A   1      43.328  23.620  26.927  1.00  0.00     0.058 A 
ATOM     75  C   UNL A   1      43.121  23.116  25.635  1.00  0.00     0.135 A 
ATOM     76  C   UNL A   1      43.074  22.766  28.010  1.00  0.00     0.135 A 
ATOM     77  F   UNL A   1      43.344  23.896  24.567  1.00  0.00    -0.206 F 
ATOM     78  C   UNL A   1      42.669  21.817  25.422  1.00  0.00     0.059 A 
ATOM     79  C   UNL A   1      42.641  21.457  27.823  1.00  0.00     0.059 A 
ATOM     80  F   UNL A   1      43.272  23.196  29.266  1.00  0.00    -0.206 F 
ATOM     81  C   UNL A   1      42.434  20.994  26.524  1.00  0.00     0.060 A 
BRANCH  81  82
ATOM     82  S   UNL A   1      41.900  19.291  26.236  1.00  0.00     0.124 S 
ATOM     83  O   UNL A   1      40.463  19.461  26.061  1.00  0.00    -0.237 OA
ATOM     84  O   UNL A   1      42.653  18.932  25.038  1.00  0.00    -0.237 OA
ATOM     85  O   UNL A   1      42.313  18.602  27.455  1.00  0.00    -0.744 OA
ENDBRANCH  81  82
ENDBRANCH  49  74
BRANCH  61  86
ATOM     86  C   UNL A   1      49.564  26.662  26.262  1.00  0.00     0.058 A 
ATOM     87  C   UNL A   1      50.066  26.817  24.961  1.00  0.00     0.135 A 
ATOM     88  C   UNL A   1      50.381  26.033  27.214  1.00  0.00     0.135 A 
ATOM     89  F   UNL A   1      49.320  27.404  24.012  1.00  0.00    -0.206 F 
ATOM     90  C   UNL A   1      51.329  26.347  24.612  1.00  0.00     0.059 A 
ATOM     91  C   UNL A   1      51.655  25.578  26.893  1.00  0.00     0.059 A 
ATOM     92  F   UNL A   1      49.949  25.870  28.474  1.00  0.00    -0.206 F 
ATOM     93  C   UNL A   1      52.116  25.729  25.585  1.00  0.00     0.060 A 
BRANCH  93  94
ATOM     94  S   UNL A   1      53.766  25.154  25.131  1.00  0.00     0.124 S 
ATOM     95  O   UNL A   1      53.944  25.776  23.823  1.00  0.00    -0.237 OA
ATOM     96  O   UNL A   1      54.593  25.693  26.206  1.00  0.00    -0.237 OA
ATOM     97  O   UNL A   1      53.629  23.701  25.123  1.00  0.00    -0.744 OA
ENDBRANCH  93  94
ENDBRANCH  61  86
ENDBRANCH  35  36
ENDBRANCH  27  30
ENDBRANCH  25  26
ENDBRANCH   1  25
TORSDOF 15
ENDMDL
