MODEL 1
REMARK VINA RESULT:     -10.8      0.000      0.000
REMARK SMILES C[C@](NC(=O)CSCc1cccs1)(C(=O)NCCCCNC(=O)c1ccc(-c2c3nc(c(-c4c(F)cc(S(=O)(=O)[O-])cc4F)c4ccc([nH]4)c(-c4c(F)cc(S(=O)(=O)[O-])cc4F)c4nc(c(-c5c(F)cc(S(=O)(=O)[O-])cc5F)c5ccc2[nH]5)C=C4)C=C3)cc1)C(F)(F)F
REMARK SMILES IDX 17 1 16 2 14 3 15 4 2 6 1 7 90 8 91 9 92 10 93 11 3 12 4 13
REMARK SMILES IDX 5 15 6 16 7 17 8 18 9 19 10 20 13 21 11 22 12 23 18 24 19 25
REMARK SMILES IDX 20 26 21 27 22 28 23 30 24 31 25 32 89 33 26 34 88 35 27 36
REMARK SMILES IDX 28 37 29 38 82 39 30 40 87 41 81 42 83 43 31 44 86 45 80 46
REMARK SMILES IDX 79 47 32 49 66 50 45 51 65 52 46 53 49 54 64 55 84 56 47 57
REMARK SMILES IDX 48 58 63 60 85 61 50 62 33 63 34 64 43 65 35 66 36 67 42 68
REMARK SMILES IDX 44 69 37 70 38 71 39 72 40 73 41 74 67 75 68 76 77 77 69 78
REMARK SMILES IDX 70 79 76 80 78 81 71 82 72 83 73 84 74 85 75 86 51 87 52 88
REMARK SMILES IDX 61 89 53 90 54 91 60 92 62 93 55 94 56 95 57 96 58 97 59 98
REMARK H PARENT 16 5 3 14 21 29 83 48 49 59
REMARK Flexibility Score: inf
ROOT
ATOM      1  C   UNL A   1      32.852  29.679  26.208  1.00  0.00     0.116 C 
ENDROOT
BRANCH   1   2
ATOM      2  N   UNL A   1      33.353  29.699  24.842  1.00  0.00    -0.354 N 
ATOM      3  C   UNL A   1      33.183  28.900  23.754  1.00  0.00     0.254 C 
ATOM      4  O   UNL A   1      33.680  29.343  22.717  1.00  0.00    -0.272 OA
ATOM      5  H   UNL A   1      33.949  30.463  24.665  1.00  0.00     0.163 HD
BRANCH   3   6
ATOM      6  C   UNL A   1      32.305  27.629  23.790  1.00  0.00     0.212 C 
ATOM      7  C   UNL A   1      32.515  27.006  25.186  1.00  0.00     0.056 C 
BRANCH   6   8
ATOM      8  C   UNL A   1      30.864  28.162  23.595  1.00  0.00     0.420 C 
ATOM      9  F   UNL A   1      30.008  27.646  24.510  1.00  0.00    -0.168 F 
ATOM     10  F   UNL A   1      30.787  29.504  23.744  1.00  0.00    -0.168 F 
ATOM     11  F   UNL A   1      30.376  27.911  22.358  1.00  0.00    -0.168 F 
ENDBRANCH   6   8
BRANCH   6  12
ATOM     12  N   UNL A   1      32.810  26.705  22.714  1.00  0.00    -0.334 N 
ATOM     13  C   UNL A   1      32.531  25.425  22.353  1.00  0.00     0.231 C 
ATOM     14  H   UNL A   1      33.495  27.123  22.143  1.00  0.00     0.164 HD
ATOM     15  O   UNL A   1      33.347  24.882  21.601  1.00  0.00    -0.274 OA
BRANCH  13  16
ATOM     16  C   UNL A   1      31.261  24.695  22.743  1.00  0.00     0.169 C 
BRANCH  16  17
ATOM     17  S   UNL A   1      31.475  23.436  24.027  1.00  0.00    -0.146 SA
BRANCH  17  18
ATOM     18  C   UNL A   1      31.925  21.990  23.019  1.00  0.00     0.116 C 
BRANCH  18  19
ATOM     19  C   UNL A   1      32.858  21.143  23.818  1.00  0.00     0.014 A 
ATOM     20  C   UNL A   1      32.815  19.773  23.996  1.00  0.00     0.016 A 
ATOM     21  S   UNL A   1      34.224  21.837  24.582  1.00  0.00    -0.148 S 
ATOM     22  C   UNL A   1      33.976  19.283  24.658  1.00  0.00     0.012 A 
ATOM     23  C   UNL A   1      34.840  20.299  25.001  1.00  0.00     0.065 A 
ENDBRANCH  18  19
ENDBRANCH  17  18
ENDBRANCH  16  17
ENDBRANCH  13  16
ENDBRANCH   6  12
ENDBRANCH   3   6
ENDBRANCH   1   2
BRANCH   1  24
ATOM     24  C   UNL A   1      34.008  29.836  27.198  1.00  0.00     0.023 C 
BRANCH  24  25
ATOM     25  C   UNL A   1      34.192  31.257  27.749  1.00  0.00     0.023 C 
BRANCH  25  26
ATOM     26  C   UNL A   1      35.551  31.528  28.386  1.00  0.00     0.116 C 
BRANCH  26  27
ATOM     27  N   UNL A   1      35.468  31.588  29.835  1.00  0.00    -0.352 N 
ATOM     28  C   UNL A   1      36.321  31.048  30.770  1.00  0.00     0.251 C 
ATOM     29  H   UNL A   1      34.697  32.082  30.197  1.00  0.00     0.163 HD
ATOM     30  O   UNL A   1      35.994  31.012  31.948  1.00  0.00    -0.269 OA
BRANCH  28  31
ATOM     31  C   UNL A   1      37.622  30.492  30.333  1.00  0.00     0.039 A 
ATOM     32  C   UNL A   1      37.874  30.354  28.967  1.00  0.00     0.014 A 
ATOM     33  C   UNL A   1      38.591  30.123  31.271  1.00  0.00     0.014 A 
ATOM     34  C   UNL A   1      39.125  29.902  28.539  1.00  0.00     0.010 A 
ATOM     35  C   UNL A   1      39.860  29.746  30.840  1.00  0.00     0.010 A 
ATOM     36  C   UNL A   1      40.141  29.629  29.471  1.00  0.00    -0.014 A 
BRANCH  36  37
ATOM     37  C   UNL A   1      41.502  29.224  29.030  1.00  0.00     0.031 A 
ATOM     38  C   UNL A   1      42.605  30.244  28.942  1.00  0.00     0.074 A 
ATOM     39  C   UNL A   1      41.729  27.949  28.652  1.00  0.00     0.049 A 
ATOM     40  N   UNL A   1      43.834  30.097  28.519  1.00  0.00    -0.248 NA
ATOM     41  C   UNL A   1      42.276  31.616  29.360  1.00  0.00     0.031 C 
ATOM     42  C   UNL A   1      40.729  26.879  28.645  1.00  0.00     0.029 A 
ATOM     43  N   UNL A   1      42.869  27.339  28.190  1.00  0.00    -0.354 N 
ATOM     44  C   UNL A   1      44.421  31.354  28.612  1.00  0.00     0.074 A 
ATOM     45  C   UNL A   1      43.396  32.265  29.074  1.00  0.00     0.031 C 
ATOM     46  C   UNL A   1      41.304  25.743  28.219  1.00  0.00     0.029 A 
ATOM     47  C   UNL A   1      42.700  26.009  27.884  1.00  0.00     0.049 A 
ATOM     48  H   UNL A   1      43.727  27.810  28.087  1.00  0.00     0.167 HD
ATOM     49  C   UNL A   1      45.704  31.712  28.361  1.00  0.00     0.037 A 
ATOM     50  C   UNL A   1      43.565  25.108  27.380  1.00  0.00     0.037 A 
ATOM     51  C   UNL A   1      46.723  30.797  27.917  1.00  0.00     0.049 A 
ATOM     52  C   UNL A   1      44.982  25.532  27.098  1.00  0.00     0.074 A 
ATOM     53  C   UNL A   1      48.062  31.051  27.680  1.00  0.00     0.029 A 
ATOM     54  N   UNL A   1      46.517  29.454  27.637  1.00  0.00    -0.354 N 
ATOM     55  N   UNL A   1      45.536  26.711  27.252  1.00  0.00    -0.248 NA
ATOM     56  C   UNL A   1      45.895  24.503  26.582  1.00  0.00     0.031 C 
ATOM     57  C   UNL A   1      48.655  29.875  27.211  1.00  0.00     0.029 A 
ATOM     58  C   UNL A   1      47.699  28.872  27.211  1.00  0.00     0.049 A 
ATOM     59  H   UNL A   1      45.657  28.983  27.729  1.00  0.00     0.167 HD
ATOM     60  C   UNL A   1      46.867  26.558  26.878  1.00  0.00     0.074 A 
ATOM     61  C   UNL A   1      47.038  25.170  26.504  1.00  0.00     0.031 C 
ATOM     62  C   UNL A   1      47.858  27.484  26.848  1.00  0.00     0.037 A 
BRANCH  49  63
ATOM     63  C   UNL A   1      46.078  33.155  28.567  1.00  0.00     0.058 A 
ATOM     64  C   UNL A   1      45.986  34.097  27.528  1.00  0.00     0.135 A 
ATOM     65  C   UNL A   1      46.497  33.614  29.827  1.00  0.00     0.135 A 
ATOM     66  F   UNL A   1      45.604  33.713  26.299  1.00  0.00    -0.206 F 
ATOM     67  C   UNL A   1      46.328  35.431  27.721  1.00  0.00     0.059 A 
ATOM     68  C   UNL A   1      46.814  34.951  30.051  1.00  0.00     0.059 A 
ATOM     69  F   UNL A   1      46.602  32.760  30.857  1.00  0.00    -0.206 F 
ATOM     70  C   UNL A   1      46.740  35.850  28.988  1.00  0.00     0.060 A 
BRANCH  70  71
ATOM     71  S   UNL A   1      47.175  37.586  29.219  1.00  0.00     0.124 S 
ATOM     72  O   UNL A   1      46.396  38.224  28.163  1.00  0.00    -0.237 OA
ATOM     73  O   UNL A   1      46.723  37.841  30.582  1.00  0.00    -0.237 OA
ATOM     74  O   UNL A   1      48.622  37.602  29.027  1.00  0.00    -0.744 OA
ENDBRANCH  70  71
ENDBRANCH  49  63
BRANCH  50  75
ATOM     75  C   UNL A   1      43.119  23.711  27.122  1.00  0.00     0.058 A 
ATOM     76  C   UNL A   1      42.930  22.805  28.176  1.00  0.00     0.135 A 
ATOM     77  C   UNL A   1      42.860  23.260  25.819  1.00  0.00     0.135 A 
ATOM     78  F   UNL A   1      43.170  23.186  29.440  1.00  0.00    -0.206 F 
ATOM     79  C   UNL A   1      42.520  21.496  27.947  1.00  0.00     0.059 A 
ATOM     80  C   UNL A   1      42.421  21.965  25.567  1.00  0.00     0.059 A 
ATOM     81  F   UNL A   1      43.008  24.092  24.776  1.00  0.00    -0.206 F 
ATOM     82  C   UNL A   1      42.263  21.085  26.637  1.00  0.00     0.060 A 
BRANCH  82  83
ATOM     83  S   UNL A   1      41.684  19.399  26.356  1.00  0.00     0.124 S 
ATOM     84  O   UNL A   1      42.216  18.706  27.524  1.00  0.00    -0.237 OA
ATOM     85  O   UNL A   1      40.236  19.574  26.322  1.00  0.00    -0.237 OA
ATOM     86  O   UNL A   1      42.296  19.043  25.078  1.00  0.00    -0.744 OA
ENDBRANCH  82  83
ENDBRANCH  50  75
BRANCH  62  87
ATOM     87  C   UNL A   1      49.228  27.023  26.433  1.00  0.00     0.058 A 
ATOM     88  C   UNL A   1      50.112  26.415  27.339  1.00  0.00     0.135 A 
ATOM     89  C   UNL A   1      49.641  27.142  25.096  1.00  0.00     0.135 A 
ATOM     90  F   UNL A   1      49.771  26.282  28.630  1.00  0.00    -0.206 F 
ATOM     91  C   UNL A   1      51.366  25.964  26.938  1.00  0.00     0.059 A 
ATOM     92  C   UNL A   1      50.877  26.670  24.666  1.00  0.00     0.059 A 
ATOM     93  F   UNL A   1      48.831  27.706  24.185  1.00  0.00    -0.206 F 
ATOM     94  C   UNL A   1      51.738  26.092  25.599  1.00  0.00     0.060 A 
BRANCH  94  95
ATOM     95  S   UNL A   1      53.354  25.470  25.087  1.00  0.00     0.124 S 
ATOM     96  O   UNL A   1      54.254  26.305  25.874  1.00  0.00    -0.237 OA
ATOM     97  O   UNL A   1      53.285  24.065  25.479  1.00  0.00    -0.237 OA
ATOM     98  O   UNL A   1      53.371  25.711  23.647  1.00  0.00    -0.744 OA
ENDBRANCH  94  95
ENDBRANCH  62  87
ENDBRANCH  36  37
ENDBRANCH  28  31
ENDBRANCH  26  27
ENDBRANCH  25  26
ENDBRANCH  24  25
ENDBRANCH   1  24
TORSDOF 20
ENDMDL
MODEL 2
REMARK VINA RESULT:     -10.7      1.091      2.162
REMARK SMILES C[C@](NC(=O)CSCc1cccs1)(C(=O)NCCCCNC(=O)c1ccc(-c2c3nc(c(-c4c(F)cc(S(=O)(=O)[O-])cc4F)c4ccc([nH]4)c(-c4c(F)cc(S(=O)(=O)[O-])cc4F)c4nc(c(-c5c(F)cc(S(=O)(=O)[O-])cc5F)c5ccc2[nH]5)C=C4)C=C3)cc1)C(F)(F)F
REMARK SMILES IDX 17 1 16 2 14 3 15 4 2 6 1 7 90 8 91 9 92 10 93 11 3 12 4 13
REMARK SMILES IDX 5 15 6 16 7 17 8 18 9 19 10 20 13 21 11 22 12 23 18 24 19 25
REMARK SMILES IDX 20 26 21 27 22 28 23 30 24 31 25 32 89 33 26 34 88 35 27 36
REMARK SMILES IDX 28 37 29 38 82 39 30 40 87 41 81 42 83 43 31 44 86 45 80 46
REMARK SMILES IDX 79 47 32 49 66 50 45 51 65 52 46 53 49 54 64 55 84 56 47 57
REMARK SMILES IDX 48 58 63 60 85 61 50 62 33 63 34 64 43 65 35 66 36 67 42 68
REMARK SMILES IDX 44 69 37 70 38 71 39 72 40 73 41 74 67 75 68 76 77 77 69 78
REMARK SMILES IDX 70 79 76 80 78 81 71 82 72 83 73 84 74 85 75 86 51 87 52 88
REMARK SMILES IDX 61 89 53 90 54 91 60 92 62 93 55 94 56 95 57 96 58 97 59 98
REMARK H PARENT 16 5 3 14 21 29 83 48 49 59
REMARK Flexibility Score: inf
ROOT
ATOM      1  C   UNL A   1      33.252  28.671  25.764  1.00  0.00     0.116 C 
ENDROOT
BRANCH   1   2
ATOM      2  N   UNL A   1      33.574  28.459  24.361  1.00  0.00    -0.354 N 
ATOM      3  C   UNL A   1      33.527  27.387  23.525  1.00  0.00     0.254 C 
ATOM      4  O   UNL A   1      33.758  27.655  22.344  1.00  0.00    -0.272 OA
ATOM      5  H   UNL A   1      33.900  29.275  23.916  1.00  0.00     0.163 HD
BRANCH   3   6
ATOM      6  C   UNL A   1      33.065  25.989  23.996  1.00  0.00     0.212 C 
ATOM      7  C   UNL A   1      33.405  25.913  25.499  1.00  0.00     0.056 C 
BRANCH   6   8
ATOM      8  C   UNL A   1      31.537  25.992  23.738  1.00  0.00     0.420 C 
ATOM      9  F   UNL A   1      31.235  25.535  22.499  1.00  0.00    -0.168 F 
ATOM     10  F   UNL A   1      30.870  25.186  24.595  1.00  0.00    -0.168 F 
ATOM     11  F   UNL A   1      30.984  27.217  23.894  1.00  0.00    -0.168 F 
ENDBRANCH   6   8
BRANCH   6  12
ATOM     12  N   UNL A   1      33.856  24.971  23.219  1.00  0.00    -0.334 N 
ATOM     13  C   UNL A   1      33.992  23.621  23.288  1.00  0.00     0.231 C 
ATOM     14  H   UNL A   1      34.394  25.374  22.500  1.00  0.00     0.164 HD
ATOM     15  O   UNL A   1      34.954  23.139  22.680  1.00  0.00    -0.274 OA
BRANCH  13  16
ATOM     16  C   UNL A   1      32.997  22.705  23.973  1.00  0.00     0.169 C 
BRANCH  16  17
ATOM     17  S   UNL A   1      33.672  21.105  24.488  1.00  0.00    -0.146 SA
BRANCH  17  18
ATOM     18  C   UNL A   1      32.246  20.017  24.186  1.00  0.00     0.116 C 
BRANCH  18  19
ATOM     19  C   UNL A   1      32.740  18.610  24.138  1.00  0.00     0.014 A 
ATOM     20  C   UNL A   1      33.232  17.923  23.044  1.00  0.00     0.016 A 
ATOM     21  S   UNL A   1      32.826  17.669  25.565  1.00  0.00    -0.148 S 
ATOM     22  C   UNL A   1      33.793  16.667  23.410  1.00  0.00     0.012 A 
ATOM     23  C   UNL A   1      33.668  16.422  24.759  1.00  0.00     0.065 A 
ENDBRANCH  18  19
ENDBRANCH  17  18
ENDBRANCH  16  17
ENDBRANCH  13  16
ENDBRANCH   6  12
ENDBRANCH   3   6
ENDBRANCH   1   2
BRANCH   1  24
ATOM     24  C   UNL A   1      34.500  29.109  26.533  1.00  0.00     0.023 C 
BRANCH  24  25
ATOM     25  C   UNL A   1      34.259  30.221  27.565  1.00  0.00     0.023 C 
BRANCH  25  26
ATOM     26  C   UNL A   1      35.517  30.748  28.245  1.00  0.00     0.116 C 
BRANCH  26  27
ATOM     27  N   UNL A   1      35.407  30.713  29.693  1.00  0.00    -0.352 N 
ATOM     28  C   UNL A   1      36.346  30.319  30.619  1.00  0.00     0.251 C 
ATOM     29  H   UNL A   1      34.545  31.011  30.062  1.00  0.00     0.163 HD
ATOM     30  O   UNL A   1      36.021  30.151  31.786  1.00  0.00    -0.269 OA
BRANCH  28  31
ATOM     31  C   UNL A   1      37.740  30.077  30.184  1.00  0.00     0.039 A 
ATOM     32  C   UNL A   1      38.694  29.719  31.139  1.00  0.00     0.014 A 
ATOM     33  C   UNL A   1      38.097  30.191  28.837  1.00  0.00     0.014 A 
ATOM     34  C   UNL A   1      39.995  29.414  30.732  1.00  0.00     0.010 A 
ATOM     35  C   UNL A   1      39.373  29.813  28.427  1.00  0.00     0.010 A 
ATOM     36  C   UNL A   1      40.337  29.423  29.369  1.00  0.00    -0.014 A 
BRANCH  36  37
ATOM     37  C   UNL A   1      41.694  29.024  28.912  1.00  0.00     0.031 A 
ATOM     38  C   UNL A   1      42.793  30.049  28.813  1.00  0.00     0.074 A 
ATOM     39  C   UNL A   1      41.922  27.750  28.530  1.00  0.00     0.049 A 
ATOM     40  N   UNL A   1      44.017  29.907  28.377  1.00  0.00    -0.248 NA
ATOM     41  C   UNL A   1      42.462  31.419  29.237  1.00  0.00     0.031 C 
ATOM     42  C   UNL A   1      40.926  26.676  28.531  1.00  0.00     0.029 A 
ATOM     43  N   UNL A   1      43.059  27.146  28.053  1.00  0.00    -0.354 N 
ATOM     44  C   UNL A   1      44.600  31.167  28.465  1.00  0.00     0.074 A 
ATOM     45  C   UNL A   1      43.577  32.072  28.940  1.00  0.00     0.031 C 
ATOM     46  C   UNL A   1      41.501  25.543  28.098  1.00  0.00     0.029 A 
ATOM     47  C   UNL A   1      42.892  25.816  27.747  1.00  0.00     0.049 A 
ATOM     48  H   UNL A   1      43.914  27.621  27.942  1.00  0.00     0.167 HD
ATOM     49  C   UNL A   1      45.878  31.530  28.200  1.00  0.00     0.037 A 
ATOM     50  C   UNL A   1      43.755  24.919  27.232  1.00  0.00     0.037 A 
ATOM     51  C   UNL A   1      46.896  30.620  27.743  1.00  0.00     0.049 A 
ATOM     52  C   UNL A   1      45.167  25.349  26.935  1.00  0.00     0.074 A 
ATOM     53  C   UNL A   1      48.232  30.880  27.492  1.00  0.00     0.029 A 
ATOM     54  N   UNL A   1      46.692  29.276  27.463  1.00  0.00    -0.354 N 
ATOM     55  N   UNL A   1      45.718  26.530  27.084  1.00  0.00    -0.248 NA
ATOM     56  C   UNL A   1      46.077  24.324  26.406  1.00  0.00     0.031 C 
ATOM     57  C   UNL A   1      48.824  29.706  27.014  1.00  0.00     0.029 A 
ATOM     58  C   UNL A   1      47.872  28.699  27.023  1.00  0.00     0.049 A 
ATOM     59  H   UNL A   1      45.835  28.802  27.565  1.00  0.00     0.167 HD
ATOM     60  C   UNL A   1      47.045  26.383  26.695  1.00  0.00     0.074 A 
ATOM     61  C   UNL A   1      47.217  24.996  26.317  1.00  0.00     0.031 C 
ATOM     62  C   UNL A   1      48.032  27.313  26.656  1.00  0.00     0.037 A 
BRANCH  49  63
ATOM     63  C   UNL A   1      46.249  32.974  28.405  1.00  0.00     0.058 A 
ATOM     64  C   UNL A   1      46.732  33.443  29.638  1.00  0.00     0.135 A 
ATOM     65  C   UNL A   1      46.157  33.895  27.349  1.00  0.00     0.135 A 
ATOM     66  F   UNL A   1      46.828  32.611  30.689  1.00  0.00    -0.206 F 
ATOM     67  C   UNL A   1      47.078  34.777  29.826  1.00  0.00     0.059 A 
ATOM     68  C   UNL A   1      46.528  35.228  27.504  1.00  0.00     0.059 A 
ATOM     69  F   UNL A   1      45.703  33.503  26.148  1.00  0.00    -0.206 F 
ATOM     70  C   UNL A   1      46.974  35.662  28.751  1.00  0.00     0.060 A 
BRANCH  70  71
ATOM     71  S   UNL A   1      47.432  37.388  29.013  1.00  0.00     0.124 S 
ATOM     72  O   UNL A   1      46.151  37.975  29.391  1.00  0.00    -0.237 OA
ATOM     73  O   UNL A   1      48.423  37.289  30.079  1.00  0.00    -0.237 OA
ATOM     74  O   UNL A   1      47.953  37.803  27.714  1.00  0.00    -0.744 OA
ENDBRANCH  70  71
ENDBRANCH  49  63
BRANCH  50  75
ATOM     75  C   UNL A   1      43.311  23.521  26.976  1.00  0.00     0.058 A 
ATOM     76  C   UNL A   1      43.070  23.065  25.673  1.00  0.00     0.135 A 
ATOM     77  C   UNL A   1      43.132  22.612  28.030  1.00  0.00     0.135 A 
ATOM     78  F   UNL A   1      43.221  23.897  24.631  1.00  0.00    -0.206 F 
ATOM     79  C   UNL A   1      42.649  21.762  25.422  1.00  0.00     0.059 A 
ATOM     80  C   UNL A   1      42.740  21.296  27.803  1.00  0.00     0.059 A 
ATOM     81  F   UNL A   1      43.367  22.993  29.295  1.00  0.00    -0.206 F 
ATOM     82  C   UNL A   1      42.491  20.883  26.495  1.00  0.00     0.060 A 
BRANCH  82  83
ATOM     83  S   UNL A   1      41.991  19.182  26.154  1.00  0.00     0.124 S 
ATOM     84  O   UNL A   1      40.564  19.341  25.895  1.00  0.00    -0.237 OA
ATOM     85  O   UNL A   1      42.817  18.847  24.999  1.00  0.00    -0.237 OA
ATOM     86  O   UNL A   1      42.335  18.479  27.387  1.00  0.00    -0.744 OA
ENDBRANCH  82  83
ENDBRANCH  50  75
BRANCH  62  87
ATOM     87  C   UNL A   1      49.399  26.858  26.224  1.00  0.00     0.058 A 
ATOM     88  C   UNL A   1      49.876  27.077  24.923  1.00  0.00     0.135 A 
ATOM     89  C   UNL A   1      50.264  26.240  27.143  1.00  0.00     0.135 A 
ATOM     90  F   UNL A   1      49.090  27.656  24.003  1.00  0.00    -0.206 F 
ATOM     91  C   UNL A   1      51.154  26.679  24.541  1.00  0.00     0.059 A 
ATOM     92  C   UNL A   1      51.556  25.863  26.793  1.00  0.00     0.059 A 
ATOM     93  F   UNL A   1      49.862  26.016  28.405  1.00  0.00    -0.206 F 
ATOM     94  C   UNL A   1      51.988  26.076  25.485  1.00  0.00     0.060 A 
BRANCH  94  95
ATOM     95  S   UNL A   1      53.656  25.597  24.985  1.00  0.00     0.124 S 
ATOM     96  O   UNL A   1      53.753  24.250  25.535  1.00  0.00    -0.237 OA
ATOM     97  O   UNL A   1      53.582  25.685  23.529  1.00  0.00    -0.237 OA
ATOM     98  O   UNL A   1      54.503  26.599  25.624  1.00  0.00    -0.744 OA
ENDBRANCH  94  95
ENDBRANCH  62  87
ENDBRANCH  36  37
ENDBRANCH  28  31
ENDBRANCH  26  27
ENDBRANCH  25  26
ENDBRANCH  24  25
ENDBRANCH   1  24
TORSDOF 20
ENDMDL
MODEL 3
REMARK VINA RESULT:     -10.7      6.567     12.000
REMARK SMILES C[C@](NC(=O)CSCc1cccs1)(C(=O)NCCCCNC(=O)c1ccc(-c2c3nc(c(-c4c(F)cc(S(=O)(=O)[O-])cc4F)c4ccc([nH]4)c(-c4c(F)cc(S(=O)(=O)[O-])cc4F)c4nc(c(-c5c(F)cc(S(=O)(=O)[O-])cc5F)c5ccc2[nH]5)C=C4)C=C3)cc1)C(F)(F)F
REMARK SMILES IDX 17 1 16 2 14 3 15 4 2 6 1 7 90 8 91 9 92 10 93 11 3 12 4 13
REMARK SMILES IDX 5 15 6 16 7 17 8 18 9 19 10 20 13 21 11 22 12 23 18 24 19 25
REMARK SMILES IDX 20 26 21 27 22 28 23 30 24 31 25 32 89 33 26 34 88 35 27 36
REMARK SMILES IDX 28 37 29 38 82 39 30 40 87 41 81 42 83 43 31 44 86 45 80 46
REMARK SMILES IDX 79 47 32 49 66 50 45 51 65 52 46 53 49 54 64 55 84 56 47 57
REMARK SMILES IDX 48 58 63 60 85 61 50 62 33 63 34 64 43 65 35 66 36 67 42 68
REMARK SMILES IDX 44 69 37 70 38 71 39 72 40 73 41 74 67 75 68 76 77 77 69 78
REMARK SMILES IDX 70 79 76 80 78 81 71 82 72 83 73 84 74 85 75 86 51 87 52 88
REMARK SMILES IDX 61 89 53 90 54 91 60 92 62 93 55 94 56 95 57 96 58 97 59 98
REMARK H PARENT 16 5 3 14 21 29 83 48 49 59
REMARK Flexibility Score: inf
ROOT
ATOM      1  C   UNL A   1      36.163  21.726  25.147  1.00  0.00     0.116 C 
ENDROOT
BRANCH   1   2
ATOM      2  N   UNL A   1      35.293  21.533  26.297  1.00  0.00    -0.354 N 
ATOM      3  C   UNL A   1      33.962  21.299  26.456  1.00  0.00     0.254 C 
ATOM      4  O   UNL A   1      33.626  21.051  27.616  1.00  0.00    -0.272 OA
ATOM      5  H   UNL A   1      35.776  21.583  27.154  1.00  0.00     0.163 HD
BRANCH   3   6
ATOM      6  C   UNL A   1      32.991  21.197  25.258  1.00  0.00     0.212 C 
ATOM      7  C   UNL A   1      33.509  22.197  24.204  1.00  0.00     0.056 C 
BRANCH   6   8
ATOM      8  C   UNL A   1      33.128  19.726  24.789  1.00  0.00     0.420 C 
ATOM      9  F   UNL A   1      33.106  19.626  23.438  1.00  0.00    -0.168 F 
ATOM     10  F   UNL A   1      34.298  19.169  25.175  1.00  0.00    -0.168 F 
ATOM     11  F   UNL A   1      32.164  18.924  25.297  1.00  0.00    -0.168 F 
ENDBRANCH   6   8
BRANCH   6  12
ATOM     12  N   UNL A   1      31.628  21.600  25.751  1.00  0.00    -0.334 N 
ATOM     13  C   UNL A   1      31.125  22.713  26.346  1.00  0.00     0.231 C 
ATOM     14  H   UNL A   1      30.949  20.902  25.610  1.00  0.00     0.164 HD
ATOM     15  O   UNL A   1      30.018  22.590  26.883  1.00  0.00    -0.274 OA
BRANCH  13  16
ATOM     16  C   UNL A   1      31.793  24.073  26.299  1.00  0.00     0.169 C 
BRANCH  16  17
ATOM     17  S   UNL A   1      31.150  25.188  25.025  1.00  0.00    -0.146 SA
BRANCH  17  18
ATOM     18  C   UNL A   1      30.641  26.611  26.039  1.00  0.00     0.116 C 
BRANCH  18  19
ATOM     19  C   UNL A   1      31.740  27.619  26.004  1.00  0.00     0.014 A 
ATOM     20  C   UNL A   1      32.935  27.593  26.698  1.00  0.00     0.016 A 
ATOM     21  S   UNL A   1      31.648  28.969  24.955  1.00  0.00    -0.148 S 
ATOM     22  C   UNL A   1      33.824  28.619  26.270  1.00  0.00     0.012 A 
ATOM     23  C   UNL A   1      33.260  29.417  25.301  1.00  0.00     0.065 A 
ENDBRANCH  18  19
ENDBRANCH  17  18
ENDBRANCH  16  17
ENDBRANCH  13  16
ENDBRANCH   6  12
ENDBRANCH   3   6
ENDBRANCH   1   2
BRANCH   1  24
ATOM     24  C   UNL A   1      37.611  21.915  25.603  1.00  0.00     0.023 C 
BRANCH  24  25
ATOM     25  C   UNL A   1      38.096  23.372  25.611  1.00  0.00     0.023 C 
BRANCH  25  26
ATOM     26  C   UNL A   1      39.042  23.727  26.752  1.00  0.00     0.116 C 
BRANCH  26  27
ATOM     27  N   UNL A   1      40.432  23.715  26.328  1.00  0.00    -0.352 N 
ATOM     28  C   UNL A   1      41.418  24.641  26.582  1.00  0.00     0.251 C 
ATOM     29  H   UNL A   1      40.705  22.940  25.786  1.00  0.00     0.163 HD
ATOM     30  O   UNL A   1      42.479  24.585  25.976  1.00  0.00    -0.269 OA
BRANCH  28  31
ATOM     31  C   UNL A   1      41.172  25.713  27.572  1.00  0.00     0.039 A 
ATOM     32  C   UNL A   1      40.162  25.540  28.521  1.00  0.00     0.014 A 
ATOM     33  C   UNL A   1      41.946  26.878  27.570  1.00  0.00     0.014 A 
ATOM     34  C   UNL A   1      39.970  26.510  29.507  1.00  0.00     0.010 A 
ATOM     35  C   UNL A   1      41.803  27.805  28.598  1.00  0.00     0.010 A 
ATOM     36  C   UNL A   1      40.812  27.634  29.577  1.00  0.00    -0.014 A 
BRANCH  36  37
ATOM     37  C   UNL A   1      40.673  28.635  30.667  1.00  0.00     0.031 A 
ATOM     38  C   UNL A   1      41.537  28.542  31.896  1.00  0.00     0.074 A 
ATOM     39  C   UNL A   1      39.727  29.592  30.576  1.00  0.00     0.049 A 
ATOM     40  N   UNL A   1      41.518  29.280  32.976  1.00  0.00    -0.248 NA
ATOM     41  C   UNL A   1      42.536  27.463  31.925  1.00  0.00     0.031 C 
ATOM     42  C   UNL A   1      38.794  29.756  29.459  1.00  0.00     0.029 A 
ATOM     43  N   UNL A   1      39.385  30.601  31.444  1.00  0.00    -0.354 N 
ATOM     44  C   UNL A   1      42.493  28.750  33.814  1.00  0.00     0.074 A 
ATOM     45  C   UNL A   1      43.043  27.593  33.144  1.00  0.00     0.031 C 
ATOM     46  C   UNL A   1      38.001  30.813  29.700  1.00  0.00     0.029 A 
ATOM     47  C   UNL A   1      38.338  31.376  31.004  1.00  0.00     0.049 A 
ATOM     48  H   UNL A   1      39.846  30.754  32.299  1.00  0.00     0.167 HD
ATOM     49  C   UNL A   1      42.910  29.203  35.022  1.00  0.00     0.037 A 
ATOM     50  C   UNL A   1      37.711  32.416  31.587  1.00  0.00     0.037 A 
ATOM     51  C   UNL A   1      42.369  30.365  35.677  1.00  0.00     0.049 A 
ATOM     52  C   UNL A   1      38.185  32.894  32.934  1.00  0.00     0.074 A 
ATOM     53  C   UNL A   1      42.755  30.933  36.878  1.00  0.00     0.029 A 
ATOM     54  N   UNL A   1      41.322  31.136  35.191  1.00  0.00    -0.354 N 
ATOM     55  N   UNL A   1      39.151  32.420  33.685  1.00  0.00    -0.248 NA
ATOM     56  C   UNL A   1      37.490  34.053  33.511  1.00  0.00     0.031 C 
ATOM     57  C   UNL A   1      41.912  32.017  37.142  1.00  0.00     0.029 A 
ATOM     58  C   UNL A   1      41.037  32.161  36.077  1.00  0.00     0.049 A 
ATOM     59  H   UNL A   1      40.853  30.978  34.340  1.00  0.00     0.167 HD
ATOM     60  C   UNL A   1      39.197  33.238  34.808  1.00  0.00     0.074 A 
ATOM     61  C   UNL A   1      38.171  34.246  34.632  1.00  0.00     0.031 C 
ATOM     62  C   UNL A   1      40.016  33.163  35.886  1.00  0.00     0.037 A 
BRANCH  49  63
ATOM     63  C   UNL A   1      44.011  28.441  35.710  1.00  0.00     0.058 A 
ATOM     64  C   UNL A   1      45.366  28.725  35.469  1.00  0.00     0.135 A 
ATOM     65  C   UNL A   1      43.712  27.440  36.649  1.00  0.00     0.135 A 
ATOM     66  F   UNL A   1      45.711  29.662  34.570  1.00  0.00    -0.206 F 
ATOM     67  C   UNL A   1      46.382  28.024  36.108  1.00  0.00     0.059 A 
ATOM     68  C   UNL A   1      44.713  26.747  37.324  1.00  0.00     0.059 A 
ATOM     69  F   UNL A   1      42.436  27.127  36.920  1.00  0.00    -0.206 F 
ATOM     70  C   UNL A   1      46.046  27.037  37.035  1.00  0.00     0.060 A 
BRANCH  70  71
ATOM     71  S   UNL A   1      47.380  26.140  37.857  1.00  0.00     0.124 S 
ATOM     72  O   UNL A   1      48.556  26.829  37.337  1.00  0.00    -0.237 OA
ATOM     73  O   UNL A   1      47.084  26.368  39.268  1.00  0.00    -0.237 OA
ATOM     74  O   UNL A   1      47.201  24.767  37.396  1.00  0.00    -0.744 OA
ENDBRANCH  70  71
ENDBRANCH  49  63
BRANCH  50  75
ATOM     75  C   UNL A   1      36.575  33.084  30.895  1.00  0.00     0.058 A 
ATOM     76  C   UNL A   1      35.253  32.893  31.322  1.00  0.00     0.135 A 
ATOM     77  C   UNL A   1      36.791  33.936  29.801  1.00  0.00     0.135 A 
ATOM     78  F   UNL A   1      34.993  32.083  32.359  1.00  0.00    -0.206 F 
ATOM     79  C   UNL A   1      34.183  33.507  30.678  1.00  0.00     0.059 A 
ATOM     80  C   UNL A   1      35.741  34.585  29.159  1.00  0.00     0.059 A 
ATOM     81  F   UNL A   1      38.039  34.168  29.364  1.00  0.00    -0.206 F 
ATOM     82  C   UNL A   1      34.438  34.356  29.599  1.00  0.00     0.060 A 
BRANCH  82  83
ATOM     83  S   UNL A   1      33.046  35.185  28.803  1.00  0.00     0.124 S 
ATOM     84  O   UNL A   1      32.185  35.477  29.943  1.00  0.00    -0.237 OA
ATOM     85  O   UNL A   1      33.692  36.334  28.177  1.00  0.00    -0.237 OA
ATOM     86  O   UNL A   1      32.542  34.176  27.873  1.00  0.00    -0.744 OA
ENDBRANCH  82  83
ENDBRANCH  50  75
BRANCH  62  87
ATOM     87  C   UNL A   1      39.867  34.219  36.948  1.00  0.00     0.058 A 
ATOM     88  C   UNL A   1      39.088  34.010  38.097  1.00  0.00     0.135 A 
ATOM     89  C   UNL A   1      40.556  35.438  36.838  1.00  0.00     0.135 A 
ATOM     90  F   UNL A   1      38.403  32.867  38.250  1.00  0.00    -0.206 F 
ATOM     91  C   UNL A   1      38.980  34.981  39.087  1.00  0.00     0.059 A 
ATOM     92  C   UNL A   1      40.488  36.410  37.830  1.00  0.00     0.059 A 
ATOM     93  F   UNL A   1      41.324  35.686  35.764  1.00  0.00    -0.206 F 
ATOM     94  C   UNL A   1      39.687  36.177  38.947  1.00  0.00     0.060 A 
BRANCH  94  95
ATOM     95  S   UNL A   1      39.565  37.413  40.257  1.00  0.00     0.124 S 
ATOM     96  O   UNL A   1      40.964  37.782  40.444  1.00  0.00    -0.237 OA
ATOM     97  O   UNL A   1      38.716  38.432  39.647  1.00  0.00    -0.237 OA
ATOM     98  O   UNL A   1      38.956  36.678  41.362  1.00  0.00    -0.744 OA
ENDBRANCH  94  95
ENDBRANCH  62  87
ENDBRANCH  36  37
ENDBRANCH  28  31
ENDBRANCH  26  27
ENDBRANCH  25  26
ENDBRANCH  24  25
ENDBRANCH   1  24
TORSDOF 20
ENDMDL
