MODEL 1
REMARK VINA RESULT:     -13.2      0.000      0.000
REMARK SMILES O=C(NCCCCNC(=O)c1ccc(-c2c3nc(c(-c4c(F)cc(S(=O)(=O)[O-])cc4F)c4ccc([nH]4)c(-c4c(F)cc(S(=O)(=O)[O-])cc4F)c4nc(c(-c5c(F)cc(S(=O)(=O)[O-])cc5F)c5ccc2[nH]5)C=C4)C=C3)cc1)C1=Cc2cc(Cl)cc(C#Cc3ccccc3)c2O[C@@H]1C(F)(F)F
REMARK SMILES IDX 6 1 5 2 4 3 3 4 1 5 2 6 77 8 78 9 95 10 79 11 94 12 80 13
REMARK SMILES IDX 93 14 81 15 84 16 82 17 83 18 96 19 97 20 98 21 99 22 85 23
REMARK SMILES IDX 86 24 87 25 88 26 92 27 89 28 91 29 90 30 7 31 8 32 9 33
REMARK SMILES IDX 10 35 11 36 12 37 76 38 13 39 75 40 14 41 15 42 16 43 69 44
REMARK SMILES IDX 17 45 74 46 68 47 70 48 18 49 73 50 67 51 66 52 19 54 53 55
REMARK SMILES IDX 32 56 52 57 33 58 36 59 51 60 71 61 34 62 35 63 50 65 72 66
REMARK SMILES IDX 37 67 20 68 21 69 30 70 22 71 23 72 29 73 31 74 24 75 25 76
REMARK SMILES IDX 26 77 27 78 28 79 54 80 55 81 64 82 56 83 57 84 63 85 65 86
REMARK SMILES IDX 58 87 59 88 60 89 61 90 62 91 38 92 39 93 48 94 40 95 41 96
REMARK SMILES IDX 47 97 49 98 42 99 43 100 44 101 45 102 46 103
REMARK H PARENT 3 7 8 34 70 53 36 64
REMARK Flexibility Score: inf
ROOT
ATOM      1  C   UNL A   1      32.263  28.064  27.340  1.00  0.00     0.023 C 
ENDROOT
BRANCH   1   2
ATOM      2  C   UNL A   1      31.413  28.157  26.087  1.00  0.00     0.023 C 
BRANCH   2   3
ATOM      3  C   UNL A   1      30.860  26.831  25.598  1.00  0.00     0.116 C 
BRANCH   3   4
ATOM      4  N   UNL A   1      31.201  25.663  26.385  1.00  0.00    -0.352 N 
ATOM      5  O   UNL A   1      32.525  23.986  27.097  1.00  0.00    -0.270 OA
ATOM      6  C   UNL A   1      32.240  24.787  26.209  1.00  0.00     0.251 C 
ATOM      7  H   UNL A   1      30.610  25.475  27.148  1.00  0.00     0.163 HD
BRANCH   6   8
ATOM      8  C   UNL A   1      33.114  24.839  24.998  1.00  0.00     0.067 C 
ATOM      9  C   UNL A   1      34.426  25.123  25.072  1.00  0.00     0.025 C 
ATOM     10  C   UNL A   1      32.642  23.932  23.892  1.00  0.00     0.314 C 
ATOM     11  C   UNL A   1      35.287  23.954  24.743  1.00  0.00     0.020 A 
ATOM     12  O   UNL A   1      33.393  22.686  23.873  1.00  0.00    -0.474 OA
ATOM     13  C   UNL A   1      36.587  23.974  25.264  1.00  0.00     0.032 A 
ATOM     14  C   UNL A   1      34.682  22.732  24.359  1.00  0.00     0.143 A 
ATOM     15  C   UNL A   1      37.244  22.771  25.502  1.00  0.00     0.043 A 
ATOM     16  C   UNL A   1      35.339  21.523  24.653  1.00  0.00     0.069 A 
ATOM     17  Cl  UNL A   1      38.758  22.784  26.320  1.00  0.00    -0.084 Cl
ATOM     18  C   UNL A   1      36.623  21.555  25.222  1.00  0.00     0.041 A 
BRANCH  10  19
ATOM     19  C   UNL A   1      32.668  24.686  22.548  1.00  0.00     0.429 C 
ATOM     20  F   UNL A   1      33.206  23.938  21.558  1.00  0.00    -0.167 F 
ATOM     21  F   UNL A   1      31.416  25.024  22.145  1.00  0.00    -0.167 F 
ATOM     22  F   UNL A   1      33.378  25.840  22.611  1.00  0.00    -0.167 F 
ENDBRANCH  10  19
BRANCH  16  23
ATOM     23  C   UNL A   1      34.676  20.247  24.629  1.00  0.00    -0.058 C 
ATOM     24  C   UNL A   1      34.255  19.118  24.731  1.00  0.00    -0.062 C 
BRANCH  24  25
ATOM     25  C   UNL A   1      33.831  17.762  24.940  1.00  0.00     0.025 A 
ATOM     26  C   UNL A   1      32.546  17.488  25.409  1.00  0.00     0.017 A 
ATOM     27  C   UNL A   1      34.713  16.700  24.710  1.00  0.00     0.017 A 
ATOM     28  C   UNL A   1      32.155  16.169  25.670  1.00  0.00     0.001 A 
ATOM     29  C   UNL A   1      34.331  15.384  24.995  1.00  0.00     0.001 A 
ATOM     30  C   UNL A   1      33.052  15.119  25.478  1.00  0.00     0.000 A 
ENDBRANCH  24  25
ENDBRANCH  16  23
ENDBRANCH   6   8
ENDBRANCH   3   4
ENDBRANCH   2   3
ENDBRANCH   1   2
BRANCH   1  31
ATOM     31  C   UNL A   1      33.610  28.773  27.274  1.00  0.00     0.116 C 
BRANCH  31  32
ATOM     32  N   UNL A   1      33.606  30.134  27.800  1.00  0.00    -0.352 N 
ATOM     33  C   UNL A   1      34.644  30.809  28.410  1.00  0.00     0.251 C 
ATOM     34  H   UNL A   1      32.762  30.632  27.709  1.00  0.00     0.163 HD
ATOM     35  O   UNL A   1      34.481  31.935  28.866  1.00  0.00    -0.269 OA
BRANCH  33  36
ATOM     36  C   UNL A   1      35.957  30.138  28.518  1.00  0.00     0.039 A 
ATOM     37  C   UNL A   1      36.834  30.132  27.430  1.00  0.00     0.014 A 
ATOM     38  C   UNL A   1      36.348  29.602  29.745  1.00  0.00     0.014 A 
ATOM     39  C   UNL A   1      38.141  29.671  27.610  1.00  0.00     0.010 A 
ATOM     40  C   UNL A   1      37.656  29.204  29.942  1.00  0.00     0.010 A 
ATOM     41  C   UNL A   1      38.565  29.246  28.879  1.00  0.00    -0.014 A 
BRANCH  41  42
ATOM     42  C   UNL A   1      39.961  28.871  29.183  1.00  0.00     0.031 A 
ATOM     43  C   UNL A   1      40.913  29.935  29.649  1.00  0.00     0.074 A 
ATOM     44  C   UNL A   1      40.393  27.641  28.843  1.00  0.00     0.049 A 
ATOM     45  N   UNL A   1      42.211  29.885  29.771  1.00  0.00    -0.248 NA
ATOM     46  C   UNL A   1      40.329  31.251  29.970  1.00  0.00     0.031 C 
ATOM     47  C   UNL A   1      39.555  26.575  28.286  1.00  0.00     0.029 A 
ATOM     48  N   UNL A   1      41.649  27.094  28.868  1.00  0.00    -0.354 N 
ATOM     49  C   UNL A   1      42.602  31.161  30.158  1.00  0.00     0.074 A 
ATOM     50  C   UNL A   1      41.412  31.979  30.203  1.00  0.00     0.031 C 
ATOM     51  C   UNL A   1      40.321  25.504  28.023  1.00  0.00     0.029 A 
ATOM     52  C   UNL A   1      41.705  25.817  28.358  1.00  0.00     0.049 A 
ATOM     53  H   UNL A   1      42.437  27.570  29.219  1.00  0.00     0.167 HD
ATOM     54  C   UNL A   1      43.845  31.594  30.467  1.00  0.00     0.037 A 
ATOM     55  C   UNL A   1      42.762  25.004  28.168  1.00  0.00     0.037 A 
ATOM     56  C   UNL A   1      45.004  30.742  30.451  1.00  0.00     0.049 A 
ATOM     57  C   UNL A   1      44.128  25.500  28.569  1.00  0.00     0.074 A 
ATOM     58  C   UNL A   1      46.296  31.042  30.845  1.00  0.00     0.029 A 
ATOM     59  N   UNL A   1      45.012  29.423  30.019  1.00  0.00    -0.354 N 
ATOM     60  N   UNL A   1      44.471  26.678  29.034  1.00  0.00    -0.248 NA
ATOM     61  C   UNL A   1      45.246  24.557  28.436  1.00  0.00     0.031 C 
ATOM     62  C   UNL A   1      47.094  29.921  30.604  1.00  0.00     0.029 A 
ATOM     63  C   UNL A   1      46.288  28.900  30.124  1.00  0.00     0.049 A 
ATOM     64  H   UNL A   1      44.225  28.932  29.688  1.00  0.00     0.167 HD
ATOM     65  C   UNL A   1      45.834  26.601  29.297  1.00  0.00     0.074 A 
ATOM     66  C   UNL A   1      46.251  25.262  28.939  1.00  0.00     0.031 C 
ATOM     67  C   UNL A   1      46.665  27.549  29.794  1.00  0.00     0.037 A 
BRANCH  54  68
ATOM     68  C   UNL A   1      44.027  33.030  30.876  1.00  0.00     0.058 A 
ATOM     69  C   UNL A   1      44.311  34.034  29.936  1.00  0.00     0.135 A 
ATOM     70  C   UNL A   1      43.817  33.425  32.208  1.00  0.00     0.135 A 
ATOM     71  F   UNL A   1      44.541  33.714  28.653  1.00  0.00    -0.206 F 
ATOM     72  C   UNL A   1      44.382  35.374  30.300  1.00  0.00     0.059 A 
ATOM     73  C   UNL A   1      43.851  34.763  32.589  1.00  0.00     0.059 A 
ATOM     74  F   UNL A   1      43.551  32.507  33.151  1.00  0.00    -0.206 F 
ATOM     75  C   UNL A   1      44.137  35.730  31.627  1.00  0.00     0.060 A 
BRANCH  75  76
ATOM     76  S   UNL A   1      44.168  37.481  32.064  1.00  0.00     0.124 S 
ATOM     77  O   UNL A   1      45.583  37.683  32.360  1.00  0.00    -0.237 OA
ATOM     78  O   UNL A   1      43.679  38.113  30.843  1.00  0.00    -0.237 OA
ATOM     79  O   UNL A   1      43.270  37.562  33.212  1.00  0.00    -0.744 OA
ENDBRANCH  75  76
ENDBRANCH  54  68
BRANCH  55  80
ATOM     80  C   UNL A   1      42.575  23.638  27.609  1.00  0.00     0.058 A 
ATOM     81  C   UNL A   1      42.362  22.538  28.454  1.00  0.00     0.135 A 
ATOM     82  C   UNL A   1      42.618  23.396  26.227  1.00  0.00     0.135 A 
ATOM     83  F   UNL A   1      42.306  22.717  29.783  1.00  0.00    -0.206 F 
ATOM     84  C   UNL A   1      42.245  21.245  27.957  1.00  0.00     0.059 A 
ATOM     85  C   UNL A   1      42.470  22.116  25.702  1.00  0.00     0.059 A 
ATOM     86  F   UNL A   1      42.789  24.415  25.370  1.00  0.00    -0.206 F 
ATOM     87  C   UNL A   1      42.306  21.043  26.578  1.00  0.00     0.060 A 
BRANCH  87  88
ATOM     88  S   UNL A   1      42.156  19.359  25.944  1.00  0.00     0.124 S 
ATOM     89  O   UNL A   1      40.725  19.274  25.676  1.00  0.00    -0.237 OA
ATOM     90  O   UNL A   1      43.024  19.396  24.770  1.00  0.00    -0.237 OA
ATOM     91  O   UNL A   1      42.643  18.540  27.049  1.00  0.00    -0.744 OA
ENDBRANCH  87  88
ENDBRANCH  55  80
BRANCH  67  92
ATOM     92  C   UNL A   1      48.093  27.157  30.057  1.00  0.00     0.058 A 
ATOM     93  C   UNL A   1      49.107  27.362  29.112  1.00  0.00     0.135 A 
ATOM     94  C   UNL A   1      48.456  26.651  31.317  1.00  0.00     0.135 A 
ATOM     95  F   UNL A   1      48.810  27.836  27.891  1.00  0.00    -0.206 F 
ATOM     96  C   UNL A   1      50.435  27.067  29.402  1.00  0.00     0.059 A 
ATOM     97  C   UNL A   1      49.780  26.382  31.640  1.00  0.00     0.059 A 
ATOM     98  F   UNL A   1      47.522  26.447  32.259  1.00  0.00    -0.206 F 
ATOM     99  C   UNL A   1      50.763  26.587  30.672  1.00  0.00     0.060 A 
BRANCH  99 100
ATOM    100  S   UNL A   1      52.498  26.274  31.055  1.00  0.00     0.124 S 
ATOM    101  O   UNL A   1      53.080  26.173  29.721  1.00  0.00    -0.237 OA
ATOM    102  O   UNL A   1      52.866  27.462  31.819  1.00  0.00    -0.237 OA
ATOM    103  O   UNL A   1      52.459  25.031  31.819  1.00  0.00    -0.744 OA
ENDBRANCH  99 100
ENDBRANCH  67  92
ENDBRANCH  41  42
ENDBRANCH  33  36
ENDBRANCH  31  32
ENDBRANCH   1  31
TORSDOF 17
ENDMDL
MODEL 2
REMARK VINA RESULT:     -12.6      3.674     10.050
REMARK SMILES O=C(NCCCCNC(=O)c1ccc(-c2c3nc(c(-c4c(F)cc(S(=O)(=O)[O-])cc4F)c4ccc([nH]4)c(-c4c(F)cc(S(=O)(=O)[O-])cc4F)c4nc(c(-c5c(F)cc(S(=O)(=O)[O-])cc5F)c5ccc2[nH]5)C=C4)C=C3)cc1)C1=Cc2cc(Cl)cc(C#Cc3ccccc3)c2O[C@@H]1C(F)(F)F
REMARK SMILES IDX 6 1 5 2 4 3 3 4 1 5 2 6 77 8 78 9 95 10 79 11 94 12 80 13
REMARK SMILES IDX 93 14 81 15 84 16 82 17 83 18 96 19 97 20 98 21 99 22 85 23
REMARK SMILES IDX 86 24 87 25 88 26 92 27 89 28 91 29 90 30 7 31 8 32 9 33
REMARK SMILES IDX 10 35 11 36 12 37 76 38 13 39 75 40 14 41 15 42 16 43 69 44
REMARK SMILES IDX 17 45 74 46 68 47 70 48 18 49 73 50 67 51 66 52 19 54 53 55
REMARK SMILES IDX 32 56 52 57 33 58 36 59 51 60 71 61 34 62 35 63 50 65 72 66
REMARK SMILES IDX 37 67 20 68 21 69 30 70 22 71 23 72 29 73 31 74 24 75 25 76
REMARK SMILES IDX 26 77 27 78 28 79 54 80 55 81 64 82 56 83 57 84 63 85 65 86
REMARK SMILES IDX 58 87 59 88 60 89 61 90 62 91 38 92 39 93 48 94 40 95 41 96
REMARK SMILES IDX 47 97 49 98 42 99 43 100 44 101 45 102 46 103
REMARK H PARENT 3 7 8 34 70 53 36 64
REMARK Flexibility Score: inf
ROOT
ATOM      1  C   UNL A   1      35.941  22.742  24.909  1.00  0.00     0.023 C 
ENDROOT
BRANCH   1   2
ATOM      2  C   UNL A   1      35.463  22.854  23.473  1.00  0.00     0.023 C 
BRANCH   2   3
ATOM      3  C   UNL A   1      34.051  23.388  23.316  1.00  0.00     0.116 C 
BRANCH   3   4
ATOM      4  N   UNL A   1      33.924  24.703  22.722  1.00  0.00    -0.352 N 
ATOM      5  O   UNL A   1      33.673  26.941  22.728  1.00  0.00    -0.270 OA
ATOM      6  C   UNL A   1      33.502  25.869  23.304  1.00  0.00     0.251 C 
ATOM      7  H   UNL A   1      34.176  24.768  21.773  1.00  0.00     0.163 HD
BRANCH   6   8
ATOM      8  C   UNL A   1      32.922  25.892  24.682  1.00  0.00     0.067 C 
ATOM      9  C   UNL A   1      33.597  26.382  25.736  1.00  0.00     0.025 C 
ATOM     10  C   UNL A   1      31.419  25.996  24.686  1.00  0.00     0.314 C 
ATOM     11  C   UNL A   1      33.009  27.647  26.258  1.00  0.00     0.020 A 
ATOM     12  O   UNL A   1      30.985  27.364  24.925  1.00  0.00    -0.474 OA
ATOM     13  C   UNL A   1      33.873  28.483  26.976  1.00  0.00     0.032 A 
ATOM     14  C   UNL A   1      31.832  28.164  25.662  1.00  0.00     0.143 A 
ATOM     15  C   UNL A   1      33.622  29.852  27.010  1.00  0.00     0.043 A 
ATOM     16  C   UNL A   1      31.621  29.554  25.662  1.00  0.00     0.069 A 
ATOM     17  Cl  UNL A   1      34.783  30.904  27.723  1.00  0.00    -0.084 Cl
ATOM     18  C   UNL A   1      32.523  30.390  26.343  1.00  0.00     0.041 A 
BRANCH  10  19
ATOM     19  C   UNL A   1      30.826  24.979  25.680  1.00  0.00     0.429 C 
ATOM     20  F   UNL A   1      31.553  24.898  26.818  1.00  0.00    -0.167 F 
ATOM     21  F   UNL A   1      29.565  25.324  26.047  1.00  0.00    -0.167 F 
ATOM     22  F   UNL A   1      30.747  23.728  25.163  1.00  0.00    -0.167 F 
ENDBRANCH  10  19
BRANCH  16  23
ATOM     23  C   UNL A   1      30.668  30.201  24.802  1.00  0.00    -0.058 C 
ATOM     24  C   UNL A   1      29.957  30.657  23.936  1.00  0.00    -0.062 C 
BRANCH  24  25
ATOM     25  C   UNL A   1      29.165  31.125  22.834  1.00  0.00     0.025 A 
ATOM     26  C   UNL A   1      28.811  30.258  21.799  1.00  0.00     0.017 A 
ATOM     27  C   UNL A   1      28.769  32.465  22.764  1.00  0.00     0.017 A 
ATOM     28  C   UNL A   1      28.091  30.730  20.696  1.00  0.00     0.001 A 
ATOM     29  C   UNL A   1      28.071  32.944  21.649  1.00  0.00     0.001 A 
ATOM     30  C   UNL A   1      27.735  32.076  20.613  1.00  0.00     0.000 A 
ENDBRANCH  24  25
ENDBRANCH  16  23
ENDBRANCH   6   8
ENDBRANCH   3   4
ENDBRANCH   2   3
ENDBRANCH   1   2
BRANCH   1  31
ATOM     31  C   UNL A   1      37.217  23.507  25.238  1.00  0.00     0.116 C 
BRANCH  31  32
ATOM     32  N   UNL A   1      38.396  22.669  25.429  1.00  0.00    -0.352 N 
ATOM     33  C   UNL A   1      39.555  22.981  26.109  1.00  0.00     0.251 C 
ATOM     34  H   UNL A   1      38.361  21.772  25.025  1.00  0.00     0.163 HD
ATOM     35  O   UNL A   1      40.499  22.199  26.136  1.00  0.00    -0.269 OA
BRANCH  33  36
ATOM     36  C   UNL A   1      39.643  24.288  26.795  1.00  0.00     0.039 A 
ATOM     37  C   UNL A   1      39.050  24.466  28.047  1.00  0.00     0.014 A 
ATOM     38  C   UNL A   1      40.407  25.306  26.222  1.00  0.00     0.014 A 
ATOM     39  C   UNL A   1      39.309  25.636  28.765  1.00  0.00     0.010 A 
ATOM     40  C   UNL A   1      40.716  26.435  26.955  1.00  0.00     0.010 A 
ATOM     41  C   UNL A   1      40.178  26.604  28.236  1.00  0.00    -0.014 A 
BRANCH  41  42
ATOM     42  C   UNL A   1      40.608  27.803  28.985  1.00  0.00     0.031 A 
ATOM     43  C   UNL A   1      41.876  27.741  29.788  1.00  0.00     0.074 A 
ATOM     44  C   UNL A   1      39.758  28.842  29.092  1.00  0.00     0.049 A 
ATOM     45  N   UNL A   1      42.332  28.581  30.675  1.00  0.00    -0.248 NA
ATOM     46  C   UNL A   1      42.716  26.542  29.605  1.00  0.00     0.031 C 
ATOM     47  C   UNL A   1      38.457  28.942  28.425  1.00  0.00     0.029 A 
ATOM     48  N   UNL A   1      39.835  29.989  29.837  1.00  0.00    -0.354 N 
ATOM     49  C   UNL A   1      43.495  28.007  31.174  1.00  0.00     0.074 A 
ATOM     50  C   UNL A   1      43.650  26.724  30.528  1.00  0.00     0.031 C 
ATOM     51  C   UNL A   1      37.859  30.088  28.792  1.00  0.00     0.029 A 
ATOM     52  C   UNL A   1      38.716  30.784  29.744  1.00  0.00     0.049 A 
ATOM     53  H   UNL A   1      40.619  30.223  30.386  1.00  0.00     0.167 HD
ATOM     54  C   UNL A   1      44.361  28.524  32.075  1.00  0.00     0.037 A 
ATOM     55  C   UNL A   1      38.415  31.937  30.374  1.00  0.00     0.037 A 
ATOM     56  C   UNL A   1      44.197  29.825  32.669  1.00  0.00     0.049 A 
ATOM     57  C   UNL A   1      39.423  32.512  31.335  1.00  0.00     0.074 A 
ATOM     58  C   UNL A   1      45.061  30.497  33.513  1.00  0.00     0.029 A 
ATOM     59  N   UNL A   1      43.096  30.649  32.480  1.00  0.00    -0.354 N 
ATOM     60  N   UNL A   1      40.573  32.008  31.721  1.00  0.00    -0.248 NA
ATOM     61  C   UNL A   1      39.107  33.815  31.935  1.00  0.00     0.031 C 
ATOM     62  C   UNL A   1      44.461  31.706  33.875  1.00  0.00     0.029 A 
ATOM     63  C   UNL A   1      43.254  31.817  33.203  1.00  0.00     0.049 A 
ATOM     64  H   UNL A   1      42.319  30.433  31.915  1.00  0.00     0.167 HD
ATOM     65  C   UNL A   1      41.138  32.955  32.567  1.00  0.00     0.074 A 
ATOM     66  C   UNL A   1      40.205  34.059  32.637  1.00  0.00     0.031 C 
ATOM     67  C   UNL A   1      42.323  32.917  33.224  1.00  0.00     0.037 A 
BRANCH  54  68
ATOM     68  C   UNL A   1      45.571  27.717  32.457  1.00  0.00     0.058 A 
ATOM     69  C   UNL A   1      46.788  27.842  31.768  1.00  0.00     0.135 A 
ATOM     70  C   UNL A   1      45.544  26.883  33.587  1.00  0.00     0.135 A 
ATOM     71  F   UNL A   1      46.869  28.609  30.670  1.00  0.00    -0.206 F 
ATOM     72  C   UNL A   1      47.932  27.169  32.183  1.00  0.00     0.059 A 
ATOM     73  C   UNL A   1      46.684  26.226  34.039  1.00  0.00     0.059 A 
ATOM     74  F   UNL A   1      44.405  26.719  34.279  1.00  0.00    -0.206 F 
ATOM     75  C   UNL A   1      47.873  26.374  33.328  1.00  0.00     0.060 A 
BRANCH  75  76
ATOM     76  S   UNL A   1      49.386  25.564  33.887  1.00  0.00     0.124 S 
ATOM     77  O   UNL A   1      49.776  26.412  35.008  1.00  0.00    -0.237 OA
ATOM     78  O   UNL A   1      48.910  24.229  34.236  1.00  0.00    -0.237 OA
ATOM     79  O   UNL A   1      50.259  25.629  32.718  1.00  0.00    -0.744 OA
ENDBRANCH  75  76
ENDBRANCH  54  68
BRANCH  55  80
ATOM     80  C   UNL A   1      37.133  32.638  30.096  1.00  0.00     0.058 A 
ATOM     81  C   UNL A   1      37.055  33.632  29.108  1.00  0.00     0.135 A 
ATOM     82  C   UNL A   1      35.963  32.344  30.815  1.00  0.00     0.135 A 
ATOM     83  F   UNL A   1      38.144  33.946  28.389  1.00  0.00    -0.206 F 
ATOM     84  C   UNL A   1      35.883  34.342  28.874  1.00  0.00     0.059 A 
ATOM     85  C   UNL A   1      34.768  33.017  30.576  1.00  0.00     0.059 A 
ATOM     86  F   UNL A   1      35.971  31.382  31.749  1.00  0.00    -0.206 F 
ATOM     87  C   UNL A   1      34.744  34.030  29.618  1.00  0.00     0.060 A 
BRANCH  87  88
ATOM     88  S   UNL A   1      33.228  34.960  29.307  1.00  0.00     0.124 S 
ATOM     89  O   UNL A   1      32.549  34.099  28.346  1.00  0.00    -0.237 OA
ATOM     90  O   UNL A   1      32.632  35.026  30.639  1.00  0.00    -0.237 OA
ATOM     91  O   UNL A   1      33.716  36.231  28.783  1.00  0.00    -0.744 OA
ENDBRANCH  87  88
ENDBRANCH  55  80
BRANCH  67  92
ATOM     92  C   UNL A   1      42.722  34.132  34.013  1.00  0.00     0.058 A 
ATOM     93  C   UNL A   1      42.470  34.243  35.388  1.00  0.00     0.135 A 
ATOM     94  C   UNL A   1      43.451  35.161  33.391  1.00  0.00     0.135 A 
ATOM     95  F   UNL A   1      41.771  33.291  36.027  1.00  0.00    -0.206 F 
ATOM     96  C   UNL A   1      42.916  35.339  36.118  1.00  0.00     0.059 A 
ATOM     97  C   UNL A   1      43.935  36.247  34.108  1.00  0.00     0.059 A 
ATOM     98  F   UNL A   1      43.726  35.096  32.079  1.00  0.00    -0.206 F 
ATOM     99  C   UNL A   1      43.657  36.331  35.471  1.00  0.00     0.060 A 
BRANCH  99 100
ATOM    100  S   UNL A   1      44.287  37.712  36.447  1.00  0.00     0.124 S 
ATOM    101  O   UNL A   1      43.366  37.717  37.578  1.00  0.00    -0.237 OA
ATOM    102  O   UNL A   1      45.652  37.285  36.742  1.00  0.00    -0.237 OA
ATOM    103  O   UNL A   1      44.173  38.850  35.540  1.00  0.00    -0.744 OA
ENDBRANCH  99 100
ENDBRANCH  67  92
ENDBRANCH  41  42
ENDBRANCH  33  36
ENDBRANCH  31  32
ENDBRANCH   1  31
TORSDOF 17
ENDMDL
MODEL 3
REMARK VINA RESULT:     -12.4      3.299      9.778
REMARK SMILES O=C(NCCCCNC(=O)c1ccc(-c2c3nc(c(-c4c(F)cc(S(=O)(=O)[O-])cc4F)c4ccc([nH]4)c(-c4c(F)cc(S(=O)(=O)[O-])cc4F)c4nc(c(-c5c(F)cc(S(=O)(=O)[O-])cc5F)c5ccc2[nH]5)C=C4)C=C3)cc1)C1=Cc2cc(Cl)cc(C#Cc3ccccc3)c2O[C@@H]1C(F)(F)F
REMARK SMILES IDX 6 1 5 2 4 3 3 4 1 5 2 6 77 8 78 9 95 10 79 11 94 12 80 13
REMARK SMILES IDX 93 14 81 15 84 16 82 17 83 18 96 19 97 20 98 21 99 22 85 23
REMARK SMILES IDX 86 24 87 25 88 26 92 27 89 28 91 29 90 30 7 31 8 32 9 33
REMARK SMILES IDX 10 35 11 36 12 37 76 38 13 39 75 40 14 41 15 42 16 43 69 44
REMARK SMILES IDX 17 45 74 46 68 47 70 48 18 49 73 50 67 51 66 52 19 54 53 55
REMARK SMILES IDX 32 56 52 57 33 58 36 59 51 60 71 61 34 62 35 63 50 65 72 66
REMARK SMILES IDX 37 67 20 68 21 69 30 70 22 71 23 72 29 73 31 74 24 75 25 76
REMARK SMILES IDX 26 77 27 78 28 79 54 80 55 81 64 82 56 83 57 84 63 85 65 86
REMARK SMILES IDX 58 87 59 88 60 89 61 90 62 91 38 92 39 93 48 94 40 95 41 96
REMARK SMILES IDX 47 97 49 98 42 99 43 100 44 101 45 102 46 103
REMARK H PARENT 3 7 8 34 70 53 36 64
REMARK Flexibility Score: inf
ROOT
ATOM      1  C   UNL A   1      35.260  22.451  25.480  1.00  0.00     0.023 C 
ENDROOT
BRANCH   1   2
ATOM      2  C   UNL A   1      35.103  22.286  23.980  1.00  0.00     0.023 C 
BRANCH   2   3
ATOM      3  C   UNL A   1      33.768  22.752  23.428  1.00  0.00     0.116 C 
BRANCH   3   4
ATOM      4  N   UNL A   1      33.755  24.056  22.798  1.00  0.00    -0.352 N 
ATOM      5  O   UNL A   1      33.758  26.308  22.743  1.00  0.00    -0.270 OA
ATOM      6  C   UNL A   1      33.503  25.278  23.364  1.00  0.00     0.251 C 
ATOM      7  H   UNL A   1      33.954  24.066  21.834  1.00  0.00     0.163 HD
BRANCH   6   8
ATOM      8  C   UNL A   1      33.014  25.405  24.771  1.00  0.00     0.067 C 
ATOM      9  C   UNL A   1      33.745  25.994  25.734  1.00  0.00     0.025 C 
ATOM     10  C   UNL A   1      31.513  25.479  24.868  1.00  0.00     0.314 C 
ATOM     11  C   UNL A   1      33.161  27.286  26.189  1.00  0.00     0.020 A 
ATOM     12  O   UNL A   1      31.061  26.854  25.024  1.00  0.00    -0.474 OA
ATOM     13  C   UNL A   1      34.050  28.196  26.777  1.00  0.00     0.032 A 
ATOM     14  C   UNL A   1      31.936  27.729  25.634  1.00  0.00     0.143 A 
ATOM     15  C   UNL A   1      33.768  29.557  26.715  1.00  0.00     0.043 A 
ATOM     16  C   UNL A   1      31.690  29.110  25.535  1.00  0.00     0.069 A 
ATOM     17  Cl  UNL A   1      34.947  30.687  27.260  1.00  0.00    -0.084 Cl
ATOM     18  C   UNL A   1      32.614  30.017  26.083  1.00  0.00     0.041 A 
BRANCH  10  19
ATOM     19  C   UNL A   1      31.012  24.538  25.981  1.00  0.00     0.429 C 
ATOM     20  F   UNL A   1      29.734  24.806  26.334  1.00  0.00    -0.167 F 
ATOM     21  F   UNL A   1      31.043  23.240  25.582  1.00  0.00    -0.167 F 
ATOM     22  F   UNL A   1      31.765  24.613  27.106  1.00  0.00    -0.167 F 
ENDBRANCH  10  19
BRANCH  16  23
ATOM     23  C   UNL A   1      30.667  29.665  24.691  1.00  0.00    -0.058 C 
ATOM     24  C   UNL A   1      29.949  30.221  23.892  1.00  0.00    -0.062 C 
BRANCH  24  25
ATOM     25  C   UNL A   1      29.194  30.914  22.888  1.00  0.00     0.025 A 
ATOM     26  C   UNL A   1      28.803  30.259  21.719  1.00  0.00     0.017 A 
ATOM     27  C   UNL A   1      28.871  32.266  23.050  1.00  0.00     0.017 A 
ATOM     28  C   UNL A   1      28.119  30.953  20.714  1.00  0.00     0.001 A 
ATOM     29  C   UNL A   1      28.210  32.967  22.034  1.00  0.00     0.001 A 
ATOM     30  C   UNL A   1      27.836  32.311  20.865  1.00  0.00     0.000 A 
ENDBRANCH  24  25
ENDBRANCH  16  23
ENDBRANCH   6   8
ENDBRANCH   3   4
ENDBRANCH   2   3
ENDBRANCH   1   2
BRANCH   1  31
ATOM     31  C   UNL A   1      36.553  23.116  25.936  1.00  0.00     0.116 C 
BRANCH  31  32
ATOM     32  N   UNL A   1      37.686  22.208  26.081  1.00  0.00    -0.352 N 
ATOM     33  C   UNL A   1      38.972  22.515  26.473  1.00  0.00     0.251 C 
ATOM     34  H   UNL A   1      37.511  21.261  25.874  1.00  0.00     0.163 HD
ATOM     35  O   UNL A   1      39.847  21.657  26.489  1.00  0.00    -0.269 OA
BRANCH  33  36
ATOM     36  C   UNL A   1      39.280  23.908  26.860  1.00  0.00     0.039 A 
ATOM     37  C   UNL A   1      39.145  24.314  28.190  1.00  0.00     0.014 A 
ATOM     38  C   UNL A   1      39.800  24.781  25.904  1.00  0.00     0.014 A 
ATOM     39  C   UNL A   1      39.625  25.568  28.573  1.00  0.00     0.010 A 
ATOM     40  C   UNL A   1      40.332  25.995  26.291  1.00  0.00     0.010 A 
ATOM     41  C   UNL A   1      40.259  26.393  27.630  1.00  0.00    -0.014 A 
BRANCH  41  42
ATOM     42  C   UNL A   1      40.910  27.672  27.980  1.00  0.00     0.031 A 
ATOM     43  C   UNL A   1      42.411  27.748  27.974  1.00  0.00     0.074 A 
ATOM     44  C   UNL A   1      40.158  28.668  28.488  1.00  0.00     0.049 A 
ATOM     45  N   UNL A   1      43.191  28.683  28.441  1.00  0.00    -0.248 NA
ATOM     46  C   UNL A   1      43.129  26.587  27.415  1.00  0.00     0.031 C 
ATOM     47  C   UNL A   1      38.699  28.639  28.625  1.00  0.00     0.029 A 
ATOM     48  N   UNL A   1      40.516  29.875  29.027  1.00  0.00    -0.354 N 
ATOM     49  C   UNL A   1      44.487  28.218  28.256  1.00  0.00     0.074 A 
ATOM     50  C   UNL A   1      44.390  26.896  27.680  1.00  0.00     0.031 C 
ATOM     51  C   UNL A   1      38.288  29.776  29.210  1.00  0.00     0.029 A 
ATOM     52  C   UNL A   1      39.453  30.596  29.521  1.00  0.00     0.049 A 
ATOM     53  H   UNL A   1      41.446  30.197  29.057  1.00  0.00     0.167 HD
ATOM     54  C   UNL A   1      45.648  28.856  28.525  1.00  0.00     0.037 A 
ATOM     55  C   UNL A   1      39.431  31.778  30.167  1.00  0.00     0.037 A 
ATOM     56  C   UNL A   1      45.709  30.190  29.062  1.00  0.00     0.049 A 
ATOM     57  C   UNL A   1      40.739  32.487  30.408  1.00  0.00     0.074 A 
ATOM     58  C   UNL A   1      46.825  30.978  29.278  1.00  0.00     0.029 A 
ATOM     59  N   UNL A   1      44.609  30.933  29.464  1.00  0.00    -0.354 N 
ATOM     60  N   UNL A   1      41.957  32.082  30.133  1.00  0.00    -0.248 NA
ATOM     61  C   UNL A   1      40.675  33.815  31.031  1.00  0.00     0.031 C 
ATOM     62  C   UNL A   1      46.404  32.177  29.859  1.00  0.00     0.029 A 
ATOM     63  C   UNL A   1      45.020  32.164  29.941  1.00  0.00     0.049 A 
ATOM     64  H   UNL A   1      43.673  30.628  29.417  1.00  0.00     0.167 HD
ATOM     65  C   UNL A   1      42.798  33.125  30.502  1.00  0.00     0.074 A 
ATOM     66  C   UNL A   1      41.951  34.178  31.020  1.00  0.00     0.031 C 
ATOM     67  C   UNL A   1      44.148  33.208  30.416  1.00  0.00     0.037 A 
BRANCH  54  68
ATOM     68  C   UNL A   1      46.944  28.152  28.226  1.00  0.00     0.058 A 
ATOM     69  C   UNL A   1      47.539  27.279  29.151  1.00  0.00     0.135 A 
ATOM     70  C   UNL A   1      47.547  28.273  26.963  1.00  0.00     0.135 A 
ATOM     71  F   UNL A   1      47.019  27.139  30.381  1.00  0.00    -0.206 F 
ATOM     72  C   UNL A   1      48.684  26.555  28.837  1.00  0.00     0.059 A 
ATOM     73  C   UNL A   1      48.673  27.534  26.616  1.00  0.00     0.059 A 
ATOM     74  F   UNL A   1      47.026  29.100  26.043  1.00  0.00    -0.206 F 
ATOM     75  C   UNL A   1      49.235  26.679  27.561  1.00  0.00     0.060 A 
BRANCH  75  76
ATOM     76  S   UNL A   1      50.681  25.679  27.153  1.00  0.00     0.124 S 
ATOM     77  O   UNL A   1      51.734  26.374  27.886  1.00  0.00    -0.237 OA
ATOM     78  O   UNL A   1      50.306  24.367  27.671  1.00  0.00    -0.237 OA
ATOM     79  O   UNL A   1      50.762  25.775  25.698  1.00  0.00    -0.744 OA
ENDBRANCH  75  76
ENDBRANCH  54  68
BRANCH  55  80
ATOM     80  C   UNL A   1      38.141  32.381  30.597  1.00  0.00     0.058 A 
ATOM     81  C   UNL A   1      37.378  33.157  29.711  1.00  0.00     0.135 A 
ATOM     82  C   UNL A   1      37.648  32.210  31.901  1.00  0.00     0.135 A 
ATOM     83  F   UNL A   1      37.803  33.346  28.451  1.00  0.00    -0.206 F 
ATOM     84  C   UNL A   1      36.201  33.779  30.109  1.00  0.00     0.059 A 
ATOM     85  C   UNL A   1      36.455  32.795  32.314  1.00  0.00     0.059 A 
ATOM     86  F   UNL A   1      38.320  31.453  32.781  1.00  0.00    -0.206 F 
ATOM     87  C   UNL A   1      35.749  33.596  31.417  1.00  0.00     0.060 A 
BRANCH  87  88
ATOM     88  S   UNL A   1      34.220  34.412  31.925  1.00  0.00     0.124 S 
ATOM     89  O   UNL A   1      33.642  33.416  32.820  1.00  0.00    -0.237 OA
ATOM     90  O   UNL A   1      34.720  35.628  32.561  1.00  0.00    -0.237 OA
ATOM     91  O   UNL A   1      33.514  34.617  30.665  1.00  0.00    -0.744 OA
ENDBRANCH  87  88
ENDBRANCH  55  80
BRANCH  67  92
ATOM     92  C   UNL A   1      44.794  34.505  30.817  1.00  0.00     0.058 A 
ATOM     93  C   UNL A   1      44.948  35.569  29.918  1.00  0.00     0.135 A 
ATOM     94  C   UNL A   1      45.180  34.709  32.153  1.00  0.00     0.135 A 
ATOM     95  F   UNL A   1      44.602  35.422  28.629  1.00  0.00    -0.206 F 
ATOM     96  C   UNL A   1      45.475  36.789  30.326  1.00  0.00     0.059 A 
ATOM     97  C   UNL A   1      45.677  35.930  32.590  1.00  0.00     0.059 A 
ATOM     98  F   UNL A   1      45.043  33.723  33.054  1.00  0.00    -0.206 F 
ATOM     99  C   UNL A   1      45.827  36.964  31.666  1.00  0.00     0.060 A 
BRANCH  99 100
ATOM    100  S   UNL A   1      46.446  38.574  32.194  1.00  0.00     0.124 S 
ATOM    101  O   UNL A   1      47.785  38.579  31.616  1.00  0.00    -0.237 OA
ATOM    102  O   UNL A   1      45.488  39.490  31.582  1.00  0.00    -0.237 OA
ATOM    103  O   UNL A   1      46.392  38.500  33.651  1.00  0.00    -0.744 OA
ENDBRANCH  99 100
ENDBRANCH  67  92
ENDBRANCH  41  42
ENDBRANCH  33  36
ENDBRANCH  31  32
ENDBRANCH   1  31
TORSDOF 17
ENDMDL
