MODEL 1
REMARK VINA RESULT:     -13.1      0.000      0.000
REMARK SMILES O=C(NCCCCNC(=O)c1ccc2nc(-c3c[nH]nc3-c3ccc(F)cc3F)[nH]c2c1)c1ccc(-c2c3nc(c(-c4c(F)cc(S(=O)(=O)[O-])cc4F)c4ccc([nH]4)c(-c4c(F)cc(S(=O)(=O)[O-])cc4F)c4nc(c(-c5c(F)cc(S(=O)(=O)[O-])cc5F)c5ccc2[nH]5)C=C4)C=C3)cc1
REMARK SMILES IDX 5 1 4 2 3 3 1 4 2 5 33 7 34 8 98 9 35 10 97 11 36 12 37 13
REMARK SMILES IDX 38 14 91 15 39 16 96 17 90 18 92 19 40 20 95 21 89 22 88 23
REMARK SMILES IDX 41 25 75 26 54 27 74 28 55 29 58 30 73 31 93 32 56 33 57 34
REMARK SMILES IDX 72 36 94 37 59 38 42 39 43 40 52 41 44 42 45 43 51 44 53 45
REMARK SMILES IDX 46 46 47 47 48 48 49 49 50 50 76 51 77 52 86 53 78 54 79 55
REMARK SMILES IDX 85 56 87 57 80 58 81 59 82 60 83 61 84 62 60 63 61 64 70 65
REMARK SMILES IDX 62 66 63 67 69 68 71 69 64 70 65 71 66 72 67 73 68 74 6 75
REMARK SMILES IDX 7 76 8 77 9 78 10 80 11 81 12 82 32 83 13 84 31 85 14 86
REMARK SMILES IDX 30 87 15 88 16 89 17 91 18 92 21 93 19 94 20 95 22 97 23 98
REMARK SMILES IDX 28 99 24 100 27 101 29 102 25 103 26 104
REMARK H PARENT 3 6 92 24 58 35 8 79 30 90 19 96
REMARK Flexibility Score: inf
ROOT
ATOM      1  C   UNL A   1      37.402  23.603  25.388  1.00  0.00     0.023 C 
ENDROOT
BRANCH   1   2
ATOM      2  C   UNL A   1      38.360  24.033  26.491  1.00  0.00     0.116 C 
BRANCH   2   3
ATOM      3  N   UNL A   1      39.756  23.958  26.092  1.00  0.00    -0.352 N 
ATOM      4  O   UNL A   1      41.907  24.621  25.936  1.00  0.00    -0.269 OA
ATOM      5  C   UNL A   1      40.815  24.744  26.486  1.00  0.00     0.251 C 
ATOM      6  H   UNL A   1      39.975  23.245  25.449  1.00  0.00     0.163 HD
BRANCH   5   7
ATOM      7  C   UNL A   1      40.622  25.754  27.548  1.00  0.00     0.039 A 
ATOM      8  C   UNL A   1      41.443  26.882  27.613  1.00  0.00     0.014 A 
ATOM      9  C   UNL A   1      39.619  25.560  28.502  1.00  0.00     0.014 A 
ATOM     10  C   UNL A   1      41.367  27.725  28.715  1.00  0.00     0.010 A 
ATOM     11  C   UNL A   1      39.484  26.462  29.562  1.00  0.00     0.010 A 
ATOM     12  C   UNL A   1      40.380  27.534  29.696  1.00  0.00    -0.014 A 
BRANCH  12  13
ATOM     13  C   UNL A   1      40.278  28.501  30.818  1.00  0.00     0.031 A 
ATOM     14  C   UNL A   1      41.222  28.444  31.989  1.00  0.00     0.074 A 
ATOM     15  C   UNL A   1      39.347  29.473  30.744  1.00  0.00     0.049 A 
ATOM     16  N   UNL A   1      41.286  29.233  33.031  1.00  0.00    -0.248 NA
ATOM     17  C   UNL A   1      42.219  27.362  31.996  1.00  0.00     0.031 C 
ATOM     18  C   UNL A   1      38.376  29.624  29.656  1.00  0.00     0.029 A 
ATOM     19  N   UNL A   1      39.078  30.529  31.576  1.00  0.00    -0.354 N 
ATOM     20  C   UNL A   1      42.316  28.741  33.823  1.00  0.00     0.074 A 
ATOM     21  C   UNL A   1      42.833  27.565  33.155  1.00  0.00     0.031 C 
ATOM     22  C   UNL A   1      37.664  30.742  29.855  1.00  0.00     0.029 A 
ATOM     23  C   UNL A   1      38.078  31.350  31.113  1.00  0.00     0.049 A 
ATOM     24  H   UNL A   1      39.557  30.685  32.422  1.00  0.00     0.167 HD
ATOM     25  C   UNL A   1      42.790  29.230  34.994  1.00  0.00     0.037 A 
ATOM     26  C   UNL A   1      37.543  32.465  31.645  1.00  0.00     0.037 A 
ATOM     27  C   UNL A   1      42.275  30.408  35.646  1.00  0.00     0.049 A 
ATOM     28  C   UNL A   1      38.068  32.971  32.956  1.00  0.00     0.074 A 
ATOM     29  C   UNL A   1      42.694  30.991  36.830  1.00  0.00     0.029 A 
ATOM     30  N   UNL A   1      41.228  31.186  35.171  1.00  0.00    -0.354 N 
ATOM     31  N   UNL A   1      39.042  32.488  33.691  1.00  0.00    -0.248 NA
ATOM     32  C   UNL A   1      37.418  34.161  33.516  1.00  0.00     0.031 C 
ATOM     33  C   UNL A   1      41.878  32.097  37.090  1.00  0.00     0.029 A 
ATOM     34  C   UNL A   1      40.978  32.232  36.045  1.00  0.00     0.049 A 
ATOM     35  H   UNL A   1      40.736  31.019  34.334  1.00  0.00     0.167 HD
ATOM     36  C   UNL A   1      39.129  33.323  34.797  1.00  0.00     0.074 A 
ATOM     37  C   UNL A   1      38.121  34.350  34.626  1.00  0.00     0.031 C 
ATOM     38  C   UNL A   1      39.965  33.242  35.861  1.00  0.00     0.037 A 
BRANCH  25  39
ATOM     39  C   UNL A   1      43.919  28.489  35.660  1.00  0.00     0.058 A 
ATOM     40  C   UNL A   1      43.654  27.487  36.610  1.00  0.00     0.135 A 
ATOM     41  C   UNL A   1      45.262  28.798  35.395  1.00  0.00     0.135 A 
ATOM     42  F   UNL A   1      42.389  27.151  36.902  1.00  0.00    -0.206 F 
ATOM     43  C   UNL A   1      44.679  26.820  37.275  1.00  0.00     0.059 A 
ATOM     44  C   UNL A   1      46.303  28.127  36.032  1.00  0.00     0.059 A 
ATOM     45  F   UNL A   1      45.573  29.736  34.487  1.00  0.00    -0.206 F 
ATOM     46  C   UNL A   1      46.002  27.139  36.970  1.00  0.00     0.060 A 
BRANCH  46  47
ATOM     47  S   UNL A   1      47.366  26.278  37.783  1.00  0.00     0.124 S 
ATOM     48  O   UNL A   1      47.469  25.068  36.973  1.00  0.00    -0.237 OA
ATOM     49  O   UNL A   1      48.463  27.230  37.641  1.00  0.00    -0.237 OA
ATOM     50  O   UNL A   1      46.882  26.082  39.145  1.00  0.00    -0.744 OA
ENDBRANCH  46  47
ENDBRANCH  25  39
BRANCH  26  51
ATOM     51  C   UNL A   1      36.454  33.171  30.921  1.00  0.00     0.058 A 
ATOM     52  C   UNL A   1      36.730  33.984  29.810  1.00  0.00     0.135 A 
ATOM     53  C   UNL A   1      35.126  33.091  31.361  1.00  0.00     0.135 A 
ATOM     54  F   UNL A   1      37.990  34.106  29.362  1.00  0.00    -0.206 F 
ATOM     55  C   UNL A   1      35.732  34.715  29.175  1.00  0.00     0.059 A 
ATOM     56  C   UNL A   1      34.107  33.794  30.727  1.00  0.00     0.059 A 
ATOM     57  F   UNL A   1      34.814  32.323  32.417  1.00  0.00    -0.206 F 
ATOM     58  C   UNL A   1      34.423  34.611  29.639  1.00  0.00     0.060 A 
BRANCH  58  59
ATOM     59  S   UNL A   1      33.103  35.574  28.871  1.00  0.00     0.124 S 
ATOM     60  O   UNL A   1      33.863  36.525  28.067  1.00  0.00    -0.237 OA
ATOM     61  O   UNL A   1      32.371  34.552  28.130  1.00  0.00    -0.237 OA
ATOM     62  O   UNL A   1      32.391  36.140  30.013  1.00  0.00    -0.744 OA
ENDBRANCH  58  59
ENDBRANCH  26  51
BRANCH  38  63
ATOM     63  C   UNL A   1      39.836  34.304  36.916  1.00  0.00     0.058 A 
ATOM     64  C   UNL A   1      39.095  34.062  38.083  1.00  0.00     0.135 A 
ATOM     65  C   UNL A   1      40.407  35.575  36.750  1.00  0.00     0.135 A 
ATOM     66  F   UNL A   1      38.524  32.865  38.285  1.00  0.00    -0.206 F 
ATOM     67  C   UNL A   1      38.918  35.046  39.051  1.00  0.00     0.059 A 
ATOM     68  C   UNL A   1      40.262  36.566  37.716  1.00  0.00     0.059 A 
ATOM     69  F   UNL A   1      41.132  35.853  35.655  1.00  0.00    -0.206 F 
ATOM     70  C   UNL A   1      39.514  36.292  38.863  1.00  0.00     0.060 A 
BRANCH  70  71
ATOM     71  S   UNL A   1      39.311  37.598  40.092  1.00  0.00     0.124 S 
ATOM     72  O   UNL A   1      38.993  36.828  41.289  1.00  0.00    -0.237 OA
ATOM     73  O   UNL A   1      40.620  38.242  40.081  1.00  0.00    -0.237 OA
ATOM     74  O   UNL A   1      38.218  38.403  39.555  1.00  0.00    -0.744 OA
ENDBRANCH  70  71
ENDBRANCH  38  63
ENDBRANCH  12  13
ENDBRANCH   5   7
ENDBRANCH   2   3
ENDBRANCH   1   2
BRANCH   1  75
ATOM     75  C   UNL A   1      36.943  22.146  25.457  1.00  0.00     0.023 C 
BRANCH  75  76
ATOM     76  C   UNL A   1      35.674  21.907  26.270  1.00  0.00     0.116 C 
BRANCH  76  77
ATOM     77  N   UNL A   1      34.856  20.845  25.706  1.00  0.00    -0.352 N 
ATOM     78  C   UNL A   1      33.511  20.851  25.449  1.00  0.00     0.251 C 
ATOM     79  H   UNL A   1      35.331  20.013  25.481  1.00  0.00     0.163 HD
ATOM     80  O   UNL A   1      32.923  19.828  25.116  1.00  0.00    -0.269 OA
BRANCH  78  81
ATOM     81  C   UNL A   1      32.760  22.107  25.590  1.00  0.00     0.042 A 
ATOM     82  C   UNL A   1      32.241  22.472  26.840  1.00  0.00     0.016 A 
ATOM     83  C   UNL A   1      32.610  22.914  24.453  1.00  0.00     0.042 A 
ATOM     84  C   UNL A   1      31.552  23.679  26.992  1.00  0.00     0.031 A 
ATOM     85  C   UNL A   1      31.896  24.098  24.637  1.00  0.00     0.067 A 
ATOM     86  C   UNL A   1      31.406  24.509  25.871  1.00  0.00     0.089 A 
ATOM     87  N   UNL A   1      31.513  25.092  23.773  1.00  0.00    -0.338 N 
ATOM     88  N   UNL A   1      30.854  25.757  25.780  1.00  0.00    -0.228 NA
ATOM     89  C   UNL A   1      30.937  26.093  24.511  1.00  0.00     0.142 A 
ATOM     90  H   UNL A   1      31.630  25.087  22.795  1.00  0.00     0.168 HD
BRANCH  89  91
ATOM     91  C   UNL A   1      30.513  27.406  23.978  1.00  0.00     0.063 A 
ATOM     92  C   UNL A   1      29.627  27.620  22.951  1.00  0.00     0.117 A 
ATOM     93  C   UNL A   1      30.946  28.695  24.397  1.00  0.00     0.106 A 
ATOM     94  N   UNL A   1      29.501  28.975  22.866  1.00  0.00    -0.284 N 
ATOM     95  N   UNL A   1      30.318  29.651  23.688  1.00  0.00    -0.175 NA
ATOM     96  H   UNL A   1      28.866  29.418  22.257  1.00  0.00     0.189 HD
BRANCH  93  97
ATOM     97  C   UNL A   1      32.032  29.021  25.318  1.00  0.00     0.039 A 
ATOM     98  C   UNL A   1      31.758  29.780  26.471  1.00  0.00     0.016 A 
ATOM     99  C   UNL A   1      33.340  28.582  25.099  1.00  0.00     0.135 A 
ATOM    100  C   UNL A   1      32.775  30.095  27.373  1.00  0.00     0.040 A 
ATOM    101  C   UNL A   1      34.358  28.888  26.000  1.00  0.00     0.079 A 
ATOM    102  F   UNL A   1      33.657  27.865  24.010  1.00  0.00    -0.206 F 
ATOM    103  C   UNL A   1      34.065  29.643  27.129  1.00  0.00     0.126 A 
ATOM    104  F   UNL A   1      35.040  29.939  27.998  1.00  0.00    -0.207 F 
ENDBRANCH  93  97
ENDBRANCH  89  91
ENDBRANCH  78  81
ENDBRANCH  76  77
ENDBRANCH  75  76
ENDBRANCH   1  75
TORSDOF 16
ENDMDL
MODEL 2
REMARK VINA RESULT:     -12.7      2.229      8.353
REMARK SMILES O=C(NCCCCNC(=O)c1ccc2nc(-c3c[nH]nc3-c3ccc(F)cc3F)[nH]c2c1)c1ccc(-c2c3nc(c(-c4c(F)cc(S(=O)(=O)[O-])cc4F)c4ccc([nH]4)c(-c4c(F)cc(S(=O)(=O)[O-])cc4F)c4nc(c(-c5c(F)cc(S(=O)(=O)[O-])cc5F)c5ccc2[nH]5)C=C4)C=C3)cc1
REMARK SMILES IDX 5 1 4 2 3 3 1 4 2 5 33 7 34 8 98 9 35 10 97 11 36 12 37 13
REMARK SMILES IDX 38 14 91 15 39 16 96 17 90 18 92 19 40 20 95 21 89 22 88 23
REMARK SMILES IDX 41 25 75 26 54 27 74 28 55 29 58 30 73 31 93 32 56 33 57 34
REMARK SMILES IDX 72 36 94 37 59 38 42 39 43 40 52 41 44 42 45 43 51 44 53 45
REMARK SMILES IDX 46 46 47 47 48 48 49 49 50 50 76 51 77 52 86 53 78 54 79 55
REMARK SMILES IDX 85 56 87 57 80 58 81 59 82 60 83 61 84 62 60 63 61 64 70 65
REMARK SMILES IDX 62 66 63 67 69 68 71 69 64 70 65 71 66 72 67 73 68 74 6 75
REMARK SMILES IDX 7 76 8 77 9 78 10 80 11 81 12 82 32 83 13 84 31 85 14 86
REMARK SMILES IDX 30 87 15 88 16 89 17 91 18 92 21 93 19 94 20 95 22 97 23 98
REMARK SMILES IDX 28 99 24 100 27 101 29 102 25 103 26 104
REMARK H PARENT 3 6 92 24 58 35 8 79 30 90 19 96
REMARK Flexibility Score: inf
ROOT
ATOM      1  C   UNL A   1      35.913  23.636  24.751  1.00  0.00     0.023 C 
ENDROOT
BRANCH   1   2
ATOM      2  C   UNL A   1      36.996  24.069  25.730  1.00  0.00     0.116 C 
BRANCH   2   3
ATOM      3  N   UNL A   1      38.162  23.199  25.709  1.00  0.00    -0.352 N 
ATOM      4  O   UNL A   1      40.325  22.624  25.985  1.00  0.00    -0.269 OA
ATOM      5  C   UNL A   1      39.421  23.422  26.216  1.00  0.00     0.251 C 
ATOM      6  H   UNL A   1      38.031  22.327  25.271  1.00  0.00     0.163 HD
BRANCH   5   7
ATOM      7  C   UNL A   1      39.685  24.641  27.012  1.00  0.00     0.039 A 
ATOM      8  C   UNL A   1      40.464  25.675  26.489  1.00  0.00     0.014 A 
ATOM      9  C   UNL A   1      39.160  24.741  28.304  1.00  0.00     0.014 A 
ATOM     10  C   UNL A   1      40.850  26.727  27.310  1.00  0.00     0.010 A 
ATOM     11  C   UNL A   1      39.476  25.848  29.098  1.00  0.00     0.010 A 
ATOM     12  C   UNL A   1      40.352  26.834  28.619  1.00  0.00    -0.014 A 
BRANCH  12  13
ATOM     13  C   UNL A   1      40.723  28.014  29.440  1.00  0.00     0.031 A 
ATOM     14  C   UNL A   1      39.788  29.184  29.597  1.00  0.00     0.074 A 
ATOM     15  C   UNL A   1      41.904  27.998  30.090  1.00  0.00     0.049 A 
ATOM     16  N   UNL A   1      39.948  30.274  30.303  1.00  0.00    -0.248 NA
ATOM     17  C   UNL A   1      38.513  29.127  28.866  1.00  0.00     0.031 C 
ATOM     18  C   UNL A   1      42.891  26.918  30.010  1.00  0.00     0.029 A 
ATOM     19  N   UNL A   1      42.464  28.894  30.963  1.00  0.00    -0.354 N 
ATOM     20  C   UNL A   1      38.807  31.038  30.094  1.00  0.00     0.074 A 
ATOM     21  C   UNL A   1      37.971  30.299  29.172  1.00  0.00     0.031 C 
ATOM     22  C   UNL A   1      43.903  27.183  30.848  1.00  0.00     0.029 A 
ATOM     23  C   UNL A   1      43.672  28.480  31.473  1.00  0.00     0.049 A 
ATOM     24  H   UNL A   1      42.042  29.751  31.203  1.00  0.00     0.167 HD
ATOM     25  C   UNL A   1      38.484  32.240  30.630  1.00  0.00     0.037 A 
ATOM     26  C   UNL A   1      44.509  29.079  32.340  1.00  0.00     0.037 A 
ATOM     27  C   UNL A   1      39.319  32.963  31.557  1.00  0.00     0.049 A 
ATOM     28  C   UNL A   1      44.140  30.422  32.899  1.00  0.00     0.074 A 
ATOM     29  C   UNL A   1      39.076  34.184  32.164  1.00  0.00     0.029 A 
ATOM     30  N   UNL A   1      40.557  32.533  32.012  1.00  0.00    -0.354 N 
ATOM     31  N   UNL A   1      43.056  31.129  32.687  1.00  0.00    -0.248 NA
ATOM     32  C   UNL A   1      45.109  31.053  33.802  1.00  0.00     0.031 C 
ATOM     33  C   UNL A   1      40.183  34.509  32.955  1.00  0.00     0.029 A 
ATOM     34  C   UNL A   1      41.097  33.470  32.878  1.00  0.00     0.049 A 
ATOM     35  H   UNL A   1      40.989  31.686  31.757  1.00  0.00     0.167 HD
ATOM     36  C   UNL A   1      43.207  32.286  33.439  1.00  0.00     0.074 A 
ATOM     37  C   UNL A   1      44.478  32.176  34.125  1.00  0.00     0.031 C 
ATOM     38  C   UNL A   1      42.369  33.346  33.547  1.00  0.00     0.037 A 
BRANCH  25  39
ATOM     39  C   UNL A   1      37.175  32.862  30.222  1.00  0.00     0.058 A 
ATOM     40  C   UNL A   1      37.098  33.686  29.086  1.00  0.00     0.135 A 
ATOM     41  C   UNL A   1      36.006  32.685  30.979  1.00  0.00     0.135 A 
ATOM     42  F   UNL A   1      38.185  33.891  28.326  1.00  0.00    -0.206 F 
ATOM     43  C   UNL A   1      35.912  34.312  28.714  1.00  0.00     0.059 A 
ATOM     44  C   UNL A   1      34.803  33.282  30.612  1.00  0.00     0.059 A 
ATOM     45  F   UNL A   1      36.018  31.898  32.066  1.00  0.00    -0.206 F 
ATOM     46  C   UNL A   1      34.766  34.094  29.478  1.00  0.00     0.060 A 
BRANCH  46  47
ATOM     47  S   UNL A   1      33.196  34.858  29.017  1.00  0.00     0.124 S 
ATOM     48  O   UNL A   1      32.517  34.930  30.307  1.00  0.00    -0.237 OA
ATOM     49  O   UNL A   1      33.624  36.135  28.455  1.00  0.00    -0.237 OA
ATOM     50  O   UNL A   1      32.625  33.916  28.060  1.00  0.00    -0.744 OA
ENDBRANCH  46  47
ENDBRANCH  25  39
BRANCH  26  51
ATOM     51  C   UNL A   1      45.769  28.397  32.730  1.00  0.00     0.058 A 
ATOM     52  C   UNL A   1      45.828  27.574  33.867  1.00  0.00     0.135 A 
ATOM     53  C   UNL A   1      46.952  28.599  32.006  1.00  0.00     0.135 A 
ATOM     54  F   UNL A   1      44.725  27.365  34.603  1.00  0.00    -0.206 F 
ATOM     55  C   UNL A   1      47.020  26.997  34.290  1.00  0.00     0.059 A 
ATOM     56  C   UNL A   1      48.151  28.012  32.395  1.00  0.00     0.059 A 
ATOM     57  F   UNL A   1      46.943  29.373  30.910  1.00  0.00    -0.206 F 
ATOM     58  C   UNL A   1      48.177  27.219  33.545  1.00  0.00     0.060 A 
BRANCH  58  59
ATOM     59  S   UNL A   1      49.754  26.523  34.080  1.00  0.00     0.124 S 
ATOM     60  O   UNL A   1      49.661  26.664  35.529  1.00  0.00    -0.237 OA
ATOM     61  O   UNL A   1      49.676  25.160  33.564  1.00  0.00    -0.237 OA
ATOM     62  O   UNL A   1      50.738  27.378  33.424  1.00  0.00    -0.744 OA
ENDBRANCH  58  59
ENDBRANCH  26  51
BRANCH  38  63
ATOM     63  C   UNL A   1      42.795  34.466  34.454  1.00  0.00     0.058 A 
ATOM     64  C   UNL A   1      43.554  35.537  33.955  1.00  0.00     0.135 A 
ATOM     65  C   UNL A   1      42.492  34.455  35.824  1.00  0.00     0.135 A 
ATOM     66  F   UNL A   1      43.875  35.589  32.654  1.00  0.00    -0.206 F 
ATOM     67  C   UNL A   1      44.004  36.560  34.785  1.00  0.00     0.059 A 
ATOM     68  C   UNL A   1      42.912  35.479  36.667  1.00  0.00     0.059 A 
ATOM     69  F   UNL A   1      41.762  33.458  36.347  1.00  0.00    -0.206 F 
ATOM     70  C   UNL A   1      43.669  36.527  36.138  1.00  0.00     0.060 A 
BRANCH  70  71
ATOM     71  S   UNL A   1      44.231  37.832  37.250  1.00  0.00     0.124 S 
ATOM     72  O   UNL A   1      45.533  37.322  37.667  1.00  0.00    -0.237 OA
ATOM     73  O   UNL A   1      44.258  38.998  36.373  1.00  0.00    -0.237 OA
ATOM     74  O   UNL A   1      43.206  37.859  38.289  1.00  0.00    -0.744 OA
ENDBRANCH  70  71
ENDBRANCH  38  63
ENDBRANCH  12  13
ENDBRANCH   5   7
ENDBRANCH   2   3
ENDBRANCH   1   2
BRANCH   1  75
ATOM     75  C   UNL A   1      35.769  22.126  24.567  1.00  0.00     0.023 C 
BRANCH  75  76
ATOM     76  C   UNL A   1      35.171  21.384  25.760  1.00  0.00     0.116 C 
BRANCH  76  77
ATOM     77  N   UNL A   1      34.152  20.429  25.355  1.00  0.00    -0.352 N 
ATOM     78  C   UNL A   1      32.797  20.607  25.285  1.00  0.00     0.251 C 
ATOM     79  H   UNL A   1      34.481  19.537  25.098  1.00  0.00     0.163 HD
ATOM     80  O   UNL A   1      32.041  19.665  25.074  1.00  0.00    -0.269 OA
BRANCH  78  81
ATOM     81  C   UNL A   1      32.240  21.955  25.480  1.00  0.00     0.042 A 
ATOM     82  C   UNL A   1      31.999  22.427  26.777  1.00  0.00     0.016 A 
ATOM     83  C   UNL A   1      31.990  22.733  24.341  1.00  0.00     0.042 A 
ATOM     84  C   UNL A   1      31.498  23.718  26.975  1.00  0.00     0.031 A 
ATOM     85  C   UNL A   1      31.469  24.005  24.575  1.00  0.00     0.067 A 
ATOM     86  C   UNL A   1      31.258  24.520  25.850  1.00  0.00     0.089 A 
ATOM     87  N   UNL A   1      31.062  25.009  23.735  1.00  0.00    -0.338 N 
ATOM     88  N   UNL A   1      30.854  25.824  25.783  1.00  0.00    -0.228 NA
ATOM     89  C   UNL A   1      30.751  26.101  24.501  1.00  0.00     0.142 A 
ATOM     90  H   UNL A   1      31.002  24.955  22.753  1.00  0.00     0.168 HD
BRANCH  89  91
ATOM     91  C   UNL A   1      30.401  27.439  23.974  1.00  0.00     0.063 A 
ATOM     92  C   UNL A   1      29.530  27.707  22.947  1.00  0.00     0.117 A 
ATOM     93  C   UNL A   1      30.905  28.700  24.400  1.00  0.00     0.106 A 
ATOM     94  N   UNL A   1      29.480  29.067  22.869  1.00  0.00    -0.284 N 
ATOM     95  N   UNL A   1      30.332  29.692  23.696  1.00  0.00    -0.175 NA
ATOM     96  H   UNL A   1      28.872  29.548  22.261  1.00  0.00     0.189 HD
BRANCH  93  97
ATOM     97  C   UNL A   1      32.005  28.960  25.325  1.00  0.00     0.039 A 
ATOM     98  C   UNL A   1      31.774  29.735  26.476  1.00  0.00     0.016 A 
ATOM     99  C   UNL A   1      33.285  28.443  25.111  1.00  0.00     0.135 A 
ATOM    100  C   UNL A   1      32.805  29.990  27.381  1.00  0.00     0.040 A 
ATOM    101  C   UNL A   1      34.318  28.688  26.014  1.00  0.00     0.079 A 
ATOM    102  F   UNL A   1      33.561  27.707  24.023  1.00  0.00    -0.206 F 
ATOM    103  C   UNL A   1      34.067  29.460  27.141  1.00  0.00     0.126 A 
ATOM    104  F   UNL A   1      35.056  29.697  28.013  1.00  0.00    -0.207 F 
ENDBRANCH  93  97
ENDBRANCH  89  91
ENDBRANCH  78  81
ENDBRANCH  76  77
ENDBRANCH  75  76
ENDBRANCH   1  75
TORSDOF 16
ENDMDL
MODEL 3
REMARK VINA RESULT:     -12.6      0.549      8.034
REMARK SMILES O=C(NCCCCNC(=O)c1ccc2nc(-c3c[nH]nc3-c3ccc(F)cc3F)[nH]c2c1)c1ccc(-c2c3nc(c(-c4c(F)cc(S(=O)(=O)[O-])cc4F)c4ccc([nH]4)c(-c4c(F)cc(S(=O)(=O)[O-])cc4F)c4nc(c(-c5c(F)cc(S(=O)(=O)[O-])cc5F)c5ccc2[nH]5)C=C4)C=C3)cc1
REMARK SMILES IDX 5 1 4 2 3 3 1 4 2 5 33 7 34 8 98 9 35 10 97 11 36 12 37 13
REMARK SMILES IDX 38 14 91 15 39 16 96 17 90 18 92 19 40 20 95 21 89 22 88 23
REMARK SMILES IDX 41 25 75 26 54 27 74 28 55 29 58 30 73 31 93 32 56 33 57 34
REMARK SMILES IDX 72 36 94 37 59 38 42 39 43 40 52 41 44 42 45 43 51 44 53 45
REMARK SMILES IDX 46 46 47 47 48 48 49 49 50 50 76 51 77 52 86 53 78 54 79 55
REMARK SMILES IDX 85 56 87 57 80 58 81 59 82 60 83 61 84 62 60 63 61 64 70 65
REMARK SMILES IDX 62 66 63 67 69 68 71 69 64 70 65 71 66 72 67 73 68 74 6 75
REMARK SMILES IDX 7 76 8 77 9 78 10 80 11 81 12 82 32 83 13 84 31 85 14 86
REMARK SMILES IDX 30 87 15 88 16 89 17 91 18 92 21 93 19 94 20 95 22 97 23 98
REMARK SMILES IDX 28 99 24 100 27 101 29 102 25 103 26 104
REMARK H PARENT 3 6 92 24 58 35 8 79 30 90 19 96
REMARK Flexibility Score: inf
ROOT
ATOM      1  C   UNL A   1      37.063  23.927  25.768  1.00  0.00     0.023 C 
ENDROOT
BRANCH   1   2
ATOM      2  C   UNL A   1      38.172  24.403  26.697  1.00  0.00     0.116 C 
BRANCH   2   3
ATOM      3  N   UNL A   1      39.494  24.311  26.096  1.00  0.00    -0.352 N 
ATOM      4  O   UNL A   1      41.632  24.903  25.690  1.00  0.00    -0.269 OA
ATOM      5  C   UNL A   1      40.635  25.017  26.399  1.00  0.00     0.251 C 
ATOM      6  H   UNL A   1      39.585  23.651  25.371  1.00  0.00     0.163 HD
BRANCH   5   7
ATOM      7  C   UNL A   1      40.644  25.935  27.559  1.00  0.00     0.039 A 
ATOM      8  C   UNL A   1      39.747  25.753  28.613  1.00  0.00     0.014 A 
ATOM      9  C   UNL A   1      41.548  27.001  27.581  1.00  0.00     0.014 A 
ATOM     10  C   UNL A   1      39.646  26.723  29.604  1.00  0.00     0.010 A 
ATOM     11  C   UNL A   1      41.506  27.926  28.629  1.00  0.00     0.010 A 
ATOM     12  C   UNL A   1      40.531  27.813  29.632  1.00  0.00    -0.014 A 
BRANCH  12  13
ATOM     13  C   UNL A   1      40.445  28.786  30.750  1.00  0.00     0.031 A 
ATOM     14  C   UNL A   1      39.413  29.883  30.756  1.00  0.00     0.074 A 
ATOM     15  C   UNL A   1      41.284  28.639  31.795  1.00  0.00     0.049 A 
ATOM     16  N   UNL A   1      39.186  30.791  31.670  1.00  0.00    -0.248 NA
ATOM     17  C   UNL A   1      38.525  29.976  29.587  1.00  0.00     0.031 C 
ATOM     18  C   UNL A   1      42.326  27.614  31.895  1.00  0.00     0.029 A 
ATOM     19  N   UNL A   1      41.380  29.325  32.977  1.00  0.00    -0.354 N 
ATOM     20  C   UNL A   1      38.143  31.570  31.186  1.00  0.00     0.074 A 
ATOM     21  C   UNL A   1      37.797  31.045  29.882  1.00  0.00     0.031 C 
ATOM     22  C   UNL A   1      42.911  27.698  33.098  1.00  0.00     0.029 A 
ATOM     23  C   UNL A   1      42.335  28.821  33.827  1.00  0.00     0.049 A 
ATOM     24  H   UNL A   1      40.818  30.103  33.198  1.00  0.00     0.167 HD
ATOM     25  C   UNL A   1      37.525  32.621  31.780  1.00  0.00     0.037 A 
ATOM     26  C   UNL A   1      42.716  29.222  35.054  1.00  0.00     0.037 A 
ATOM     27  C   UNL A   1      37.870  33.130  33.084  1.00  0.00     0.049 A 
ATOM     28  C   UNL A   1      42.035  30.404  35.678  1.00  0.00     0.074 A 
ATOM     29  C   UNL A   1      37.298  34.183  33.777  1.00  0.00     0.029 A 
ATOM     30  N   UNL A   1      38.877  32.622  33.894  1.00  0.00    -0.354 N 
ATOM     31  N   UNL A   1      41.051  31.130  35.202  1.00  0.00    -0.248 NA
ATOM     32  C   UNL A   1      42.520  30.830  36.996  1.00  0.00     0.031 C 
ATOM     33  C   UNL A   1      37.982  34.337  34.988  1.00  0.00     0.029 A 
ATOM     34  C   UNL A   1      38.952  33.350  35.071  1.00  0.00     0.049 A 
ATOM     35  H   UNL A   1      39.452  31.857  33.666  1.00  0.00     0.167 HD
ATOM     36  C   UNL A   1      40.791  32.093  36.168  1.00  0.00     0.074 A 
ATOM     37  C   UNL A   1      41.709  31.847  37.262  1.00  0.00     0.031 C 
ATOM     38  C   UNL A   1      39.878  33.094  36.147  1.00  0.00     0.037 A 
BRANCH  25  39
ATOM     39  C   UNL A   1      36.418  33.305  31.023  1.00  0.00     0.058 A 
ATOM     40  C   UNL A   1      36.706  34.117  29.913  1.00  0.00     0.135 A 
ATOM     41  C   UNL A   1      35.077  33.196  31.421  1.00  0.00     0.135 A 
ATOM     42  F   UNL A   1      37.971  34.257  29.490  1.00  0.00    -0.206 F 
ATOM     43  C   UNL A   1      35.706  34.799  29.225  1.00  0.00     0.059 A 
ATOM     44  C   UNL A   1      34.057  33.850  30.734  1.00  0.00     0.059 A 
ATOM     45  F   UNL A   1      34.742  32.422  32.466  1.00  0.00    -0.206 F 
ATOM     46  C   UNL A   1      34.382  34.649  29.637  1.00  0.00     0.060 A 
BRANCH  46  47
ATOM     47  S   UNL A   1      33.047  35.488  28.756  1.00  0.00     0.124 S 
ATOM     48  O   UNL A   1      32.267  36.035  29.863  1.00  0.00    -0.237 OA
ATOM     49  O   UNL A   1      33.771  36.464  27.949  1.00  0.00    -0.237 OA
ATOM     50  O   UNL A   1      32.403  34.413  28.008  1.00  0.00    -0.744 OA
ENDBRANCH  46  47
ENDBRANCH  25  39
BRANCH  26  51
ATOM     51  C   UNL A   1      43.792  28.484  35.764  1.00  0.00     0.058 A 
ATOM     52  C   UNL A   1      43.490  27.452  36.669  1.00  0.00     0.135 A 
ATOM     53  C   UNL A   1      45.139  28.832  35.594  1.00  0.00     0.135 A 
ATOM     54  F   UNL A   1      42.213  27.095  36.879  1.00  0.00    -0.206 F 
ATOM     55  C   UNL A   1      44.482  26.810  37.401  1.00  0.00     0.059 A 
ATOM     56  C   UNL A   1      46.151  28.186  36.297  1.00  0.00     0.059 A 
ATOM     57  F   UNL A   1      45.476  29.807  34.737  1.00  0.00    -0.206 F 
ATOM     58  C   UNL A   1      45.810  27.182  37.205  1.00  0.00     0.060 A 
BRANCH  58  59
ATOM     59  S   UNL A   1      47.126  26.403  38.165  1.00  0.00     0.124 S 
ATOM     60  O   UNL A   1      46.786  26.817  39.521  1.00  0.00    -0.237 OA
ATOM     61  O   UNL A   1      46.930  24.989  37.860  1.00  0.00    -0.237 OA
ATOM     62  O   UNL A   1      48.341  26.992  37.610  1.00  0.00    -0.744 OA
ENDBRANCH  58  59
ENDBRANCH  26  51
BRANCH  38  63
ATOM     63  C   UNL A   1      39.816  33.990  37.352  1.00  0.00     0.058 A 
ATOM     64  C   UNL A   1      38.988  33.667  38.438  1.00  0.00     0.135 A 
ATOM     65  C   UNL A   1      40.541  35.190  37.410  1.00  0.00     0.135 A 
ATOM     66  F   UNL A   1      38.270  32.534  38.428  1.00  0.00    -0.206 F 
ATOM     67  C   UNL A   1      38.875  34.506  39.543  1.00  0.00     0.059 A 
ATOM     68  C   UNL A   1      40.461  36.032  38.514  1.00  0.00     0.059 A 
ATOM     69  F   UNL A   1      41.353  35.540  36.399  1.00  0.00    -0.206 F 
ATOM     70  C   UNL A   1      39.623  35.682  39.576  1.00  0.00     0.060 A 
BRANCH  70  71
ATOM     71  S   UNL A   1      39.507  36.800  40.988  1.00  0.00     0.124 S 
ATOM     72  O   UNL A   1      38.769  35.986  41.947  1.00  0.00    -0.237 OA
ATOM     73  O   UNL A   1      40.910  37.042  41.309  1.00  0.00    -0.237 OA
ATOM     74  O   UNL A   1      38.785  37.950  40.453  1.00  0.00    -0.744 OA
ENDBRANCH  70  71
ENDBRANCH  38  63
ENDBRANCH  12  13
ENDBRANCH   5   7
ENDBRANCH   2   3
ENDBRANCH   1   2
BRANCH   1  75
ATOM     75  C   UNL A   1      36.903  22.411  25.668  1.00  0.00     0.023 C 
BRANCH  75  76
ATOM     76  C   UNL A   1      35.550  21.872  26.126  1.00  0.00     0.116 C 
BRANCH  76  77
ATOM     77  N   UNL A   1      35.028  20.864  25.217  1.00  0.00    -0.352 N 
ATOM     78  C   UNL A   1      33.785  20.792  24.648  1.00  0.00     0.251 C 
ATOM     79  H   UNL A   1      35.649  20.138  24.981  1.00  0.00     0.163 HD
ATOM     80  O   UNL A   1      33.428  19.801  24.021  1.00  0.00    -0.269 OA
BRANCH  78  81
ATOM     81  C   UNL A   1      32.858  21.924  24.805  1.00  0.00     0.042 A 
ATOM     82  C   UNL A   1      31.905  21.906  25.832  1.00  0.00     0.016 A 
ATOM     83  C   UNL A   1      32.984  23.004  23.919  1.00  0.00     0.042 A 
ATOM     84  C   UNL A   1      31.040  22.990  26.009  1.00  0.00     0.031 A 
ATOM     85  C   UNL A   1      32.089  24.055  24.110  1.00  0.00     0.067 A 
ATOM     86  C   UNL A   1      31.160  24.088  25.145  1.00  0.00     0.089 A 
ATOM     87  N   UNL A   1      31.879  25.228  23.432  1.00  0.00    -0.338 N 
ATOM     88  N   UNL A   1      30.498  25.284  25.163  1.00  0.00    -0.228 NA
ATOM     89  C   UNL A   1      30.952  25.959  24.129  1.00  0.00     0.142 A 
ATOM     90  H   UNL A   1      32.315  25.498  22.591  1.00  0.00     0.168 HD
BRANCH  89  91
ATOM     91  C   UNL A   1      30.548  27.346  23.810  1.00  0.00     0.063 A 
ATOM     92  C   UNL A   1      29.665  27.732  22.831  1.00  0.00     0.117 A 
ATOM     93  C   UNL A   1      31.000  28.547  24.425  1.00  0.00     0.106 A 
ATOM     94  N   UNL A   1      29.559  29.085  22.960  1.00  0.00    -0.284 N 
ATOM     95  N   UNL A   1      30.386  29.611  23.877  1.00  0.00    -0.175 NA
ATOM     96  H   UNL A   1      28.931  29.627  22.430  1.00  0.00     0.189 HD
BRANCH  93  97
ATOM     97  C   UNL A   1      32.090  28.708  25.384  1.00  0.00     0.039 A 
ATOM     98  C   UNL A   1      31.807  29.159  26.686  1.00  0.00     0.016 A 
ATOM     99  C   UNL A   1      33.413  28.405  25.052  1.00  0.00     0.135 A 
ATOM    100  C   UNL A   1      32.828  29.310  27.625  1.00  0.00     0.040 A 
ATOM    101  C   UNL A   1      34.437  28.549  25.987  1.00  0.00     0.079 A 
ATOM    102  F   UNL A   1      33.739  27.983  23.821  1.00  0.00    -0.206 F 
ATOM    103  C   UNL A   1      34.134  29.000  27.265  1.00  0.00     0.126 A 
ATOM    104  F   UNL A   1      35.114  29.139  28.167  1.00  0.00    -0.207 F 
ENDBRANCH  93  97
ENDBRANCH  89  91
ENDBRANCH  78  81
ENDBRANCH  76  77
ENDBRANCH  75  76
ENDBRANCH   1  75
TORSDOF 16
ENDMDL
