MODEL 1
REMARK VINA RESULT:     -11.7      0.000      0.000
REMARK SMILES O=C(NCCCCNC(=O)[C@@H]1C[C@@H]2CC[C@H]1N2C(=O)c1ccncc1Cl)c1ccc(-c2c3nc(c(-c4c(F)cc(S(=O)(=O)[O-])cc4F)c4ccc([nH]4)c(-c4c(F)cc(S(=O)(=O)[O-])cc4F)c4nc(c(-c5c(F)cc(S(=O)(=O)[O-])cc5F)c5ccc2[nH]5)C=C4)C=C3)cc1
REMARK SMILES IDX 5 1 4 2 3 3 1 4 2 5 27 7 28 8 92 9 29 10 91 11 30 12 31 13
REMARK SMILES IDX 32 14 85 15 33 16 90 17 84 18 86 19 34 20 89 21 83 22 82 23
REMARK SMILES IDX 35 25 69 26 48 27 68 28 49 29 52 30 67 31 87 32 50 33 51 34
REMARK SMILES IDX 66 36 88 37 53 38 36 39 37 40 46 41 38 42 39 43 45 44 47 45
REMARK SMILES IDX 40 46 41 47 42 48 43 49 44 50 70 51 71 52 80 53 72 54 73 55
REMARK SMILES IDX 79 56 81 57 74 58 75 59 76 60 77 61 78 62 54 63 55 64 64 65
REMARK SMILES IDX 56 66 57 67 63 68 65 69 58 70 59 71 60 72 61 73 62 74 6 75
REMARK SMILES IDX 7 76 8 77 9 78 10 80 11 81 12 82 16 83 13 84 15 85 17 86
REMARK SMILES IDX 14 87 18 88 19 89 20 90 21 91 25 92 22 93 24 94 26 95 23 96
REMARK H PARENT 3 6 86 24 52 35 8 79
REMARK Flexibility Score: inf
ROOT
ATOM      1  C   UNL A   1      33.996  31.427  28.063  1.00  0.00     0.023 C 
ENDROOT
BRANCH   1   2
ATOM      2  C   UNL A   1      34.233  32.755  27.376  1.00  0.00     0.116 C 
BRANCH   2   3
ATOM      3  N   UNL A   1      33.302  33.818  27.739  1.00  0.00    -0.352 N 
ATOM      4  O   UNL A   1      32.508  35.478  29.075  1.00  0.00    -0.269 OA
ATOM      5  C   UNL A   1      33.364  34.634  28.856  1.00  0.00     0.251 C 
ATOM      6  H   UNL A   1      32.550  33.971  27.123  1.00  0.00     0.163 HD
BRANCH   5   7
ATOM      7  C   UNL A   1      34.474  34.406  29.809  1.00  0.00     0.039 A 
ATOM      8  C   UNL A   1      35.777  34.692  29.408  1.00  0.00     0.014 A 
ATOM      9  C   UNL A   1      34.230  33.725  31.006  1.00  0.00     0.014 A 
ATOM     10  C   UNL A   1      36.828  34.076  30.066  1.00  0.00     0.010 A 
ATOM     11  C   UNL A   1      35.310  33.227  31.746  1.00  0.00     0.010 A 
ATOM     12  C   UNL A   1      36.617  33.344  31.251  1.00  0.00    -0.014 A 
BRANCH  12  13
ATOM     13  C   UNL A   1      37.802  32.755  31.937  1.00  0.00     0.031 A 
ATOM     14  C   UNL A   1      38.196  33.149  33.338  1.00  0.00     0.074 A 
ATOM     15  C   UNL A   1      38.467  31.769  31.301  1.00  0.00     0.049 A 
ATOM     16  N   UNL A   1      39.178  32.684  34.071  1.00  0.00    -0.248 NA
ATOM     17  C   UNL A   1      37.408  34.199  34.002  1.00  0.00     0.031 C 
ATOM     18  C   UNL A   1      38.190  31.316  29.933  1.00  0.00     0.029 A 
ATOM     19  N   UNL A   1      39.465  30.932  31.727  1.00  0.00    -0.354 N 
ATOM     20  C   UNL A   1      39.153  33.409  35.259  1.00  0.00     0.074 A 
ATOM     21  C   UNL A   1      38.057  34.348  35.150  1.00  0.00     0.031 C 
ATOM     22  C   UNL A   1      38.917  30.223  29.673  1.00  0.00     0.029 A 
ATOM     23  C   UNL A   1      39.782  29.954  30.814  1.00  0.00     0.049 A 
ATOM     24  H   UNL A   1      39.910  31.022  32.601  1.00  0.00     0.167 HD
ATOM     25  C   UNL A   1      39.972  33.301  36.335  1.00  0.00     0.037 A 
ATOM     26  C   UNL A   1      40.683  28.957  30.872  1.00  0.00     0.037 A 
ATOM     27  C   UNL A   1      41.039  32.335  36.446  1.00  0.00     0.049 A 
ATOM     28  C   UNL A   1      41.534  28.825  32.096  1.00  0.00     0.074 A 
ATOM     29  C   UNL A   1      41.934  32.153  37.488  1.00  0.00     0.029 A 
ATOM     30  N   UNL A   1      41.345  31.376  35.492  1.00  0.00    -0.354 N 
ATOM     31  N   UNL A   1      41.523  29.556  33.183  1.00  0.00    -0.248 NA
ATOM     32  C   UNL A   1      42.533  27.751  32.093  1.00  0.00     0.031 C 
ATOM     33  C   UNL A   1      42.790  31.097  37.155  1.00  0.00     0.029 A 
ATOM     34  C   UNL A   1      42.410  30.599  35.920  1.00  0.00     0.049 A 
ATOM     35  H   UNL A   1      40.873  31.263  34.634  1.00  0.00     0.167 HD
ATOM     36  C   UNL A   1      42.534  29.048  33.987  1.00  0.00     0.074 A 
ATOM     37  C   UNL A   1      43.100  27.916  33.280  1.00  0.00     0.031 C 
ATOM     38  C   UNL A   1      42.971  29.494  35.189  1.00  0.00     0.037 A 
BRANCH  25  39
ATOM     39  C   UNL A   1      39.770  34.256  37.479  1.00  0.00     0.058 A 
ATOM     40  C   UNL A   1      39.071  33.885  38.637  1.00  0.00     0.135 A 
ATOM     41  C   UNL A   1      40.350  35.536  37.448  1.00  0.00     0.135 A 
ATOM     42  F   UNL A   1      38.484  32.681  38.715  1.00  0.00    -0.206 F 
ATOM     43  C   UNL A   1      38.944  34.752  39.720  1.00  0.00     0.059 A 
ATOM     44  C   UNL A   1      40.253  36.412  38.527  1.00  0.00     0.059 A 
ATOM     45  F   UNL A   1      41.031  35.942  36.364  1.00  0.00    -0.206 F 
ATOM     46  C   UNL A   1      39.541  36.013  39.657  1.00  0.00     0.060 A 
BRANCH  46  47
ATOM     47  S   UNL A   1      39.394  37.117  41.079  1.00  0.00     0.124 S 
ATOM     48  O   UNL A   1      38.697  36.264  42.037  1.00  0.00    -0.237 OA
ATOM     49  O   UNL A   1      40.788  37.413  41.393  1.00  0.00    -0.237 OA
ATOM     50  O   UNL A   1      38.619  38.240  40.560  1.00  0.00    -0.744 OA
ENDBRANCH  46  47
ENDBRANCH  25  39
BRANCH  26  51
ATOM     51  C   UNL A   1      40.837  28.042  29.713  1.00  0.00     0.058 A 
ATOM     52  C   UNL A   1      41.907  28.177  28.819  1.00  0.00     0.135 A 
ATOM     53  C   UNL A   1      39.943  26.978  29.515  1.00  0.00     0.135 A 
ATOM     54  F   UNL A   1      42.784  29.180  28.968  1.00  0.00    -0.206 F 
ATOM     55  C   UNL A   1      42.087  27.287  27.764  1.00  0.00     0.059 A 
ATOM     56  C   UNL A   1      40.118  26.060  28.487  1.00  0.00     0.059 A 
ATOM     57  F   UNL A   1      38.916  26.796  30.360  1.00  0.00    -0.206 F 
ATOM     58  C   UNL A   1      41.189  26.229  27.611  1.00  0.00     0.060 A 
BRANCH  58  59
ATOM     59  S   UNL A   1      41.465  25.024  26.294  1.00  0.00     0.124 S 
ATOM     60  O   UNL A   1      42.826  24.589  26.578  1.00  0.00    -0.237 OA
ATOM     61  O   UNL A   1      40.414  24.042  26.541  1.00  0.00    -0.237 OA
ATOM     62  O   UNL A   1      41.293  25.820  25.081  1.00  0.00    -0.744 OA
ENDBRANCH  58  59
ENDBRANCH  26  51
BRANCH  38  63
ATOM     63  C   UNL A   1      44.130  28.754  35.790  1.00  0.00     0.058 A 
ATOM     64  C   UNL A   1      45.453  29.115  35.491  1.00  0.00     0.135 A 
ATOM     65  C   UNL A   1      43.919  27.669  36.653  1.00  0.00     0.135 A 
ATOM     66  F   UNL A   1      45.702  30.143  34.663  1.00  0.00    -0.206 F 
ATOM     67  C   UNL A   1      46.531  28.398  35.996  1.00  0.00     0.059 A 
ATOM     68  C   UNL A   1      44.983  26.949  37.185  1.00  0.00     0.059 A 
ATOM     69  F   UNL A   1      42.671  27.291  36.973  1.00  0.00    -0.206 F 
ATOM     70  C   UNL A   1      46.284  27.309  36.834  1.00  0.00     0.060 A 
BRANCH  70  71
ATOM     71  S   UNL A   1      47.687  26.369  37.472  1.00  0.00     0.124 S 
ATOM     72  O   UNL A   1      48.773  27.330  37.324  1.00  0.00    -0.237 OA
ATOM     73  O   UNL A   1      47.277  26.080  38.843  1.00  0.00    -0.237 OA
ATOM     74  O   UNL A   1      47.745  25.211  36.586  1.00  0.00    -0.744 OA
ENDBRANCH  70  71
ENDBRANCH  38  63
ENDBRANCH  12  13
ENDBRANCH   5   7
ENDBRANCH   2   3
ENDBRANCH   1   2
BRANCH   1  75
ATOM     75  C   UNL A   1      35.083  30.390  27.863  1.00  0.00     0.023 C 
BRANCH  75  76
ATOM     76  C   UNL A   1      34.630  29.028  27.322  1.00  0.00     0.116 C 
BRANCH  76  77
ATOM     77  N   UNL A   1      33.342  28.626  27.870  1.00  0.00    -0.356 N 
ATOM     78  C   UNL A   1      32.245  27.980  27.413  1.00  0.00     0.225 C 
ATOM     79  H   UNL A   1      33.245  28.892  28.813  1.00  0.00     0.163 HD
ATOM     80  O   UNL A   1      31.309  27.904  28.221  1.00  0.00    -0.275 OA
BRANCH  78  81
ATOM     81  C   UNL A   1      32.022  27.405  26.019  1.00  0.00     0.103 C 
ATOM     82  C   UNL A   1      33.152  26.775  25.183  1.00  0.00     0.040 C 
ATOM     83  C   UNL A   1      31.330  28.351  25.015  1.00  0.00     0.098 C 
ATOM     84  C   UNL A   1      32.944  27.427  23.801  1.00  0.00     0.086 C 
ATOM     85  C   UNL A   1      32.230  29.544  24.690  1.00  0.00     0.028 C 
ATOM     86  N   UNL A   1      31.508  27.614  23.772  1.00  0.00    -0.332 N 
ATOM     87  C   UNL A   1      33.380  28.901  23.872  1.00  0.00     0.027 C 
BRANCH  86  88
ATOM     88  C   UNL A   1      30.774  27.661  22.608  1.00  0.00     0.256 C 
ATOM     89  O   UNL A   1      31.051  27.032  21.593  1.00  0.00    -0.269 OA
BRANCH  88  90
ATOM     90  C   UNL A   1      29.567  28.500  22.606  1.00  0.00     0.061 A 
ATOM     91  C   UNL A   1      29.677  29.780  22.059  1.00  0.00     0.035 A 
ATOM     92  C   UNL A   1      28.366  28.070  23.163  1.00  0.00     0.072 A 
ATOM     93  C   UNL A   1      28.548  30.577  22.057  1.00  0.00     0.112 A 
ATOM     94  C   UNL A   1      27.288  28.936  23.078  1.00  0.00     0.132 A 
ATOM     95  Cl  UNL A   1      28.160  26.561  23.962  1.00  0.00    -0.082 Cl
ATOM     96  N   UNL A   1      27.351  30.178  22.537  1.00  0.00    -0.263 NA
ENDBRANCH  88  90
ENDBRANCH  86  88
ENDBRANCH  78  81
ENDBRANCH  76  77
ENDBRANCH  75  76
ENDBRANCH   1  75
TORSDOF 16
ENDMDL
MODEL 2
REMARK VINA RESULT:     -11.7      0.982      8.199
REMARK SMILES O=C(NCCCCNC(=O)[C@@H]1C[C@@H]2CC[C@H]1N2C(=O)c1ccncc1Cl)c1ccc(-c2c3nc(c(-c4c(F)cc(S(=O)(=O)[O-])cc4F)c4ccc([nH]4)c(-c4c(F)cc(S(=O)(=O)[O-])cc4F)c4nc(c(-c5c(F)cc(S(=O)(=O)[O-])cc5F)c5ccc2[nH]5)C=C4)C=C3)cc1
REMARK SMILES IDX 5 1 4 2 3 3 1 4 2 5 27 7 28 8 92 9 29 10 91 11 30 12 31 13
REMARK SMILES IDX 32 14 85 15 33 16 90 17 84 18 86 19 34 20 89 21 83 22 82 23
REMARK SMILES IDX 35 25 69 26 48 27 68 28 49 29 52 30 67 31 87 32 50 33 51 34
REMARK SMILES IDX 66 36 88 37 53 38 36 39 37 40 46 41 38 42 39 43 45 44 47 45
REMARK SMILES IDX 40 46 41 47 42 48 43 49 44 50 70 51 71 52 80 53 72 54 73 55
REMARK SMILES IDX 79 56 81 57 74 58 75 59 76 60 77 61 78 62 54 63 55 64 64 65
REMARK SMILES IDX 56 66 57 67 63 68 65 69 58 70 59 71 60 72 61 73 62 74 6 75
REMARK SMILES IDX 7 76 8 77 9 78 10 80 11 81 12 82 16 83 13 84 15 85 17 86
REMARK SMILES IDX 14 87 18 88 19 89 20 90 21 91 25 92 22 93 24 94 26 95 23 96
REMARK H PARENT 3 6 86 24 52 35 8 79
REMARK Flexibility Score: inf
ROOT
ATOM      1  C   UNL A   1      33.978  31.486  27.805  1.00  0.00     0.023 C 
ENDROOT
BRANCH   1   2
ATOM      2  C   UNL A   1      34.422  32.932  27.727  1.00  0.00     0.116 C 
BRANCH   2   3
ATOM      3  N   UNL A   1      33.452  33.907  28.211  1.00  0.00    -0.352 N 
ATOM      4  O   UNL A   1      32.523  35.271  29.776  1.00  0.00    -0.269 OA
ATOM      5  C   UNL A   1      33.403  34.481  29.470  1.00  0.00     0.251 C 
ATOM      6  H   UNL A   1      32.756  34.188  27.573  1.00  0.00     0.163 HD
BRANCH   5   7
ATOM      7  C   UNL A   1      34.426  34.057  30.455  1.00  0.00     0.039 A 
ATOM      8  C   UNL A   1      35.668  34.687  30.451  1.00  0.00     0.014 A 
ATOM      9  C   UNL A   1      34.211  32.910  31.225  1.00  0.00     0.014 A 
ATOM     10  C   UNL A   1      36.752  34.029  31.007  1.00  0.00     0.010 A 
ATOM     11  C   UNL A   1      35.287  32.329  31.908  1.00  0.00     0.010 A 
ATOM     12  C   UNL A   1      36.581  32.847  31.754  1.00  0.00    -0.014 A 
BRANCH  12  13
ATOM     13  C   UNL A   1      37.784  32.223  32.373  1.00  0.00     0.031 A 
ATOM     14  C   UNL A   1      38.761  31.398  31.573  1.00  0.00     0.074 A 
ATOM     15  C   UNL A   1      38.038  32.502  33.667  1.00  0.00     0.049 A 
ATOM     16  N   UNL A   1      39.873  30.833  31.975  1.00  0.00    -0.248 NA
ATOM     17  C   UNL A   1      38.458  31.162  30.153  1.00  0.00     0.031 C 
ATOM     18  C   UNL A   1      37.154  33.273  34.549  1.00  0.00     0.029 A 
ATOM     19  N   UNL A   1      39.126  32.228  34.454  1.00  0.00    -0.354 N 
ATOM     20  C   UNL A   1      40.378  30.143  30.877  1.00  0.00     0.074 A 
ATOM     21  C   UNL A   1      39.450  30.360  29.788  1.00  0.00     0.031 C 
ATOM     22  C   UNL A   1      37.777  33.500  35.711  1.00  0.00     0.029 A 
ATOM     23  C   UNL A   1      39.061  32.812  35.697  1.00  0.00     0.049 A 
ATOM     24  H   UNL A   1      39.881  31.668  34.158  1.00  0.00     0.167 HD
ATOM     25  C   UNL A   1      41.508  29.397  30.791  1.00  0.00     0.037 A 
ATOM     26  C   UNL A   1      39.927  32.787  36.726  1.00  0.00     0.037 A 
ATOM     27  C   UNL A   1      42.445  29.219  31.875  1.00  0.00     0.049 A 
ATOM     28  C   UNL A   1      41.194  32.004  36.583  1.00  0.00     0.074 A 
ATOM     29  C   UNL A   1      43.612  28.472  31.893  1.00  0.00     0.029 A 
ATOM     30  N   UNL A   1      42.333  29.808  33.126  1.00  0.00    -0.354 N 
ATOM     31  N   UNL A   1      41.622  31.320  35.550  1.00  0.00    -0.248 NA
ATOM     32  C   UNL A   1      42.084  31.968  37.749  1.00  0.00     0.031 C 
ATOM     33  C   UNL A   1      44.195  28.596  33.160  1.00  0.00     0.029 A 
ATOM     34  C   UNL A   1      43.409  29.445  33.921  1.00  0.00     0.049 A 
ATOM     35  H   UNL A   1      41.597  30.399  33.407  1.00  0.00     0.167 HD
ATOM     36  C   UNL A   1      42.821  30.747  35.950  1.00  0.00     0.074 A 
ATOM     37  C   UNL A   1      43.073  31.208  37.302  1.00  0.00     0.031 C 
ATOM     38  C   UNL A   1      43.627  29.897  35.270  1.00  0.00     0.037 A 
BRANCH  25  39
ATOM     39  C   UNL A   1      41.798  28.697  29.492  1.00  0.00     0.058 A 
ATOM     40  C   UNL A   1      41.187  27.480  29.155  1.00  0.00     0.135 A 
ATOM     41  C   UNL A   1      42.640  29.291  28.537  1.00  0.00     0.135 A 
ATOM     42  F   UNL A   1      40.385  26.861  30.035  1.00  0.00    -0.206 F 
ATOM     43  C   UNL A   1      41.408  26.871  27.922  1.00  0.00     0.059 A 
ATOM     44  C   UNL A   1      42.861  28.710  27.290  1.00  0.00     0.059 A 
ATOM     45  F   UNL A   1      43.251  30.457  28.806  1.00  0.00    -0.206 F 
ATOM     46  C   UNL A   1      42.245  27.495  26.995  1.00  0.00     0.060 A 
BRANCH  46  47
ATOM     47  S   UNL A   1      42.502  26.708  25.388  1.00  0.00     0.124 S 
ATOM     48  O   UNL A   1      43.712  25.930  25.637  1.00  0.00    -0.237 OA
ATOM     49  O   UNL A   1      41.276  25.934  25.218  1.00  0.00    -0.237 OA
ATOM     50  O   UNL A   1      42.658  27.837  24.477  1.00  0.00    -0.744 OA
ENDBRANCH  46  47
ENDBRANCH  25  39
BRANCH  26  51
ATOM     51  C   UNL A   1      39.588  33.500  37.984  1.00  0.00     0.058 A 
ATOM     52  C   UNL A   1      38.673  32.963  38.899  1.00  0.00     0.135 A 
ATOM     53  C   UNL A   1      40.223  34.707  38.318  1.00  0.00     0.135 A 
ATOM     54  F   UNL A   1      38.042  31.813  38.621  1.00  0.00    -0.206 F 
ATOM     55  C   UNL A   1      38.396  33.599  40.104  1.00  0.00     0.059 A 
ATOM     56  C   UNL A   1      39.984  35.345  39.528  1.00  0.00     0.059 A 
ATOM     57  F   UNL A   1      41.124  35.247  37.482  1.00  0.00    -0.206 F 
ATOM     58  C   UNL A   1      39.061  34.788  40.412  1.00  0.00     0.060 A 
BRANCH  58  59
ATOM     59  S   UNL A   1      38.766  35.574  42.011  1.00  0.00     0.124 S 
ATOM     60  O   UNL A   1      39.820  34.983  42.824  1.00  0.00    -0.237 OA
ATOM     61  O   UNL A   1      38.918  36.992  41.697  1.00  0.00    -0.237 OA
ATOM     62  O   UNL A   1      37.404  35.157  42.334  1.00  0.00    -0.744 OA
ENDBRANCH  58  59
ENDBRANCH  26  51
BRANCH  38  63
ATOM     63  C   UNL A   1      44.842  29.407  36.001  1.00  0.00     0.058 A 
ATOM     64  C   UNL A   1      46.063  30.094  35.918  1.00  0.00     0.135 A 
ATOM     65  C   UNL A   1      44.792  28.236  36.772  1.00  0.00     0.135 A 
ATOM     66  F   UNL A   1      46.159  31.215  35.184  1.00  0.00    -0.206 F 
ATOM     67  C   UNL A   1      47.208  29.614  36.543  1.00  0.00     0.059 A 
ATOM     68  C   UNL A   1      45.920  27.749  37.422  1.00  0.00     0.059 A 
ATOM     69  F   UNL A   1      43.644  27.549  36.885  1.00  0.00    -0.206 F 
ATOM     70  C   UNL A   1      47.128  28.434  37.284  1.00  0.00     0.060 A 
BRANCH  70  71
ATOM     71  S   UNL A   1      48.621  27.804  38.079  1.00  0.00     0.124 S 
ATOM     72  O   UNL A   1      49.664  28.483  37.319  1.00  0.00    -0.237 OA
ATOM     73  O   UNL A   1      48.455  28.244  39.461  1.00  0.00    -0.237 OA
ATOM     74  O   UNL A   1      48.528  26.362  37.872  1.00  0.00    -0.744 OA
ENDBRANCH  70  71
ENDBRANCH  38  63
ENDBRANCH  12  13
ENDBRANCH   5   7
ENDBRANCH   2   3
ENDBRANCH   1   2
BRANCH   1  75
ATOM     75  C   UNL A   1      35.092  30.461  27.719  1.00  0.00     0.023 C 
BRANCH  75  76
ATOM     76  C   UNL A   1      34.687  29.057  27.251  1.00  0.00     0.116 C 
BRANCH  76  77
ATOM     77  N   UNL A   1      33.411  28.642  27.817  1.00  0.00    -0.356 N 
ATOM     78  C   UNL A   1      32.311  27.993  27.373  1.00  0.00     0.225 C 
ATOM     79  H   UNL A   1      33.328  28.900  28.764  1.00  0.00     0.163 HD
ATOM     80  O   UNL A   1      31.389  27.904  28.196  1.00  0.00    -0.275 OA
BRANCH  78  81
ATOM     81  C   UNL A   1      32.069  27.428  25.978  1.00  0.00     0.103 C 
ATOM     82  C   UNL A   1      33.188  26.807  25.121  1.00  0.00     0.040 C 
ATOM     83  C   UNL A   1      31.359  28.379  24.992  1.00  0.00     0.098 C 
ATOM     84  C   UNL A   1      32.957  27.469  23.747  1.00  0.00     0.086 C 
ATOM     85  C   UNL A   1      32.252  29.577  24.663  1.00  0.00     0.028 C 
ATOM     86  N   UNL A   1      31.520  27.652  23.741  1.00  0.00    -0.332 N 
ATOM     87  C   UNL A   1      33.391  28.944  23.823  1.00  0.00     0.027 C 
BRANCH  86  88
ATOM     88  C   UNL A   1      30.769  27.707  22.589  1.00  0.00     0.256 C 
ATOM     89  O   UNL A   1      31.032  27.085  21.565  1.00  0.00    -0.269 OA
BRANCH  88  90
ATOM     90  C   UNL A   1      29.561  28.544  22.610  1.00  0.00     0.061 A 
ATOM     91  C   UNL A   1      29.670  29.839  22.103  1.00  0.00     0.035 A 
ATOM     92  C   UNL A   1      28.360  28.095  23.152  1.00  0.00     0.072 A 
ATOM     93  C   UNL A   1      28.540  30.635  22.124  1.00  0.00     0.112 A 
ATOM     94  C   UNL A   1      27.280  28.962  23.092  1.00  0.00     0.132 A 
ATOM     95  Cl  UNL A   1      28.155  26.562  23.904  1.00  0.00    -0.082 Cl
ATOM     96  N   UNL A   1      27.343  30.220  22.590  1.00  0.00    -0.263 NA
ENDBRANCH  88  90
ENDBRANCH  86  88
ENDBRANCH  78  81
ENDBRANCH  76  77
ENDBRANCH  75  76
ENDBRANCH   1  75
TORSDOF 16
ENDMDL
MODEL 3
REMARK VINA RESULT:     -11.6      6.068      8.532
REMARK SMILES O=C(NCCCCNC(=O)[C@@H]1C[C@@H]2CC[C@H]1N2C(=O)c1ccncc1Cl)c1ccc(-c2c3nc(c(-c4c(F)cc(S(=O)(=O)[O-])cc4F)c4ccc([nH]4)c(-c4c(F)cc(S(=O)(=O)[O-])cc4F)c4nc(c(-c5c(F)cc(S(=O)(=O)[O-])cc5F)c5ccc2[nH]5)C=C4)C=C3)cc1
REMARK SMILES IDX 5 1 4 2 3 3 1 4 2 5 27 7 28 8 92 9 29 10 91 11 30 12 31 13
REMARK SMILES IDX 32 14 85 15 33 16 90 17 84 18 86 19 34 20 89 21 83 22 82 23
REMARK SMILES IDX 35 25 69 26 48 27 68 28 49 29 52 30 67 31 87 32 50 33 51 34
REMARK SMILES IDX 66 36 88 37 53 38 36 39 37 40 46 41 38 42 39 43 45 44 47 45
REMARK SMILES IDX 40 46 41 47 42 48 43 49 44 50 70 51 71 52 80 53 72 54 73 55
REMARK SMILES IDX 79 56 81 57 74 58 75 59 76 60 77 61 78 62 54 63 55 64 64 65
REMARK SMILES IDX 56 66 57 67 63 68 65 69 58 70 59 71 60 72 61 73 62 74 6 75
REMARK SMILES IDX 7 76 8 77 9 78 10 80 11 81 12 82 16 83 13 84 15 85 17 86
REMARK SMILES IDX 14 87 18 88 19 89 20 90 21 91 25 92 22 93 24 94 26 95 23 96
REMARK H PARENT 3 6 86 24 52 35 8 79
REMARK Flexibility Score: inf
ROOT
ATOM      1  C   UNL A   1      35.680  33.817  29.848  1.00  0.00     0.023 C 
ENDROOT
BRANCH   1   2
ATOM      2  C   UNL A   1      36.549  32.946  30.730  1.00  0.00     0.116 C 
BRANCH   2   3
ATOM      3  N   UNL A   1      36.043  31.600  30.969  1.00  0.00    -0.352 N 
ATOM      4  O   UNL A   1      36.196  29.331  31.010  1.00  0.00    -0.269 OA
ATOM      5  C   UNL A   1      36.732  30.410  30.806  1.00  0.00     0.251 C 
ATOM      6  H   UNL A   1      35.112  31.530  31.279  1.00  0.00     0.163 HD
BRANCH   5   7
ATOM      7  C   UNL A   1      38.129  30.489  30.319  1.00  0.00     0.039 A 
ATOM      8  C   UNL A   1      38.367  30.454  28.947  1.00  0.00     0.014 A 
ATOM      9  C   UNL A   1      39.186  30.391  31.229  1.00  0.00     0.014 A 
ATOM     10  C   UNL A   1      39.618  30.065  28.497  1.00  0.00     0.010 A 
ATOM     11  C   UNL A   1      40.481  30.142  30.755  1.00  0.00     0.010 A 
ATOM     12  C   UNL A   1      40.698  29.914  29.388  1.00  0.00    -0.014 A 
BRANCH  12  13
ATOM     13  C   UNL A   1      42.030  29.549  28.828  1.00  0.00     0.031 A 
ATOM     14  C   UNL A   1      43.200  30.500  28.854  1.00  0.00     0.074 A 
ATOM     15  C   UNL A   1      42.195  28.289  28.379  1.00  0.00     0.049 A 
ATOM     16  N   UNL A   1      44.427  30.297  28.440  1.00  0.00    -0.248 NA
ATOM     17  C   UNL A   1      42.975  31.849  29.396  1.00  0.00     0.031 C 
ATOM     18  C   UNL A   1      41.129  27.284  28.285  1.00  0.00     0.029 A 
ATOM     19  N   UNL A   1      43.317  27.614  27.973  1.00  0.00    -0.354 N 
ATOM     20  C   UNL A   1      45.105  31.496  28.631  1.00  0.00     0.074 A 
ATOM     21  C   UNL A   1      44.153  32.427  29.199  1.00  0.00     0.031 C 
ATOM     22  C   UNL A   1      41.663  26.102  27.957  1.00  0.00     0.029 A 
ATOM     23  C   UNL A   1      43.090  26.281  27.721  1.00  0.00     0.049 A 
ATOM     24  H   UNL A   1      44.199  28.041  27.874  1.00  0.00     0.167 HD
ATOM     25  C   UNL A   1      46.400  31.790  28.354  1.00  0.00     0.037 A 
ATOM     26  C   UNL A   1      43.927  25.307  27.323  1.00  0.00     0.037 A 
ATOM     27  C   UNL A   1      47.350  30.843  27.821  1.00  0.00     0.049 A 
ATOM     28  C   UNL A   1      45.364  25.647  27.081  1.00  0.00     0.074 A 
ATOM     29  C   UNL A   1      48.681  31.046  27.493  1.00  0.00     0.029 A 
ATOM     30  N   UNL A   1      47.077  29.509  27.557  1.00  0.00    -0.354 N 
ATOM     31  N   UNL A   1      45.968  26.802  27.222  1.00  0.00    -0.248 NA
ATOM     32  C   UNL A   1      46.229  24.561  26.605  1.00  0.00     0.031 C 
ATOM     33  C   UNL A   1      49.206  29.839  27.014  1.00  0.00     0.029 A 
ATOM     34  C   UNL A   1      48.212  28.877  27.074  1.00  0.00     0.049 A 
ATOM     35  H   UNL A   1      46.203  29.074  27.694  1.00  0.00     0.167 HD
ATOM     36  C   UNL A   1      47.281  26.590  26.824  1.00  0.00     0.074 A 
ATOM     37  C   UNL A   1      47.393  25.184  26.486  1.00  0.00     0.031 C 
ATOM     38  C   UNL A   1      48.294  27.483  26.723  1.00  0.00     0.037 A 
BRANCH  25  39
ATOM     39  C   UNL A   1      46.876  33.197  28.599  1.00  0.00     0.058 A 
ATOM     40  C   UNL A   1      46.774  34.194  27.618  1.00  0.00     0.135 A 
ATOM     41  C   UNL A   1      47.370  33.570  29.861  1.00  0.00     0.135 A 
ATOM     42  F   UNL A   1      46.324  33.890  26.391  1.00  0.00    -0.206 F 
ATOM     43  C   UNL A   1      47.154  35.509  27.874  1.00  0.00     0.059 A 
ATOM     44  C   UNL A   1      47.738  34.883  30.146  1.00  0.00     0.059 A 
ATOM     45  F   UNL A   1      47.488  32.655  30.838  1.00  0.00    -0.206 F 
ATOM     46  C   UNL A   1      47.633  35.845  29.142  1.00  0.00     0.060 A 
BRANCH  46  47
ATOM     47  S   UNL A   1      48.097  37.560  29.470  1.00  0.00     0.124 S 
ATOM     48  O   UNL A   1      48.931  37.861  28.311  1.00  0.00    -0.237 OA
ATOM     49  O   UNL A   1      46.802  38.233  29.510  1.00  0.00    -0.237 OA
ATOM     50  O   UNL A   1      48.800  37.484  30.747  1.00  0.00    -0.744 OA
ENDBRANCH  46  47
ENDBRANCH  25  39
BRANCH  26  51
ATOM     51  C   UNL A   1      43.402  23.936  27.100  1.00  0.00     0.058 A 
ATOM     52  C   UNL A   1      43.197  23.055  28.170  1.00  0.00     0.135 A 
ATOM     53  C   UNL A   1      43.040  23.506  25.814  1.00  0.00     0.135 A 
ATOM     54  F   UNL A   1      43.530  23.423  29.417  1.00  0.00    -0.206 F 
ATOM     55  C   UNL A   1      42.652  21.790  27.973  1.00  0.00     0.059 A 
ATOM     56  C   UNL A   1      42.467  22.260  25.596  1.00  0.00     0.059 A 
ATOM     57  F   UNL A   1      43.197  24.325  24.762  1.00  0.00    -0.206 F 
ATOM     58  C   UNL A   1      42.285  21.405  26.682  1.00  0.00     0.060 A 
BRANCH  58  59
ATOM     59  S   UNL A   1      41.501  19.797  26.432  1.00  0.00     0.124 S 
ATOM     60  O   UNL A   1      40.115  20.182  26.204  1.00  0.00    -0.237 OA
ATOM     61  O   UNL A   1      42.220  19.273  25.274  1.00  0.00    -0.237 OA
ATOM     62  O   UNL A   1      41.769  19.103  27.689  1.00  0.00    -0.744 OA
ENDBRANCH  58  59
ENDBRANCH  26  51
BRANCH  38  63
ATOM     63  C   UNL A   1      49.598  26.951  26.208  1.00  0.00     0.058 A 
ATOM     64  C   UNL A   1      50.532  26.359  27.073  1.00  0.00     0.135 A 
ATOM     65  C   UNL A   1      49.926  27.049  24.848  1.00  0.00     0.135 A 
ATOM     66  F   UNL A   1      50.263  26.252  28.385  1.00  0.00    -0.206 F 
ATOM     67  C   UNL A   1      51.767  25.918  26.614  1.00  0.00     0.059 A 
ATOM     68  C   UNL A   1      51.149  26.596  24.363  1.00  0.00     0.059 A 
ATOM     69  F   UNL A   1      49.062  27.601  23.981  1.00  0.00    -0.206 F 
ATOM     70  C   UNL A   1      52.070  26.051  25.258  1.00  0.00     0.060 A 
BRANCH  70  71
ATOM     71  S   UNL A   1      53.683  25.494  24.669  1.00  0.00     0.124 S 
ATOM     72  O   UNL A   1      54.573  26.073  25.668  1.00  0.00    -0.237 OA
ATOM     73  O   UNL A   1      53.549  24.041  24.705  1.00  0.00    -0.237 OA
ATOM     74  O   UNL A   1      53.771  26.076  23.334  1.00  0.00    -0.744 OA
ENDBRANCH  70  71
ENDBRANCH  38  63
ENDBRANCH  12  13
ENDBRANCH   5   7
ENDBRANCH   2   3
ENDBRANCH   1   2
BRANCH   1  75
ATOM     75  C   UNL A   1      35.640  33.422  28.385  1.00  0.00     0.023 C 
BRANCH  75  76
ATOM     76  C   UNL A   1      34.473  32.523  27.955  1.00  0.00     0.116 C 
BRANCH  76  77
ATOM     77  N   UNL A   1      34.875  31.129  27.840  1.00  0.00    -0.356 N 
ATOM     78  C   UNL A   1      34.369  30.011  27.271  1.00  0.00     0.225 C 
ATOM     79  H   UNL A   1      35.733  30.955  28.291  1.00  0.00     0.163 HD
ATOM     80  O   UNL A   1      35.024  28.979  27.475  1.00  0.00    -0.275 OA
BRANCH  78  81
ATOM     81  C   UNL A   1      33.075  29.881  26.476  1.00  0.00     0.103 C 
ATOM     82  C   UNL A   1      31.825  29.169  27.024  1.00  0.00     0.040 C 
ATOM     83  C   UNL A   1      33.225  29.285  25.060  1.00  0.00     0.098 C 
ATOM     84  C   UNL A   1      31.408  28.274  25.840  1.00  0.00     0.086 C 
ATOM     85  C   UNL A   1      33.662  27.821  25.136  1.00  0.00     0.028 C 
ATOM     86  N   UNL A   1      31.831  29.066  24.703  1.00  0.00    -0.332 N 
ATOM     87  C   UNL A   1      32.410  27.112  25.714  1.00  0.00     0.027 C 
BRANCH  86  88
ATOM     88  C   UNL A   1      31.244  28.981  23.461  1.00  0.00     0.256 C 
ATOM     89  O   UNL A   1      31.847  28.695  22.433  1.00  0.00    -0.269 OA
BRANCH  88  90
ATOM     90  C   UNL A   1      29.796  29.222  23.380  1.00  0.00     0.061 A 
ATOM     91  C   UNL A   1      29.365  30.549  23.403  1.00  0.00     0.035 A 
ATOM     92  C   UNL A   1      28.874  28.180  23.329  1.00  0.00     0.072 A 
ATOM     93  C   UNL A   1      28.006  30.785  23.333  1.00  0.00     0.112 A 
ATOM     94  C   UNL A   1      27.537  28.528  23.228  1.00  0.00     0.132 A 
ATOM     95  Cl  UNL A   1      29.297  26.515  23.413  1.00  0.00    -0.082 Cl
ATOM     96  N   UNL A   1      27.082  29.806  23.227  1.00  0.00    -0.263 NA
ENDBRANCH  88  90
ENDBRANCH  86  88
ENDBRANCH  78  81
ENDBRANCH  76  77
ENDBRANCH  75  76
ENDBRANCH   1  75
TORSDOF 16
ENDMDL
