MODEL 1
REMARK VINA RESULT:     -12.4      0.000      0.000
REMARK SMILES Cc1ccc(-c2c(C)sc(NC(=O)[C@H]3CC=CC[C@H]3C(=O)NCCCCNC(=O)c3ccc(-c4c5nc(c(-c6c(F)cc(S(=O)(=O)[O-])cc6F)c6ccc([nH]6)c(-c6c(F)cc(S(=O)(=O)[O-])cc6F)c6nc(c(-c7c(F)cc(S(=O)(=O)[O-])cc7F)c7ccc4[nH]7)C=C6)C=C5)cc3)c2C(N)=O)cc1
REMARK SMILES IDX 24 1 23 2 22 3 20 4 21 5 19 7 14 8 15 9 16 10 18 11 17 12
REMARK SMILES IDX 12 13 11 14 13 16 10 17 6 18 7 19 96 20 8 21 9 22 5 23 1 24
REMARK SMILES IDX 2 25 3 26 101 27 4 28 100 29 97 30 98 31 99 32 25 35 26 36
REMARK SMILES IDX 27 37 28 38 29 40 30 41 31 42 95 43 32 44 94 45 33 46 34 47
REMARK SMILES IDX 35 48 88 49 36 50 93 51 87 52 89 53 37 54 92 55 86 56 85 57
REMARK SMILES IDX 38 59 72 60 51 61 71 62 52 63 55 64 70 65 90 66 53 67 54 68
REMARK SMILES IDX 69 70 91 71 56 72 39 73 40 74 49 75 41 76 42 77 48 78 50 79
REMARK SMILES IDX 43 80 44 81 45 82 46 83 47 84 73 85 74 86 83 87 75 88 76 89
REMARK SMILES IDX 82 90 84 91 77 92 78 93 79 94 80 95 81 96 57 97 58 98 67 99
REMARK SMILES IDX 59 100 60 101 66 102 68 103 61 104 62 105 63 106 64 107
REMARK SMILES IDX 65 108
REMARK H PARENT 22 6 11 15 98 33 98 34 27 39 89 58 55 69
REMARK Flexibility Score: inf
ROOT
ATOM      1  C   UNL A   1      38.597  21.964  25.654  1.00  0.00     0.023 C 
ENDROOT
BRANCH   1   2
ATOM      2  C   UNL A   1      37.119  21.749  26.003  1.00  0.00     0.116 C 
BRANCH   2   3
ATOM      3  N   UNL A   1      36.424  22.993  25.894  1.00  0.00    -0.356 N 
ATOM      4  C   UNL A   1      35.225  23.203  25.311  1.00  0.00     0.224 C 
ATOM      5  O   UNL A   1      34.950  24.366  24.998  1.00  0.00    -0.275 OA
ATOM      6  H   UNL A   1      36.866  23.782  26.286  1.00  0.00     0.163 HD
BRANCH   4   7
ATOM      7  C   UNL A   1      34.203  22.090  25.126  1.00  0.00     0.095 C 
ATOM      8  C   UNL A   1      32.700  22.340  24.862  1.00  0.00     0.095 C 
ATOM      9  C   UNL A   1      31.934  21.135  25.451  1.00  0.00     0.041 C 
ATOM     10  C   UNL A   1      32.653  19.807  25.286  1.00  0.00    -0.030 C 
ATOM     11  C   UNL A   1      34.743  20.867  24.399  1.00  0.00     0.041 C 
ATOM     12  C   UNL A   1      33.888  19.682  24.762  1.00  0.00    -0.030 C 
BRANCH   8  13
ATOM     13  C   UNL A   1      32.094  22.888  23.523  1.00  0.00     0.229 C 
ATOM     14  N   UNL A   1      31.641  24.143  23.211  1.00  0.00    -0.317 N 
ATOM     15  H   UNL A   1      30.835  24.155  22.646  1.00  0.00     0.170 HD
ATOM     16  O   UNL A   1      31.921  22.056  22.614  1.00  0.00    -0.274 OA
BRANCH  14  17
ATOM     17  C   UNL A   1      32.117  25.393  23.549  1.00  0.00     0.109 A 
ATOM     18  C   UNL A   1      32.846  27.387  24.522  1.00  0.00     0.010 A 
ATOM     19  C   UNL A   1      33.172  27.552  23.185  1.00  0.00     0.012 A 
ATOM     20  C   UNL A   1      32.172  26.100  24.757  1.00  0.00     0.082 A 
ATOM     21  C   UNL A   1      34.053  28.525  22.480  1.00  0.00     0.057 C 
ATOM     22  S   UNL A   1      32.184  26.519  22.276  1.00  0.00    -0.122 S 
BRANCH  18  23
ATOM     23  C   UNL A   1      33.087  28.492  25.448  1.00  0.00    -0.016 A 
ATOM     24  C   UNL A   1      34.022  31.632  28.250  1.00  0.00     0.044 C 
ATOM     25  C   UNL A   1      33.679  30.526  27.299  1.00  0.00    -0.051 A 
ATOM     26  C   UNL A   1      32.533  30.603  26.491  1.00  0.00     0.004 A 
ATOM     27  C   UNL A   1      34.528  29.427  27.172  1.00  0.00     0.004 A 
ATOM     28  C   UNL A   1      32.231  29.586  25.573  1.00  0.00     0.009 A 
ATOM     29  C   UNL A   1      34.242  28.431  26.246  1.00  0.00     0.009 A 
ENDBRANCH  18  23
BRANCH  20  30
ATOM     30  C   UNL A   1      31.639  25.696  26.061  1.00  0.00     0.252 C 
ATOM     31  N   UNL A   1      32.398  24.897  26.862  1.00  0.00    -0.365 N 
ATOM     32  O   UNL A   1      30.523  26.039  26.454  1.00  0.00    -0.269 OA
ATOM     33  H   UNL A   1      33.292  24.613  26.567  1.00  0.00     0.159 HD
ATOM     34  H   UNL A   1      32.051  24.605  27.736  1.00  0.00     0.159 HD
ENDBRANCH  20  30
ENDBRANCH  14  17
ENDBRANCH   8  13
ENDBRANCH   4   7
ENDBRANCH   2   3
ENDBRANCH   1   2
BRANCH   1  35
ATOM     35  C   UNL A   1      39.604  21.137  26.463  1.00  0.00     0.023 C 
BRANCH  35  36
ATOM     36  C   UNL A   1      41.021  21.318  25.982  1.00  0.00     0.116 C 
BRANCH  36  37
ATOM     37  N   UNL A   1      41.802  22.009  26.974  1.00  0.00    -0.352 N 
ATOM     38  C   UNL A   1      41.572  23.175  27.632  1.00  0.00     0.251 C 
ATOM     39  H   UNL A   1      42.645  21.562  27.217  1.00  0.00     0.163 HD
ATOM     40  O   UNL A   1      42.238  23.334  28.654  1.00  0.00    -0.269 OA
BRANCH  38  41
ATOM     41  C   UNL A   1      40.419  24.061  27.257  1.00  0.00     0.039 A 
ATOM     42  C   UNL A   1      40.796  25.030  26.317  1.00  0.00     0.014 A 
ATOM     43  C   UNL A   1      39.692  24.465  28.375  1.00  0.00     0.014 A 
ATOM     44  C   UNL A   1      40.995  26.320  26.752  1.00  0.00     0.010 A 
ATOM     45  C   UNL A   1      40.000  25.684  28.886  1.00  0.00     0.010 A 
ATOM     46  C   UNL A   1      40.744  26.553  28.089  1.00  0.00    -0.014 A 
BRANCH  46  47
ATOM     47  C   UNL A   1      41.186  27.714  28.802  1.00  0.00     0.031 A 
ATOM     48  C   UNL A   1      40.311  28.869  28.644  1.00  0.00     0.074 A 
ATOM     49  C   UNL A   1      42.146  27.444  29.710  1.00  0.00     0.049 A 
ATOM     50  N   UNL A   1      40.604  30.064  28.978  1.00  0.00    -0.248 NA
ATOM     51  C   UNL A   1      39.002  28.765  27.986  1.00  0.00     0.031 C 
ATOM     52  C   UNL A   1      42.590  28.154  30.899  1.00  0.00     0.029 A 
ATOM     53  N   UNL A   1      43.133  26.464  29.520  1.00  0.00    -0.354 N 
ATOM     54  C   UNL A   1      39.400  30.734  29.033  1.00  0.00     0.074 A 
ATOM     55  C   UNL A   1      38.519  29.992  28.177  1.00  0.00     0.031 C 
ATOM     56  C   UNL A   1      43.879  27.821  31.129  1.00  0.00     0.029 A 
ATOM     57  C   UNL A   1      44.327  27.037  29.979  1.00  0.00     0.049 A 
ATOM     58  H   UNL A   1      43.011  25.562  29.143  1.00  0.00     0.167 HD
ATOM     59  C   UNL A   1      39.255  31.671  30.013  1.00  0.00     0.037 A 
ATOM     60  C   UNL A   1      45.196  27.490  29.019  1.00  0.00     0.037 A 
ATOM     61  C   UNL A   1      40.547  31.835  30.705  1.00  0.00     0.049 A 
ATOM     62  C   UNL A   1      45.283  29.022  28.995  1.00  0.00     0.074 A 
ATOM     63  C   UNL A   1      41.079  31.421  31.915  1.00  0.00     0.029 A 
ATOM     64  N   UNL A   1      41.639  32.173  29.928  1.00  0.00    -0.354 N 
ATOM     65  N   UNL A   1      44.408  29.839  29.527  1.00  0.00    -0.248 NA
ATOM     66  C   UNL A   1      46.381  29.746  28.362  1.00  0.00     0.031 C 
ATOM     67  C   UNL A   1      42.512  31.490  31.817  1.00  0.00     0.029 A 
ATOM     68  C   UNL A   1      42.843  31.943  30.551  1.00  0.00     0.049 A 
ATOM     69  H   UNL A   1      41.562  32.541  29.018  1.00  0.00     0.167 HD
ATOM     70  C   UNL A   1      44.782  31.145  29.327  1.00  0.00     0.074 A 
ATOM     71  C   UNL A   1      46.013  31.025  28.558  1.00  0.00     0.031 C 
ATOM     72  C   UNL A   1      44.056  32.219  29.784  1.00  0.00     0.037 A 
BRANCH  59  73
ATOM     73  C   UNL A   1      37.943  32.252  30.507  1.00  0.00     0.058 A 
ATOM     74  C   UNL A   1      37.367  33.341  29.819  1.00  0.00     0.135 A 
ATOM     75  C   UNL A   1      37.207  31.835  31.641  1.00  0.00     0.135 A 
ATOM     76  F   UNL A   1      37.922  33.833  28.702  1.00  0.00    -0.206 F 
ATOM     77  C   UNL A   1      36.196  33.978  30.236  1.00  0.00     0.059 A 
ATOM     78  C   UNL A   1      36.041  32.464  32.084  1.00  0.00     0.059 A 
ATOM     79  F   UNL A   1      37.551  30.785  32.385  1.00  0.00    -0.206 F 
ATOM     80  C   UNL A   1      35.540  33.538  31.375  1.00  0.00     0.060 A 
BRANCH  80  81
ATOM     81  S   UNL A   1      34.025  34.355  31.893  1.00  0.00     0.124 S 
ATOM     82  O   UNL A   1      33.304  34.487  30.631  1.00  0.00    -0.237 OA
ATOM     83  O   UNL A   1      33.473  33.399  32.847  1.00  0.00    -0.237 OA
ATOM     84  O   UNL A   1      34.494  35.612  32.472  1.00  0.00    -0.744 OA
ENDBRANCH  80  81
ENDBRANCH  59  73
BRANCH  60  85
ATOM     85  C   UNL A   1      45.253  26.581  27.806  1.00  0.00     0.058 A 
ATOM     86  C   UNL A   1      45.850  25.301  27.916  1.00  0.00     0.135 A 
ATOM     87  C   UNL A   1      44.478  26.789  26.656  1.00  0.00     0.135 A 
ATOM     88  F   UNL A   1      46.609  25.010  28.985  1.00  0.00    -0.206 F 
ATOM     89  C   UNL A   1      45.617  24.265  26.999  1.00  0.00     0.059 A 
ATOM     90  C   UNL A   1      44.234  25.765  25.720  1.00  0.00     0.059 A 
ATOM     91  F   UNL A   1      43.868  27.967  26.462  1.00  0.00    -0.206 F 
ATOM     92  C   UNL A   1      44.761  24.487  25.926  1.00  0.00     0.060 A 
BRANCH  92  93
ATOM     93  S   UNL A   1      44.398  23.126  24.769  1.00  0.00     0.124 S 
ATOM     94  O   UNL A   1      43.015  23.389  24.381  1.00  0.00    -0.237 OA
ATOM     95  O   UNL A   1      45.377  23.286  23.700  1.00  0.00    -0.237 OA
ATOM     96  O   UNL A   1      44.593  21.939  25.598  1.00  0.00    -0.744 OA
ENDBRANCH  92  93
ENDBRANCH  60  85
BRANCH  72  97
ATOM     97  C   UNL A   1      44.375  33.669  29.455  1.00  0.00     0.058 A 
ATOM     98  C   UNL A   1      44.811  34.599  30.408  1.00  0.00     0.135 A 
ATOM     99  C   UNL A   1      44.189  34.197  28.148  1.00  0.00     0.135 A 
ATOM    100  F   UNL A   1      44.875  34.274  31.708  1.00  0.00    -0.206 F 
ATOM    101  C   UNL A   1      45.169  35.906  30.064  1.00  0.00     0.059 A 
ATOM    102  C   UNL A   1      44.478  35.507  27.798  1.00  0.00     0.059 A 
ATOM    103  F   UNL A   1      43.745  33.467  27.120  1.00  0.00    -0.206 F 
ATOM    104  C   UNL A   1      45.014  36.345  28.751  1.00  0.00     0.060 A 
BRANCH 104 105
ATOM    105  S   UNL A   1      45.489  38.016  28.292  1.00  0.00     0.124 S 
ATOM    106  O   UNL A   1      44.622  38.828  29.139  1.00  0.00    -0.237 OA
ATOM    107  O   UNL A   1      46.907  38.022  28.640  1.00  0.00    -0.237 OA
ATOM    108  O   UNL A   1      45.196  38.077  26.863  1.00  0.00    -0.744 OA
ENDBRANCH 104 105
ENDBRANCH  72  97
ENDBRANCH  46  47
ENDBRANCH  38  41
ENDBRANCH  36  37
ENDBRANCH  35  36
ENDBRANCH   1  35
TORSDOF 18
ENDMDL
MODEL 2
REMARK VINA RESULT:     -12.2      3.311      9.846
REMARK SMILES Cc1ccc(-c2c(C)sc(NC(=O)[C@H]3CC=CC[C@H]3C(=O)NCCCCNC(=O)c3ccc(-c4c5nc(c(-c6c(F)cc(S(=O)(=O)[O-])cc6F)c6ccc([nH]6)c(-c6c(F)cc(S(=O)(=O)[O-])cc6F)c6nc(c(-c7c(F)cc(S(=O)(=O)[O-])cc7F)c7ccc4[nH]7)C=C6)C=C5)cc3)c2C(N)=O)cc1
REMARK SMILES IDX 24 1 23 2 22 3 20 4 21 5 19 7 14 8 15 9 16 10 18 11 17 12
REMARK SMILES IDX 12 13 11 14 13 16 10 17 6 18 7 19 96 20 8 21 9 22 5 23 1 24
REMARK SMILES IDX 2 25 3 26 101 27 4 28 100 29 97 30 98 31 99 32 25 35 26 36
REMARK SMILES IDX 27 37 28 38 29 40 30 41 31 42 95 43 32 44 94 45 33 46 34 47
REMARK SMILES IDX 35 48 88 49 36 50 93 51 87 52 89 53 37 54 92 55 86 56 85 57
REMARK SMILES IDX 38 59 72 60 51 61 71 62 52 63 55 64 70 65 90 66 53 67 54 68
REMARK SMILES IDX 69 70 91 71 56 72 39 73 40 74 49 75 41 76 42 77 48 78 50 79
REMARK SMILES IDX 43 80 44 81 45 82 46 83 47 84 73 85 74 86 83 87 75 88 76 89
REMARK SMILES IDX 82 90 84 91 77 92 78 93 79 94 80 95 81 96 57 97 58 98 67 99
REMARK SMILES IDX 59 100 60 101 66 102 68 103 61 104 62 105 63 106 64 107
REMARK SMILES IDX 65 108
REMARK H PARENT 22 6 11 15 98 33 98 34 27 39 89 58 55 69
REMARK Flexibility Score: inf
ROOT
ATOM      1  C   UNL A   1      32.320  30.574  27.059  1.00  0.00     0.023 C 
ENDROOT
BRANCH   1   2
ATOM      2  C   UNL A   1      32.321  29.675  25.817  1.00  0.00     0.116 C 
BRANCH   2   3
ATOM      3  N   UNL A   1      31.216  30.025  24.980  1.00  0.00    -0.356 N 
ATOM      4  C   UNL A   1      30.654  29.264  24.018  1.00  0.00     0.224 C 
ATOM      5  O   UNL A   1      29.963  29.846  23.175  1.00  0.00    -0.275 OA
ATOM      6  H   UNL A   1      30.823  30.918  25.120  1.00  0.00     0.163 HD
BRANCH   4   7
ATOM      7  C   UNL A   1      30.772  27.746  24.008  1.00  0.00     0.095 C 
ATOM      8  C   UNL A   1      31.881  26.976  23.253  1.00  0.00     0.095 C 
ATOM      9  C   UNL A   1      31.286  25.605  22.861  1.00  0.00     0.041 C 
ATOM     10  C   UNL A   1      30.353  25.015  23.904  1.00  0.00    -0.030 C 
ATOM     11  C   UNL A   1      30.370  27.084  25.318  1.00  0.00     0.041 C 
ATOM     12  C   UNL A   1      29.989  25.656  25.032  1.00  0.00    -0.030 C 
BRANCH   8  13
ATOM     13  C   UNL A   1      33.392  26.921  23.671  1.00  0.00     0.229 C 
ATOM     14  N   UNL A   1      34.020  26.127  24.594  1.00  0.00    -0.317 N 
ATOM     15  H   UNL A   1      34.722  26.585  25.111  1.00  0.00     0.170 HD
ATOM     16  O   UNL A   1      34.140  27.767  23.149  1.00  0.00    -0.274 OA
BRANCH  14  17
ATOM     17  C   UNL A   1      33.842  24.800  24.927  1.00  0.00     0.109 A 
ATOM     18  C   UNL A   1      33.699  22.476  25.104  1.00  0.00     0.010 A 
ATOM     19  C   UNL A   1      33.347  22.911  26.373  1.00  0.00     0.012 A 
ATOM     20  C   UNL A   1      33.967  23.608  24.203  1.00  0.00     0.082 A 
ATOM     21  C   UNL A   1      33.224  22.202  27.678  1.00  0.00     0.057 C 
ATOM     22  S   UNL A   1      32.806  24.511  26.245  1.00  0.00    -0.122 S 
BRANCH  18  23
ATOM     23  C   UNL A   1      33.645  21.046  24.809  1.00  0.00    -0.016 A 
ATOM     24  C   UNL A   1      33.739  16.812  24.003  1.00  0.00     0.044 C 
ATOM     25  C   UNL A   1      33.713  18.289  24.251  1.00  0.00    -0.051 A 
ATOM     26  C   UNL A   1      32.518  19.017  24.128  1.00  0.00     0.004 A 
ATOM     27  C   UNL A   1      34.872  18.949  24.659  1.00  0.00     0.004 A 
ATOM     28  C   UNL A   1      32.483  20.393  24.398  1.00  0.00     0.009 A 
ATOM     29  C   UNL A   1      34.832  20.308  24.949  1.00  0.00     0.009 A 
ENDBRANCH  18  23
BRANCH  20  30
ATOM     30  C   UNL A   1      34.278  23.448  22.779  1.00  0.00     0.252 C 
ATOM     31  N   UNL A   1      33.253  23.410  21.884  1.00  0.00    -0.365 N 
ATOM     32  O   UNL A   1      35.432  23.331  22.365  1.00  0.00    -0.269 OA
ATOM     33  H   UNL A   1      32.324  23.501  22.194  1.00  0.00     0.159 HD
ATOM     34  H   UNL A   1      33.442  23.290  20.924  1.00  0.00     0.159 HD
ENDBRANCH  20  30
ENDBRANCH  14  17
ENDBRANCH   8  13
ENDBRANCH   4   7
ENDBRANCH   2   3
ENDBRANCH   1   2
BRANCH   1  35
ATOM     35  C   UNL A   1      33.699  30.952  27.614  1.00  0.00     0.023 C 
BRANCH  35  36
ATOM     36  C   UNL A   1      33.919  32.443  27.653  1.00  0.00     0.116 C 
BRANCH  36  37
ATOM     37  N   UNL A   1      35.141  32.750  28.348  1.00  0.00    -0.352 N 
ATOM     38  C   UNL A   1      36.252  32.001  28.566  1.00  0.00     0.251 C 
ATOM     39  H   UNL A   1      35.179  33.657  28.729  1.00  0.00     0.163 HD
ATOM     40  O   UNL A   1      37.254  32.638  28.887  1.00  0.00    -0.269 OA
BRANCH  38  41
ATOM     41  C   UNL A   1      36.288  30.545  28.197  1.00  0.00     0.039 A 
ATOM     42  C   UNL A   1      36.245  29.723  29.332  1.00  0.00     0.014 A 
ATOM     43  C   UNL A   1      37.246  30.283  27.220  1.00  0.00     0.014 A 
ATOM     44  C   UNL A   1      37.413  29.129  29.753  1.00  0.00     0.010 A 
ATOM     45  C   UNL A   1      38.448  29.833  27.660  1.00  0.00     0.010 A 
ATOM     46  C   UNL A   1      38.525  29.359  28.969  1.00  0.00    -0.014 A 
BRANCH  46  47
ATOM     47  C   UNL A   1      39.872  29.112  29.388  1.00  0.00     0.031 A 
ATOM     48  C   UNL A   1      40.260  27.709  29.325  1.00  0.00     0.074 A 
ATOM     49  C   UNL A   1      40.614  30.236  29.476  1.00  0.00     0.049 A 
ATOM     50  N   UNL A   1      41.306  27.211  29.857  1.00  0.00    -0.248 NA
ATOM     51  C   UNL A   1      39.406  26.697  28.689  1.00  0.00     0.031 C 
ATOM     52  C   UNL A   1      42.050  30.461  29.448  1.00  0.00     0.029 A 
ATOM     53  N   UNL A   1      40.091  31.473  29.884  1.00  0.00    -0.354 N 
ATOM     54  C   UNL A   1      41.490  25.994  29.234  1.00  0.00     0.074 A 
ATOM     55  C   UNL A   1      40.190  25.622  28.750  1.00  0.00     0.031 C 
ATOM     56  C   UNL A   1      42.308  31.606  30.118  1.00  0.00     0.029 A 
ATOM     57  C   UNL A   1      41.054  32.026  30.741  1.00  0.00     0.049 A 
ATOM     58  H   UNL A   1      39.228  31.871  29.623  1.00  0.00     0.167 HD
ATOM     59  C   UNL A   1      42.774  25.609  28.988  1.00  0.00     0.037 A 
ATOM     60  C   UNL A   1      40.789  31.952  32.085  1.00  0.00     0.037 A 
ATOM     61  C   UNL A   1      43.687  26.581  29.618  1.00  0.00     0.049 A 
ATOM     62  C   UNL A   1      41.721  30.969  32.805  1.00  0.00     0.074 A 
ATOM     63  C   UNL A   1      44.476  27.628  29.170  1.00  0.00     0.029 A 
ATOM     64  N   UNL A   1      43.542  26.794  30.975  1.00  0.00    -0.354 N 
ATOM     65  N   UNL A   1      42.430  30.032  32.223  1.00  0.00    -0.248 NA
ATOM     66  C   UNL A   1      41.921  30.976  34.251  1.00  0.00     0.031 C 
ATOM     67  C   UNL A   1      44.761  28.481  30.292  1.00  0.00     0.029 A 
ATOM     68  C   UNL A   1      44.144  27.952  31.412  1.00  0.00     0.049 A 
ATOM     69  H   UNL A   1      43.055  26.180  31.570  1.00  0.00     0.167 HD
ATOM     70  C   UNL A   1      43.154  29.327  33.152  1.00  0.00     0.074 A 
ATOM     71  C   UNL A   1      42.767  29.942  34.414  1.00  0.00     0.031 C 
ATOM     72  C   UNL A   1      43.994  28.289  32.827  1.00  0.00     0.037 A 
BRANCH  59  73
ATOM     73  C   UNL A   1      43.214  24.535  28.011  1.00  0.00     0.058 A 
ATOM     74  C   UNL A   1      43.629  24.909  26.714  1.00  0.00     0.135 A 
ATOM     75  C   UNL A   1      43.234  23.140  28.240  1.00  0.00     0.135 A 
ATOM     76  F   UNL A   1      43.700  26.196  26.348  1.00  0.00    -0.206 F 
ATOM     77  C   UNL A   1      43.992  23.986  25.730  1.00  0.00     0.059 A 
ATOM     78  C   UNL A   1      43.582  22.198  27.270  1.00  0.00     0.059 A 
ATOM     79  F   UNL A   1      42.941  22.593  29.419  1.00  0.00    -0.206 F 
ATOM     80  C   UNL A   1      43.960  22.628  26.013  1.00  0.00     0.060 A 
BRANCH  80  81
ATOM     81  S   UNL A   1      44.445  21.450  24.744  1.00  0.00     0.124 S 
ATOM     82  O   UNL A   1      44.152  22.188  23.519  1.00  0.00    -0.237 OA
ATOM     83  O   UNL A   1      45.857  21.245  25.043  1.00  0.00    -0.237 OA
ATOM     84  O   UNL A   1      43.581  20.300  24.997  1.00  0.00    -0.744 OA
ENDBRANCH  80  81
ENDBRANCH  59  73
BRANCH  60  85
ATOM     85  C   UNL A   1      39.324  32.180  32.406  1.00  0.00     0.058 A 
ATOM     86  C   UNL A   1      38.795  33.493  32.377  1.00  0.00     0.135 A 
ATOM     87  C   UNL A   1      38.376  31.148  32.426  1.00  0.00     0.135 A 
ATOM     88  F   UNL A   1      39.629  34.547  32.355  1.00  0.00    -0.206 F 
ATOM     89  C   UNL A   1      37.423  33.766  32.277  1.00  0.00     0.059 A 
ATOM     90  C   UNL A   1      36.992  31.398  32.330  1.00  0.00     0.059 A 
ATOM     91  F   UNL A   1      38.776  29.868  32.449  1.00  0.00    -0.206 F 
ATOM     92  C   UNL A   1      36.525  32.708  32.199  1.00  0.00     0.060 A 
BRANCH  92  93
ATOM     93  S   UNL A   1      34.745  33.052  31.999  1.00  0.00     0.124 S 
ATOM     94  O   UNL A   1      34.286  31.926  31.190  1.00  0.00    -0.237 OA
ATOM     95  O   UNL A   1      34.224  33.083  33.361  1.00  0.00    -0.237 OA
ATOM     96  O   UNL A   1      34.743  34.345  31.318  1.00  0.00    -0.744 OA
ENDBRANCH  92  93
ENDBRANCH  60  85
BRANCH  72  97
ATOM     97  C   UNL A   1      44.695  27.405  33.847  1.00  0.00     0.058 A 
ATOM     98  C   UNL A   1      44.044  26.400  34.576  1.00  0.00     0.135 A 
ATOM     99  C   UNL A   1      46.066  27.586  34.176  1.00  0.00     0.135 A 
ATOM    100  F   UNL A   1      42.717  26.230  34.480  1.00  0.00    -0.206 F 
ATOM    101  C   UNL A   1      44.728  25.553  35.452  1.00  0.00     0.059 A 
ATOM    102  C   UNL A   1      46.751  26.798  35.088  1.00  0.00     0.059 A 
ATOM    103  F   UNL A   1      46.837  28.519  33.609  1.00  0.00    -0.206 F 
ATOM    104  C   UNL A   1      46.087  25.750  35.689  1.00  0.00     0.060 A 
BRANCH 104 105
ATOM    105  S   UNL A   1      46.983  24.656  36.796  1.00  0.00     0.124 S 
ATOM    106  O   UNL A   1      46.696  23.341  36.231  1.00  0.00    -0.237 OA
ATOM    107  O   UNL A   1      48.353  25.134  36.634  1.00  0.00    -0.237 OA
ATOM    108  O   UNL A   1      46.380  24.916  38.100  1.00  0.00    -0.744 OA
ENDBRANCH 104 105
ENDBRANCH  72  97
ENDBRANCH  46  47
ENDBRANCH  38  41
ENDBRANCH  36  37
ENDBRANCH  35  36
ENDBRANCH   1  35
TORSDOF 18
ENDMDL
MODEL 3
REMARK VINA RESULT:     -12.1      1.440      2.358
REMARK SMILES Cc1ccc(-c2c(C)sc(NC(=O)[C@H]3CC=CC[C@H]3C(=O)NCCCCNC(=O)c3ccc(-c4c5nc(c(-c6c(F)cc(S(=O)(=O)[O-])cc6F)c6ccc([nH]6)c(-c6c(F)cc(S(=O)(=O)[O-])cc6F)c6nc(c(-c7c(F)cc(S(=O)(=O)[O-])cc7F)c7ccc4[nH]7)C=C6)C=C5)cc3)c2C(N)=O)cc1
REMARK SMILES IDX 24 1 23 2 22 3 20 4 21 5 19 7 14 8 15 9 16 10 18 11 17 12
REMARK SMILES IDX 12 13 11 14 13 16 10 17 6 18 7 19 96 20 8 21 9 22 5 23 1 24
REMARK SMILES IDX 2 25 3 26 101 27 4 28 100 29 97 30 98 31 99 32 25 35 26 36
REMARK SMILES IDX 27 37 28 38 29 40 30 41 31 42 95 43 32 44 94 45 33 46 34 47
REMARK SMILES IDX 35 48 88 49 36 50 93 51 87 52 89 53 37 54 92 55 86 56 85 57
REMARK SMILES IDX 38 59 72 60 51 61 71 62 52 63 55 64 70 65 90 66 53 67 54 68
REMARK SMILES IDX 69 70 91 71 56 72 39 73 40 74 49 75 41 76 42 77 48 78 50 79
REMARK SMILES IDX 43 80 44 81 45 82 46 83 47 84 73 85 74 86 83 87 75 88 76 89
REMARK SMILES IDX 82 90 84 91 77 92 78 93 79 94 80 95 81 96 57 97 58 98 67 99
REMARK SMILES IDX 59 100 60 101 66 102 68 103 61 104 62 105 63 106 64 107
REMARK SMILES IDX 65 108
REMARK H PARENT 22 6 11 15 98 33 98 34 27 39 89 58 55 69
REMARK Flexibility Score: inf
ROOT
ATOM      1  C   UNL A   1      38.985  19.849  25.366  1.00  0.00     0.023 C 
ENDROOT
BRANCH   1   2
ATOM      2  C   UNL A   1      37.586  20.362  25.006  1.00  0.00     0.116 C 
BRANCH   2   3
ATOM      3  N   UNL A   1      37.563  21.788  25.118  1.00  0.00    -0.356 N 
ATOM      4  C   UNL A   1      36.563  22.614  24.749  1.00  0.00     0.224 C 
ATOM      5  O   UNL A   1      36.850  23.805  24.588  1.00  0.00    -0.275 OA
ATOM      6  H   UNL A   1      38.364  22.212  25.507  1.00  0.00     0.163 HD
BRANCH   4   7
ATOM      7  C   UNL A   1      35.121  22.142  24.624  1.00  0.00     0.095 C 
ATOM      8  C   UNL A   1      34.274  21.645  25.819  1.00  0.00     0.095 C 
ATOM      9  C   UNL A   1      33.258  20.626  25.256  1.00  0.00     0.041 C 
ATOM     10  C   UNL A   1      32.723  20.985  23.880  1.00  0.00    -0.030 C 
ATOM     11  C   UNL A   1      34.306  22.906  23.590  1.00  0.00     0.041 C 
ATOM     12  C   UNL A   1      33.152  22.040  23.160  1.00  0.00    -0.030 C 
BRANCH   8  13
ATOM     13  C   UNL A   1      33.701  22.551  26.964  1.00  0.00     0.229 C 
ATOM     14  N   UNL A   1      33.210  23.829  26.911  1.00  0.00    -0.317 N 
ATOM     15  H   UNL A   1      33.454  24.390  27.683  1.00  0.00     0.170 HD
ATOM     16  O   UNL A   1      33.757  22.086  28.117  1.00  0.00    -0.274 OA
BRANCH  14  17
ATOM     17  C   UNL A   1      32.434  24.469  25.966  1.00  0.00     0.109 A 
ATOM     18  C   UNL A   1      31.361  25.890  24.456  1.00  0.00     0.010 A 
ATOM     19  C   UNL A   1      30.791  24.656  24.186  1.00  0.00     0.012 A 
ATOM     20  C   UNL A   1      32.333  25.804  25.557  1.00  0.00     0.082 A 
ATOM     21  C   UNL A   1      29.965  24.160  23.049  1.00  0.00     0.057 C 
ATOM     22  S   UNL A   1      30.983  23.681  25.558  1.00  0.00    -0.122 S 
BRANCH  18  23
ATOM     23  C   UNL A   1      30.868  27.066  23.742  1.00  0.00    -0.016 A 
ATOM     24  C   UNL A   1      29.174  30.478  21.724  1.00  0.00     0.044 C 
ATOM     25  C   UNL A   1      29.759  29.275  22.397  1.00  0.00    -0.051 A 
ATOM     26  C   UNL A   1      31.139  29.020  22.341  1.00  0.00     0.004 A 
ATOM     27  C   UNL A   1      28.939  28.420  23.133  1.00  0.00     0.004 A 
ATOM     28  C   UNL A   1      31.694  27.915  23.004  1.00  0.00     0.009 A 
ATOM     29  C   UNL A   1      29.491  27.338  23.809  1.00  0.00     0.009 A 
ENDBRANCH  18  23
BRANCH  20  30
ATOM     30  C   UNL A   1      33.028  26.970  26.112  1.00  0.00     0.252 C 
ATOM     31  N   UNL A   1      32.495  27.597  27.197  1.00  0.00    -0.365 N 
ATOM     32  O   UNL A   1      34.068  27.414  25.623  1.00  0.00    -0.269 OA
ATOM     33  H   UNL A   1      31.665  27.258  27.603  1.00  0.00     0.159 HD
ATOM     34  H   UNL A   1      32.940  28.389  27.576  1.00  0.00     0.159 HD
ENDBRANCH  20  30
ENDBRANCH  14  17
ENDBRANCH   8  13
ENDBRANCH   4   7
ENDBRANCH   2   3
ENDBRANCH   1   2
BRANCH   1  35
ATOM     35  C   UNL A   1      39.767  20.692  26.383  1.00  0.00     0.023 C 
BRANCH  35  36
ATOM     36  C   UNL A   1      40.951  21.391  25.765  1.00  0.00     0.116 C 
BRANCH  36  37
ATOM     37  N   UNL A   1      41.729  22.050  26.781  1.00  0.00    -0.352 N 
ATOM     38  C   UNL A   1      41.492  23.188  27.483  1.00  0.00     0.251 C 
ATOM     39  H   UNL A   1      42.575  21.600  27.006  1.00  0.00     0.163 HD
ATOM     40  O   UNL A   1      42.159  23.314  28.509  1.00  0.00    -0.269 OA
BRANCH  38  41
ATOM     41  C   UNL A   1      40.333  24.080  27.142  1.00  0.00     0.039 A 
ATOM     42  C   UNL A   1      40.702  25.087  26.239  1.00  0.00     0.014 A 
ATOM     43  C   UNL A   1      39.604  24.436  28.275  1.00  0.00     0.014 A 
ATOM     44  C   UNL A   1      40.892  26.361  26.722  1.00  0.00     0.010 A 
ATOM     45  C   UNL A   1      39.903  25.637  28.831  1.00  0.00     0.010 A 
ATOM     46  C   UNL A   1      40.641  26.541  28.068  1.00  0.00    -0.014 A 
BRANCH  46  47
ATOM     47  C   UNL A   1      41.074  27.677  28.824  1.00  0.00     0.031 A 
ATOM     48  C   UNL A   1      40.201  28.836  28.696  1.00  0.00     0.074 A 
ATOM     49  C   UNL A   1      42.025  27.377  29.732  1.00  0.00     0.049 A 
ATOM     50  N   UNL A   1      40.490  30.019  29.073  1.00  0.00    -0.248 NA
ATOM     51  C   UNL A   1      38.898  28.755  28.022  1.00  0.00     0.031 C 
ATOM     52  C   UNL A   1      42.457  28.046  30.949  1.00  0.00     0.029 A 
ATOM     53  N   UNL A   1      43.014  26.403  29.519  1.00  0.00    -0.354 N 
ATOM     54  C   UNL A   1      39.285  30.688  29.139  1.00  0.00     0.074 A 
ATOM     55  C   UNL A   1      38.413  29.975  28.249  1.00  0.00     0.031 C 
ATOM     56  C   UNL A   1      43.743  27.705  31.181  1.00  0.00     0.029 A 
ATOM     57  C   UNL A   1      44.204  26.961  30.010  1.00  0.00     0.049 A 
ATOM     58  H   UNL A   1      42.897  25.515  29.111  1.00  0.00     0.167 HD
ATOM     59  C   UNL A   1      39.129  31.590  30.148  1.00  0.00     0.037 A 
ATOM     60  C   UNL A   1      45.082  27.446  29.074  1.00  0.00     0.037 A 
ATOM     61  C   UNL A   1      40.414  31.732  30.858  1.00  0.00     0.049 A 
ATOM     62  C   UNL A   1      45.169  28.978  29.104  1.00  0.00     0.074 A 
ATOM     63  C   UNL A   1      40.934  31.277  32.059  1.00  0.00     0.029 A 
ATOM     64  N   UNL A   1      41.514  32.096  30.105  1.00  0.00    -0.354 N 
ATOM     65  N   UNL A   1      44.288  29.777  29.654  1.00  0.00    -0.248 NA
ATOM     66  C   UNL A   1      46.273  29.723  28.506  1.00  0.00     0.031 C 
ATOM     67  C   UNL A   1      42.368  31.349  31.979  1.00  0.00     0.029 A 
ATOM     68  C   UNL A   1      42.712  31.844  30.733  1.00  0.00     0.049 A 
ATOM     69  H   UNL A   1      41.447  32.494  29.207  1.00  0.00     0.167 HD
ATOM     70  C   UNL A   1      44.664  31.088  29.502  1.00  0.00     0.074 A 
ATOM     71  C   UNL A   1      45.903  30.995  28.742  1.00  0.00     0.031 C 
ATOM     72  C   UNL A   1      43.932  32.146  29.987  1.00  0.00     0.037 A 
BRANCH  59  73
ATOM     73  C   UNL A   1      37.812  32.154  30.648  1.00  0.00     0.058 A 
ATOM     74  C   UNL A   1      37.627  33.554  30.678  1.00  0.00     0.135 A 
ATOM     75  C   UNL A   1      36.708  31.419  31.137  1.00  0.00     0.135 A 
ATOM     76  F   UNL A   1      38.566  34.392  30.216  1.00  0.00    -0.206 F 
ATOM     77  C   UNL A   1      36.473  34.163  31.178  1.00  0.00     0.059 A 
ATOM     78  C   UNL A   1      35.550  32.005  31.653  1.00  0.00     0.059 A 
ATOM     79  F   UNL A   1      36.663  30.087  31.132  1.00  0.00    -0.206 F 
ATOM     80  C   UNL A   1      35.439  33.382  31.670  1.00  0.00     0.060 A 
BRANCH  80  81
ATOM     81  S   UNL A   1      33.953  34.177  32.297  1.00  0.00     0.124 S 
ATOM     82  O   UNL A   1      34.506  35.257  33.108  1.00  0.00    -0.237 OA
ATOM     83  O   UNL A   1      33.283  34.581  31.066  1.00  0.00    -0.237 OA
ATOM     84  O   UNL A   1      33.288  33.116  33.049  1.00  0.00    -0.744 OA
ENDBRANCH  80  81
ENDBRANCH  59  73
BRANCH  60  85
ATOM     85  C   UNL A   1      45.152  26.579  27.832  1.00  0.00     0.058 A 
ATOM     86  C   UNL A   1      45.807  25.324  27.889  1.00  0.00     0.135 A 
ATOM     87  C   UNL A   1      44.343  26.788  26.706  1.00  0.00     0.135 A 
ATOM     88  F   UNL A   1      46.602  25.034  28.932  1.00  0.00    -0.206 F 
ATOM     89  C   UNL A   1      45.600  24.308  26.945  1.00  0.00     0.059 A 
ATOM     90  C   UNL A   1      44.123  25.782  25.744  1.00  0.00     0.059 A 
ATOM     91  F   UNL A   1      43.677  27.943  26.563  1.00  0.00    -0.206 F 
ATOM     92  C   UNL A   1      44.711  24.524  25.897  1.00  0.00     0.060 A 
BRANCH  92  93
ATOM     93  S   UNL A   1      44.382  23.184  24.705  1.00  0.00     0.124 S 
ATOM     94  O   UNL A   1      43.031  23.487  24.241  1.00  0.00    -0.237 OA
ATOM     95  O   UNL A   1      45.425  23.330  23.696  1.00  0.00    -0.237 OA
ATOM     96  O   UNL A   1      44.499  21.984  25.530  1.00  0.00    -0.744 OA
ENDBRANCH  92  93
ENDBRANCH  60  85
BRANCH  72  97
ATOM     97  C   UNL A   1      44.254  33.607  29.711  1.00  0.00     0.058 A 
ATOM     98  C   UNL A   1      44.114  34.203  28.450  1.00  0.00     0.135 A 
ATOM     99  C   UNL A   1      44.786  34.458  30.717  1.00  0.00     0.135 A 
ATOM    100  F   UNL A   1      43.775  33.473  27.377  1.00  0.00    -0.206 F 
ATOM    101  C   UNL A   1      44.346  35.566  28.241  1.00  0.00     0.059 A 
ATOM    102  C   UNL A   1      45.082  35.797  30.517  1.00  0.00     0.059 A 
ATOM    103  F   UNL A   1      45.022  34.053  31.969  1.00  0.00    -0.206 F 
ATOM    104  C   UNL A   1      44.815  36.359  29.287  1.00  0.00     0.060 A 
BRANCH 104 105
ATOM    105  S   UNL A   1      45.097  38.115  29.037  1.00  0.00     0.124 S 
ATOM    106  O   UNL A   1      44.222  38.411  27.906  1.00  0.00    -0.237 OA
ATOM    107  O   UNL A   1      44.681  38.663  30.324  1.00  0.00    -0.237 OA
ATOM    108  O   UNL A   1      46.526  38.198  28.754  1.00  0.00    -0.744 OA
ENDBRANCH 104 105
ENDBRANCH  72  97
ENDBRANCH  46  47
ENDBRANCH  38  41
ENDBRANCH  36  37
ENDBRANCH  35  36
ENDBRANCH   1  35
TORSDOF 18
ENDMDL
