MODEL 1
REMARK VINA RESULT:     -12.5      0.000      0.000
REMARK SMILES Nc1nn(-c2ccc(Cl)cc2)nc1C(=O)NCCCCNC(=O)c1ccc(-c2c3nc(c(-c4c(F)cc(S(=O)(=O)[O-])cc4F)c4ccc([nH]4)c(-c4c(F)cc(S(=O)(=O)[O-])cc4F)c4nc(c(-c5c(F)cc(S(=O)(=O)[O-])cc5F)c5ccc2[nH]5)C=C4)C=C3)cc1
REMARK SMILES IDX 19 1 18 2 17 3 16 4 14 5 15 6 13 8 2 9 3 10 4 11 12 12 1 13
REMARK SMILES IDX 5 16 6 17 11 18 7 19 10 20 8 21 9 22 20 23 21 24 22 25 23 27
REMARK SMILES IDX 24 28 25 29 89 30 26 31 88 32 27 33 28 34 29 35 82 36 30 37
REMARK SMILES IDX 87 38 81 39 83 40 31 41 86 42 80 43 79 44 32 46 66 47 45 48
REMARK SMILES IDX 65 49 46 50 49 51 64 52 84 53 47 54 48 55 63 57 85 58 50 59
REMARK SMILES IDX 33 60 34 61 43 62 35 63 36 64 42 65 44 66 37 67 38 68 39 69
REMARK SMILES IDX 40 70 41 71 67 72 68 73 77 74 69 75 70 76 76 77 78 78 71 79
REMARK SMILES IDX 72 80 73 81 74 82 75 83 51 84 52 85 61 86 53 87 54 88 60 89
REMARK SMILES IDX 62 90 55 91 56 92 57 93 58 94 59 95
REMARK H PARENT 16 7 1 14 1 15 21 26 83 45 49 56
REMARK Flexibility Score: inf
ROOT
ATOM      1  C   UNL A   1      39.765  21.259  26.163  1.00  0.00     0.023 C 
ENDROOT
BRANCH   1   2
ATOM      2  C   UNL A   1      39.281  22.675  26.486  1.00  0.00     0.023 C 
BRANCH   2   3
ATOM      3  C   UNL A   1      37.857  23.057  26.076  1.00  0.00     0.116 C 
BRANCH   3   4
ATOM      4  N   UNL A   1      37.671  23.242  24.655  1.00  0.00    -0.351 N 
ATOM      5  C   UNL A   1      36.670  22.817  23.806  1.00  0.00     0.275 C 
ATOM      6  O   UNL A   1      36.853  23.064  22.610  1.00  0.00    -0.267 OA
ATOM      7  H   UNL A   1      38.382  23.762  24.216  1.00  0.00     0.163 HD
BRANCH   5   8
ATOM      8  C   UNL A   1      35.466  22.100  24.259  1.00  0.00     0.194 A 
ATOM      9  C   UNL A   1      34.078  22.436  24.298  1.00  0.00     0.179 A 
ATOM     10  N   UNL A   1      33.361  21.374  24.647  1.00  0.00    -0.130 NA
ATOM     11  N   UNL A   1      34.300  20.413  24.756  1.00  0.00    -0.149 N 
ATOM     12  N   UNL A   1      35.582  20.823  24.696  1.00  0.00    -0.141 NA
BRANCH   9  13
ATOM     13  N   UNL A   1      33.458  23.587  24.013  1.00  0.00    -0.380 N 
ATOM     14  H   UNL A   1      33.964  24.432  24.013  1.00  0.00     0.158 HD
ATOM     15  H   UNL A   1      32.497  23.590  23.802  1.00  0.00     0.158 HD
ENDBRANCH   9  13
BRANCH  11  16
ATOM     16  C   UNL A   1      33.949  19.046  24.894  1.00  0.00     0.086 A 
ATOM     17  C   UNL A   1      32.788  18.679  25.586  1.00  0.00     0.032 A 
ATOM     18  C   UNL A   1      34.793  18.059  24.360  1.00  0.00     0.032 A 
ATOM     19  C   UNL A   1      32.458  17.327  25.715  1.00  0.00     0.023 A 
ATOM     20  C   UNL A   1      34.484  16.708  24.539  1.00  0.00     0.023 A 
ATOM     21  C   UNL A   1      33.312  16.348  25.202  1.00  0.00     0.041 A 
ATOM     22  Cl  UNL A   1      32.916  14.684  25.392  1.00  0.00    -0.084 Cl
ENDBRANCH  11  16
ENDBRANCH   5   8
ENDBRANCH   3   4
ENDBRANCH   2   3
ENDBRANCH   1   2
BRANCH   1  23
ATOM     23  C   UNL A   1      40.760  20.666  27.151  1.00  0.00     0.116 C 
BRANCH  23  24
ATOM     24  N   UNL A   1      41.977  20.157  26.528  1.00  0.00    -0.352 N 
ATOM     25  C   UNL A   1      43.022  20.902  25.999  1.00  0.00     0.251 C 
ATOM     26  H   UNL A   1      42.068  19.178  26.479  1.00  0.00     0.163 HD
ATOM     27  O   UNL A   1      43.795  20.407  25.200  1.00  0.00    -0.269 OA
BRANCH  25  28
ATOM     28  C   UNL A   1      43.169  22.313  26.421  1.00  0.00     0.039 A 
ATOM     29  C   UNL A   1      42.838  23.357  25.557  1.00  0.00     0.014 A 
ATOM     30  C   UNL A   1      43.609  22.579  27.718  1.00  0.00     0.014 A 
ATOM     31  C   UNL A   1      42.861  24.662  26.045  1.00  0.00     0.010 A 
ATOM     32  C   UNL A   1      43.504  23.850  28.237  1.00  0.00     0.010 A 
ATOM     33  C   UNL A   1      43.155  24.904  27.403  1.00  0.00    -0.014 A 
BRANCH  33  34
ATOM     34  C   UNL A   1      42.884  26.223  27.982  1.00  0.00     0.031 A 
ATOM     35  C   UNL A   1      43.947  27.210  27.647  1.00  0.00     0.074 A 
ATOM     36  C   UNL A   1      41.724  26.599  28.573  1.00  0.00     0.049 A 
ATOM     37  N   UNL A   1      44.897  27.622  28.418  1.00  0.00    -0.248 NA
ATOM     38  C   UNL A   1      44.115  27.621  26.239  1.00  0.00     0.031 C 
ATOM     39  C   UNL A   1      40.483  25.820  28.652  1.00  0.00     0.029 A 
ATOM     40  N   UNL A   1      41.360  27.790  29.142  1.00  0.00    -0.354 N 
ATOM     41  C   UNL A   1      45.546  28.613  27.688  1.00  0.00     0.074 A 
ATOM     42  C   UNL A   1      45.223  28.366  26.310  1.00  0.00     0.031 C 
ATOM     43  C   UNL A   1      39.456  26.628  28.997  1.00  0.00     0.029 A 
ATOM     44  C   UNL A   1      39.984  27.936  29.342  1.00  0.00     0.049 A 
ATOM     45  H   UNL A   1      42.011  28.486  29.387  1.00  0.00     0.167 HD
ATOM     46  C   UNL A   1      45.927  29.762  28.314  1.00  0.00     0.037 A 
ATOM     47  C   UNL A   1      39.316  29.038  29.775  1.00  0.00     0.037 A 
ATOM     48  C   UNL A   1      45.875  29.585  29.746  1.00  0.00     0.049 A 
ATOM     49  C   UNL A   1      40.281  29.867  30.531  1.00  0.00     0.074 A 
ATOM     50  C   UNL A   1      46.582  28.907  30.715  1.00  0.00     0.029 A 
ATOM     51  N   UNL A   1      44.645  29.873  30.270  1.00  0.00    -0.354 N 
ATOM     52  N   UNL A   1      40.821  29.489  31.657  1.00  0.00    -0.248 NA
ATOM     53  C   UNL A   1      40.937  30.989  29.869  1.00  0.00     0.031 C 
ATOM     54  C   UNL A   1      45.684  28.714  31.809  1.00  0.00     0.029 A 
ATOM     55  C   UNL A   1      44.472  29.328  31.511  1.00  0.00     0.049 A 
ATOM     56  H   UNL A   1      43.963  30.412  29.807  1.00  0.00     0.167 HD
ATOM     57  C   UNL A   1      42.099  30.001  31.607  1.00  0.00     0.074 A 
ATOM     58  C   UNL A   1      42.054  31.052  30.597  1.00  0.00     0.031 C 
ATOM     59  C   UNL A   1      43.152  29.291  32.104  1.00  0.00     0.037 A 
BRANCH  46  60
ATOM     60  C   UNL A   1      45.792  31.158  27.720  1.00  0.00     0.058 A 
ATOM     61  C   UNL A   1      46.884  32.049  27.820  1.00  0.00     0.135 A 
ATOM     62  C   UNL A   1      44.567  31.755  27.343  1.00  0.00     0.135 A 
ATOM     63  F   UNL A   1      48.095  31.604  28.195  1.00  0.00    -0.206 F 
ATOM     64  C   UNL A   1      46.757  33.424  27.609  1.00  0.00     0.059 A 
ATOM     65  C   UNL A   1      44.430  33.114  27.080  1.00  0.00     0.059 A 
ATOM     66  F   UNL A   1      43.416  31.078  27.298  1.00  0.00    -0.206 F 
ATOM     67  C   UNL A   1      45.522  33.948  27.242  1.00  0.00     0.060 A 
BRANCH  67  68
ATOM     68  S   UNL A   1      45.340  35.721  26.994  1.00  0.00     0.124 S 
ATOM     69  O   UNL A   1      43.947  35.816  26.575  1.00  0.00    -0.237 OA
ATOM     70  O   UNL A   1      45.651  36.243  28.320  1.00  0.00    -0.237 OA
ATOM     71  O   UNL A   1      46.333  36.017  25.965  1.00  0.00    -0.744 OA
ENDBRANCH  67  68
ENDBRANCH  46  60
BRANCH  47  72
ATOM     72  C   UNL A   1      37.965  29.546  29.405  1.00  0.00     0.058 A 
ATOM     73  C   UNL A   1      37.047  29.965  30.389  1.00  0.00     0.135 A 
ATOM     74  C   UNL A   1      37.669  29.929  28.083  1.00  0.00     0.135 A 
ATOM     75  F   UNL A   1      37.246  29.647  31.677  1.00  0.00    -0.206 F 
ATOM     76  C   UNL A   1      35.951  30.784  30.094  1.00  0.00     0.059 A 
ATOM     77  C   UNL A   1      36.577  30.738  27.762  1.00  0.00     0.059 A 
ATOM     78  F   UNL A   1      38.489  29.605  27.072  1.00  0.00    -0.206 F 
ATOM     79  C   UNL A   1      35.741  31.191  28.777  1.00  0.00     0.060 A 
BRANCH  79  80
ATOM     80  S   UNL A   1      34.456  32.415  28.419  1.00  0.00     0.124 S 
ATOM     81  O   UNL A   1      33.441  31.603  27.759  1.00  0.00    -0.237 OA
ATOM     82  O   UNL A   1      34.114  32.904  29.750  1.00  0.00    -0.237 OA
ATOM     83  O   UNL A   1      35.139  33.380  27.561  1.00  0.00    -0.744 OA
ENDBRANCH  79  80
ENDBRANCH  47  72
BRANCH  59  84
ATOM     84  C   UNL A   1      42.895  28.372  33.259  1.00  0.00     0.058 A 
ATOM     85  C   UNL A   1      43.024  26.973  33.245  1.00  0.00     0.135 A 
ATOM     86  C   UNL A   1      42.513  28.971  34.470  1.00  0.00     0.135 A 
ATOM     87  F   UNL A   1      43.469  26.329  32.155  1.00  0.00    -0.206 F 
ATOM     88  C   UNL A   1      42.725  26.203  34.373  1.00  0.00     0.059 A 
ATOM     89  C   UNL A   1      42.247  28.229  35.613  1.00  0.00     0.059 A 
ATOM     90  F   UNL A   1      42.412  30.307  34.559  1.00  0.00    -0.206 F 
ATOM     91  C   UNL A   1      42.330  26.842  35.550  1.00  0.00     0.060 A 
BRANCH  91  92
ATOM     92  S   UNL A   1      41.949  25.855  37.012  1.00  0.00     0.124 S 
ATOM     93  O   UNL A   1      41.920  24.502  36.469  1.00  0.00    -0.237 OA
ATOM     94  O   UNL A   1      43.067  26.160  37.899  1.00  0.00    -0.237 OA
ATOM     95  O   UNL A   1      40.657  26.378  37.451  1.00  0.00    -0.744 OA
ENDBRANCH  91  92
ENDBRANCH  59  84
ENDBRANCH  33  34
ENDBRANCH  25  28
ENDBRANCH  23  24
ENDBRANCH   1  23
TORSDOF 16
ENDMDL
MODEL 2
REMARK VINA RESULT:     -12.3      5.396     11.695
REMARK SMILES Nc1nn(-c2ccc(Cl)cc2)nc1C(=O)NCCCCNC(=O)c1ccc(-c2c3nc(c(-c4c(F)cc(S(=O)(=O)[O-])cc4F)c4ccc([nH]4)c(-c4c(F)cc(S(=O)(=O)[O-])cc4F)c4nc(c(-c5c(F)cc(S(=O)(=O)[O-])cc5F)c5ccc2[nH]5)C=C4)C=C3)cc1
REMARK SMILES IDX 19 1 18 2 17 3 16 4 14 5 15 6 13 8 2 9 3 10 4 11 12 12 1 13
REMARK SMILES IDX 5 16 6 17 11 18 7 19 10 20 8 21 9 22 20 23 21 24 22 25 23 27
REMARK SMILES IDX 24 28 25 29 89 30 26 31 88 32 27 33 28 34 29 35 82 36 30 37
REMARK SMILES IDX 87 38 81 39 83 40 31 41 86 42 80 43 79 44 32 46 66 47 45 48
REMARK SMILES IDX 65 49 46 50 49 51 64 52 84 53 47 54 48 55 63 57 85 58 50 59
REMARK SMILES IDX 33 60 34 61 43 62 35 63 36 64 42 65 44 66 37 67 38 68 39 69
REMARK SMILES IDX 40 70 41 71 67 72 68 73 77 74 69 75 70 76 76 77 78 78 71 79
REMARK SMILES IDX 72 80 73 81 74 82 75 83 51 84 52 85 61 86 53 87 54 88 60 89
REMARK SMILES IDX 62 90 55 91 56 92 57 93 58 94 59 95
REMARK H PARENT 16 7 1 14 1 15 21 26 83 45 49 56
REMARK Flexibility Score: inf
ROOT
ATOM      1  C   UNL A   1      34.138  34.507  30.622  1.00  0.00     0.023 C 
ENDROOT
BRANCH   1   2
ATOM      2  C   UNL A   1      34.571  34.660  32.083  1.00  0.00     0.023 C 
BRANCH   2   3
ATOM      3  C   UNL A   1      34.392  33.459  33.013  1.00  0.00     0.116 C 
BRANCH   3   4
ATOM      4  N   UNL A   1      34.804  33.691  34.378  1.00  0.00    -0.351 N 
ATOM      5  C   UNL A   1      36.026  33.530  34.999  1.00  0.00     0.275 C 
ATOM      6  O   UNL A   1      36.028  33.730  36.217  1.00  0.00    -0.267 OA
ATOM      7  H   UNL A   1      34.090  34.021  34.969  1.00  0.00     0.163 HD
BRANCH   5   8
ATOM      8  C   UNL A   1      37.254  33.131  34.291  1.00  0.00     0.194 A 
ATOM      9  C   UNL A   1      37.961  31.896  34.167  1.00  0.00     0.179 A 
ATOM     10  N   UNL A   1      38.935  32.016  33.271  1.00  0.00    -0.130 NA
ATOM     11  N   UNL A   1      38.772  33.280  32.832  1.00  0.00    -0.149 N 
ATOM     12  N   UNL A   1      37.894  34.040  33.517  1.00  0.00    -0.141 NA
BRANCH   9  13
ATOM     13  N   UNL A   1      37.755  30.717  34.765  1.00  0.00    -0.380 N 
ATOM     14  H   UNL A   1      37.649  30.674  35.743  1.00  0.00     0.158 HD
ATOM     15  H   UNL A   1      37.709  29.894  34.228  1.00  0.00     0.158 HD
ENDBRANCH   9  13
BRANCH  11  16
ATOM     16  C   UNL A   1      39.464  33.764  31.693  1.00  0.00     0.086 A 
ATOM     17  C   UNL A   1      40.809  33.432  31.488  1.00  0.00     0.032 A 
ATOM     18  C   UNL A   1      38.800  34.608  30.788  1.00  0.00     0.032 A 
ATOM     19  C   UNL A   1      41.478  33.920  30.361  1.00  0.00     0.023 A 
ATOM     20  C   UNL A   1      39.490  35.135  29.692  1.00  0.00     0.023 A 
ATOM     21  C   UNL A   1      40.820  34.777  29.477  1.00  0.00     0.041 A 
ATOM     22  Cl  UNL A   1      41.658  35.400  28.108  1.00  0.00    -0.084 Cl
ENDBRANCH  11  16
ENDBRANCH   5   8
ENDBRANCH   3   4
ENDBRANCH   2   3
ENDBRANCH   1   2
BRANCH   1  23
ATOM     23  C   UNL A   1      35.078  33.695  29.743  1.00  0.00     0.116 C 
BRANCH  23  24
ATOM     24  N   UNL A   1      34.396  32.746  28.869  1.00  0.00    -0.352 N 
ATOM     25  C   UNL A   1      34.942  31.625  28.261  1.00  0.00     0.251 C 
ATOM     26  H   UNL A   1      33.443  32.921  28.691  1.00  0.00     0.163 HD
ATOM     27  O   UNL A   1      34.405  31.121  27.291  1.00  0.00    -0.269 OA
BRANCH  25  28
ATOM     28  C   UNL A   1      36.194  31.061  28.812  1.00  0.00     0.039 A 
ATOM     29  C   UNL A   1      36.273  29.718  29.181  1.00  0.00     0.014 A 
ATOM     30  C   UNL A   1      37.309  31.892  28.921  1.00  0.00     0.014 A 
ATOM     31  C   UNL A   1      37.510  29.201  29.564  1.00  0.00     0.010 A 
ATOM     32  C   UNL A   1      38.552  31.354  29.171  1.00  0.00     0.010 A 
ATOM     33  C   UNL A   1      38.660  30.014  29.518  1.00  0.00    -0.014 A 
BRANCH  33  34
ATOM     34  C   UNL A   1      39.988  29.402  29.623  1.00  0.00     0.031 A 
ATOM     35  C   UNL A   1      40.400  29.201  31.039  1.00  0.00     0.074 A 
ATOM     36  C   UNL A   1      40.694  28.873  28.594  1.00  0.00     0.049 A 
ATOM     37  N   UNL A   1      41.231  29.921  31.717  1.00  0.00    -0.248 NA
ATOM     38  C   UNL A   1      39.650  28.237  31.867  1.00  0.00     0.031 C 
ATOM     39  C   UNL A   1      40.240  28.703  27.210  1.00  0.00     0.029 A 
ATOM     40  N   UNL A   1      41.928  28.281  28.573  1.00  0.00    -0.354 N 
ATOM     41  C   UNL A   1      41.364  29.262  32.935  1.00  0.00     0.074 A 
ATOM     42  C   UNL A   1      40.194  28.440  33.071  1.00  0.00     0.031 C 
ATOM     43  C   UNL A   1      41.058  27.847  26.560  1.00  0.00     0.029 A 
ATOM     44  C   UNL A   1      42.195  27.548  27.413  1.00  0.00     0.049 A 
ATOM     45  H   UNL A   1      42.573  28.362  29.312  1.00  0.00     0.167 HD
ATOM     46  C   UNL A   1      42.600  29.140  33.496  1.00  0.00     0.037 A 
ATOM     47  C   UNL A   1      43.273  26.763  27.151  1.00  0.00     0.037 A 
ATOM     48  C   UNL A   1      43.526  30.040  32.853  1.00  0.00     0.049 A 
ATOM     49  C   UNL A   1      44.377  27.230  28.020  1.00  0.00     0.074 A 
ATOM     50  C   UNL A   1      43.761  31.398  32.806  1.00  0.00     0.029 A 
ATOM     51  N   UNL A   1      44.125  29.489  31.755  1.00  0.00    -0.354 N 
ATOM     52  N   UNL A   1      44.934  28.405  27.898  1.00  0.00    -0.248 NA
ATOM     53  C   UNL A   1      44.649  26.536  29.273  1.00  0.00     0.031 C 
ATOM     54  C   UNL A   1      44.442  31.647  31.576  1.00  0.00     0.029 A 
ATOM     55  C   UNL A   1      44.662  30.435  30.929  1.00  0.00     0.049 A 
ATOM     56  H   UNL A   1      44.164  28.520  31.579  1.00  0.00     0.167 HD
ATOM     57  C   UNL A   1      45.227  28.773  29.193  1.00  0.00     0.074 A 
ATOM     58  C   UNL A   1      45.207  27.534  29.962  1.00  0.00     0.031 C 
ATOM     59  C   UNL A   1      45.090  30.070  29.595  1.00  0.00     0.037 A 
BRANCH  46  60
ATOM     60  C   UNL A   1      43.121  27.881  34.179  1.00  0.00     0.058 A 
ATOM     61  C   UNL A   1      43.594  27.973  35.507  1.00  0.00     0.135 A 
ATOM     62  C   UNL A   1      43.459  26.684  33.506  1.00  0.00     0.135 A 
ATOM     63  F   UNL A   1      43.357  29.073  36.241  1.00  0.00    -0.206 F 
ATOM     64  C   UNL A   1      44.377  26.979  36.099  1.00  0.00     0.059 A 
ATOM     65  C   UNL A   1      44.196  25.661  34.093  1.00  0.00     0.059 A 
ATOM     66  F   UNL A   1      43.179  26.476  32.216  1.00  0.00    -0.206 F 
ATOM     67  C   UNL A   1      44.676  25.826  35.380  1.00  0.00     0.060 A 
BRANCH  67  68
ATOM     68  S   UNL A   1      45.707  24.551  36.122  1.00  0.00     0.124 S 
ATOM     69  O   UNL A   1      46.753  24.399  35.117  1.00  0.00    -0.237 OA
ATOM     70  O   UNL A   1      46.106  25.181  37.376  1.00  0.00    -0.237 OA
ATOM     71  O   UNL A   1      44.792  23.421  36.261  1.00  0.00    -0.744 OA
ENDBRANCH  67  68
ENDBRANCH  46  60
BRANCH  47  72
ATOM     72  C   UNL A   1      43.370  25.497  26.371  1.00  0.00     0.058 A 
ATOM     73  C   UNL A   1      44.338  25.335  25.359  1.00  0.00     0.135 A 
ATOM     74  C   UNL A   1      42.738  24.320  26.814  1.00  0.00     0.135 A 
ATOM     75  F   UNL A   1      44.993  26.401  24.874  1.00  0.00    -0.206 F 
ATOM     76  C   UNL A   1      44.716  24.076  24.876  1.00  0.00     0.059 A 
ATOM     77  C   UNL A   1      43.092  23.054  26.342  1.00  0.00     0.059 A 
ATOM     78  F   UNL A   1      41.821  24.357  27.791  1.00  0.00    -0.206 F 
ATOM     79  C   UNL A   1      44.106  22.937  25.397  1.00  0.00     0.060 A 
BRANCH  79  80
ATOM     80  S   UNL A   1      44.732  21.303  24.934  1.00  0.00     0.124 S 
ATOM     81  O   UNL A   1      46.104  21.353  25.428  1.00  0.00    -0.237 OA
ATOM     82  O   UNL A   1      43.830  20.409  25.652  1.00  0.00    -0.237 OA
ATOM     83  O   UNL A   1      44.592  21.286  23.480  1.00  0.00    -0.744 OA
ENDBRANCH  79  80
ENDBRANCH  47  72
BRANCH  59  84
ATOM     84  C   UNL A   1      45.311  31.146  28.577  1.00  0.00     0.058 A 
ATOM     85  C   UNL A   1      46.557  31.583  28.097  1.00  0.00     0.135 A 
ATOM     86  C   UNL A   1      44.165  31.755  28.041  1.00  0.00     0.135 A 
ATOM     87  F   UNL A   1      47.697  30.995  28.491  1.00  0.00    -0.206 F 
ATOM     88  C   UNL A   1      46.654  32.623  27.167  1.00  0.00     0.059 A 
ATOM     89  C   UNL A   1      44.237  32.764  27.091  1.00  0.00     0.059 A 
ATOM     90  F   UNL A   1      42.944  31.352  28.430  1.00  0.00    -0.206 F 
ATOM     91  C   UNL A   1      45.487  33.211  26.676  1.00  0.00     0.060 A 
BRANCH  91  92
ATOM     92  S   UNL A   1      45.605  34.550  25.472  1.00  0.00     0.124 S 
ATOM     93  O   UNL A   1      45.095  35.688  26.227  1.00  0.00    -0.237 OA
ATOM     94  O   UNL A   1      47.032  34.577  25.170  1.00  0.00    -0.237 OA
ATOM     95  O   UNL A   1      44.753  34.099  24.373  1.00  0.00    -0.744 OA
ENDBRANCH  91  92
ENDBRANCH  59  84
ENDBRANCH  33  34
ENDBRANCH  25  28
ENDBRANCH  23  24
ENDBRANCH   1  23
TORSDOF 16
ENDMDL
MODEL 3
REMARK VINA RESULT:     -12.2      2.951      4.425
REMARK SMILES Nc1nn(-c2ccc(Cl)cc2)nc1C(=O)NCCCCNC(=O)c1ccc(-c2c3nc(c(-c4c(F)cc(S(=O)(=O)[O-])cc4F)c4ccc([nH]4)c(-c4c(F)cc(S(=O)(=O)[O-])cc4F)c4nc(c(-c5c(F)cc(S(=O)(=O)[O-])cc5F)c5ccc2[nH]5)C=C4)C=C3)cc1
REMARK SMILES IDX 19 1 18 2 17 3 16 4 14 5 15 6 13 8 2 9 3 10 4 11 12 12 1 13
REMARK SMILES IDX 5 16 6 17 11 18 7 19 10 20 8 21 9 22 20 23 21 24 22 25 23 27
REMARK SMILES IDX 24 28 25 29 89 30 26 31 88 32 27 33 28 34 29 35 82 36 30 37
REMARK SMILES IDX 87 38 81 39 83 40 31 41 86 42 80 43 79 44 32 46 66 47 45 48
REMARK SMILES IDX 65 49 46 50 49 51 64 52 84 53 47 54 48 55 63 57 85 58 50 59
REMARK SMILES IDX 33 60 34 61 43 62 35 63 36 64 42 65 44 66 37 67 38 68 39 69
REMARK SMILES IDX 40 70 41 71 67 72 68 73 77 74 69 75 70 76 76 77 78 78 71 79
REMARK SMILES IDX 72 80 73 81 74 82 75 83 51 84 52 85 61 86 53 87 54 88 60 89
REMARK SMILES IDX 62 90 55 91 56 92 57 93 58 94 59 95
REMARK H PARENT 16 7 1 14 1 15 21 26 83 45 49 56
REMARK Flexibility Score: inf
ROOT
ATOM      1  C   UNL A   1      36.701  23.209  24.938  1.00  0.00     0.023 C 
ENDROOT
BRANCH   1   2
ATOM      2  C   UNL A   1      35.989  21.853  24.960  1.00  0.00     0.023 C 
BRANCH   2   3
ATOM      3  C   UNL A   1      34.522  21.821  25.392  1.00  0.00     0.116 C 
BRANCH   3   4
ATOM      4  N   UNL A   1      33.576  21.800  24.301  1.00  0.00    -0.351 N 
ATOM      5  C   UNL A   1      32.403  22.499  24.101  1.00  0.00     0.275 C 
ATOM      6  O   UNL A   1      31.766  22.181  23.092  1.00  0.00    -0.267 OA
ATOM      7  H   UNL A   1      33.807  21.180  23.573  1.00  0.00     0.163 HD
BRANCH   5   8
ATOM      8  C   UNL A   1      31.909  23.542  25.015  1.00  0.00     0.194 A 
ATOM      9  C   UNL A   1      31.099  23.516  26.191  1.00  0.00     0.179 A 
ATOM     10  N   UNL A   1      31.074  24.718  26.757  1.00  0.00    -0.130 NA
ATOM     11  N   UNL A   1      31.900  25.428  25.963  1.00  0.00    -0.149 N 
ATOM     12  N   UNL A   1      32.296  24.826  24.823  1.00  0.00    -0.141 NA
BRANCH   9  13
ATOM     13  N   UNL A   1      30.445  22.501  26.769  1.00  0.00    -0.380 N 
ATOM     14  H   UNL A   1      30.377  21.633  26.308  1.00  0.00     0.158 HD
ATOM     15  H   UNL A   1      30.032  22.621  27.654  1.00  0.00     0.158 HD
ENDBRANCH   9  13
BRANCH  11  16
ATOM     16  C   UNL A   1      32.348  26.722  26.329  1.00  0.00     0.086 A 
ATOM     17  C   UNL A   1      33.677  27.102  26.103  1.00  0.00     0.032 A 
ATOM     18  C   UNL A   1      31.457  27.612  26.951  1.00  0.00     0.032 A 
ATOM     19  C   UNL A   1      34.104  28.382  26.472  1.00  0.00     0.023 A 
ATOM     20  C   UNL A   1      31.904  28.870  27.365  1.00  0.00     0.023 A 
ATOM     21  C   UNL A   1      33.220  29.254  27.111  1.00  0.00     0.041 A 
ATOM     22  Cl  UNL A   1      33.759  30.816  27.592  1.00  0.00    -0.084 Cl
ENDBRANCH  11  16
ENDBRANCH   5   8
ENDBRANCH   3   4
ENDBRANCH   2   3
ENDBRANCH   1   2
BRANCH   1  23
ATOM     23  C   UNL A   1      37.590  23.501  26.139  1.00  0.00     0.116 C 
BRANCH  23  24
ATOM     24  N   UNL A   1      38.644  22.513  26.347  1.00  0.00    -0.352 N 
ATOM     25  C   UNL A   1      39.995  22.759  26.546  1.00  0.00     0.251 C 
ATOM     26  H   UNL A   1      38.365  21.569  26.346  1.00  0.00     0.163 HD
ATOM     27  O   UNL A   1      40.820  21.885  26.349  1.00  0.00    -0.269 OA
BRANCH  25  28
ATOM     28  C   UNL A   1      40.410  24.107  26.993  1.00  0.00     0.039 A 
ATOM     29  C   UNL A   1      39.886  25.253  26.395  1.00  0.00     0.014 A 
ATOM     30  C   UNL A   1      41.310  24.211  28.054  1.00  0.00     0.014 A 
ATOM     31  C   UNL A   1      40.200  26.496  26.941  1.00  0.00     0.010 A 
ATOM     32  C   UNL A   1      41.514  25.424  28.673  1.00  0.00     0.010 A 
ATOM     33  C   UNL A   1      40.983  26.577  28.110  1.00  0.00    -0.014 A 
BRANCH  33  34
ATOM     34  C   UNL A   1      41.059  27.841  28.849  1.00  0.00     0.031 A 
ATOM     35  C   UNL A   1      42.176  28.701  28.373  1.00  0.00     0.074 A 
ATOM     36  C   UNL A   1      40.124  28.302  29.714  1.00  0.00     0.049 A 
ATOM     37  N   UNL A   1      43.321  28.877  28.946  1.00  0.00    -0.248 NA
ATOM     38  C   UNL A   1      42.116  29.252  27.006  1.00  0.00     0.031 C 
ATOM     39  C   UNL A   1      38.816  27.703  30.000  1.00  0.00     0.029 A 
ATOM     40  N   UNL A   1      40.086  29.455  30.453  1.00  0.00    -0.354 N 
ATOM     41  C   UNL A   1      43.958  29.848  28.180  1.00  0.00     0.074 A 
ATOM     42  C   UNL A   1      43.321  29.819  26.893  1.00  0.00     0.031 C 
ATOM     43  C   UNL A   1      38.029  28.599  30.636  1.00  0.00     0.029 A 
ATOM     44  C   UNL A   1      38.825  29.768  30.968  1.00  0.00     0.049 A 
ATOM     45  H   UNL A   1      40.879  30.016  30.608  1.00  0.00     0.167 HD
ATOM     46  C   UNL A   1      44.645  30.846  28.804  1.00  0.00     0.037 A 
ATOM     47  C   UNL A   1      38.451  30.892  31.634  1.00  0.00     0.037 A 
ATOM     48  C   UNL A   1      44.861  30.506  30.190  1.00  0.00     0.049 A 
ATOM     49  C   UNL A   1      39.675  31.479  32.225  1.00  0.00     0.074 A 
ATOM     50  C   UNL A   1      45.632  29.622  30.913  1.00  0.00     0.029 A 
ATOM     51  N   UNL A   1      43.831  30.899  30.999  1.00  0.00    -0.354 N 
ATOM     52  N   UNL A   1      40.366  30.893  33.165  1.00  0.00    -0.248 NA
ATOM     53  C   UNL A   1      40.355  32.568  31.535  1.00  0.00     0.031 C 
ATOM     54  C   UNL A   1      44.961  29.426  32.158  1.00  0.00     0.029 A 
ATOM     55  C   UNL A   1      43.831  30.237  32.194  1.00  0.00     0.049 A 
ATOM     56  H   UNL A   1      43.166  31.581  30.749  1.00  0.00     0.167 HD
ATOM     57  C   UNL A   1      41.673  31.222  32.876  1.00  0.00     0.074 A 
ATOM     58  C   UNL A   1      41.594  32.384  31.998  1.00  0.00     0.031 C 
ATOM     59  C   UNL A   1      42.675  30.315  33.061  1.00  0.00     0.037 A 
BRANCH  46  60
ATOM     60  C   UNL A   1      44.621  32.310  28.381  1.00  0.00     0.058 A 
ATOM     61  C   UNL A   1      45.841  32.944  28.056  1.00  0.00     0.135 A 
ATOM     62  C   UNL A   1      43.526  33.184  28.572  1.00  0.00     0.135 A 
ATOM     63  F   UNL A   1      46.959  32.221  27.875  1.00  0.00    -0.206 F 
ATOM     64  C   UNL A   1      45.971  34.333  27.976  1.00  0.00     0.059 A 
ATOM     65  C   UNL A   1      43.623  34.566  28.448  1.00  0.00     0.059 A 
ATOM     66  F   UNL A   1      42.326  32.760  28.980  1.00  0.00    -0.206 F 
ATOM     67  C   UNL A   1      44.853  35.136  28.178  1.00  0.00     0.060 A 
BRANCH  67  68
ATOM     68  S   UNL A   1      45.014  36.928  28.105  1.00  0.00     0.124 S 
ATOM     69  O   UNL A   1      44.046  37.265  27.068  1.00  0.00    -0.237 OA
ATOM     70  O   UNL A   1      44.661  37.316  29.466  1.00  0.00    -0.237 OA
ATOM     71  O   UNL A   1      46.417  37.122  27.750  1.00  0.00    -0.744 OA
ENDBRANCH  67  68
ENDBRANCH  46  60
BRANCH  47  72
ATOM     72  C   UNL A   1      37.155  31.628  31.621  1.00  0.00     0.058 A 
ATOM     73  C   UNL A   1      36.505  31.983  32.820  1.00  0.00     0.135 A 
ATOM     74  C   UNL A   1      36.696  32.272  30.457  1.00  0.00     0.135 A 
ATOM     75  F   UNL A   1      36.875  31.421  33.981  1.00  0.00    -0.206 F 
ATOM     76  C   UNL A   1      35.520  32.976  32.874  1.00  0.00     0.059 A 
ATOM     77  C   UNL A   1      35.709  33.259  30.484  1.00  0.00     0.059 A 
ATOM     78  F   UNL A   1      37.262  32.026  29.266  1.00  0.00    -0.206 F 
ATOM     79  C   UNL A   1      35.149  33.630  31.701  1.00  0.00     0.060 A 
BRANCH  79  80
ATOM     80  S   UNL A   1      34.034  35.054  31.792  1.00  0.00     0.124 S 
ATOM     81  O   UNL A   1      32.882  34.492  32.489  1.00  0.00    -0.237 OA
ATOM     82  O   UNL A   1      34.825  36.021  32.545  1.00  0.00    -0.237 OA
ATOM     83  O   UNL A   1      33.808  35.396  30.390  1.00  0.00    -0.744 OA
ENDBRANCH  79  80
ENDBRANCH  47  72
BRANCH  59  84
ATOM     84  C   UNL A   1      42.515  29.308  34.159  1.00  0.00     0.058 A 
ATOM     85  C   UNL A   1      42.795  29.521  35.519  1.00  0.00     0.135 A 
ATOM     86  C   UNL A   1      42.018  28.047  33.793  1.00  0.00     0.135 A 
ATOM     87  F   UNL A   1      43.189  30.723  35.966  1.00  0.00    -0.206 F 
ATOM     88  C   UNL A   1      42.643  28.499  36.461  1.00  0.00     0.059 A 
ATOM     89  C   UNL A   1      41.825  27.030  34.717  1.00  0.00     0.059 A 
ATOM     90  F   UNL A   1      41.693  27.796  32.514  1.00  0.00    -0.206 F 
ATOM     91  C   UNL A   1      42.164  27.254  36.047  1.00  0.00     0.060 A 
BRANCH  91  92
ATOM     92  S   UNL A   1      41.960  25.933  37.259  1.00  0.00     0.124 S 
ATOM     93  O   UNL A   1      40.556  26.071  37.629  1.00  0.00    -0.237 OA
ATOM     94  O   UNL A   1      42.299  24.742  36.488  1.00  0.00    -0.237 OA
ATOM     95  O   UNL A   1      42.917  26.279  38.309  1.00  0.00    -0.744 OA
ENDBRANCH  91  92
ENDBRANCH  59  84
ENDBRANCH  33  34
ENDBRANCH  25  28
ENDBRANCH  23  24
ENDBRANCH   1  23
TORSDOF 16
ENDMDL
