MODEL 1
REMARK VINA RESULT:     -12.0      0.000      0.000
REMARK SMILES C[NH+](C)Cc1ccccc1[C@H]1[NH2+][C@@H](C(=O)NCCCCNC(=O)c2ccc(-c3c4nc(c(-c5c(F)cc(S(=O)(=O)[O-])cc5F)c5ccc([nH]5)c(-c5c(F)cc(S(=O)(=O)[O-])cc5F)c5nc(c(-c6c(F)cc(S(=O)(=O)[O-])cc6F)c6ccc3[nH]6)C=C5)C=C4)cc2)C(C)(C)S1
REMARK SMILES IDX 18 1 17 2 16 3 14 4 15 5 13 7 11 8 12 9 93 10 90 13 91 14
REMARK SMILES IDX 92 15 10 16 5 17 6 18 7 19 9 20 8 21 4 22 2 23 1 24 3 25
REMARK SMILES IDX 19 27 20 28 21 29 22 30 23 32 24 33 25 34 89 35 26 36 88 37
REMARK SMILES IDX 27 38 28 39 29 40 82 41 30 42 87 43 81 44 83 45 31 46 86 47
REMARK SMILES IDX 80 48 79 49 32 51 66 52 45 53 65 54 46 55 49 56 64 57 84 58
REMARK SMILES IDX 47 59 48 60 63 62 85 63 50 64 33 65 34 66 43 67 35 68 36 69
REMARK SMILES IDX 42 70 44 71 37 72 38 73 39 74 40 75 41 76 67 77 68 78 77 79
REMARK SMILES IDX 69 80 70 81 76 82 78 83 71 84 72 85 73 86 74 87 75 88 51 89
REMARK SMILES IDX 52 90 61 91 53 92 54 93 60 94 62 95 55 96 56 97 57 98 58 99
REMARK SMILES IDX 59 100
REMARK H PARENT 16 6 12 11 12 12 2 26 21 31 83 50 49 61
REMARK Flexibility Score: inf
ROOT
ATOM      1  C   UNL A   1      39.094  21.369  25.772  1.00  0.00     0.023 C 
ENDROOT
BRANCH   1   2
ATOM      2  C   UNL A   1      37.837  22.208  25.557  1.00  0.00     0.116 C 
BRANCH   2   3
ATOM      3  N   UNL A   1      36.722  21.768  26.372  1.00  0.00    -0.351 N 
ATOM      4  C   UNL A   1      35.375  21.934  26.273  1.00  0.00     0.279 C 
ATOM      5  O   UNL A   1      34.699  21.419  27.174  1.00  0.00    -0.268 OA
ATOM      6  H   UNL A   1      36.994  21.243  27.159  1.00  0.00     0.163 HD
BRANCH   4   7
ATOM      7  C   UNL A   1      34.657  22.769  25.188  1.00  0.00     0.289 C 
ATOM      8  C   UNL A   1      34.027  24.864  24.291  1.00  0.00     0.275 C 
ATOM      9  N   UNL A   1      34.906  24.231  25.272  1.00  0.00    -0.320 N 
ATOM     10  S   UNL A   1      32.512  23.888  24.098  1.00  0.00    -0.081 SA
ATOM     11  H   UNL A   1      34.690  24.571  26.210  1.00  0.00     0.348 HD
ATOM     12  H   UNL A   1      35.884  24.447  25.082  1.00  0.00     0.348 HD
ATOM     13  C   UNL A   1      33.161  22.422  24.989  1.00  0.00     0.077 C 
ATOM     14  C   UNL A   1      32.309  22.227  26.241  1.00  0.00     0.030 C 
ATOM     15  C   UNL A   1      33.000  21.179  24.104  1.00  0.00     0.030 C 
BRANCH   8  16
ATOM     16  C   UNL A   1      33.788  26.356  24.534  1.00  0.00     0.029 A 
ATOM     17  C   UNL A   1      33.513  27.341  23.539  1.00  0.00     0.016 A 
ATOM     18  C   UNL A   1      33.393  28.689  23.942  1.00  0.00     0.010 A 
ATOM     19  C   UNL A   1      33.479  29.070  25.279  1.00  0.00     0.001 A 
ATOM     20  C   UNL A   1      33.871  26.778  25.884  1.00  0.00     0.011 A 
ATOM     21  C   UNL A   1      33.716  28.114  26.252  1.00  0.00     0.001 A 
BRANCH  17  22
ATOM     22  C   UNL A   1      33.463  27.034  22.051  1.00  0.00     0.299 C 
BRANCH  22  23
ATOM     23  N   UNL A   1      32.170  26.812  21.377  1.00  0.00    -0.336 N 
ATOM     24  C   UNL A   1      32.176  25.889  20.250  1.00  0.00     0.332 C 
ATOM     25  C   UNL A   1      31.077  26.542  22.305  1.00  0.00     0.332 C 
ATOM     26  H   UNL A   1      31.992  27.718  20.944  1.00  0.00     0.347 HD
ENDBRANCH  22  23
ENDBRANCH  17  22
ENDBRANCH   8  16
ENDBRANCH   4   7
ENDBRANCH   2   3
ENDBRANCH   1   2
BRANCH   1  27
ATOM     27  C   UNL A   1      39.975  21.813  26.930  1.00  0.00     0.023 C 
BRANCH  27  28
ATOM     28  C   UNL A   1      40.049  23.317  27.155  1.00  0.00     0.116 C 
BRANCH  28  29
ATOM     29  N   UNL A   1      40.654  24.068  26.063  1.00  0.00    -0.352 N 
ATOM     30  C   UNL A   1      41.210  25.330  26.116  1.00  0.00     0.251 C 
ATOM     31  H   UNL A   1      40.666  23.625  25.183  1.00  0.00     0.163 HD
ATOM     32  O   UNL A   1      41.650  25.872  25.111  1.00  0.00    -0.269 OA
BRANCH  30  33
ATOM     33  C   UNL A   1      41.218  26.036  27.417  1.00  0.00     0.039 A 
ATOM     34  C   UNL A   1      42.330  26.809  27.761  1.00  0.00     0.014 A 
ATOM     35  C   UNL A   1      40.078  26.034  28.223  1.00  0.00     0.014 A 
ATOM     36  C   UNL A   1      42.255  27.663  28.865  1.00  0.00     0.010 A 
ATOM     37  C   UNL A   1      39.977  26.945  29.267  1.00  0.00     0.010 A 
ATOM     38  C   UNL A   1      41.058  27.781  29.591  1.00  0.00    -0.014 A 
BRANCH  38  39
ATOM     39  C   UNL A   1      40.900  28.780  30.679  1.00  0.00     0.031 A 
ATOM     40  C   UNL A   1      41.758  28.688  31.911  1.00  0.00     0.074 A 
ATOM     41  C   UNL A   1      39.922  29.706  30.605  1.00  0.00     0.049 A 
ATOM     42  N   UNL A   1      41.687  29.375  33.021  1.00  0.00    -0.248 NA
ATOM     43  C   UNL A   1      42.809  27.656  31.909  1.00  0.00     0.031 C 
ATOM     44  C   UNL A   1      38.978  29.860  29.494  1.00  0.00     0.029 A 
ATOM     45  N   UNL A   1      39.547  30.685  31.492  1.00  0.00    -0.354 N 
ATOM     46  C   UNL A   1      42.655  28.838  33.861  1.00  0.00     0.074 A 
ATOM     47  C   UNL A   1      43.272  27.741  33.148  1.00  0.00     0.031 C 
ATOM     48  C   UNL A   1      38.154  30.888  29.755  1.00  0.00     0.029 A 
ATOM     49  C   UNL A   1      38.484  31.446  31.063  1.00  0.00     0.049 A 
ATOM     50  H   UNL A   1      39.999  30.831  32.354  1.00  0.00     0.167 HD
ATOM     51  C   UNL A   1      43.013  29.235  35.105  1.00  0.00     0.037 A 
ATOM     52  C   UNL A   1      37.848  32.474  31.657  1.00  0.00     0.037 A 
ATOM     53  C   UNL A   1      42.440  30.364  35.787  1.00  0.00     0.049 A 
ATOM     54  C   UNL A   1      38.308  32.939  33.011  1.00  0.00     0.074 A 
ATOM     55  C   UNL A   1      42.786  30.892  37.019  1.00  0.00     0.029 A 
ATOM     56  N   UNL A   1      41.411  31.149  35.288  1.00  0.00    -0.354 N 
ATOM     57  N   UNL A   1      39.260  32.450  33.769  1.00  0.00    -0.248 NA
ATOM     58  C   UNL A   1      37.612  34.097  33.589  1.00  0.00     0.031 C 
ATOM     59  C   UNL A   1      41.954  31.988  37.273  1.00  0.00     0.029 A 
ATOM     60  C   UNL A   1      41.110  32.158  36.187  1.00  0.00     0.049 A 
ATOM     61  H   UNL A   1      40.963  31.009  34.424  1.00  0.00     0.167 HD
ATOM     62  C   UNL A   1      39.296  33.257  34.900  1.00  0.00     0.074 A 
ATOM     63  C   UNL A   1      38.273  34.269  34.726  1.00  0.00     0.031 C 
ATOM     64  C   UNL A   1      40.102  33.168  35.986  1.00  0.00     0.037 A 
BRANCH  51  65
ATOM     65  C   UNL A   1      44.088  28.448  35.796  1.00  0.00     0.058 A 
ATOM     66  C   UNL A   1      43.785  27.335  36.597  1.00  0.00     0.135 A 
ATOM     67  C   UNL A   1      45.439  28.803  35.650  1.00  0.00     0.135 A 
ATOM     68  F   UNL A   1      42.508  26.966  36.782  1.00  0.00    -0.206 F 
ATOM     69  C   UNL A   1      44.779  26.622  37.257  1.00  0.00     0.059 A 
ATOM     70  C   UNL A   1      46.453  28.089  36.282  1.00  0.00     0.059 A 
ATOM     71  F   UNL A   1      45.784  29.860  34.897  1.00  0.00    -0.206 F 
ATOM     72  C   UNL A   1      46.111  27.011  37.099  1.00  0.00     0.060 A 
BRANCH  72  73
ATOM     73  S   UNL A   1      47.391  26.085  37.970  1.00  0.00     0.124 S 
ATOM     74  O   UNL A   1      48.338  27.146  38.305  1.00  0.00    -0.237 OA
ATOM     75  O   UNL A   1      46.659  25.513  39.095  1.00  0.00    -0.237 OA
ATOM     76  O   UNL A   1      47.851  25.124  36.972  1.00  0.00    -0.744 OA
ENDBRANCH  72  73
ENDBRANCH  51  65
BRANCH  52  77
ATOM     77  C   UNL A   1      36.731  33.161  30.957  1.00  0.00     0.058 A 
ATOM     78  C   UNL A   1      35.400  32.921  31.331  1.00  0.00     0.135 A 
ATOM     79  C   UNL A   1      36.966  34.071  29.917  1.00  0.00     0.135 A 
ATOM     80  F   UNL A   1      35.127  32.054  32.317  1.00  0.00    -0.206 F 
ATOM     81  C   UNL A   1      34.339  33.549  30.688  1.00  0.00     0.059 A 
ATOM     82  C   UNL A   1      35.921  34.726  29.271  1.00  0.00     0.059 A 
ATOM     83  F   UNL A   1      38.223  34.347  29.536  1.00  0.00    -0.206 F 
ATOM     84  C   UNL A   1      34.609  34.450  29.658  1.00  0.00     0.060 A 
BRANCH  84  85
ATOM     85  S   UNL A   1      33.229  35.298  28.860  1.00  0.00     0.124 S 
ATOM     86  O   UNL A   1      33.920  36.325  28.090  1.00  0.00    -0.237 OA
ATOM     87  O   UNL A   1      32.612  34.225  28.085  1.00  0.00    -0.237 OA
ATOM     88  O   UNL A   1      32.436  35.779  29.988  1.00  0.00    -0.744 OA
ENDBRANCH  84  85
ENDBRANCH  52  77
BRANCH  64  89
ATOM     89  C   UNL A   1      39.944  34.211  37.052  1.00  0.00     0.058 A 
ATOM     90  C   UNL A   1      40.643  35.425  36.999  1.00  0.00     0.135 A 
ATOM     91  C   UNL A   1      39.035  34.017  38.104  1.00  0.00     0.135 A 
ATOM     92  F   UNL A   1      41.527  35.654  36.015  1.00  0.00    -0.206 F 
ATOM     93  C   UNL A   1      40.455  36.411  37.961  1.00  0.00     0.059 A 
ATOM     94  C   UNL A   1      38.818  34.996  39.067  1.00  0.00     0.059 A 
ATOM     95  F   UNL A   1      38.338  32.873  38.193  1.00  0.00    -0.206 F 
ATOM     96  C   UNL A   1      39.538  36.188  38.991  1.00  0.00     0.060 A 
BRANCH  96  97
ATOM     97  S   UNL A   1      39.263  37.493  40.210  1.00  0.00     0.124 S 
ATOM     98  O   UNL A   1      38.807  36.724  41.364  1.00  0.00    -0.237 OA
ATOM     99  O   UNL A   1      40.587  38.095  40.332  1.00  0.00    -0.237 OA
ATOM    100  O   UNL A   1      38.254  38.337  39.578  1.00  0.00    -0.744 OA
ENDBRANCH  96  97
ENDBRANCH  64  89
ENDBRANCH  38  39
ENDBRANCH  30  33
ENDBRANCH  28  29
ENDBRANCH  27  28
ENDBRANCH   1  27
TORSDOF 17
ENDMDL
MODEL 2
REMARK VINA RESULT:     -11.7      4.956      6.303
REMARK SMILES C[NH+](C)Cc1ccccc1[C@H]1[NH2+][C@@H](C(=O)NCCCCNC(=O)c2ccc(-c3c4nc(c(-c5c(F)cc(S(=O)(=O)[O-])cc5F)c5ccc([nH]5)c(-c5c(F)cc(S(=O)(=O)[O-])cc5F)c5nc(c(-c6c(F)cc(S(=O)(=O)[O-])cc6F)c6ccc3[nH]6)C=C5)C=C4)cc2)C(C)(C)S1
REMARK SMILES IDX 18 1 17 2 16 3 14 4 15 5 13 7 11 8 12 9 93 10 90 13 91 14
REMARK SMILES IDX 92 15 10 16 5 17 6 18 7 19 9 20 8 21 4 22 2 23 1 24 3 25
REMARK SMILES IDX 19 27 20 28 21 29 22 30 23 32 24 33 25 34 89 35 26 36 88 37
REMARK SMILES IDX 27 38 28 39 29 40 82 41 30 42 87 43 81 44 83 45 31 46 86 47
REMARK SMILES IDX 80 48 79 49 32 51 66 52 45 53 65 54 46 55 49 56 64 57 84 58
REMARK SMILES IDX 47 59 48 60 63 62 85 63 50 64 33 65 34 66 43 67 35 68 36 69
REMARK SMILES IDX 42 70 44 71 37 72 38 73 39 74 40 75 41 76 67 77 68 78 77 79
REMARK SMILES IDX 69 80 70 81 76 82 78 83 71 84 72 85 73 86 74 87 75 88 51 89
REMARK SMILES IDX 52 90 61 91 53 92 54 93 60 94 62 95 55 96 56 97 57 98 58 99
REMARK SMILES IDX 59 100
REMARK H PARENT 16 6 12 11 12 12 2 26 21 31 83 50 49 61
REMARK Flexibility Score: inf
ROOT
ATOM      1  C   UNL A   1      35.928  22.568  23.612  1.00  0.00     0.023 C 
ENDROOT
BRANCH   1   2
ATOM      2  C   UNL A   1      34.464  22.735  23.215  1.00  0.00     0.116 C 
BRANCH   2   3
ATOM      3  N   UNL A   1      33.594  21.771  23.857  1.00  0.00    -0.351 N 
ATOM      4  C   UNL A   1      32.383  21.874  24.471  1.00  0.00     0.279 C 
ATOM      5  O   UNL A   1      31.919  20.821  24.931  1.00  0.00    -0.268 OA
ATOM      6  H   UNL A   1      33.951  20.853  23.850  1.00  0.00     0.163 HD
BRANCH   4   7
ATOM      7  C   UNL A   1      31.610  23.191  24.700  1.00  0.00     0.289 C 
ATOM      8  C   UNL A   1      31.351  25.513  24.328  1.00  0.00     0.275 C 
ATOM      9  N   UNL A   1      32.069  24.328  23.862  1.00  0.00    -0.320 N 
ATOM     10  S   UNL A   1      30.994  25.362  26.099  1.00  0.00    -0.081 SA
ATOM     11  H   UNL A   1      33.075  24.461  23.971  1.00  0.00     0.348 HD
ATOM     12  H   UNL A   1      31.885  24.153  22.874  1.00  0.00     0.348 HD
ATOM     13  C   UNL A   1      31.415  23.578  26.187  1.00  0.00     0.077 C 
ATOM     14  C   UNL A   1      32.618  23.433  27.116  1.00  0.00     0.030 C 
ATOM     15  C   UNL A   1      30.239  22.810  26.804  1.00  0.00     0.030 C 
BRANCH   8  16
ATOM     16  C   UNL A   1      32.002  26.839  23.928  1.00  0.00     0.029 A 
ATOM     17  C   UNL A   1      31.406  27.867  23.138  1.00  0.00     0.016 A 
ATOM     18  C   UNL A   1      32.186  28.996  22.805  1.00  0.00     0.010 A 
ATOM     19  C   UNL A   1      33.490  29.155  23.269  1.00  0.00     0.001 A 
ATOM     20  C   UNL A   1      33.329  27.032  24.382  1.00  0.00     0.011 A 
ATOM     21  C   UNL A   1      34.062  28.174  24.061  1.00  0.00     0.001 A 
BRANCH  17  22
ATOM     22  C   UNL A   1      30.016  27.757  22.534  1.00  0.00     0.299 C 
BRANCH  22  23
ATOM     23  N   UNL A   1      28.822  28.058  23.345  1.00  0.00    -0.336 N 
ATOM     24  C   UNL A   1      27.918  29.073  22.821  1.00  0.00     0.332 C 
ATOM     25  C   UNL A   1      28.112  26.862  23.787  1.00  0.00     0.332 C 
ATOM     26  H   UNL A   1      29.226  28.500  24.171  1.00  0.00     0.347 HD
ENDBRANCH  22  23
ENDBRANCH  17  22
ENDBRANCH   8  16
ENDBRANCH   4   7
ENDBRANCH   2   3
ENDBRANCH   1   2
BRANCH   1  27
ATOM     27  C   UNL A   1      36.451  23.605  24.595  1.00  0.00     0.023 C 
BRANCH  27  28
ATOM     28  C   UNL A   1      36.716  23.094  26.005  1.00  0.00     0.116 C 
BRANCH  28  29
ATOM     29  N   UNL A   1      37.871  22.213  26.128  1.00  0.00    -0.352 N 
ATOM     30  C   UNL A   1      39.146  22.551  26.531  1.00  0.00     0.251 C 
ATOM     31  H   UNL A   1      37.724  21.268  25.895  1.00  0.00     0.163 HD
ATOM     32  O   UNL A   1      40.045  21.720  26.551  1.00  0.00    -0.269 OA
BRANCH  30  33
ATOM     33  C   UNL A   1      39.415  23.960  26.895  1.00  0.00     0.039 A 
ATOM     34  C   UNL A   1      39.294  24.350  28.231  1.00  0.00     0.014 A 
ATOM     35  C   UNL A   1      39.908  24.849  25.938  1.00  0.00     0.014 A 
ATOM     36  C   UNL A   1      39.769  25.603  28.624  1.00  0.00     0.010 A 
ATOM     37  C   UNL A   1      40.456  26.059  26.347  1.00  0.00     0.010 A 
ATOM     38  C   UNL A   1      40.407  26.443  27.697  1.00  0.00    -0.014 A 
BRANCH  38  39
ATOM     39  C   UNL A   1      41.047  27.719  28.109  1.00  0.00     0.031 A 
ATOM     40  C   UNL A   1      42.542  27.870  28.018  1.00  0.00     0.074 A 
ATOM     41  C   UNL A   1      40.302  28.701  28.657  1.00  0.00     0.049 A 
ATOM     42  N   UNL A   1      43.302  28.844  28.446  1.00  0.00    -0.248 NA
ATOM     43  C   UNL A   1      43.282  26.757  27.399  1.00  0.00     0.031 C 
ATOM     44  C   UNL A   1      38.852  28.653  28.864  1.00  0.00     0.029 A 
ATOM     45  N   UNL A   1      40.664  29.927  29.156  1.00  0.00    -0.354 N 
ATOM     46  C   UNL A   1      44.607  28.448  28.184  1.00  0.00     0.074 A 
ATOM     47  C   UNL A   1      44.539  27.127  27.597  1.00  0.00     0.031 C 
ATOM     48  C   UNL A   1      38.448  29.807  29.421  1.00  0.00     0.029 A 
ATOM     49  C   UNL A   1      39.608  30.663  29.643  1.00  0.00     0.049 A 
ATOM     50  H   UNL A   1      41.594  30.251  29.163  1.00  0.00     0.167 HD
ATOM     51  C   UNL A   1      45.758  29.129  28.393  1.00  0.00     0.037 A 
ATOM     52  C   UNL A   1      39.581  31.886  30.206  1.00  0.00     0.037 A 
ATOM     53  C   UNL A   1      45.819  30.466  28.920  1.00  0.00     0.049 A 
ATOM     54  C   UNL A   1      40.865  32.651  30.366  1.00  0.00     0.074 A 
ATOM     55  C   UNL A   1      46.931  31.271  29.100  1.00  0.00     0.029 A 
ATOM     56  N   UNL A   1      44.720  31.201  29.338  1.00  0.00    -0.354 N 
ATOM     57  N   UNL A   1      42.086  32.280  30.064  1.00  0.00    -0.248 NA
ATOM     58  C   UNL A   1      40.769  34.002  30.938  1.00  0.00     0.031 C 
ATOM     59  C   UNL A   1      46.505  32.488  29.642  1.00  0.00     0.029 A 
ATOM     60  C   UNL A   1      45.126  32.450  29.774  1.00  0.00     0.049 A 
ATOM     61  H   UNL A   1      43.790  30.881  29.325  1.00  0.00     0.167 HD
ATOM     62  C   UNL A   1      42.900  33.361  30.384  1.00  0.00     0.074 A 
ATOM     63  C   UNL A   1      42.033  34.401  30.898  1.00  0.00     0.031 C 
ATOM     64  C   UNL A   1      44.245  33.480  30.264  1.00  0.00     0.037 A 
BRANCH  51  65
ATOM     65  C   UNL A   1      47.042  28.441  28.030  1.00  0.00     0.058 A 
ATOM     66  C   UNL A   1      47.576  28.516  26.734  1.00  0.00     0.135 A 
ATOM     67  C   UNL A   1      47.754  27.704  28.991  1.00  0.00     0.135 A 
ATOM     68  F   UNL A   1      46.925  29.193  25.775  1.00  0.00    -0.206 F 
ATOM     69  C   UNL A   1      48.752  27.858  26.392  1.00  0.00     0.059 A 
ATOM     70  C   UNL A   1      48.946  27.057  28.678  1.00  0.00     0.059 A 
ATOM     71  F   UNL A   1      47.287  27.598  30.245  1.00  0.00    -0.206 F 
ATOM     72  C   UNL A   1      49.426  27.124  27.370  1.00  0.00     0.060 A 
BRANCH  72  73
ATOM     73  S   UNL A   1      50.945  26.264  26.912  1.00  0.00     0.124 S 
ATOM     74  O   UNL A   1      51.927  26.944  27.752  1.00  0.00    -0.237 OA
ATOM     75  O   UNL A   1      50.649  24.883  27.276  1.00  0.00    -0.237 OA
ATOM     76  O   UNL A   1      51.058  26.520  25.480  1.00  0.00    -0.744 OA
ENDBRANCH  72  73
ENDBRANCH  51  65
BRANCH  52  77
ATOM     77  C   UNL A   1      38.285  32.483  30.624  1.00  0.00     0.058 A 
ATOM     78  C   UNL A   1      37.822  32.333  31.940  1.00  0.00     0.135 A 
ATOM     79  C   UNL A   1      37.493  33.217  29.729  1.00  0.00     0.135 A 
ATOM     80  F   UNL A   1      38.544  31.634  32.828  1.00  0.00    -0.206 F 
ATOM     81  C   UNL A   1      36.611  32.878  32.352  1.00  0.00     0.059 A 
ATOM     82  C   UNL A   1      36.286  33.788  30.125  1.00  0.00     0.059 A 
ATOM     83  F   UNL A   1      37.902  33.403  28.465  1.00  0.00    -0.206 F 
ATOM     84  C   UNL A   1      35.849  33.604  31.436  1.00  0.00     0.060 A 
BRANCH  84  85
ATOM     85  S   UNL A   1      34.301  34.351  31.992  1.00  0.00     0.124 S 
ATOM     86  O   UNL A   1      33.779  33.318  32.879  1.00  0.00    -0.237 OA
ATOM     87  O   UNL A   1      34.762  35.575  32.639  1.00  0.00    -0.237 OA
ATOM     88  O   UNL A   1      33.562  34.550  30.748  1.00  0.00    -0.744 OA
ENDBRANCH  84  85
ENDBRANCH  52  77
BRANCH  64  89
ATOM     89  C   UNL A   1      44.861  34.791  30.654  1.00  0.00     0.058 A 
ATOM     90  C   UNL A   1      45.352  35.014  31.948  1.00  0.00     0.135 A 
ATOM     91  C   UNL A   1      45.016  35.811  29.703  1.00  0.00     0.135 A 
ATOM     92  F   UNL A   1      45.222  34.070  32.893  1.00  0.00    -0.206 F 
ATOM     93  C   UNL A   1      45.969  36.212  32.291  1.00  0.00     0.059 A 
ATOM     94  C   UNL A   1      45.646  37.010  30.019  1.00  0.00     0.059 A 
ATOM     95  F   UNL A   1      44.568  35.641  28.449  1.00  0.00    -0.206 F 
ATOM     96  C   UNL A   1      46.114  37.204  31.318  1.00  0.00     0.060 A 
BRANCH  96  97
ATOM     97  S   UNL A   1      46.959  38.738  31.758  1.00  0.00     0.124 S 
ATOM     98  O   UNL A   1      46.720  38.802  33.197  1.00  0.00    -0.237 OA
ATOM     99  O   UNL A   1      48.336  38.466  31.357  1.00  0.00    -0.237 OA
ATOM    100  O   UNL A   1      46.268  39.745  30.960  1.00  0.00    -0.744 OA
ENDBRANCH  96  97
ENDBRANCH  64  89
ENDBRANCH  38  39
ENDBRANCH  30  33
ENDBRANCH  28  29
ENDBRANCH  27  28
ENDBRANCH   1  27
TORSDOF 17
ENDMDL
MODEL 3
REMARK VINA RESULT:     -11.5      1.178      8.365
REMARK SMILES C[NH+](C)Cc1ccccc1[C@H]1[NH2+][C@@H](C(=O)NCCCCNC(=O)c2ccc(-c3c4nc(c(-c5c(F)cc(S(=O)(=O)[O-])cc5F)c5ccc([nH]5)c(-c5c(F)cc(S(=O)(=O)[O-])cc5F)c5nc(c(-c6c(F)cc(S(=O)(=O)[O-])cc6F)c6ccc3[nH]6)C=C5)C=C4)cc2)C(C)(C)S1
REMARK SMILES IDX 18 1 17 2 16 3 14 4 15 5 13 7 11 8 12 9 93 10 90 13 91 14
REMARK SMILES IDX 92 15 10 16 5 17 6 18 7 19 9 20 8 21 4 22 2 23 1 24 3 25
REMARK SMILES IDX 19 27 20 28 21 29 22 30 23 32 24 33 25 34 89 35 26 36 88 37
REMARK SMILES IDX 27 38 28 39 29 40 82 41 30 42 87 43 81 44 83 45 31 46 86 47
REMARK SMILES IDX 80 48 79 49 32 51 66 52 45 53 65 54 46 55 49 56 64 57 84 58
REMARK SMILES IDX 47 59 48 60 63 62 85 63 50 64 33 65 34 66 43 67 35 68 36 69
REMARK SMILES IDX 42 70 44 71 37 72 38 73 39 74 40 75 41 76 67 77 68 78 77 79
REMARK SMILES IDX 69 80 70 81 76 82 78 83 71 84 72 85 73 86 74 87 75 88 51 89
REMARK SMILES IDX 52 90 61 91 53 92 54 93 60 94 62 95 55 96 56 97 57 98 58 99
REMARK SMILES IDX 59 100
REMARK H PARENT 16 6 12 11 12 12 2 26 21 31 83 50 49 61
REMARK Flexibility Score: inf
ROOT
ATOM      1  C   UNL A   1      38.524  22.216  25.933  1.00  0.00     0.023 C 
ENDROOT
BRANCH   1   2
ATOM      2  C   UNL A   1      37.688  23.493  25.905  1.00  0.00     0.116 C 
BRANCH   2   3
ATOM      3  N   UNL A   1      36.381  23.322  26.506  1.00  0.00    -0.351 N 
ATOM      4  C   UNL A   1      35.125  23.683  26.121  1.00  0.00     0.279 C 
ATOM      5  O   UNL A   1      34.213  23.378  26.902  1.00  0.00    -0.268 OA
ATOM      6  H   UNL A   1      36.404  22.848  27.369  1.00  0.00     0.163 HD
BRANCH   4   7
ATOM      7  C   UNL A   1      34.781  24.496  24.854  1.00  0.00     0.289 C 
ATOM      8  C   UNL A   1      33.529  26.188  23.775  1.00  0.00     0.275 C 
ATOM      9  N   UNL A   1      33.874  25.648  25.089  1.00  0.00    -0.320 N 
ATOM     10  S   UNL A   1      33.526  24.858  22.543  1.00  0.00    -0.081 SA
ATOM     11  H   UNL A   1      33.032  25.339  25.576  1.00  0.00     0.348 HD
ATOM     12  H   UNL A   1      34.324  26.356  25.670  1.00  0.00     0.348 HD
ATOM     13  C   UNL A   1      34.367  23.643  23.630  1.00  0.00     0.077 C 
ATOM     14  C   UNL A   1      33.396  22.489  23.870  1.00  0.00     0.030 C 
ATOM     15  C   UNL A   1      35.601  23.085  22.907  1.00  0.00     0.030 C 
BRANCH   8  16
ATOM     16  C   UNL A   1      32.269  27.057  23.766  1.00  0.00     0.029 A 
ATOM     17  C   UNL A   1      32.151  28.377  24.295  1.00  0.00     0.016 A 
ATOM     18  C   UNL A   1      30.886  29.003  24.264  1.00  0.00     0.010 A 
ATOM     19  C   UNL A   1      29.774  28.393  23.687  1.00  0.00     0.001 A 
ATOM     20  C   UNL A   1      31.119  26.466  23.189  1.00  0.00     0.011 A 
ATOM     21  C   UNL A   1      29.891  27.124  23.146  1.00  0.00     0.001 A 
BRANCH  17  22
ATOM     22  C   UNL A   1      33.288  29.100  24.999  1.00  0.00     0.299 C 
BRANCH  22  23
ATOM     23  N   UNL A   1      33.393  29.075  26.469  1.00  0.00    -0.336 N 
ATOM     24  C   UNL A   1      34.738  28.990  27.023  1.00  0.00     0.332 C 
ATOM     25  C   UNL A   1      32.593  30.107  27.120  1.00  0.00     0.332 C 
ATOM     26  H   UNL A   1      32.981  28.172  26.701  1.00  0.00     0.347 HD
ENDBRANCH  22  23
ENDBRANCH  17  22
ENDBRANCH   8  16
ENDBRANCH   4   7
ENDBRANCH   2   3
ENDBRANCH   1   2
BRANCH   1  27
ATOM     27  C   UNL A   1      39.808  22.304  26.745  1.00  0.00     0.023 C 
BRANCH  27  28
ATOM     28  C   UNL A   1      40.290  23.715  27.054  1.00  0.00     0.116 C 
BRANCH  28  29
ATOM     29  N   UNL A   1      40.955  24.388  25.946  1.00  0.00    -0.352 N 
ATOM     30  C   UNL A   1      41.656  25.576  25.982  1.00  0.00     0.251 C 
ATOM     31  H   UNL A   1      40.898  23.944  25.068  1.00  0.00     0.163 HD
ATOM     32  O   UNL A   1      42.135  26.061  24.965  1.00  0.00    -0.269 OA
BRANCH  30  33
ATOM     33  C   UNL A   1      41.773  26.280  27.278  1.00  0.00     0.039 A 
ATOM     34  C   UNL A   1      42.296  27.575  27.301  1.00  0.00     0.014 A 
ATOM     35  C   UNL A   1      41.247  25.706  28.438  1.00  0.00     0.014 A 
ATOM     36  C   UNL A   1      42.194  28.334  28.470  1.00  0.00     0.010 A 
ATOM     37  C   UNL A   1      41.071  26.492  29.570  1.00  0.00     0.010 A 
ATOM     38  C   UNL A   1      41.528  27.819  29.594  1.00  0.00    -0.014 A 
BRANCH  38  39
ATOM     39  C   UNL A   1      41.278  28.648  30.802  1.00  0.00     0.031 A 
ATOM     40  C   UNL A   1      40.141  29.633  30.811  1.00  0.00     0.074 A 
ATOM     41  C   UNL A   1      42.128  28.588  31.848  1.00  0.00     0.049 A 
ATOM     42  N   UNL A   1      39.836  30.536  31.707  1.00  0.00    -0.248 NA
ATOM     43  C   UNL A   1      39.253  29.630  29.636  1.00  0.00     0.031 C 
ATOM     44  C   UNL A   1      43.308  27.724  31.937  1.00  0.00     0.029 A 
ATOM     45  N   UNL A   1      42.140  29.282  33.032  1.00  0.00    -0.354 N 
ATOM     46  C   UNL A   1      38.749  31.230  31.190  1.00  0.00     0.074 A 
ATOM     47  C   UNL A   1      38.473  30.672  29.885  1.00  0.00     0.031 C 
ATOM     48  C   UNL A   1      43.911  27.920  33.121  1.00  0.00     0.029 A 
ATOM     49  C   UNL A   1      43.185  28.946  33.862  1.00  0.00     0.049 A 
ATOM     50  H   UNL A   1      41.463  29.957  33.267  1.00  0.00     0.167 HD
ATOM     51  C   UNL A   1      38.032  32.227  31.759  1.00  0.00     0.037 A 
ATOM     52  C   UNL A   1      43.519  29.413  35.081  1.00  0.00     0.037 A 
ATOM     53  C   UNL A   1      38.271  32.739  33.082  1.00  0.00     0.049 A 
ATOM     54  C   UNL A   1      42.667  30.475  35.720  1.00  0.00     0.074 A 
ATOM     55  C   UNL A   1      37.554  33.697  33.777  1.00  0.00     0.029 A 
ATOM     56  N   UNL A   1      39.298  32.323  33.916  1.00  0.00    -0.354 N 
ATOM     57  N   UNL A   1      41.611  31.084  35.236  1.00  0.00    -0.248 NA
ATOM     58  C   UNL A   1      43.048  30.911  37.071  1.00  0.00     0.031 C 
ATOM     59  C   UNL A   1      38.157  33.873  35.027  1.00  0.00     0.029 A 
ATOM     60  C   UNL A   1      39.233  33.004  35.119  1.00  0.00     0.049 A 
ATOM     61  H   UNL A   1      39.972  31.645  33.686  1.00  0.00     0.167 HD
ATOM     62  C   UNL A   1      41.185  31.953  36.234  1.00  0.00     0.074 A 
ATOM     63  C   UNL A   1      42.094  31.789  37.350  1.00  0.00     0.031 C 
ATOM     64  C   UNL A   1      40.136  32.812  36.225  1.00  0.00     0.037 A 
BRANCH  51  65
ATOM     65  C   UNL A   1      36.909  32.815  30.954  1.00  0.00     0.058 A 
ATOM     66  C   UNL A   1      37.124  33.872  30.056  1.00  0.00     0.135 A 
ATOM     67  C   UNL A   1      35.605  32.309  31.072  1.00  0.00     0.135 A 
ATOM     68  F   UNL A   1      38.350  34.402  29.919  1.00  0.00    -0.206 F 
ATOM     69  C   UNL A   1      36.080  34.433  29.329  1.00  0.00     0.059 A 
ATOM     70  C   UNL A   1      34.548  32.839  30.336  1.00  0.00     0.059 A 
ATOM     71  F   UNL A   1      35.344  31.299  31.918  1.00  0.00    -0.206 F 
ATOM     72  C   UNL A   1      34.793  33.913  29.481  1.00  0.00     0.060 A 
BRANCH  72  73
ATOM     73  S   UNL A   1      33.444  34.655  28.541  1.00  0.00     0.124 S 
ATOM     74  O   UNL A   1      32.515  35.018  29.607  1.00  0.00    -0.237 OA
ATOM     75  O   UNL A   1      34.102  35.771  27.869  1.00  0.00    -0.237 OA
ATOM     76  O   UNL A   1      33.006  33.572  27.667  1.00  0.00    -0.744 OA
ENDBRANCH  72  73
ENDBRANCH  51  65
BRANCH  52  77
ATOM     77  C   UNL A   1      44.695  28.851  35.796  1.00  0.00     0.058 A 
ATOM     78  C   UNL A   1      44.551  27.744  36.645  1.00  0.00     0.135 A 
ATOM     79  C   UNL A   1      45.977  29.397  35.641  1.00  0.00     0.135 A 
ATOM     80  F   UNL A   1      43.341  27.192  36.828  1.00  0.00    -0.206 F 
ATOM     81  C   UNL A   1      45.635  27.204  37.329  1.00  0.00     0.059 A 
ATOM     82  C   UNL A   1      47.080  28.862  36.300  1.00  0.00     0.059 A 
ATOM     83  F   UNL A   1      46.168  30.446  34.826  1.00  0.00    -0.206 F 
ATOM     84  C   UNL A   1      46.897  27.771  37.150  1.00  0.00     0.060 A 
BRANCH  84  85
ATOM     85  S   UNL A   1      48.309  27.035  38.002  1.00  0.00     0.124 S 
ATOM     86  O   UNL A   1      47.884  25.646  38.129  1.00  0.00    -0.237 OA
ATOM     87  O   UNL A   1      49.401  27.286  37.067  1.00  0.00    -0.237 OA
ATOM     88  O   UNL A   1      48.377  27.793  39.249  1.00  0.00    -0.744 OA
ENDBRANCH  84  85
ENDBRANCH  52  77
BRANCH  64  89
ATOM     89  C   UNL A   1      39.886  33.609  37.471  1.00  0.00     0.058 A 
ATOM     90  C   UNL A   1      40.561  34.814  37.718  1.00  0.00     0.135 A 
ATOM     91  C   UNL A   1      38.915  33.195  38.395  1.00  0.00     0.135 A 
ATOM     92  F   UNL A   1      41.502  35.249  36.866  1.00  0.00    -0.206 F 
ATOM     93  C   UNL A   1      40.288  35.577  38.848  1.00  0.00     0.059 A 
ATOM     94  C   UNL A   1      38.613  33.950  39.523  1.00  0.00     0.059 A 
ATOM     95  F   UNL A   1      38.238  32.052  38.197  1.00  0.00    -0.206 F 
ATOM     96  C   UNL A   1      39.311  35.138  39.744  1.00  0.00     0.060 A 
BRANCH  96  97
ATOM     97  S   UNL A   1      38.928  36.159  41.184  1.00  0.00     0.124 S 
ATOM     98  O   UNL A   1      38.588  37.433  40.557  1.00  0.00    -0.237 OA
ATOM     99  O   UNL A   1      37.816  35.438  41.796  1.00  0.00    -0.237 OA
ATOM    100  O   UNL A   1      40.172  36.145  41.947  1.00  0.00    -0.744 OA
ENDBRANCH  96  97
ENDBRANCH  64  89
ENDBRANCH  38  39
ENDBRANCH  30  33
ENDBRANCH  28  29
ENDBRANCH  27  28
ENDBRANCH   1  27
TORSDOF 17
ENDMDL
