MODEL 1
REMARK VINA RESULT:     -11.9      0.000      0.000
REMARK SMILES O=C(Cc1ccn(-c2ccccc2F)c1)NCCCCNC(=O)c1ccc(-c2c3nc(c(-c4c(F)cc(S(=O)(=O)[O-])cc4F)c4ccc([nH]4)c(-c4c(F)cc(S(=O)(=O)[O-])cc4F)c4nc(c(-c5c(F)cc(S(=O)(=O)[O-])cc5F)c5ccc2[nH]5)C=C4)C=C3)cc1
REMARK SMILES IDX 19 1 18 2 17 3 16 4 1 5 2 6 3 8 4 9 5 10 15 11 6 12 7 13
REMARK SMILES IDX 8 14 9 15 13 16 10 17 12 18 14 19 11 20 20 21 21 22 22 23
REMARK SMILES IDX 23 25 24 26 25 27 89 28 26 29 88 30 27 31 28 32 29 33 82 34
REMARK SMILES IDX 30 35 87 36 81 37 83 38 31 39 86 40 80 41 79 42 32 44 66 45
REMARK SMILES IDX 45 46 65 47 46 48 49 49 64 50 84 51 47 52 48 53 63 55 85 56
REMARK SMILES IDX 50 57 33 58 34 59 43 60 35 61 36 62 42 63 44 64 37 65 38 66
REMARK SMILES IDX 39 67 40 68 41 69 67 70 68 71 77 72 69 73 70 74 76 75 78 76
REMARK SMILES IDX 71 77 72 78 73 79 74 80 75 81 51 82 52 83 61 84 53 85 54 86
REMARK SMILES IDX 60 87 62 88 55 89 56 90 57 91 58 92 59 93
REMARK H PARENT 16 7 21 24 83 43 49 54
REMARK Flexibility Score: inf
ROOT
ATOM      1  C   UNL A   1      33.141  28.439  26.433  1.00  0.00     0.023 C 
ENDROOT
BRANCH   1   2
ATOM      2  C   UNL A   1      32.577  29.587  25.581  1.00  0.00     0.023 C 
BRANCH   2   3
ATOM      3  C   UNL A   1      31.718  29.153  24.395  1.00  0.00     0.116 C 
BRANCH   3   4
ATOM      4  N   UNL A   1      31.786  27.727  24.157  1.00  0.00    -0.356 N 
ATOM      5  O   UNL A   1      33.279  27.836  22.417  1.00  0.00    -0.275 OA
ATOM      6  C   UNL A   1      32.626  27.166  23.214  1.00  0.00     0.224 C 
ATOM      7  H   UNL A   1      31.210  27.131  24.688  1.00  0.00     0.163 HD
BRANCH   6   8
ATOM      8  C   UNL A   1      32.602  25.646  23.161  1.00  0.00     0.137 C 
BRANCH   8   9
ATOM      9  C   UNL A   1      33.399  24.940  24.219  1.00  0.00    -0.021 A 
ATOM     10  C   UNL A   1      33.102  24.734  25.594  1.00  0.00     0.024 A 
ATOM     11  C   UNL A   1      34.629  24.333  24.008  1.00  0.00     0.095 A 
ATOM     12  C   UNL A   1      34.083  23.927  26.125  1.00  0.00     0.091 A 
ATOM     13  N   UNL A   1      35.045  23.701  25.165  1.00  0.00    -0.321 N 
BRANCH  13  14
ATOM     14  C   UNL A   1      36.223  22.937  25.330  1.00  0.00     0.081 A 
ATOM     15  C   UNL A   1      37.355  23.522  25.911  1.00  0.00     0.030 A 
ATOM     16  C   UNL A   1      36.283  21.611  24.896  1.00  0.00     0.147 A 
ATOM     17  C   UNL A   1      38.521  22.771  26.073  1.00  0.00     0.002 A 
ATOM     18  C   UNL A   1      37.463  20.878  25.020  1.00  0.00     0.041 A 
ATOM     19  F   UNL A   1      35.244  21.029  24.279  1.00  0.00    -0.205 F 
ATOM     20  C   UNL A   1      38.581  21.455  25.619  1.00  0.00     0.003 A 
ENDBRANCH  13  14
ENDBRANCH   8   9
ENDBRANCH   6   8
ENDBRANCH   3   4
ENDBRANCH   2   3
ENDBRANCH   1   2
BRANCH   1  21
ATOM     21  C   UNL A   1      34.587  28.637  26.884  1.00  0.00     0.116 C 
BRANCH  21  22
ATOM     22  N   UNL A   1      34.907  30.045  27.057  1.00  0.00    -0.352 N 
ATOM     23  C   UNL A   1      35.918  30.617  27.792  1.00  0.00     0.251 C 
ATOM     24  H   UNL A   1      34.320  30.675  26.581  1.00  0.00     0.163 HD
ATOM     25  O   UNL A   1      35.830  31.793  28.123  1.00  0.00    -0.269 OA
BRANCH  23  26
ATOM     26  C   UNL A   1      37.097  29.824  28.202  1.00  0.00     0.039 A 
ATOM     27  C   UNL A   1      38.222  29.821  27.367  1.00  0.00     0.014 A 
ATOM     28  C   UNL A   1      37.070  29.028  29.352  1.00  0.00     0.014 A 
ATOM     29  C   UNL A   1      39.341  29.072  27.717  1.00  0.00     0.010 A 
ATOM     30  C   UNL A   1      38.196  28.308  29.724  1.00  0.00     0.010 A 
ATOM     31  C   UNL A   1      39.332  28.335  28.908  1.00  0.00    -0.014 A 
BRANCH  31  32
ATOM     32  C   UNL A   1      40.575  27.670  29.357  1.00  0.00     0.031 A 
ATOM     33  C   UNL A   1      40.873  26.401  28.515  1.00  0.00     0.074 A 
ATOM     34  C   UNL A   1      41.226  28.267  30.405  1.00  0.00     0.049 A 
ATOM     35  N   UNL A   1      41.445  25.284  28.847  1.00  0.00    -0.248 NA
ATOM     36  C   UNL A   1      40.375  26.337  27.111  1.00  0.00     0.031 C 
ATOM     37  C   UNL A   1      40.785  29.515  31.073  1.00  0.00     0.029 A 
ATOM     38  N   UNL A   1      42.371  27.982  31.121  1.00  0.00    -0.354 N 
ATOM     39  C   UNL A   1      41.552  24.483  27.681  1.00  0.00     0.074 A 
ATOM     40  C   UNL A   1      40.765  25.133  26.679  1.00  0.00     0.031 C 
ATOM     41  C   UNL A   1      41.585  29.822  32.116  1.00  0.00     0.029 A 
ATOM     42  C   UNL A   1      42.631  28.829  32.236  1.00  0.00     0.049 A 
ATOM     43  H   UNL A   1      42.971  27.240  30.876  1.00  0.00     0.167 HD
ATOM     44  C   UNL A   1      42.388  23.402  27.576  1.00  0.00     0.037 A 
ATOM     45  C   UNL A   1      43.582  28.696  33.218  1.00  0.00     0.037 A 
ATOM     46  C   UNL A   1      43.144  23.271  28.778  1.00  0.00     0.049 A 
ATOM     47  C   UNL A   1      44.384  27.531  32.806  1.00  0.00     0.074 A 
ATOM     48  C   UNL A   1      42.818  22.847  30.037  1.00  0.00     0.029 A 
ATOM     49  N   UNL A   1      44.329  23.966  28.829  1.00  0.00    -0.354 N 
ATOM     50  N   UNL A   1      45.214  27.501  31.805  1.00  0.00    -0.248 NA
ATOM     51  C   UNL A   1      44.129  26.251  33.481  1.00  0.00     0.031 C 
ATOM     52  C   UNL A   1      43.536  23.732  30.868  1.00  0.00     0.029 A 
ATOM     53  C   UNL A   1      44.434  24.481  30.097  1.00  0.00     0.049 A 
ATOM     54  H   UNL A   1      44.978  24.074  28.096  1.00  0.00     0.167 HD
ATOM     55  C   UNL A   1      45.318  26.155  31.546  1.00  0.00     0.074 A 
ATOM     56  C   UNL A   1      44.910  25.463  32.750  1.00  0.00     0.031 C 
ATOM     57  C   UNL A   1      45.207  25.690  30.279  1.00  0.00     0.037 A 
BRANCH  44  58
ATOM     58  C   UNL A   1      42.828  22.527  26.428  1.00  0.00     0.058 A 
ATOM     59  C   UNL A   1      43.873  22.844  25.552  1.00  0.00     0.135 A 
ATOM     60  C   UNL A   1      42.414  21.167  26.432  1.00  0.00     0.135 A 
ATOM     61  F   UNL A   1      44.335  24.099  25.460  1.00  0.00    -0.206 F 
ATOM     62  C   UNL A   1      44.531  21.861  24.800  1.00  0.00     0.059 A 
ATOM     63  C   UNL A   1      43.076  20.169  25.723  1.00  0.00     0.059 A 
ATOM     64  F   UNL A   1      41.379  20.770  27.193  1.00  0.00    -0.206 F 
ATOM     65  C   UNL A   1      44.154  20.521  24.924  1.00  0.00     0.060 A 
BRANCH  65  66
ATOM     66  S   UNL A   1      45.134  19.237  24.109  1.00  0.00     0.124 S 
ATOM     67  O   UNL A   1      44.864  18.079  24.956  1.00  0.00    -0.237 OA
ATOM     68  O   UNL A   1      44.549  19.200  22.774  1.00  0.00    -0.237 OA
ATOM     69  O   UNL A   1      46.498  19.753  24.175  1.00  0.00    -0.744 OA
ENDBRANCH  65  66
ENDBRANCH  44  58
BRANCH  45  70
ATOM     70  C   UNL A   1      43.854  29.265  34.605  1.00  0.00     0.058 A 
ATOM     71  C   UNL A   1      42.906  29.049  35.648  1.00  0.00     0.135 A 
ATOM     72  C   UNL A   1      44.907  30.113  34.974  1.00  0.00     0.135 A 
ATOM     73  F   UNL A   1      41.957  28.107  35.557  1.00  0.00    -0.206 F 
ATOM     74  C   UNL A   1      42.850  29.798  36.820  1.00  0.00     0.059 A 
ATOM     75  C   UNL A   1      44.909  30.841  36.182  1.00  0.00     0.059 A 
ATOM     76  F   UNL A   1      45.979  30.266  34.187  1.00  0.00    -0.206 F 
ATOM     77  C   UNL A   1      43.829  30.741  37.055  1.00  0.00     0.060 A 
BRANCH  77  78
ATOM     78  S   UNL A   1      43.637  31.822  38.487  1.00  0.00     0.124 S 
ATOM     79  O   UNL A   1      44.676  31.309  39.377  1.00  0.00    -0.237 OA
ATOM     80  O   UNL A   1      43.886  33.147  37.929  1.00  0.00    -0.237 OA
ATOM     81  O   UNL A   1      42.264  31.574  38.916  1.00  0.00    -0.744 OA
ENDBRANCH  77  78
ENDBRANCH  45  70
BRANCH  57  82
ATOM     82  C   UNL A   1      45.588  26.661  29.179  1.00  0.00     0.058 A 
ATOM     83  C   UNL A   1      46.912  26.962  28.824  1.00  0.00     0.135 A 
ATOM     84  C   UNL A   1      44.594  27.308  28.432  1.00  0.00     0.135 A 
ATOM     85  F   UNL A   1      47.927  26.354  29.432  1.00  0.00    -0.206 F 
ATOM     86  C   UNL A   1      47.249  27.891  27.840  1.00  0.00     0.059 A 
ATOM     87  C   UNL A   1      44.898  28.237  27.429  1.00  0.00     0.059 A 
ATOM     88  F   UNL A   1      43.300  27.064  28.694  1.00  0.00    -0.206 F 
ATOM     89  C   UNL A   1      46.230  28.536  27.153  1.00  0.00     0.060 A 
BRANCH  89  90
ATOM     90  S   UNL A   1      46.684  29.819  25.965  1.00  0.00     0.124 S 
ATOM     91  O   UNL A   1      46.806  29.050  24.730  1.00  0.00    -0.237 OA
ATOM     92  O   UNL A   1      45.540  30.722  26.028  1.00  0.00    -0.237 OA
ATOM     93  O   UNL A   1      47.936  30.351  26.495  1.00  0.00    -0.744 OA
ENDBRANCH  89  90
ENDBRANCH  57  82
ENDBRANCH  31  32
ENDBRANCH  23  26
ENDBRANCH  21  22
ENDBRANCH   1  21
TORSDOF 16
ENDMDL
MODEL 2
REMARK VINA RESULT:     -11.8      1.026      1.850
REMARK SMILES O=C(Cc1ccn(-c2ccccc2F)c1)NCCCCNC(=O)c1ccc(-c2c3nc(c(-c4c(F)cc(S(=O)(=O)[O-])cc4F)c4ccc([nH]4)c(-c4c(F)cc(S(=O)(=O)[O-])cc4F)c4nc(c(-c5c(F)cc(S(=O)(=O)[O-])cc5F)c5ccc2[nH]5)C=C4)C=C3)cc1
REMARK SMILES IDX 19 1 18 2 17 3 16 4 1 5 2 6 3 8 4 9 5 10 15 11 6 12 7 13
REMARK SMILES IDX 8 14 9 15 13 16 10 17 12 18 14 19 11 20 20 21 21 22 22 23
REMARK SMILES IDX 23 25 24 26 25 27 89 28 26 29 88 30 27 31 28 32 29 33 82 34
REMARK SMILES IDX 30 35 87 36 81 37 83 38 31 39 86 40 80 41 79 42 32 44 66 45
REMARK SMILES IDX 45 46 65 47 46 48 49 49 64 50 84 51 47 52 48 53 63 55 85 56
REMARK SMILES IDX 50 57 33 58 34 59 43 60 35 61 36 62 42 63 44 64 37 65 38 66
REMARK SMILES IDX 39 67 40 68 41 69 67 70 68 71 77 72 69 73 70 74 76 75 78 76
REMARK SMILES IDX 71 77 72 78 73 79 74 80 75 81 51 82 52 83 61 84 53 85 54 86
REMARK SMILES IDX 60 87 62 88 55 89 56 90 57 91 58 92 59 93
REMARK H PARENT 16 7 21 24 83 43 49 54
REMARK Flexibility Score: inf
ROOT
ATOM      1  C   UNL A   1      33.226  28.397  26.933  1.00  0.00     0.023 C 
ENDROOT
BRANCH   1   2
ATOM      2  C   UNL A   1      32.387  29.682  26.877  1.00  0.00     0.023 C 
BRANCH   2   3
ATOM      3  C   UNL A   1      31.672  29.934  25.551  1.00  0.00     0.116 C 
BRANCH   3   4
ATOM      4  N   UNL A   1      31.655  28.760  24.703  1.00  0.00    -0.356 N 
ATOM      5  O   UNL A   1      29.764  29.326  23.531  1.00  0.00    -0.275 OA
ATOM      6  C   UNL A   1      30.724  28.577  23.698  1.00  0.00     0.224 C 
ATOM      7  H   UNL A   1      32.334  28.063  24.849  1.00  0.00     0.163 HD
BRANCH   6   8
ATOM      8  C   UNL A   1      30.915  27.313  22.874  1.00  0.00     0.137 C 
BRANCH   8   9
ATOM      9  C   UNL A   1      31.592  26.170  23.572  1.00  0.00    -0.021 A 
ATOM     10  C   UNL A   1      31.036  25.144  24.385  1.00  0.00     0.024 A 
ATOM     11  C   UNL A   1      32.955  25.914  23.529  1.00  0.00     0.095 A 
ATOM     12  C   UNL A   1      32.042  24.257  24.698  1.00  0.00     0.091 A 
ATOM     13  N   UNL A   1      33.234  24.740  24.203  1.00  0.00    -0.321 N 
BRANCH  13  14
ATOM     14  C   UNL A   1      34.501  24.127  24.338  1.00  0.00     0.081 A 
ATOM     15  C   UNL A   1      35.288  24.397  25.463  1.00  0.00     0.030 A 
ATOM     16  C   UNL A   1      34.992  23.273  23.347  1.00  0.00     0.147 A 
ATOM     17  C   UNL A   1      36.541  23.795  25.597  1.00  0.00     0.002 A 
ATOM     18  C   UNL A   1      36.261  22.708  23.464  1.00  0.00     0.041 A 
ATOM     19  F   UNL A   1      34.299  23.034  22.223  1.00  0.00    -0.205 F 
ATOM     20  C   UNL A   1      37.034  22.961  24.596  1.00  0.00     0.003 A 
ENDBRANCH  13  14
ENDBRANCH   8   9
ENDBRANCH   6   8
ENDBRANCH   3   4
ENDBRANCH   2   3
ENDBRANCH   1   2
BRANCH   1  21
ATOM     21  C   UNL A   1      34.734  28.621  26.831  1.00  0.00     0.116 C 
BRANCH  21  22
ATOM     22  N   UNL A   1      35.076  30.030  26.948  1.00  0.00    -0.352 N 
ATOM     23  C   UNL A   1      36.098  30.614  27.657  1.00  0.00     0.251 C 
ATOM     24  H   UNL A   1      34.496  30.650  26.450  1.00  0.00     0.163 HD
ATOM     25  O   UNL A   1      36.029  31.803  27.943  1.00  0.00    -0.269 OA
BRANCH  23  26
ATOM     26  C   UNL A   1      37.268  29.819  28.091  1.00  0.00     0.039 A 
ATOM     27  C   UNL A   1      38.408  29.810  27.277  1.00  0.00     0.014 A 
ATOM     28  C   UNL A   1      37.216  29.029  29.245  1.00  0.00     0.014 A 
ATOM     29  C   UNL A   1      39.517  29.059  27.652  1.00  0.00     0.010 A 
ATOM     30  C   UNL A   1      38.334  28.307  29.641  1.00  0.00     0.010 A 
ATOM     31  C   UNL A   1      39.485  28.328  28.846  1.00  0.00    -0.014 A 
BRANCH  31  32
ATOM     32  C   UNL A   1      40.717  27.661  29.321  1.00  0.00     0.031 A 
ATOM     33  C   UNL A   1      41.033  26.395  28.482  1.00  0.00     0.074 A 
ATOM     34  C   UNL A   1      41.344  28.255  30.385  1.00  0.00     0.049 A 
ATOM     35  N   UNL A   1      41.598  25.276  28.824  1.00  0.00    -0.248 NA
ATOM     36  C   UNL A   1      40.568  26.335  27.067  1.00  0.00     0.031 C 
ATOM     37  C   UNL A   1      40.888  29.501  31.047  1.00  0.00     0.029 A 
ATOM     38  N   UNL A   1      42.473  27.967  31.126  1.00  0.00    -0.354 N 
ATOM     39  C   UNL A   1      41.731  24.479  27.657  1.00  0.00     0.074 A 
ATOM     40  C   UNL A   1      40.967  25.133  26.640  1.00  0.00     0.031 C 
ATOM     41  C   UNL A   1      41.665  29.805  32.108  1.00  0.00     0.029 A 
ATOM     42  C   UNL A   1      42.708  28.811  32.249  1.00  0.00     0.049 A 
ATOM     43  H   UNL A   1      43.078  27.226  30.892  1.00  0.00     0.167 HD
ATOM     44  C   UNL A   1      42.570  23.398  27.568  1.00  0.00     0.037 A 
ATOM     45  C   UNL A   1      43.636  28.675  33.252  1.00  0.00     0.037 A 
ATOM     46  C   UNL A   1      43.298  23.264  28.786  1.00  0.00     0.049 A 
ATOM     47  C   UNL A   1      44.447  27.511  32.854  1.00  0.00     0.074 A 
ATOM     48  C   UNL A   1      42.944  22.836  30.037  1.00  0.00     0.029 A 
ATOM     49  N   UNL A   1      44.481  23.959  28.866  1.00  0.00    -0.354 N 
ATOM     50  N   UNL A   1      45.299  27.484  31.872  1.00  0.00    -0.248 NA
ATOM     51  C   UNL A   1      44.177  26.229  33.519  1.00  0.00     0.031 C 
ATOM     52  C   UNL A   1      43.643  23.718  30.886  1.00  0.00     0.029 A 
ATOM     53  C   UNL A   1      44.558  24.469  30.138  1.00  0.00     0.049 A 
ATOM     54  H   UNL A   1      45.147  24.068  28.148  1.00  0.00     0.167 HD
ATOM     55  C   UNL A   1      45.410  26.139  31.612  1.00  0.00     0.074 A 
ATOM     56  C   UNL A   1      44.974  25.443  32.804  1.00  0.00     0.031 C 
ATOM     57  C   UNL A   1      45.327  25.677  30.341  1.00  0.00     0.037 A 
BRANCH  44  58
ATOM     58  C   UNL A   1      43.035  22.527  26.427  1.00  0.00     0.058 A 
ATOM     59  C   UNL A   1      44.140  22.814  25.617  1.00  0.00     0.135 A 
ATOM     60  C   UNL A   1      42.564  21.187  26.380  1.00  0.00     0.135 A 
ATOM     61  F   UNL A   1      44.658  24.049  25.577  1.00  0.00    -0.206 F 
ATOM     62  C   UNL A   1      44.797  21.818  24.882  1.00  0.00     0.059 A 
ATOM     63  C   UNL A   1      43.223  20.174  25.688  1.00  0.00     0.059 A 
ATOM     64  F   UNL A   1      41.473  20.820  27.075  1.00  0.00    -0.206 F 
ATOM     65  C   UNL A   1      44.357  20.494  24.957  1.00  0.00     0.060 A 
BRANCH  65  66
ATOM     66  S   UNL A   1      45.325  19.184  24.169  1.00  0.00     0.124 S 
ATOM     67  O   UNL A   1      45.114  18.069  25.087  1.00  0.00    -0.237 OA
ATOM     68  O   UNL A   1      44.686  19.065  22.864  1.00  0.00    -0.237 OA
ATOM     69  O   UNL A   1      46.681  19.726  24.149  1.00  0.00    -0.744 OA
ENDBRANCH  65  66
ENDBRANCH  44  58
BRANCH  45  70
ATOM     70  C   UNL A   1      43.876  29.239  34.646  1.00  0.00     0.058 A 
ATOM     71  C   UNL A   1      45.186  29.670  35.012  1.00  0.00     0.135 A 
ATOM     72  C   UNL A   1      42.958  29.282  35.705  1.00  0.00     0.135 A 
ATOM     73  F   UNL A   1      46.134  29.904  34.094  1.00  0.00    -0.206 F 
ATOM     74  C   UNL A   1      45.610  29.853  36.324  1.00  0.00     0.059 A 
ATOM     75  C   UNL A   1      43.348  29.523  37.040  1.00  0.00     0.059 A 
ATOM     76  F   UNL A   1      41.650  29.099  35.492  1.00  0.00    -0.206 F 
ATOM     77  C   UNL A   1      44.692  29.719  37.346  1.00  0.00     0.060 A 
BRANCH  77  78
ATOM     78  S   UNL A   1      45.300  29.781  39.044  1.00  0.00     0.124 S 
ATOM     79  O   UNL A   1      45.134  28.391  39.460  1.00  0.00    -0.237 OA
ATOM     80  O   UNL A   1      46.680  30.226  38.877  1.00  0.00    -0.237 OA
ATOM     81  O   UNL A   1      44.409  30.741  39.687  1.00  0.00    -0.744 OA
ENDBRANCH  77  78
ENDBRANCH  45  70
BRANCH  57  82
ATOM     82  C   UNL A   1      45.733  26.652  29.253  1.00  0.00     0.058 A 
ATOM     83  C   UNL A   1      44.828  27.260  28.369  1.00  0.00     0.135 A 
ATOM     84  C   UNL A   1      47.078  27.014  29.094  1.00  0.00     0.135 A 
ATOM     85  F   UNL A   1      43.523  27.029  28.477  1.00  0.00    -0.206 F 
ATOM     86  C   UNL A   1      45.220  28.122  27.345  1.00  0.00     0.059 A 
ATOM     87  C   UNL A   1      47.503  27.886  28.084  1.00  0.00     0.059 A 
ATOM     88  F   UNL A   1      48.009  26.494  29.910  1.00  0.00    -0.206 F 
ATOM     89  C   UNL A   1      46.568  28.420  27.201  1.00  0.00     0.060 A 
BRANCH  89  90
ATOM     90  S   UNL A   1      47.067  29.444  25.799  1.00  0.00     0.124 S 
ATOM     91  O   UNL A   1      46.002  30.442  25.766  1.00  0.00    -0.237 OA
ATOM     92  O   UNL A   1      48.373  29.938  26.224  1.00  0.00    -0.237 OA
ATOM     93  O   UNL A   1      47.083  28.509  24.678  1.00  0.00    -0.744 OA
ENDBRANCH  89  90
ENDBRANCH  57  82
ENDBRANCH  31  32
ENDBRANCH  23  26
ENDBRANCH  21  22
ENDBRANCH   1  21
TORSDOF 16
ENDMDL
MODEL 3
REMARK VINA RESULT:     -11.7      3.250      9.277
REMARK SMILES O=C(Cc1ccn(-c2ccccc2F)c1)NCCCCNC(=O)c1ccc(-c2c3nc(c(-c4c(F)cc(S(=O)(=O)[O-])cc4F)c4ccc([nH]4)c(-c4c(F)cc(S(=O)(=O)[O-])cc4F)c4nc(c(-c5c(F)cc(S(=O)(=O)[O-])cc5F)c5ccc2[nH]5)C=C4)C=C3)cc1
REMARK SMILES IDX 19 1 18 2 17 3 16 4 1 5 2 6 3 8 4 9 5 10 15 11 6 12 7 13
REMARK SMILES IDX 8 14 9 15 13 16 10 17 12 18 14 19 11 20 20 21 21 22 22 23
REMARK SMILES IDX 23 25 24 26 25 27 89 28 26 29 88 30 27 31 28 32 29 33 82 34
REMARK SMILES IDX 30 35 87 36 81 37 83 38 31 39 86 40 80 41 79 42 32 44 66 45
REMARK SMILES IDX 45 46 65 47 46 48 49 49 64 50 84 51 47 52 48 53 63 55 85 56
REMARK SMILES IDX 50 57 33 58 34 59 43 60 35 61 36 62 42 63 44 64 37 65 38 66
REMARK SMILES IDX 39 67 40 68 41 69 67 70 68 71 77 72 69 73 70 74 76 75 78 76
REMARK SMILES IDX 71 77 72 78 73 79 74 80 75 81 51 82 52 83 61 84 53 85 54 86
REMARK SMILES IDX 60 87 62 88 55 89 56 90 57 91 58 92 59 93
REMARK H PARENT 16 7 21 24 83 43 49 54
REMARK Flexibility Score: inf
ROOT
ATOM      1  C   UNL A   1      33.495  28.166  25.741  1.00  0.00     0.023 C 
ENDROOT
BRANCH   1   2
ATOM      2  C   UNL A   1      33.034  29.330  24.852  1.00  0.00     0.023 C 
BRANCH   2   3
ATOM      3  C   UNL A   1      31.571  29.273  24.416  1.00  0.00     0.116 C 
BRANCH   3   4
ATOM      4  N   UNL A   1      31.009  27.945  24.544  1.00  0.00    -0.356 N 
ATOM      5  O   UNL A   1      30.096  27.856  22.440  1.00  0.00    -0.275 OA
ATOM      6  C   UNL A   1      30.361  27.304  23.506  1.00  0.00     0.224 C 
ATOM      7  H   UNL A   1      31.090  27.480  25.408  1.00  0.00     0.163 HD
BRANCH   6   8
ATOM      8  C   UNL A   1      29.901  25.888  23.817  1.00  0.00     0.137 C 
BRANCH   8   9
ATOM      9  C   UNL A   1      30.966  24.831  23.794  1.00  0.00    -0.021 A 
ATOM     10  C   UNL A   1      30.898  23.483  23.349  1.00  0.00     0.024 A 
ATOM     11  C   UNL A   1      32.272  25.016  24.226  1.00  0.00     0.095 A 
ATOM     12  C   UNL A   1      32.166  22.949  23.416  1.00  0.00     0.091 A 
ATOM     13  N   UNL A   1      33.012  23.874  23.986  1.00  0.00    -0.321 N 
BRANCH  13  14
ATOM     14  C   UNL A   1      34.390  23.694  24.245  1.00  0.00     0.081 A 
ATOM     15  C   UNL A   1      35.231  23.217  23.233  1.00  0.00     0.030 A 
ATOM     16  C   UNL A   1      34.922  23.960  25.509  1.00  0.00     0.147 A 
ATOM     17  C   UNL A   1      36.592  23.035  23.487  1.00  0.00     0.002 A 
ATOM     18  C   UNL A   1      36.273  23.737  25.771  1.00  0.00     0.041 A 
ATOM     19  F   UNL A   1      34.143  24.361  26.525  1.00  0.00    -0.205 F 
ATOM     20  C   UNL A   1      37.112  23.282  24.755  1.00  0.00     0.003 A 
ENDBRANCH  13  14
ENDBRANCH   8   9
ENDBRANCH   6   8
ENDBRANCH   3   4
ENDBRANCH   2   3
ENDBRANCH   1   2
BRANCH   1  21
ATOM     21  C   UNL A   1      33.545  28.490  27.233  1.00  0.00     0.116 C 
BRANCH  21  22
ATOM     22  N   UNL A   1      33.477  29.923  27.473  1.00  0.00    -0.352 N 
ATOM     23  C   UNL A   1      34.351  30.725  28.166  1.00  0.00     0.251 C 
ATOM     24  H   UNL A   1      32.697  30.381  27.085  1.00  0.00     0.163 HD
ATOM     25  O   UNL A   1      33.971  31.813  28.580  1.00  0.00    -0.269 OA
BRANCH  23  26
ATOM     26  C   UNL A   1      35.737  30.280  28.433  1.00  0.00     0.039 A 
ATOM     27  C   UNL A   1      36.651  30.272  27.371  1.00  0.00     0.014 A 
ATOM     28  C   UNL A   1      36.112  29.800  29.692  1.00  0.00     0.014 A 
ATOM     29  C   UNL A   1      37.957  29.843  27.587  1.00  0.00     0.010 A 
ATOM     30  C   UNL A   1      37.423  29.406  29.921  1.00  0.00     0.010 A 
ATOM     31  C   UNL A   1      38.345  29.433  28.869  1.00  0.00    -0.014 A 
BRANCH  31  32
ATOM     32  C   UNL A   1      39.769  29.131  29.132  1.00  0.00     0.031 A 
ATOM     33  C   UNL A   1      40.546  30.403  29.562  1.00  0.00     0.074 A 
ATOM     34  C   UNL A   1      40.144  27.825  28.955  1.00  0.00     0.049 A 
ATOM     35  N   UNL A   1      41.783  30.746  29.359  1.00  0.00    -0.248 NA
ATOM     36  C   UNL A   1      39.806  31.502  30.246  1.00  0.00     0.031 C 
ATOM     37  C   UNL A   1      39.229  26.730  28.556  1.00  0.00     0.029 A 
ATOM     38  N   UNL A   1      41.335  27.136  29.075  1.00  0.00    -0.354 N 
ATOM     39  C   UNL A   1      42.016  31.969  30.038  1.00  0.00     0.074 A 
ATOM     40  C   UNL A   1      40.732  32.443  30.456  1.00  0.00     0.031 C 
ATOM     41  C   UNL A   1      39.896  25.568  28.393  1.00  0.00     0.029 A 
ATOM     42  C   UNL A   1      41.301  25.770  28.676  1.00  0.00     0.049 A 
ATOM     43  H   UNL A   1      42.155  27.563  29.414  1.00  0.00     0.167 HD
ATOM     44  C   UNL A   1      43.267  32.451  30.327  1.00  0.00     0.037 A 
ATOM     45  C   UNL A   1      42.344  24.889  28.525  1.00  0.00     0.037 A 
ATOM     46  C   UNL A   1      44.247  31.510  29.895  1.00  0.00     0.049 A 
ATOM     47  C   UNL A   1      43.529  25.630  28.990  1.00  0.00     0.074 A 
ATOM     48  C   UNL A   1      44.711  31.157  28.657  1.00  0.00     0.029 A 
ATOM     49  N   UNL A   1      44.598  30.539  30.802  1.00  0.00    -0.354 N 
ATOM     50  N   UNL A   1      43.789  25.941  30.226  1.00  0.00    -0.248 NA
ATOM     51  C   UNL A   1      44.426  26.196  27.973  1.00  0.00     0.031 C 
ATOM     52  C   UNL A   1      44.871  29.760  28.763  1.00  0.00     0.029 A 
ATOM     53  C   UNL A   1      44.731  29.367  30.100  1.00  0.00     0.049 A 
ATOM     54  H   UNL A   1      44.730  30.661  31.771  1.00  0.00     0.167 HD
ATOM     55  C   UNL A   1      44.674  26.983  30.090  1.00  0.00     0.074 A 
ATOM     56  C   UNL A   1      45.244  26.882  28.764  1.00  0.00     0.031 C 
ATOM     57  C   UNL A   1      44.505  28.123  30.803  1.00  0.00     0.037 A 
BRANCH  44  58
ATOM     58  C   UNL A   1      43.779  33.585  31.181  1.00  0.00     0.058 A 
ATOM     59  C   UNL A   1      44.163  34.835  30.681  1.00  0.00     0.135 A 
ATOM     60  C   UNL A   1      43.540  33.523  32.580  1.00  0.00     0.135 A 
ATOM     61  F   UNL A   1      44.424  35.002  29.377  1.00  0.00    -0.206 F 
ATOM     62  C   UNL A   1      44.212  35.974  31.497  1.00  0.00     0.059 A 
ATOM     63  C   UNL A   1      43.546  34.647  33.402  1.00  0.00     0.059 A 
ATOM     64  F   UNL A   1      43.224  32.357  33.169  1.00  0.00    -0.206 F 
ATOM     65  C   UNL A   1      43.860  35.878  32.847  1.00  0.00     0.060 A 
BRANCH  65  66
ATOM     66  S   UNL A   1      43.731  37.381  33.846  1.00  0.00     0.124 S 
ATOM     67  O   UNL A   1      44.852  37.221  34.766  1.00  0.00    -0.237 OA
ATOM     68  O   UNL A   1      43.872  38.433  32.845  1.00  0.00    -0.237 OA
ATOM     69  O   UNL A   1      42.406  37.276  34.452  1.00  0.00    -0.744 OA
ENDBRANCH  65  66
ENDBRANCH  44  58
BRANCH  45  70
ATOM     70  C   UNL A   1      42.591  23.542  27.857  1.00  0.00     0.058 A 
ATOM     71  C   UNL A   1      42.116  23.321  26.530  1.00  0.00     0.135 A 
ATOM     72  C   UNL A   1      43.146  22.399  28.449  1.00  0.00     0.135 A 
ATOM     73  F   UNL A   1      41.754  24.334  25.731  1.00  0.00    -0.206 F 
ATOM     74  C   UNL A   1      41.952  22.063  25.959  1.00  0.00     0.059 A 
ATOM     75  C   UNL A   1      43.049  21.118  27.867  1.00  0.00     0.059 A 
ATOM     76  F   UNL A   1      43.811  22.476  29.608  1.00  0.00    -0.206 F 
ATOM     77  C   UNL A   1      42.370  20.952  26.663  1.00  0.00     0.060 A 
BRANCH  77  78
ATOM     78  S   UNL A   1      41.984  19.325  25.984  1.00  0.00     0.124 S 
ATOM     79  O   UNL A   1      42.384  18.451  27.084  1.00  0.00    -0.237 OA
ATOM     80  O   UNL A   1      40.547  19.409  25.741  1.00  0.00    -0.237 OA
ATOM     81  O   UNL A   1      42.816  19.251  24.788  1.00  0.00    -0.744 OA
ENDBRANCH  77  78
ENDBRANCH  45  70
BRANCH  57  82
ATOM     82  C   UNL A   1      43.763  27.981  32.117  1.00  0.00     0.058 A 
ATOM     83  C   UNL A   1      42.442  28.408  32.321  1.00  0.00     0.135 A 
ATOM     84  C   UNL A   1      44.386  27.375  33.217  1.00  0.00     0.135 A 
ATOM     85  F   UNL A   1      41.744  28.939  31.321  1.00  0.00    -0.206 F 
ATOM     86  C   UNL A   1      41.786  28.310  33.548  1.00  0.00     0.059 A 
ATOM     87  C   UNL A   1      43.751  27.250  34.460  1.00  0.00     0.059 A 
ATOM     88  F   UNL A   1      45.644  26.921  33.104  1.00  0.00    -0.206 F 
ATOM     89  C   UNL A   1      42.456  27.739  34.621  1.00  0.00     0.060 A 
BRANCH  89  90
ATOM     90  S   UNL A   1      41.634  27.726  36.229  1.00  0.00     0.124 S 
ATOM     91  O   UNL A   1      40.935  26.446  36.194  1.00  0.00    -0.237 OA
ATOM     92  O   UNL A   1      42.760  27.798  37.155  1.00  0.00    -0.237 OA
ATOM     93  O   UNL A   1      40.778  28.908  36.186  1.00  0.00    -0.744 OA
ENDBRANCH  89  90
ENDBRANCH  57  82
ENDBRANCH  31  32
ENDBRANCH  23  26
ENDBRANCH  21  22
ENDBRANCH   1  21
TORSDOF 16
ENDMDL
