MODEL 1
REMARK VINA RESULT:     -11.5      0.000      0.000
REMARK SMILES COc1ccc(C[C@H](C(=O)Nc2ccccc2)[C@@H](C)C(=O)NCCCCNC(=O)c2ccc(-c3c4nc(c(-c5c(F)cc(S(=O)(=O)[O-])cc5F)c5ccc([nH]5)c(-c5c(F)cc(S(=O)(=O)[O-])cc5F)c5nc(c(-c6c(F)cc(S(=O)(=O)[O-])cc6F)c6ccc3[nH]6)C=C5)C=C4)cc2)cc1
REMARK SMILES IDX 24 1 23 2 22 3 20 4 21 5 18 7 19 8 8 9 7 10 6 11 3 12 4 13
REMARK SMILES IDX 97 14 5 15 96 16 2 17 1 18 9 19 10 20 11 21 12 23 13 24
REMARK SMILES IDX 17 25 14 26 16 27 15 28 25 29 26 30 27 31 28 32 29 34 30 35
REMARK SMILES IDX 31 36 95 37 32 38 94 39 33 40 34 41 35 42 88 43 36 44 93 45
REMARK SMILES IDX 87 46 89 47 37 48 92 49 86 50 85 51 38 53 72 54 51 55 71 56
REMARK SMILES IDX 52 57 55 58 70 59 90 60 53 61 54 62 69 64 91 65 56 66 39 67
REMARK SMILES IDX 40 68 49 69 41 70 42 71 48 72 50 73 43 74 44 75 45 76 46 77
REMARK SMILES IDX 47 78 73 79 74 80 83 81 75 82 76 83 82 84 84 85 77 86 78 87
REMARK SMILES IDX 79 88 80 89 81 90 57 91 58 92 67 93 59 94 60 95 66 96 68 97
REMARK SMILES IDX 61 98 62 99 63 100 64 101 65 102
REMARK H PARENT 22 6 11 22 27 33 89 52 55 63
REMARK Flexibility Score: inf
ROOT
ATOM      1  C   UNL A   1      31.959  27.742  27.144  1.00  0.00     0.023 C 
ENDROOT
BRANCH   1   2
ATOM      2  C   UNL A   1      31.022  26.937  26.247  1.00  0.00     0.116 C 
BRANCH   2   3
ATOM      3  N   UNL A   1      31.197  25.503  26.360  1.00  0.00    -0.356 N 
ATOM      4  C   UNL A   1      31.452  24.542  25.437  1.00  0.00     0.223 C 
ATOM      5  O   UNL A   1      31.761  23.421  25.857  1.00  0.00    -0.275 OA
ATOM      6  H   UNL A   1      31.117  25.161  27.280  1.00  0.00     0.163 HD
BRANCH   4   7
ATOM      7  C   UNL A   1      31.440  24.795  23.935  1.00  0.00     0.088 C 
ATOM      8  C   UNL A   1      30.285  23.973  23.339  1.00  0.00     0.019 C 
BRANCH   7   9
ATOM      9  C   UNL A   1      32.812  24.656  23.220  1.00  0.00     0.095 C 
BRANCH   9  10
ATOM     10  C   UNL A   1      34.029  25.213  23.994  1.00  0.00     0.049 C 
BRANCH  10  11
ATOM     11  C   UNL A   1      35.184  24.315  24.367  1.00  0.00    -0.047 A 
ATOM     12  C   UNL A   1      37.266  22.548  25.031  1.00  0.00     0.118 A 
ATOM     13  C   UNL A   1      36.662  22.472  23.782  1.00  0.00     0.046 A 
ATOM     14  C   UNL A   1      36.831  23.493  25.960  1.00  0.00     0.046 A 
ATOM     15  C   UNL A   1      35.607  23.325  23.469  1.00  0.00     0.007 A 
ATOM     16  C   UNL A   1      35.792  24.375  25.628  1.00  0.00     0.007 A 
BRANCH  12  17
ATOM     17  O   UNL A   1      38.348  21.739  25.236  1.00  0.00    -0.497 OA
ATOM     18  C   UNL A   1      39.150  22.153  26.339  1.00  0.00     0.278 C 
ENDBRANCH  12  17
ENDBRANCH  10  11
ENDBRANCH   9  10
BRANCH   9  19
ATOM     19  C   UNL A   1      32.720  25.241  21.794  1.00  0.00     0.228 C 
ATOM     20  O   UNL A   1      33.171  24.588  20.844  1.00  0.00    -0.274 OA
ATOM     21  N   UNL A   1      32.002  26.369  21.491  1.00  0.00    -0.326 N 
ATOM     22  H   UNL A   1      31.795  26.485  20.536  1.00  0.00     0.169 HD
BRANCH  21  23
ATOM     23  C   UNL A   1      31.518  27.378  22.326  1.00  0.00     0.041 A 
ATOM     24  C   UNL A   1      32.422  28.226  22.965  1.00  0.00     0.026 A 
ATOM     25  C   UNL A   1      30.153  27.511  22.579  1.00  0.00     0.026 A 
ATOM     26  C   UNL A   1      31.946  29.303  23.716  1.00  0.00     0.002 A 
ATOM     27  C   UNL A   1      29.676  28.592  23.319  1.00  0.00     0.002 A 
ATOM     28  C   UNL A   1      30.573  29.504  23.867  1.00  0.00     0.000 A 
ENDBRANCH  21  23
ENDBRANCH   9  19
ENDBRANCH   7   9
ENDBRANCH   4   7
ENDBRANCH   2   3
ENDBRANCH   1   2
BRANCH   1  29
ATOM     29  C   UNL A   1      33.443  27.644  26.798  1.00  0.00     0.023 C 
BRANCH  29  30
ATOM     30  C   UNL A   1      34.059  28.907  26.215  1.00  0.00     0.116 C 
BRANCH  30  31
ATOM     31  N   UNL A   1      33.851  30.078  27.055  1.00  0.00    -0.352 N 
ATOM     32  C   UNL A   1      34.670  30.606  28.022  1.00  0.00     0.251 C 
ATOM     33  H   UNL A   1      33.006  30.560  26.907  1.00  0.00     0.163 HD
ATOM     34  O   UNL A   1      34.280  31.539  28.718  1.00  0.00    -0.269 OA
BRANCH  32  35
ATOM     35  C   UNL A   1      36.006  30.017  28.241  1.00  0.00     0.039 A 
ATOM     36  C   UNL A   1      36.949  30.088  27.213  1.00  0.00     0.014 A 
ATOM     37  C   UNL A   1      36.337  29.441  29.470  1.00  0.00     0.014 A 
ATOM     38  C   UNL A   1      38.255  29.657  27.448  1.00  0.00     0.010 A 
ATOM     39  C   UNL A   1      37.654  29.076  29.724  1.00  0.00     0.010 A 
ATOM     40  C   UNL A   1      38.628  29.191  28.719  1.00  0.00    -0.014 A 
BRANCH  40  41
ATOM     41  C   UNL A   1      40.035  28.847  29.037  1.00  0.00     0.031 A 
ATOM     42  C   UNL A   1      40.953  29.890  29.607  1.00  0.00     0.074 A 
ATOM     43  C   UNL A   1      40.505  27.622  28.725  1.00  0.00     0.049 A 
ATOM     44  N   UNL A   1      42.238  29.824  29.832  1.00  0.00    -0.248 NA
ATOM     45  C   UNL A   1      40.350  31.191  29.941  1.00  0.00     0.031 C 
ATOM     46  C   UNL A   1      39.718  26.540  28.128  1.00  0.00     0.029 A 
ATOM     47  N   UNL A   1      41.764  27.087  28.844  1.00  0.00    -0.354 N 
ATOM     48  C   UNL A   1      42.602  31.074  30.318  1.00  0.00     0.074 A 
ATOM     49  C   UNL A   1      41.409  31.893  30.314  1.00  0.00     0.031 C 
ATOM     50  C   UNL A   1      40.507  25.471  27.943  1.00  0.00     0.029 A 
ATOM     51  C   UNL A   1      41.866  25.803  28.363  1.00  0.00     0.049 A 
ATOM     52  H   UNL A   1      42.522  27.577  29.236  1.00  0.00     0.167 HD
ATOM     53  C   UNL A   1      43.817  31.492  30.746  1.00  0.00     0.037 A 
ATOM     54  C   UNL A   1      42.937  24.994  28.250  1.00  0.00     0.037 A 
ATOM     55  C   UNL A   1      44.991  30.660  30.768  1.00  0.00     0.049 A 
ATOM     56  C   UNL A   1      44.280  25.490  28.707  1.00  0.00     0.074 A 
ATOM     57  C   UNL A   1      46.250  30.966  31.253  1.00  0.00     0.029 A 
ATOM     58  N   UNL A   1      45.053  29.364  30.279  1.00  0.00    -0.354 N 
ATOM     59  N   UNL A   1      44.594  26.652  29.231  1.00  0.00    -0.248 NA
ATOM     60  C   UNL A   1      45.417  24.573  28.554  1.00  0.00     0.031 C 
ATOM     61  C   UNL A   1      47.086  29.869  31.015  1.00  0.00     0.029 A 
ATOM     62  C   UNL A   1      46.337  28.866  30.420  1.00  0.00     0.049 A 
ATOM     63  H   UNL A   1      44.296  28.871  29.889  1.00  0.00     0.167 HD
ATOM     64  C   UNL A   1      45.960  26.600  29.480  1.00  0.00     0.074 A 
ATOM     65  C   UNL A   1      46.411  25.287  29.066  1.00  0.00     0.031 C 
ATOM     66  C   UNL A   1      46.769  27.556  29.999  1.00  0.00     0.037 A 
BRANCH  53  67
ATOM     67  C   UNL A   1      43.935  32.910  31.228  1.00  0.00     0.058 A 
ATOM     68  C   UNL A   1      44.262  33.959  30.353  1.00  0.00     0.135 A 
ATOM     69  C   UNL A   1      43.683  33.232  32.571  1.00  0.00     0.135 A 
ATOM     70  F   UNL A   1      44.527  33.705  29.062  1.00  0.00    -0.206 F 
ATOM     71  C   UNL A   1      44.364  35.273  30.799  1.00  0.00     0.059 A 
ATOM     72  C   UNL A   1      43.754  34.543  33.033  1.00  0.00     0.059 A 
ATOM     73  F   UNL A   1      43.367  32.268  33.449  1.00  0.00    -0.206 F 
ATOM     74  C   UNL A   1      44.108  35.555  32.142  1.00  0.00     0.060 A 
BRANCH  74  75
ATOM     75  S   UNL A   1      44.240  37.266  32.702  1.00  0.00     0.124 S 
ATOM     76  O   UNL A   1      44.101  37.995  31.445  1.00  0.00    -0.237 OA
ATOM     77  O   UNL A   1      43.117  37.379  33.628  1.00  0.00    -0.237 OA
ATOM     78  O   UNL A   1      45.563  37.322  33.317  1.00  0.00    -0.744 OA
ENDBRANCH  74  75
ENDBRANCH  53  67
BRANCH  54  79
ATOM     79  C   UNL A   1      42.779  23.631  27.677  1.00  0.00     0.058 A 
ATOM     80  C   UNL A   1      42.925  23.408  26.301  1.00  0.00     0.135 A 
ATOM     81  C   UNL A   1      42.500  22.523  28.493  1.00  0.00     0.135 A 
ATOM     82  F   UNL A   1      43.184  24.436  25.479  1.00  0.00    -0.206 F 
ATOM     83  C   UNL A   1      42.792  22.137  25.750  1.00  0.00     0.059 A 
ATOM     84  C   UNL A   1      42.385  21.240  27.969  1.00  0.00     0.059 A 
ATOM     85  F   UNL A   1      42.366  22.681  29.819  1.00  0.00    -0.206 F 
ATOM     86  C   UNL A   1      42.525  21.058  26.593  1.00  0.00     0.060 A 
BRANCH  86  87
ATOM     87  S   UNL A   1      42.411  19.403  25.878  1.00  0.00     0.124 S 
ATOM     88  O   UNL A   1      43.259  19.534  24.699  1.00  0.00    -0.237 OA
ATOM     89  O   UNL A   1      42.934  18.566  26.953  1.00  0.00    -0.237 OA
ATOM     90  O   UNL A   1      40.983  19.250  25.615  1.00  0.00    -0.744 OA
ENDBRANCH  86  87
ENDBRANCH  54  79
BRANCH  66  91
ATOM     91  C   UNL A   1      48.225  27.221  30.158  1.00  0.00     0.058 A 
ATOM     92  C   UNL A   1      49.176  27.639  29.213  1.00  0.00     0.135 A 
ATOM     93  C   UNL A   1      48.684  26.549  31.301  1.00  0.00     0.135 A 
ATOM     94  F   UNL A   1      48.786  28.276  28.099  1.00  0.00    -0.206 F 
ATOM     95  C   UNL A   1      50.533  27.397  29.396  1.00  0.00     0.059 A 
ATOM     96  C   UNL A   1      50.038  26.317  31.516  1.00  0.00     0.059 A 
ATOM     97  F   UNL A   1      47.814  26.134  32.235  1.00  0.00    -0.206 F 
ATOM     98  C   UNL A   1      50.956  26.741  30.555  1.00  0.00     0.060 A 
BRANCH  98  99
ATOM     99  S   UNL A   1      52.726  26.492  30.808  1.00  0.00     0.124 S 
ATOM    100  O   UNL A   1      53.181  26.209  29.451  1.00  0.00    -0.237 OA
ATOM    101  O   UNL A   1      53.146  27.774  31.364  1.00  0.00    -0.237 OA
ATOM    102  O   UNL A   1      52.780  25.367  31.738  1.00  0.00    -0.744 OA
ENDBRANCH  98  99
ENDBRANCH  66  91
ENDBRANCH  40  41
ENDBRANCH  32  35
ENDBRANCH  30  31
ENDBRANCH  29  30
ENDBRANCH   1  29
TORSDOF 20
ENDMDL
MODEL 2
REMARK VINA RESULT:     -11.2      1.187      3.637
REMARK SMILES COc1ccc(C[C@H](C(=O)Nc2ccccc2)[C@@H](C)C(=O)NCCCCNC(=O)c2ccc(-c3c4nc(c(-c5c(F)cc(S(=O)(=O)[O-])cc5F)c5ccc([nH]5)c(-c5c(F)cc(S(=O)(=O)[O-])cc5F)c5nc(c(-c6c(F)cc(S(=O)(=O)[O-])cc6F)c6ccc3[nH]6)C=C5)C=C4)cc2)cc1
REMARK SMILES IDX 24 1 23 2 22 3 20 4 21 5 18 7 19 8 8 9 7 10 6 11 3 12 4 13
REMARK SMILES IDX 97 14 5 15 96 16 2 17 1 18 9 19 10 20 11 21 12 23 13 24
REMARK SMILES IDX 17 25 14 26 16 27 15 28 25 29 26 30 27 31 28 32 29 34 30 35
REMARK SMILES IDX 31 36 95 37 32 38 94 39 33 40 34 41 35 42 88 43 36 44 93 45
REMARK SMILES IDX 87 46 89 47 37 48 92 49 86 50 85 51 38 53 72 54 51 55 71 56
REMARK SMILES IDX 52 57 55 58 70 59 90 60 53 61 54 62 69 64 91 65 56 66 39 67
REMARK SMILES IDX 40 68 49 69 41 70 42 71 48 72 50 73 43 74 44 75 45 76 46 77
REMARK SMILES IDX 47 78 73 79 74 80 83 81 75 82 76 83 82 84 84 85 77 86 78 87
REMARK SMILES IDX 79 88 80 89 81 90 57 91 58 92 67 93 59 94 60 95 66 96 68 97
REMARK SMILES IDX 61 98 62 99 63 100 64 101 65 102
REMARK H PARENT 22 6 11 22 27 33 89 52 55 63
REMARK Flexibility Score: inf
ROOT
ATOM      1  C   UNL A   1      31.631  27.260  26.751  1.00  0.00     0.023 C 
ENDROOT
BRANCH   1   2
ATOM      2  C   UNL A   1      31.961  25.778  26.597  1.00  0.00     0.116 C 
BRANCH   2   3
ATOM      3  N   UNL A   1      30.848  24.899  26.893  1.00  0.00    -0.356 N 
ATOM      4  C   UNL A   1      30.712  23.551  26.833  1.00  0.00     0.223 C 
ATOM      5  O   UNL A   1      29.703  23.059  27.351  1.00  0.00    -0.275 OA
ATOM      6  H   UNL A   1      30.037  25.368  27.197  1.00  0.00     0.163 HD
BRANCH   4   7
ATOM      7  C   UNL A   1      31.760  22.627  26.226  1.00  0.00     0.088 C 
ATOM      8  C   UNL A   1      32.942  22.563  27.207  1.00  0.00     0.019 C 
BRANCH   7   9
ATOM      9  C   UNL A   1      32.124  22.908  24.742  1.00  0.00     0.095 C 
BRANCH   9  10
ATOM     10  C   UNL A   1      30.994  23.517  23.880  1.00  0.00     0.049 C 
BRANCH  10  11
ATOM     11  C   UNL A   1      31.032  24.970  23.472  1.00  0.00    -0.047 A 
ATOM     12  C   UNL A   1      31.000  27.657  22.653  1.00  0.00     0.118 A 
ATOM     13  C   UNL A   1      29.884  27.106  23.268  1.00  0.00     0.046 A 
ATOM     14  C   UNL A   1      32.132  26.875  22.430  1.00  0.00     0.046 A 
ATOM     15  C   UNL A   1      29.889  25.764  23.641  1.00  0.00     0.007 A 
ATOM     16  C   UNL A   1      32.148  25.534  22.839  1.00  0.00     0.007 A 
BRANCH  12  17
ATOM     17  O   UNL A   1      30.953  28.998  22.392  1.00  0.00    -0.497 OA
ATOM     18  C   UNL A   1      29.725  29.601  22.794  1.00  0.00     0.278 C 
ENDBRANCH  12  17
ENDBRANCH  10  11
ENDBRANCH   9  10
BRANCH   9  19
ATOM     19  C   UNL A   1      32.716  21.636  24.099  1.00  0.00     0.228 C 
ATOM     20  O   UNL A   1      31.956  20.825  23.554  1.00  0.00    -0.274 OA
ATOM     21  N   UNL A   1      34.063  21.435  23.935  1.00  0.00    -0.326 N 
ATOM     22  H   UNL A   1      34.302  20.736  23.284  1.00  0.00     0.169 HD
BRANCH  21  23
ATOM     23  C   UNL A   1      35.147  22.067  24.547  1.00  0.00     0.041 A 
ATOM     24  C   UNL A   1      36.121  21.293  25.176  1.00  0.00     0.026 A 
ATOM     25  C   UNL A   1      35.237  23.458  24.592  1.00  0.00     0.026 A 
ATOM     26  C   UNL A   1      37.262  21.908  25.698  1.00  0.00     0.002 A 
ATOM     27  C   UNL A   1      36.381  24.073  25.102  1.00  0.00     0.002 A 
ATOM     28  C   UNL A   1      37.405  23.295  25.633  1.00  0.00     0.000 A 
ENDBRANCH  21  23
ENDBRANCH   9  19
ENDBRANCH   7   9
ENDBRANCH   4   7
ENDBRANCH   2   3
ENDBRANCH   1   2
BRANCH   1  29
ATOM     29  C   UNL A   1      32.613  28.223  26.087  1.00  0.00     0.023 C 
BRANCH  29  30
ATOM     30  C   UNL A   1      33.835  28.580  26.920  1.00  0.00     0.116 C 
BRANCH  30  31
ATOM     31  N   UNL A   1      33.744  29.900  27.525  1.00  0.00    -0.352 N 
ATOM     32  C   UNL A   1      34.683  30.584  28.257  1.00  0.00     0.251 C 
ATOM     33  H   UNL A   1      32.890  30.370  27.390  1.00  0.00     0.163 HD
ATOM     34  O   UNL A   1      34.391  31.649  28.794  1.00  0.00    -0.269 OA
BRANCH  32  35
ATOM     35  C   UNL A   1      36.032  30.008  28.422  1.00  0.00     0.039 A 
ATOM     36  C   UNL A   1      36.935  30.092  27.359  1.00  0.00     0.014 A 
ATOM     37  C   UNL A   1      36.417  29.433  29.636  1.00  0.00     0.014 A 
ATOM     38  C   UNL A   1      38.253  29.674  27.541  1.00  0.00     0.010 A 
ATOM     39  C   UNL A   1      37.746  29.081  29.837  1.00  0.00     0.010 A 
ATOM     40  C   UNL A   1      38.679  29.209  28.796  1.00  0.00    -0.014 A 
BRANCH  40  41
ATOM     41  C   UNL A   1      40.101  28.878  29.058  1.00  0.00     0.031 A 
ATOM     42  C   UNL A   1      41.034  29.936  29.575  1.00  0.00     0.074 A 
ATOM     43  C   UNL A   1      40.566  27.652  28.743  1.00  0.00     0.049 A 
ATOM     44  N   UNL A   1      42.329  29.881  29.747  1.00  0.00    -0.248 NA
ATOM     45  C   UNL A   1      40.436  31.236  29.918  1.00  0.00     0.031 C 
ATOM     46  C   UNL A   1      39.762  26.558  28.194  1.00  0.00     0.029 A 
ATOM     47  N   UNL A   1      41.833  27.128  28.815  1.00  0.00    -0.354 N 
ATOM     48  C   UNL A   1      42.704  31.139  30.201  1.00  0.00     0.074 A 
ATOM     49  C   UNL A   1      41.505  31.950  30.237  1.00  0.00     0.031 C 
ATOM     50  C   UNL A   1      40.551  25.492  27.989  1.00  0.00     0.029 A 
ATOM     51  C   UNL A   1      41.924  25.839  28.347  1.00  0.00     0.049 A 
ATOM     52  H   UNL A   1      42.603  27.629  29.168  1.00  0.00     0.167 HD
ATOM     53  C   UNL A   1      43.933  31.571  30.571  1.00  0.00     0.037 A 
ATOM     54  C   UNL A   1      42.995  25.035  28.200  1.00  0.00     0.037 A 
ATOM     55  C   UNL A   1      45.112  30.748  30.554  1.00  0.00     0.049 A 
ATOM     56  C   UNL A   1      44.353  25.546  28.593  1.00  0.00     0.074 A 
ATOM     57  C   UNL A   1      46.389  31.069  30.981  1.00  0.00     0.029 A 
ATOM     58  N   UNL A   1      45.163  29.446  30.079  1.00  0.00    -0.354 N 
ATOM     59  N   UNL A   1      44.680  26.717  29.087  1.00  0.00    -0.248 NA
ATOM     60  C   UNL A   1      45.489  24.635  28.403  1.00  0.00     0.031 C 
ATOM     61  C   UNL A   1      47.222  29.975  30.722  1.00  0.00     0.029 A 
ATOM     62  C   UNL A   1      46.456  28.959  30.173  1.00  0.00     0.049 A 
ATOM     63  H   UNL A   1      44.394  28.943  29.728  1.00  0.00     0.167 HD
ATOM     64  C   UNL A   1      46.056  26.678  29.279  1.00  0.00     0.074 A 
ATOM     65  C   UNL A   1      46.499  25.362  28.863  1.00  0.00     0.031 C 
ATOM     66  C   UNL A   1      46.879  27.646  29.751  1.00  0.00     0.037 A 
BRANCH  53  67
ATOM     67  C   UNL A   1      44.060  32.997  31.029  1.00  0.00     0.058 A 
ATOM     68  C   UNL A   1      43.902  33.353  32.378  1.00  0.00     0.135 A 
ATOM     69  C   UNL A   1      44.380  34.015  30.116  1.00  0.00     0.135 A 
ATOM     70  F   UNL A   1      43.580  32.423  33.290  1.00  0.00    -0.206 F 
ATOM     71  C   UNL A   1      44.027  34.672  32.801  1.00  0.00     0.059 A 
ATOM     72  C   UNL A   1      44.537  35.337  30.522  1.00  0.00     0.059 A 
ATOM     73  F   UNL A   1      44.543  33.729  28.815  1.00  0.00    -0.206 F 
ATOM     74  C   UNL A   1      44.345  35.658  31.865  1.00  0.00     0.060 A 
BRANCH  74  75
ATOM     75  S   UNL A   1      44.508  37.363  32.433  1.00  0.00     0.124 S 
ATOM     76  O   UNL A   1      43.521  37.408  33.508  1.00  0.00    -0.237 OA
ATOM     77  O   UNL A   1      45.905  37.420  32.853  1.00  0.00    -0.237 OA
ATOM     78  O   UNL A   1      44.182  38.150  31.247  1.00  0.00    -0.744 OA
ENDBRANCH  74  75
ENDBRANCH  53  67
BRANCH  54  79
ATOM     79  C   UNL A   1      42.823  23.664  27.651  1.00  0.00     0.058 A 
ATOM     80  C   UNL A   1      42.559  22.578  28.497  1.00  0.00     0.135 A 
ATOM     81  C   UNL A   1      42.900  23.415  26.271  1.00  0.00     0.135 A 
ATOM     82  F   UNL A   1      42.483  22.764  29.823  1.00  0.00    -0.206 F 
ATOM     83  C   UNL A   1      42.385  21.290  27.998  1.00  0.00     0.059 A 
ATOM     84  C   UNL A   1      42.708  22.141  25.747  1.00  0.00     0.059 A 
ATOM     85  F   UNL A   1      43.137  24.423  25.417  1.00  0.00    -0.206 F 
ATOM     86  C   UNL A   1      42.458  21.082  26.620  1.00  0.00     0.060 A 
BRANCH  86  87
ATOM     87  S   UNL A   1      42.174  19.419  25.976  1.00  0.00     0.124 S 
ATOM     88  O   UNL A   1      40.735  19.438  25.739  1.00  0.00    -0.237 OA
ATOM     89  O   UNL A   1      43.018  19.402  24.785  1.00  0.00    -0.237 OA
ATOM     90  O   UNL A   1      42.624  18.557  27.065  1.00  0.00    -0.744 OA
ENDBRANCH  86  87
ENDBRANCH  54  79
BRANCH  66  91
ATOM     91  C   UNL A   1      48.343  27.324  29.852  1.00  0.00     0.058 A 
ATOM     92  C   UNL A   1      49.234  27.651  28.818  1.00  0.00     0.135 A 
ATOM     93  C   UNL A   1      48.872  26.757  31.022  1.00  0.00     0.135 A 
ATOM     94  F   UNL A   1      48.777  28.184  27.675  1.00  0.00    -0.206 F 
ATOM     95  C   UNL A   1      50.600  27.423  28.940  1.00  0.00     0.059 A 
ATOM     96  C   UNL A   1      50.237  26.543  31.176  1.00  0.00     0.059 A 
ATOM     97  F   UNL A   1      48.060  26.432  32.041  1.00  0.00    -0.206 F 
ATOM     98  C   UNL A   1      51.094  26.875  30.127  1.00  0.00     0.060 A 
BRANCH  98  99
ATOM     99  S   UNL A   1      52.876  26.645  30.295  1.00  0.00     0.124 S 
ATOM    100  O   UNL A   1      52.944  25.623  31.335  1.00  0.00    -0.237 OA
ATOM    101  O   UNL A   1      53.265  26.213  28.956  1.00  0.00    -0.237 OA
ATOM    102  O   UNL A   1      53.355  27.969  30.682  1.00  0.00    -0.744 OA
ENDBRANCH  98  99
ENDBRANCH  66  91
ENDBRANCH  40  41
ENDBRANCH  32  35
ENDBRANCH  30  31
ENDBRANCH  29  30
ENDBRANCH   1  29
TORSDOF 20
ENDMDL
MODEL 3
REMARK VINA RESULT:     -11.0      2.895      3.998
REMARK SMILES COc1ccc(C[C@H](C(=O)Nc2ccccc2)[C@@H](C)C(=O)NCCCCNC(=O)c2ccc(-c3c4nc(c(-c5c(F)cc(S(=O)(=O)[O-])cc5F)c5ccc([nH]5)c(-c5c(F)cc(S(=O)(=O)[O-])cc5F)c5nc(c(-c6c(F)cc(S(=O)(=O)[O-])cc6F)c6ccc3[nH]6)C=C5)C=C4)cc2)cc1
REMARK SMILES IDX 24 1 23 2 22 3 20 4 21 5 18 7 19 8 8 9 7 10 6 11 3 12 4 13
REMARK SMILES IDX 97 14 5 15 96 16 2 17 1 18 9 19 10 20 11 21 12 23 13 24
REMARK SMILES IDX 17 25 14 26 16 27 15 28 25 29 26 30 27 31 28 32 29 34 30 35
REMARK SMILES IDX 31 36 95 37 32 38 94 39 33 40 34 41 35 42 88 43 36 44 93 45
REMARK SMILES IDX 87 46 89 47 37 48 92 49 86 50 85 51 38 53 72 54 51 55 71 56
REMARK SMILES IDX 52 57 55 58 70 59 90 60 53 61 54 62 69 64 91 65 56 66 39 67
REMARK SMILES IDX 40 68 49 69 41 70 42 71 48 72 50 73 43 74 44 75 45 76 46 77
REMARK SMILES IDX 47 78 73 79 74 80 83 81 75 82 76 83 82 84 84 85 77 86 78 87
REMARK SMILES IDX 79 88 80 89 81 90 57 91 58 92 67 93 59 94 60 95 66 96 68 97
REMARK SMILES IDX 61 98 62 99 63 100 64 101 65 102
REMARK H PARENT 22 6 11 22 27 33 89 52 55 63
REMARK Flexibility Score: inf
ROOT
ATOM      1  C   UNL A   1      34.779  32.198  28.063  1.00  0.00     0.023 C 
ENDROOT
BRANCH   1   2
ATOM      2  C   UNL A   1      34.696  30.785  27.490  1.00  0.00     0.116 C 
BRANCH   2   3
ATOM      3  N   UNL A   1      33.481  30.081  27.848  1.00  0.00    -0.356 N 
ATOM      4  C   UNL A   1      32.475  29.563  27.101  1.00  0.00     0.223 C 
ATOM      5  O   UNL A   1      31.664  28.827  27.674  1.00  0.00    -0.275 OA
ATOM      6  H   UNL A   1      33.365  29.953  28.818  1.00  0.00     0.163 HD
BRANCH   4   7
ATOM      7  C   UNL A   1      32.340  29.791  25.601  1.00  0.00     0.088 C 
ATOM      8  C   UNL A   1      31.047  30.592  25.372  1.00  0.00     0.019 C 
BRANCH   7   9
ATOM      9  C   UNL A   1      32.525  28.531  24.711  1.00  0.00     0.095 C 
BRANCH   9  10
ATOM     10  C   UNL A   1      33.649  27.564  25.147  1.00  0.00     0.049 C 
BRANCH  10  11
ATOM     11  C   UNL A   1      33.323  26.180  25.655  1.00  0.00    -0.047 A 
ATOM     12  C   UNL A   1      32.760  23.559  26.497  1.00  0.00     0.118 A 
ATOM     13  C   UNL A   1      34.037  23.889  26.063  1.00  0.00     0.046 A 
ATOM     14  C   UNL A   1      31.753  24.524  26.503  1.00  0.00     0.046 A 
ATOM     15  C   UNL A   1      34.305  25.180  25.613  1.00  0.00     0.007 A 
ATOM     16  C   UNL A   1      32.034  25.832  26.083  1.00  0.00     0.007 A 
BRANCH  12  17
ATOM     17  O   UNL A   1      32.594  22.300  27.003  1.00  0.00    -0.497 OA
ATOM     18  C   UNL A   1      33.776  21.785  27.612  1.00  0.00     0.278 C 
ENDBRANCH  12  17
ENDBRANCH  10  11
ENDBRANCH   9  10
BRANCH   9  19
ATOM     19  C   UNL A   1      32.669  28.952  23.233  1.00  0.00     0.228 C 
ATOM     20  O   UNL A   1      33.794  29.213  22.787  1.00  0.00    -0.274 OA
ATOM     21  N   UNL A   1      31.641  28.880  22.328  1.00  0.00    -0.326 N 
ATOM     22  H   UNL A   1      31.916  28.912  21.384  1.00  0.00     0.169 HD
BRANCH  21  23
ATOM     23  C   UNL A   1      30.265  28.770  22.538  1.00  0.00     0.041 A 
ATOM     24  C   UNL A   1      29.762  27.638  23.177  1.00  0.00     0.026 A 
ATOM     25  C   UNL A   1      29.385  29.743  22.065  1.00  0.00     0.026 A 
ATOM     26  C   UNL A   1      28.401  27.567  23.488  1.00  0.00     0.002 A 
ATOM     27  C   UNL A   1      28.029  29.680  22.384  1.00  0.00     0.002 A 
ATOM     28  C   UNL A   1      27.541  28.602  23.118  1.00  0.00     0.000 A 
ENDBRANCH  21  23
ENDBRANCH   9  19
ENDBRANCH   7   9
ENDBRANCH   4   7
ENDBRANCH   2   3
ENDBRANCH   1   2
BRANCH   1  29
ATOM     29  C   UNL A   1      36.166  32.836  28.034  1.00  0.00     0.023 C 
BRANCH  29  30
ATOM     30  C   UNL A   1      36.836  32.995  29.390  1.00  0.00     0.116 C 
BRANCH  30  31
ATOM     31  N   UNL A   1      36.193  32.214  30.436  1.00  0.00    -0.352 N 
ATOM     32  C   UNL A   1      36.575  31.011  30.977  1.00  0.00     0.251 C 
ATOM     33  H   UNL A   1      35.369  32.602  30.810  1.00  0.00     0.163 HD
ATOM     34  O   UNL A   1      35.843  30.435  31.777  1.00  0.00    -0.269 OA
BRANCH  32  35
ATOM     35  C   UNL A   1      37.853  30.403  30.559  1.00  0.00     0.039 A 
ATOM     36  C   UNL A   1      38.002  29.995  29.231  1.00  0.00     0.014 A 
ATOM     37  C   UNL A   1      38.912  30.281  31.462  1.00  0.00     0.014 A 
ATOM     38  C   UNL A   1      39.244  29.542  28.786  1.00  0.00     0.010 A 
ATOM     39  C   UNL A   1      40.166  29.895  31.001  1.00  0.00     0.010 A 
ATOM     40  C   UNL A   1      40.346  29.533  29.656  1.00  0.00    -0.014 A 
BRANCH  40  41
ATOM     41  C   UNL A   1      41.706  29.180  29.182  1.00  0.00     0.031 A 
ATOM     42  C   UNL A   1      42.759  30.245  29.062  1.00  0.00     0.074 A 
ATOM     43  C   UNL A   1      41.960  27.920  28.775  1.00  0.00     0.049 A 
ATOM     44  N   UNL A   1      43.960  30.163  28.552  1.00  0.00    -0.248 NA
ATOM     45  C   UNL A   1      42.403  31.586  29.554  1.00  0.00     0.031 C 
ATOM     46  C   UNL A   1      41.003  26.812  28.805  1.00  0.00     0.029 A 
ATOM     47  N   UNL A   1      43.092  27.364  28.233  1.00  0.00    -0.354 N 
ATOM     48  C   UNL A   1      44.497  31.441  28.646  1.00  0.00     0.074 A 
ATOM     49  C   UNL A   1      43.476  32.289  29.222  1.00  0.00     0.031 C 
ATOM     50  C   UNL A   1      41.590  25.709  28.315  1.00  0.00     0.029 A 
ATOM     51  C   UNL A   1      42.948  26.040  27.892  1.00  0.00     0.049 A 
ATOM     52  H   UNL A   1      43.929  27.866  28.101  1.00  0.00     0.167 HD
ATOM     53  C   UNL A   1      45.737  31.862  28.300  1.00  0.00     0.037 A 
ATOM     54  C   UNL A   1      43.803  25.195  27.285  1.00  0.00     0.037 A 
ATOM     55  C   UNL A   1      46.753  31.004  27.751  1.00  0.00     0.049 A 
ATOM     56  C   UNL A   1      45.165  25.692  26.886  1.00  0.00     0.074 A 
ATOM     57  C   UNL A   1      48.063  31.317  27.438  1.00  0.00     0.029 A 
ATOM     58  N   UNL A   1      46.571  29.668  27.425  1.00  0.00    -0.354 N 
ATOM     59  N   UNL A   1      45.683  26.887  27.046  1.00  0.00    -0.248 NA
ATOM     60  C   UNL A   1      46.056  24.735  26.218  1.00  0.00     0.031 C 
ATOM     61  C   UNL A   1      48.662  30.182  26.880  1.00  0.00     0.029 A 
ATOM     62  C   UNL A   1      47.735  29.150  26.885  1.00  0.00     0.049 A 
ATOM     63  H   UNL A   1      45.737  29.164  27.558  1.00  0.00     0.167 HD
ATOM     64  C   UNL A   1      46.964  26.821  26.510  1.00  0.00     0.074 A 
ATOM     65  C   UNL A   1      47.149  25.464  26.037  1.00  0.00     0.031 C 
ATOM     66  C   UNL A   1      47.900  27.797  26.415  1.00  0.00     0.037 A 
BRANCH  53  67
ATOM     67  C   UNL A   1      46.062  33.314  28.510  1.00  0.00     0.058 A 
ATOM     68  C   UNL A   1      45.828  34.272  27.510  1.00  0.00     0.135 A 
ATOM     69  C   UNL A   1      46.580  33.760  29.736  1.00  0.00     0.135 A 
ATOM     70  F   UNL A   1      45.349  33.898  26.314  1.00  0.00    -0.206 F 
ATOM     71  C   UNL A   1      46.123  35.617  27.709  1.00  0.00     0.059 A 
ATOM     72  C   UNL A   1      46.858  35.105  29.966  1.00  0.00     0.059 A 
ATOM     73  F   UNL A   1      46.823  32.887  30.726  1.00  0.00    -0.206 F 
ATOM     74  C   UNL A   1      46.639  36.024  28.940  1.00  0.00     0.060 A 
BRANCH  74  75
ATOM     75  S   UNL A   1      47.012  37.774  29.182  1.00  0.00     0.124 S 
ATOM     76  O   UNL A   1      48.200  37.936  28.349  1.00  0.00    -0.237 OA
ATOM     77  O   UNL A   1      45.800  38.422  28.689  1.00  0.00    -0.237 OA
ATOM     78  O   UNL A   1      47.235  37.879  30.621  1.00  0.00    -0.744 OA
ENDBRANCH  74  75
ENDBRANCH  53  67
BRANCH  54  79
ATOM     79  C   UNL A   1      43.393  23.791  27.015  1.00  0.00     0.058 A 
ATOM     80  C   UNL A   1      43.076  23.371  25.716  1.00  0.00     0.135 A 
ATOM     81  C   UNL A   1      43.330  22.838  28.044  1.00  0.00     0.135 A 
ATOM     82  F   UNL A   1      43.114  24.247  24.700  1.00  0.00    -0.206 F 
ATOM     83  C   UNL A   1      42.701  22.058  25.445  1.00  0.00     0.059 A 
ATOM     84  C   UNL A   1      42.980  21.516  27.795  1.00  0.00     0.059 A 
ATOM     85  F   UNL A   1      43.639  23.186  29.303  1.00  0.00    -0.206 F 
ATOM     86  C   UNL A   1      42.659  21.137  26.492  1.00  0.00     0.060 A 
BRANCH  86  87
ATOM     87  S   UNL A   1      42.228  19.422  26.123  1.00  0.00     0.124 S 
ATOM     88  O   UNL A   1      42.627  18.748  27.353  1.00  0.00    -0.237 OA
ATOM     89  O   UNL A   1      40.792  19.511  25.879  1.00  0.00    -0.237 OA
ATOM     90  O   UNL A   1      43.036  19.120  24.945  1.00  0.00    -0.744 OA
ENDBRANCH  86  87
ENDBRANCH  54  79
BRANCH  66  91
ATOM     91  C   UNL A   1      49.214  27.438  25.780  1.00  0.00     0.058 A 
ATOM     92  C   UNL A   1      50.317  27.051  26.557  1.00  0.00     0.135 A 
ATOM     93  C   UNL A   1      49.348  27.403  24.383  1.00  0.00     0.135 A 
ATOM     94  F   UNL A   1      50.243  27.078  27.896  1.00  0.00    -0.206 F 
ATOM     95  C   UNL A   1      51.510  26.645  25.969  1.00  0.00     0.059 A 
ATOM     96  C   UNL A   1      50.523  26.978  23.774  1.00  0.00     0.059 A 
ATOM     97  F   UNL A   1      48.319  27.758  23.598  1.00  0.00    -0.206 F 
ATOM     98  C   UNL A   1      51.601  26.605  24.576  1.00  0.00     0.060 A 
BRANCH  98  99
ATOM     99  S   UNL A   1      53.134  26.014  23.828  1.00  0.00     0.124 S 
ATOM    100  O   UNL A   1      52.786  26.003  22.411  1.00  0.00    -0.237 OA
ATOM    101  O   UNL A   1      54.095  27.035  24.236  1.00  0.00    -0.237 OA
ATOM    102  O   UNL A   1      53.327  24.702  24.439  1.00  0.00    -0.744 OA
ENDBRANCH  98  99
ENDBRANCH  66  91
ENDBRANCH  40  41
ENDBRANCH  32  35
ENDBRANCH  30  31
ENDBRANCH  29  30
ENDBRANCH   1  29
TORSDOF 20
ENDMDL
