MODEL 1
REMARK VINA RESULT:     -11.1      0.000      0.000
REMARK SMILES CCC(CC)(CC(=O)NNC(=O)c1cc(C)oc1C)C(=O)NCCCCNC(=O)c1ccc(-c2c3nc(c(-c4c(F)cc(S(=O)(=O)[O-])cc4F)c4ccc([nH]4)c(-c4c(F)cc(S(=O)(=O)[O-])cc4F)c4nc(c(-c5c(F)cc(S(=O)(=O)[O-])cc5F)c5ccc2[nH]5)C=C4)C=C3)cc1
REMARK SMILES IDX 24 1 23 2 22 3 20 4 21 5 3 7 2 8 1 9 4 10 5 11 6 12 7 13
REMARK SMILES IDX 8 14 9 15 10 17 11 18 12 20 13 21 14 22 18 23 15 24 17 25
REMARK SMILES IDX 19 26 16 27 25 28 26 29 27 30 28 31 29 33 30 34 31 35 95 36
REMARK SMILES IDX 32 37 94 38 33 39 34 40 35 41 88 42 36 43 93 44 87 45 89 46
REMARK SMILES IDX 37 47 92 48 86 49 85 50 38 52 72 53 51 54 71 55 52 56 55 57
REMARK SMILES IDX 70 58 90 59 53 60 54 61 69 63 91 64 56 65 39 66 40 67 49 68
REMARK SMILES IDX 41 69 42 70 48 71 50 72 43 73 44 74 45 75 46 76 47 77 73 78
REMARK SMILES IDX 74 79 83 80 75 81 76 82 82 83 84 84 77 85 78 86 79 87 80 88
REMARK SMILES IDX 81 89 57 90 58 91 67 92 59 93 60 94 66 95 68 96 61 97 62 98
REMARK SMILES IDX 63 99 64 100 65 101
REMARK H PARENT 22 6 9 16 10 19 27 32 89 51 55 62
REMARK Flexibility Score: inf
ROOT
ATOM      1  C   UNL A   1      36.648  23.371  24.884  1.00  0.00     0.023 C 
ENDROOT
BRANCH   1   2
ATOM      2  C   UNL A   1      35.871  22.177  24.331  1.00  0.00     0.116 C 
BRANCH   2   3
ATOM      3  N   UNL A   1      34.645  22.562  23.658  1.00  0.00    -0.356 N 
ATOM      4  C   UNL A   1      33.335  22.562  24.016  1.00  0.00     0.226 C 
ATOM      5  O   UNL A   1      32.549  22.963  23.150  1.00  0.00    -0.274 OA
ATOM      6  H   UNL A   1      34.794  22.896  22.743  1.00  0.00     0.163 HD
BRANCH   4   7
ATOM      7  C   UNL A   1      32.817  22.088  25.403  1.00  0.00     0.057 C 
BRANCH   7   8
ATOM      8  C   UNL A   1      33.329  23.100  26.493  1.00  0.00     0.014 C 
ATOM      9  C   UNL A   1      34.087  22.499  27.677  1.00  0.00     0.005 C 
ENDBRANCH   7   8
BRANCH   7  10
ATOM     10  C   UNL A   1      33.352  20.659  25.722  1.00  0.00     0.014 C 
ATOM     11  C   UNL A   1      32.820  19.542  24.828  1.00  0.00     0.005 C 
ENDBRANCH   7  10
BRANCH   7  12
ATOM     12  C   UNL A   1      31.263  22.124  25.431  1.00  0.00     0.118 C 
BRANCH  12  13
ATOM     13  C   UNL A   1      30.667  23.255  26.257  1.00  0.00     0.239 C 
ATOM     14  O   UNL A   1      30.534  23.149  27.477  1.00  0.00    -0.273 OA
ATOM     15  N   UNL A   1      30.300  24.429  25.654  1.00  0.00    -0.267 N 
ATOM     16  H   UNL A   1      29.884  25.118  26.221  1.00  0.00     0.191 HD
BRANCH  15  17
ATOM     17  N   UNL A   1      30.466  24.732  24.304  1.00  0.00    -0.263 N 
ATOM     18  C   UNL A   1      30.883  25.955  23.815  1.00  0.00     0.273 C 
ATOM     19  H   UNL A   1      30.272  24.021  23.651  1.00  0.00     0.191 HD
ATOM     20  O   UNL A   1      30.679  26.219  22.630  1.00  0.00    -0.267 OA
BRANCH  18  21
ATOM     21  C   UNL A   1      31.573  26.876  24.701  1.00  0.00     0.082 A 
ATOM     22  C   UNL A   1      31.051  27.890  25.559  1.00  0.00     0.059 A 
ATOM     23  C   UNL A   1      32.936  26.858  24.947  1.00  0.00     0.113 A 
ATOM     24  C   UNL A   1      32.121  28.431  26.236  1.00  0.00     0.101 A 
ATOM     25  O   UNL A   1      33.270  27.804  25.867  1.00  0.00    -0.466 OA
ATOM     26  C   UNL A   1      34.050  26.037  24.427  1.00  0.00     0.088 C 
ATOM     27  C   UNL A   1      32.254  29.487  27.257  1.00  0.00     0.087 C 
ENDBRANCH  18  21
ENDBRANCH  15  17
ENDBRANCH  12  13
ENDBRANCH   7  12
ENDBRANCH   4   7
ENDBRANCH   2   3
ENDBRANCH   1   2
BRANCH   1  28
ATOM     28  C   UNL A   1      37.676  23.062  25.979  1.00  0.00     0.023 C 
BRANCH  28  29
ATOM     29  C   UNL A   1      38.417  24.261  26.570  1.00  0.00     0.116 C 
BRANCH  29  30
ATOM     30  N   UNL A   1      39.626  24.603  25.840  1.00  0.00    -0.352 N 
ATOM     31  C   UNL A   1      40.597  25.529  26.132  1.00  0.00     0.251 C 
ATOM     32  H   UNL A   1      39.770  24.095  25.010  1.00  0.00     0.163 HD
ATOM     33  O   UNL A   1      41.505  25.718  25.327  1.00  0.00    -0.269 OA
BRANCH  31  34
ATOM     34  C   UNL A   1      40.545  26.323  27.382  1.00  0.00     0.039 A 
ATOM     35  C   UNL A   1      41.369  27.450  27.479  1.00  0.00     0.014 A 
ATOM     36  C   UNL A   1      39.734  25.956  28.460  1.00  0.00     0.014 A 
ATOM     37  C   UNL A   1      41.332  28.247  28.626  1.00  0.00     0.010 A 
ATOM     38  C   UNL A   1      39.682  26.765  29.598  1.00  0.00     0.010 A 
ATOM     39  C   UNL A   1      40.470  27.922  29.683  1.00  0.00    -0.014 A 
BRANCH  39  40
ATOM     40  C   UNL A   1      40.357  28.806  30.866  1.00  0.00     0.031 A 
ATOM     41  C   UNL A   1      39.319  29.886  30.919  1.00  0.00     0.074 A 
ATOM     42  C   UNL A   1      41.227  28.660  31.883  1.00  0.00     0.049 A 
ATOM     43  N   UNL A   1      39.150  30.820  31.819  1.00  0.00    -0.248 NA
ATOM     44  C   UNL A   1      38.352  29.925  29.813  1.00  0.00     0.031 C 
ATOM     45  C   UNL A   1      42.293  27.659  31.946  1.00  0.00     0.029 A 
ATOM     46  N   UNL A   1      41.355  29.361  33.054  1.00  0.00    -0.354 N 
ATOM     47  C   UNL A   1      38.085  31.588  31.370  1.00  0.00     0.074 A 
ATOM     48  C   UNL A   1      37.630  30.992  30.129  1.00  0.00     0.031 C 
ATOM     49  C   UNL A   1      42.962  27.807  33.102  1.00  0.00     0.029 A 
ATOM     50  C   UNL A   1      42.383  28.920  33.848  1.00  0.00     0.049 A 
ATOM     51  H   UNL A   1      40.765  30.110  33.301  1.00  0.00     0.167 HD
ATOM     52  C   UNL A   1      37.546  32.697  31.931  1.00  0.00     0.037 A 
ATOM     53  C   UNL A   1      42.818  29.367  35.041  1.00  0.00     0.037 A 
ATOM     54  C   UNL A   1      37.972  33.278  33.176  1.00  0.00     0.049 A 
ATOM     55  C   UNL A   1      42.144  30.539  35.689  1.00  0.00     0.074 A 
ATOM     56  C   UNL A   1      37.500  34.416  33.808  1.00  0.00     0.029 A 
ATOM     57  N   UNL A   1      38.962  32.751  33.990  1.00  0.00    -0.354 N 
ATOM     58  N   UNL A   1      41.163  31.277  35.231  1.00  0.00    -0.248 NA
ATOM     59  C   UNL A   1      42.640  30.939  37.013  1.00  0.00     0.031 C 
ATOM     60  C   UNL A   1      38.200  34.570  35.013  1.00  0.00     0.029 A 
ATOM     61  C   UNL A   1      39.105  33.528  35.128  1.00  0.00     0.049 A 
ATOM     62  H   UNL A   1      39.487  31.943  33.791  1.00  0.00     0.167 HD
ATOM     63  C   UNL A   1      40.928  32.237  36.206  1.00  0.00     0.074 A 
ATOM     64  C   UNL A   1      41.860  31.979  37.286  1.00  0.00     0.031 C 
ATOM     65  C   UNL A   1      40.028  33.251  36.198  1.00  0.00     0.037 A 
BRANCH  52  66
ATOM     66  C   UNL A   1      36.442  33.359  31.166  1.00  0.00     0.058 A 
ATOM     67  C   UNL A   1      36.703  34.094  30.001  1.00  0.00     0.135 A 
ATOM     68  C   UNL A   1      35.119  33.291  31.627  1.00  0.00     0.135 A 
ATOM     69  F   UNL A   1      37.957  34.199  29.535  1.00  0.00    -0.206 F 
ATOM     70  C   UNL A   1      35.688  34.766  29.327  1.00  0.00     0.059 A 
ATOM     71  C   UNL A   1      34.089  33.953  30.969  1.00  0.00     0.059 A 
ATOM     72  F   UNL A   1      34.826  32.609  32.745  1.00  0.00    -0.206 F 
ATOM     73  C   UNL A   1      34.386  34.703  29.830  1.00  0.00     0.060 A 
BRANCH  73  74
ATOM     74  S   UNL A   1      33.060  35.611  29.007  1.00  0.00     0.124 S 
ATOM     75  O   UNL A   1      32.292  36.098  30.148  1.00  0.00    -0.237 OA
ATOM     76  O   UNL A   1      33.777  36.632  28.247  1.00  0.00    -0.237 OA
ATOM     77  O   UNL A   1      32.413  34.579  28.203  1.00  0.00    -0.744 OA
ENDBRANCH  73  74
ENDBRANCH  52  66
BRANCH  53  78
ATOM     78  C   UNL A   1      43.959  28.686  35.692  1.00  0.00     0.058 A 
ATOM     79  C   UNL A   1      43.744  27.621  36.577  1.00  0.00     0.135 A 
ATOM     80  C   UNL A   1      45.279  29.043  35.386  1.00  0.00     0.135 A 
ATOM     81  F   UNL A   1      42.494  27.249  36.890  1.00  0.00    -0.206 F 
ATOM     82  C   UNL A   1      44.807  26.917  37.133  1.00  0.00     0.059 A 
ATOM     83  C   UNL A   1      46.357  28.353  35.927  1.00  0.00     0.059 A 
ATOM     84  F   UNL A   1      45.523  30.051  34.536  1.00  0.00    -0.206 F 
ATOM     85  C   UNL A   1      46.111  27.289  36.799  1.00  0.00     0.060 A 
BRANCH  85  86
ATOM     86  S   UNL A   1      47.504  26.328  37.429  1.00  0.00     0.124 S 
ATOM     87  O   UNL A   1      48.550  27.341  37.502  1.00  0.00    -0.237 OA
ATOM     88  O   UNL A   1      47.008  25.834  38.711  1.00  0.00    -0.237 OA
ATOM     89  O   UNL A   1      47.676  25.305  36.402  1.00  0.00    -0.744 OA
ENDBRANCH  85  86
ENDBRANCH  53  78
BRANCH  65  90
ATOM     90  C   UNL A   1      40.015  34.148  37.397  1.00  0.00     0.058 A 
ATOM     91  C   UNL A   1      40.866  35.260  37.473  1.00  0.00     0.135 A 
ATOM     92  C   UNL A   1      39.146  33.903  38.471  1.00  0.00     0.135 A 
ATOM     93  F   UNL A   1      41.716  35.530  36.469  1.00  0.00    -0.206 F 
ATOM     94  C   UNL A   1      40.865  36.099  38.583  1.00  0.00     0.059 A 
ATOM     95  C   UNL A   1      39.129  34.728  39.590  1.00  0.00     0.059 A 
ATOM     96  F   UNL A   1      38.320  32.846  38.443  1.00  0.00    -0.206 F 
ATOM     97  C   UNL A   1      39.999  35.818  39.641  1.00  0.00     0.060 A 
BRANCH  97  98
ATOM     98  S   UNL A   1      39.979  36.903  41.086  1.00  0.00     0.124 S 
ATOM     99  O   UNL A   1      41.308  37.503  41.020  1.00  0.00    -0.237 OA
ATOM    100  O   UNL A   1      38.864  37.802  40.806  1.00  0.00    -0.237 OA
ATOM    101  O   UNL A   1      39.760  35.972  42.189  1.00  0.00    -0.744 OA
ENDBRANCH  97  98
ENDBRANCH  65  90
ENDBRANCH  39  40
ENDBRANCH  31  34
ENDBRANCH  29  30
ENDBRANCH  28  29
ENDBRANCH   1  28
TORSDOF 20
ENDMDL
MODEL 2
REMARK VINA RESULT:     -11.1      1.220      8.135
REMARK SMILES CCC(CC)(CC(=O)NNC(=O)c1cc(C)oc1C)C(=O)NCCCCNC(=O)c1ccc(-c2c3nc(c(-c4c(F)cc(S(=O)(=O)[O-])cc4F)c4ccc([nH]4)c(-c4c(F)cc(S(=O)(=O)[O-])cc4F)c4nc(c(-c5c(F)cc(S(=O)(=O)[O-])cc5F)c5ccc2[nH]5)C=C4)C=C3)cc1
REMARK SMILES IDX 24 1 23 2 22 3 20 4 21 5 3 7 2 8 1 9 4 10 5 11 6 12 7 13
REMARK SMILES IDX 8 14 9 15 10 17 11 18 12 20 13 21 14 22 18 23 15 24 17 25
REMARK SMILES IDX 19 26 16 27 25 28 26 29 27 30 28 31 29 33 30 34 31 35 95 36
REMARK SMILES IDX 32 37 94 38 33 39 34 40 35 41 88 42 36 43 93 44 87 45 89 46
REMARK SMILES IDX 37 47 92 48 86 49 85 50 38 52 72 53 51 54 71 55 52 56 55 57
REMARK SMILES IDX 70 58 90 59 53 60 54 61 69 63 91 64 56 65 39 66 40 67 49 68
REMARK SMILES IDX 41 69 42 70 48 71 50 72 43 73 44 74 45 75 46 76 47 77 73 78
REMARK SMILES IDX 74 79 83 80 75 81 76 82 82 83 84 84 77 85 78 86 79 87 80 88
REMARK SMILES IDX 81 89 57 90 58 91 67 92 59 93 60 94 66 95 68 96 61 97 62 98
REMARK SMILES IDX 63 99 64 100 65 101
REMARK H PARENT 22 6 9 16 10 19 27 32 89 51 55 62
REMARK Flexibility Score: inf
ROOT
ATOM      1  C   UNL A   1      38.066  21.731  25.483  1.00  0.00     0.023 C 
ENDROOT
BRANCH   1   2
ATOM      2  C   UNL A   1      37.064  21.269  24.425  1.00  0.00     0.116 C 
BRANCH   2   3
ATOM      3  N   UNL A   1      36.448  22.371  23.710  1.00  0.00    -0.356 N 
ATOM      4  C   UNL A   1      35.178  22.845  23.627  1.00  0.00     0.226 C 
ATOM      5  O   UNL A   1      35.026  23.825  22.888  1.00  0.00    -0.274 OA
ATOM      6  H   UNL A   1      37.088  22.887  23.168  1.00  0.00     0.163 HD
BRANCH   4   7
ATOM      7  C   UNL A   1      33.970  22.222  24.382  1.00  0.00     0.057 C 
BRANCH   7   8
ATOM      8  C   UNL A   1      33.476  23.254  25.461  1.00  0.00     0.014 C 
ATOM      9  C   UNL A   1      34.494  23.665  26.525  1.00  0.00     0.005 C 
ENDBRANCH   7   8
BRANCH   7  10
ATOM     10  C   UNL A   1      34.395  20.895  25.081  1.00  0.00     0.014 C 
ATOM     11  C   UNL A   1      33.681  19.636  24.595  1.00  0.00     0.005 C 
ENDBRANCH   7  10
BRANCH   7  12
ATOM     12  C   UNL A   1      32.793  21.983  23.395  1.00  0.00     0.118 C 
BRANCH  12  13
ATOM     13  C   UNL A   1      31.607  22.919  23.580  1.00  0.00     0.239 C 
ATOM     14  O   UNL A   1      30.758  22.705  24.447  1.00  0.00    -0.273 OA
ATOM     15  N   UNL A   1      31.486  24.040  22.802  1.00  0.00    -0.267 N 
ATOM     16  H   UNL A   1      30.683  24.595  22.932  1.00  0.00     0.191 HD
BRANCH  15  17
ATOM     17  N   UNL A   1      32.404  24.462  21.843  1.00  0.00    -0.263 N 
ATOM     18  C   UNL A   1      32.574  25.772  21.436  1.00  0.00     0.273 C 
ATOM     19  H   UNL A   1      32.972  23.776  21.424  1.00  0.00     0.191 HD
ATOM     20  O   UNL A   1      33.155  25.990  20.373  1.00  0.00    -0.267 OA
BRANCH  18  21
ATOM     21  C   UNL A   1      32.093  26.847  22.285  1.00  0.00     0.082 A 
ATOM     22  C   UNL A   1      30.918  27.650  22.174  1.00  0.00     0.059 A 
ATOM     23  C   UNL A   1      32.686  27.235  23.475  1.00  0.00     0.113 A 
ATOM     24  C   UNL A   1      30.894  28.479  23.273  1.00  0.00     0.101 A 
ATOM     25  O   UNL A   1      31.968  28.227  24.068  1.00  0.00    -0.466 OA
ATOM     26  C   UNL A   1      33.897  26.790  24.197  1.00  0.00     0.088 C 
ATOM     27  C   UNL A   1      29.958  29.515  23.749  1.00  0.00     0.087 C 
ENDBRANCH  18  21
ENDBRANCH  15  17
ENDBRANCH  12  13
ENDBRANCH   7  12
ENDBRANCH   4   7
ENDBRANCH   2   3
ENDBRANCH   1   2
BRANCH   1  28
ATOM     28  C   UNL A   1      37.623  22.898  26.373  1.00  0.00     0.023 C 
BRANCH  28  29
ATOM     29  C   UNL A   1      38.463  24.172  26.287  1.00  0.00     0.116 C 
BRANCH  29  30
ATOM     30  N   UNL A   1      39.869  23.915  26.028  1.00  0.00    -0.352 N 
ATOM     31  C   UNL A   1      40.984  24.554  26.513  1.00  0.00     0.251 C 
ATOM     32  H   UNL A   1      40.051  23.169  25.411  1.00  0.00     0.163 HD
ATOM     33  O   UNL A   1      42.091  24.224  26.096  1.00  0.00    -0.269 OA
BRANCH  31  34
ATOM     34  C   UNL A   1      40.866  25.653  27.499  1.00  0.00     0.039 A 
ATOM     35  C   UNL A   1      39.846  25.574  28.454  1.00  0.00     0.014 A 
ATOM     36  C   UNL A   1      41.712  26.766  27.473  1.00  0.00     0.014 A 
ATOM     37  C   UNL A   1      39.714  26.572  29.423  1.00  0.00     0.010 A 
ATOM     38  C   UNL A   1      41.594  27.753  28.454  1.00  0.00     0.010 A 
ATOM     39  C   UNL A   1      40.603  27.656  29.443  1.00  0.00    -0.014 A 
BRANCH  39  40
ATOM     40  C   UNL A   1      40.530  28.674  30.516  1.00  0.00     0.031 A 
ATOM     41  C   UNL A   1      41.460  28.619  31.690  1.00  0.00     0.074 A 
ATOM     42  C   UNL A   1      39.587  29.632  30.452  1.00  0.00     0.049 A 
ATOM     43  N   UNL A   1      41.465  29.354  32.771  1.00  0.00    -0.248 NA
ATOM     44  C   UNL A   1      42.517  27.598  31.645  1.00  0.00     0.031 C 
ATOM     45  C   UNL A   1      38.610  29.786  29.371  1.00  0.00     0.029 A 
ATOM     46  N   UNL A   1      39.291  30.651  31.319  1.00  0.00    -0.354 N 
ATOM     47  C   UNL A   1      42.495  28.861  33.559  1.00  0.00     0.074 A 
ATOM     48  C   UNL A   1      43.112  27.780  32.817  1.00  0.00     0.031 C 
ATOM     49  C   UNL A   1      37.828  30.845  29.639  1.00  0.00     0.029 A 
ATOM     50  C   UNL A   1      38.237  31.430  30.913  1.00  0.00     0.049 A 
ATOM     51  H   UNL A   1      39.789  30.810  32.155  1.00  0.00     0.167 HD
ATOM     52  C   UNL A   1      42.882  29.262  34.794  1.00  0.00     0.037 A 
ATOM     53  C   UNL A   1      37.658  32.491  31.503  1.00  0.00     0.037 A 
ATOM     54  C   UNL A   1      42.294  30.352  35.526  1.00  0.00     0.049 A 
ATOM     55  C   UNL A   1      38.164  32.977  32.827  1.00  0.00     0.074 A 
ATOM     56  C   UNL A   1      42.605  30.813  36.794  1.00  0.00     0.029 A 
ATOM     57  N   UNL A   1      41.283  31.168  35.042  1.00  0.00    -0.354 N 
ATOM     58  N   UNL A   1      39.115  32.475  33.576  1.00  0.00    -0.248 NA
ATOM     59  C   UNL A   1      37.516  34.171  33.387  1.00  0.00     0.031 C 
ATOM     60  C   UNL A   1      41.787  31.917  37.072  1.00  0.00     0.029 A 
ATOM     61  C   UNL A   1      40.969  32.141  35.977  1.00  0.00     0.049 A 
ATOM     62  H   UNL A   1      40.852  31.072  34.163  1.00  0.00     0.167 HD
ATOM     63  C   UNL A   1      39.175  33.285  34.702  1.00  0.00     0.074 A 
ATOM     64  C   UNL A   1      38.173  34.319  34.531  1.00  0.00     0.031 C 
ATOM     65  C   UNL A   1      39.980  33.170  35.787  1.00  0.00     0.037 A 
BRANCH  52  66
ATOM     66  C   UNL A   1      43.989  28.480  35.430  1.00  0.00     0.058 A 
ATOM     67  C   UNL A   1      45.333  28.818  35.220  1.00  0.00     0.135 A 
ATOM     68  C   UNL A   1      43.701  27.359  36.223  1.00  0.00     0.135 A 
ATOM     69  F   UNL A   1      45.652  29.873  34.453  1.00  0.00    -0.206 F 
ATOM     70  C   UNL A   1      46.363  28.052  35.755  1.00  0.00     0.059 A 
ATOM     71  C   UNL A   1      44.715  26.580  36.769  1.00  0.00     0.059 A 
ATOM     72  F   UNL A   1      42.429  26.991  36.439  1.00  0.00    -0.206 F 
ATOM     73  C   UNL A   1      46.043  26.924  36.514  1.00  0.00     0.060 A 
BRANCH  73  74
ATOM     74  S   UNL A   1      47.362  25.881  37.175  1.00  0.00     0.124 S 
ATOM     75  O   UNL A   1      47.834  26.689  38.295  1.00  0.00    -0.237 OA
ATOM     76  O   UNL A   1      46.664  24.650  37.535  1.00  0.00    -0.237 OA
ATOM     77  O   UNL A   1      48.280  25.768  36.046  1.00  0.00    -0.744 OA
ENDBRANCH  73  74
ENDBRANCH  52  66
BRANCH  53  78
ATOM     78  C   UNL A   1      36.525  33.162  30.825  1.00  0.00     0.058 A 
ATOM     79  C   UNL A   1      35.224  33.055  31.335  1.00  0.00     0.135 A 
ATOM     80  C   UNL A   1      36.737  33.973  29.702  1.00  0.00     0.135 A 
ATOM     81  F   UNL A   1      34.985  32.290  32.410  1.00  0.00    -0.206 F 
ATOM     82  C   UNL A   1      34.163  33.745  30.759  1.00  0.00     0.059 A 
ATOM     83  C   UNL A   1      35.693  34.674  29.112  1.00  0.00     0.059 A 
ATOM     84  F   UNL A   1      37.971  34.106  29.193  1.00  0.00    -0.206 F 
ATOM     85  C   UNL A   1      34.409  34.555  29.649  1.00  0.00     0.060 A 
BRANCH  85  86
ATOM     86  S   UNL A   1      33.066  35.538  28.945  1.00  0.00     0.124 S 
ATOM     87  O   UNL A   1      32.321  35.914  30.140  1.00  0.00    -0.237 OA
ATOM     88  O   UNL A   1      33.774  36.622  28.270  1.00  0.00    -0.237 OA
ATOM     89  O   UNL A   1      32.408  34.586  28.055  1.00  0.00    -0.744 OA
ENDBRANCH  85  86
ENDBRANCH  53  78
BRANCH  65  90
ATOM     90  C   UNL A   1      39.805  34.194  36.865  1.00  0.00     0.058 A 
ATOM     91  C   UNL A   1      40.430  35.446  36.778  1.00  0.00     0.135 A 
ATOM     92  C   UNL A   1      39.007  33.928  37.987  1.00  0.00     0.135 A 
ATOM     93  F   UNL A   1      41.207  35.741  35.723  1.00  0.00    -0.206 F 
ATOM     94  C   UNL A   1      40.277  36.404  37.776  1.00  0.00     0.059 A 
ATOM     95  C   UNL A   1      38.841  34.870  38.997  1.00  0.00     0.059 A 
ATOM     96  F   UNL A   1      38.396  32.740  38.115  1.00  0.00    -0.206 F 
ATOM     97  C   UNL A   1      39.488  36.102  38.886  1.00  0.00     0.060 A 
BRANCH  97  98
ATOM     98  S   UNL A   1      39.272  37.338  40.187  1.00  0.00     0.124 S 
ATOM     99  O   UNL A   1      38.474  38.348  39.500  1.00  0.00    -0.237 OA
ATOM    100  O   UNL A   1      38.583  36.593  41.236  1.00  0.00    -0.237 OA
ATOM    101  O   UNL A   1      40.645  37.723  40.502  1.00  0.00    -0.744 OA
ENDBRANCH  97  98
ENDBRANCH  65  90
ENDBRANCH  39  40
ENDBRANCH  31  34
ENDBRANCH  29  30
ENDBRANCH  28  29
ENDBRANCH   1  28
TORSDOF 20
ENDMDL
MODEL 3
REMARK VINA RESULT:     -11.0      6.606     11.125
REMARK SMILES CCC(CC)(CC(=O)NNC(=O)c1cc(C)oc1C)C(=O)NCCCCNC(=O)c1ccc(-c2c3nc(c(-c4c(F)cc(S(=O)(=O)[O-])cc4F)c4ccc([nH]4)c(-c4c(F)cc(S(=O)(=O)[O-])cc4F)c4nc(c(-c5c(F)cc(S(=O)(=O)[O-])cc5F)c5ccc2[nH]5)C=C4)C=C3)cc1
REMARK SMILES IDX 24 1 23 2 22 3 20 4 21 5 3 7 2 8 1 9 4 10 5 11 6 12 7 13
REMARK SMILES IDX 8 14 9 15 10 17 11 18 12 20 13 21 14 22 18 23 15 24 17 25
REMARK SMILES IDX 19 26 16 27 25 28 26 29 27 30 28 31 29 33 30 34 31 35 95 36
REMARK SMILES IDX 32 37 94 38 33 39 34 40 35 41 88 42 36 43 93 44 87 45 89 46
REMARK SMILES IDX 37 47 92 48 86 49 85 50 38 52 72 53 51 54 71 55 52 56 55 57
REMARK SMILES IDX 70 58 90 59 53 60 54 61 69 63 91 64 56 65 39 66 40 67 49 68
REMARK SMILES IDX 41 69 42 70 48 71 50 72 43 73 44 74 45 75 46 76 47 77 73 78
REMARK SMILES IDX 74 79 83 80 75 81 76 82 82 83 84 84 77 85 78 86 79 87 80 88
REMARK SMILES IDX 81 89 57 90 58 91 67 92 59 93 60 94 66 95 68 96 61 97 62 98
REMARK SMILES IDX 63 99 64 100 65 101
REMARK H PARENT 22 6 9 16 10 19 27 32 89 51 55 62
REMARK Flexibility Score: inf
ROOT
ATOM      1  C   UNL A   1      33.843  28.065  25.851  1.00  0.00     0.023 C 
ENDROOT
BRANCH   1   2
ATOM      2  C   UNL A   1      33.798  26.547  25.673  1.00  0.00     0.116 C 
BRANCH   2   3
ATOM      3  N   UNL A   1      33.925  26.135  24.288  1.00  0.00    -0.356 N 
ATOM      4  C   UNL A   1      34.107  24.937  23.676  1.00  0.00     0.226 C 
ATOM      5  O   UNL A   1      34.181  24.979  22.442  1.00  0.00    -0.274 OA
ATOM      6  H   UNL A   1      33.866  26.887  23.654  1.00  0.00     0.163 HD
BRANCH   4   7
ATOM      7  C   UNL A   1      34.232  23.587  24.437  1.00  0.00     0.057 C 
BRANCH   7   8
ATOM      8  C   UNL A   1      35.010  23.847  25.779  1.00  0.00     0.014 C 
ATOM      9  C   UNL A   1      34.579  23.014  26.986  1.00  0.00     0.005 C 
ENDBRANCH   7   8
BRANCH   7  10
ATOM     10  C   UNL A   1      35.010  22.548  23.573  1.00  0.00     0.014 C 
ATOM     11  C   UNL A   1      36.520  22.754  23.497  1.00  0.00     0.005 C 
ENDBRANCH   7  10
BRANCH   7  12
ATOM     12  C   UNL A   1      32.820  23.057  24.814  1.00  0.00     0.118 C 
BRANCH  12  13
ATOM     13  C   UNL A   1      31.732  23.364  23.795  1.00  0.00     0.239 C 
ATOM     14  O   UNL A   1      31.779  22.898  22.655  1.00  0.00    -0.273 OA
ATOM     15  N   UNL A   1      30.659  24.140  24.145  1.00  0.00    -0.267 N 
ATOM     16  H   UNL A   1      30.000  24.344  23.442  1.00  0.00     0.191 HD
BRANCH  15  17
ATOM     17  N   UNL A   1      30.421  24.667  25.413  1.00  0.00    -0.263 N 
ATOM     18  C   UNL A   1      30.300  26.014  25.698  1.00  0.00     0.273 C 
ATOM     19  H   UNL A   1      30.334  24.032  26.160  1.00  0.00     0.191 HD
ATOM     20  O   UNL A   1      30.424  26.386  26.864  1.00  0.00    -0.267 OA
BRANCH  18  21
ATOM     21  C   UNL A   1      29.999  26.943  24.622  1.00  0.00     0.082 A 
ATOM     22  C   UNL A   1      30.845  27.875  23.950  1.00  0.00     0.059 A 
ATOM     23  C   UNL A   1      28.783  27.015  23.963  1.00  0.00     0.113 A 
ATOM     24  C   UNL A   1      30.087  28.463  22.961  1.00  0.00     0.101 A 
ATOM     25  O   UNL A   1      28.832  27.940  22.966  1.00  0.00    -0.466 OA
ATOM     26  C   UNL A   1      27.496  26.305  24.126  1.00  0.00     0.088 C 
ATOM     27  C   UNL A   1      30.368  29.478  21.929  1.00  0.00     0.087 C 
ENDBRANCH  18  21
ENDBRANCH  15  17
ENDBRANCH  12  13
ENDBRANCH   7  12
ENDBRANCH   4   7
ENDBRANCH   2   3
ENDBRANCH   1   2
BRANCH   1  28
ATOM     28  C   UNL A   1      34.089  28.574  27.276  1.00  0.00     0.023 C 
BRANCH  28  29
ATOM     29  C   UNL A   1      35.174  29.638  27.437  1.00  0.00     0.116 C 
BRANCH  29  30
ATOM     30  N   UNL A   1      35.153  30.283  28.739  1.00  0.00    -0.352 N 
ATOM     31  C   UNL A   1      36.151  30.411  29.674  1.00  0.00     0.251 C 
ATOM     32  H   UNL A   1      34.292  30.691  28.989  1.00  0.00     0.163 HD
ATOM     33  O   UNL A   1      35.893  30.929  30.757  1.00  0.00    -0.269 OA
BRANCH  31  34
ATOM     34  C   UNL A   1      37.516  29.902  29.408  1.00  0.00     0.039 A 
ATOM     35  C   UNL A   1      37.973  29.905  28.085  1.00  0.00     0.014 A 
ATOM     36  C   UNL A   1      38.328  29.392  30.426  1.00  0.00     0.014 A 
ATOM     37  C   UNL A   1      39.265  29.462  27.790  1.00  0.00     0.010 A 
ATOM     38  C   UNL A   1      39.628  28.969  30.134  1.00  0.00     0.010 A 
ATOM     39  C   UNL A   1      40.108  29.013  28.816  1.00  0.00    -0.014 A 
BRANCH  39  40
ATOM     40  C   UNL A   1      41.508  28.625  28.529  1.00  0.00     0.031 A 
ATOM     41  C   UNL A   1      42.611  29.639  28.579  1.00  0.00     0.074 A 
ATOM     42  C   UNL A   1      41.781  27.355  28.179  1.00  0.00     0.049 A 
ATOM     43  N   UNL A   1      43.869  29.503  28.248  1.00  0.00    -0.248 NA
ATOM     44  C   UNL A   1      42.249  30.983  29.053  1.00  0.00     0.031 C 
ATOM     45  C   UNL A   1      40.796  26.276  28.078  1.00  0.00     0.029 A 
ATOM     46  N   UNL A   1      42.967  26.759  27.836  1.00  0.00    -0.354 N 
ATOM     47  C   UNL A   1      44.445  30.753  28.432  1.00  0.00     0.074 A 
ATOM     48  C   UNL A   1      43.402  31.627  28.930  1.00  0.00     0.031 C 
ATOM     49  C   UNL A   1      41.422  25.147  27.705  1.00  0.00     0.029 A 
ATOM     50  C   UNL A   1      42.844  25.428  27.525  1.00  0.00     0.049 A 
ATOM     51  H   UNL A   1      43.826  27.241  27.814  1.00  0.00     0.167 HD
ATOM     52  C   UNL A   1      45.720  31.139  28.192  1.00  0.00     0.037 A 
ATOM     53  C   UNL A   1      43.769  24.535  27.132  1.00  0.00     0.037 A 
ATOM     54  C   UNL A   1      46.769  30.271  27.725  1.00  0.00     0.049 A 
ATOM     55  C   UNL A   1      45.196  24.963  26.963  1.00  0.00     0.074 A 
ATOM     56  C   UNL A   1      48.085  30.582  27.429  1.00  0.00     0.029 A 
ATOM     57  N   UNL A   1      46.621  28.911  27.502  1.00  0.00    -0.354 N 
ATOM     58  N   UNL A   1      45.715  26.158  27.105  1.00  0.00    -0.248 NA
ATOM     59  C   UNL A   1      46.159  23.923  26.580  1.00  0.00     0.031 C 
ATOM     60  C   UNL A   1      48.737  29.404  27.039  1.00  0.00     0.029 A 
ATOM     61  C   UNL A   1      47.825  28.363  27.091  1.00  0.00     0.049 A 
ATOM     62  H   UNL A   1      45.784  28.407  27.620  1.00  0.00     0.167 HD
ATOM     63  C   UNL A   1      47.066  26.018  26.818  1.00  0.00     0.074 A 
ATOM     64  C   UNL A   1      47.288  24.619  26.508  1.00  0.00     0.031 C 
ATOM     65  C   UNL A   1      48.032  26.968  26.800  1.00  0.00     0.037 A 
BRANCH  52  66
ATOM     66  C   UNL A   1      46.029  32.587  28.416  1.00  0.00     0.058 A 
ATOM     67  C   UNL A   1      46.472  33.053  29.662  1.00  0.00     0.135 A 
ATOM     68  C   UNL A   1      45.841  33.521  27.385  1.00  0.00     0.135 A 
ATOM     69  F   UNL A   1      46.647  32.195  30.680  1.00  0.00    -0.206 F 
ATOM     70  C   UNL A   1      46.694  34.407  29.891  1.00  0.00     0.059 A 
ATOM     71  C   UNL A   1      46.059  34.878  27.591  1.00  0.00     0.059 A 
ATOM     72  F   UNL A   1      45.406  33.121  26.181  1.00  0.00    -0.206 F 
ATOM     73  C   UNL A   1      46.468  35.314  28.853  1.00  0.00     0.060 A 
BRANCH  73  74
ATOM     74  S   UNL A   1      46.696  37.083  29.139  1.00  0.00     0.124 S 
ATOM     75  O   UNL A   1      47.868  37.085  30.008  1.00  0.00    -0.237 OA
ATOM     76  O   UNL A   1      46.907  37.612  27.795  1.00  0.00    -0.237 OA
ATOM     77  O   UNL A   1      45.439  37.472  29.770  1.00  0.00    -0.744 OA
ENDBRANCH  73  74
ENDBRANCH  52  66
BRANCH  53  78
ATOM     78  C   UNL A   1      43.356  23.138  26.872  1.00  0.00     0.058 A 
ATOM     79  C   UNL A   1      43.314  22.637  25.563  1.00  0.00     0.135 A 
ATOM     80  C   UNL A   1      43.064  22.265  27.929  1.00  0.00     0.135 A 
ATOM     81  F   UNL A   1      43.591  23.442  24.527  1.00  0.00    -0.206 F 
ATOM     82  C   UNL A   1      43.008  21.305  25.308  1.00  0.00     0.059 A 
ATOM     83  C   UNL A   1      42.758  20.929  27.699  1.00  0.00     0.059 A 
ATOM     84  F   UNL A   1      43.102  22.707  29.195  1.00  0.00    -0.206 F 
ATOM     85  C   UNL A   1      42.735  20.457  26.384  1.00  0.00     0.060 A 
BRANCH  85  86
ATOM     86  S   UNL A   1      42.432  18.702  26.085  1.00  0.00     0.124 S 
ATOM     87  O   UNL A   1      43.359  18.427  24.994  1.00  0.00    -0.237 OA
ATOM     88  O   UNL A   1      42.762  18.090  27.369  1.00  0.00    -0.237 OA
ATOM     89  O   UNL A   1      41.014  18.678  25.739  1.00  0.00    -0.744 OA
ENDBRANCH  85  86
ENDBRANCH  53  78
BRANCH  65  90
ATOM     90  C   UNL A   1      49.413  26.518  26.434  1.00  0.00     0.058 A 
ATOM     91  C   UNL A   1      50.290  26.021  27.409  1.00  0.00     0.135 A 
ATOM     92  C   UNL A   1      49.861  26.575  25.106  1.00  0.00     0.135 A 
ATOM     93  F   UNL A   1      49.903  25.952  28.693  1.00  0.00    -0.206 F 
ATOM     94  C   UNL A   1      51.576  25.602  27.082  1.00  0.00     0.059 A 
ATOM     95  C   UNL A   1      51.142  26.163  24.757  1.00  0.00     0.059 A 
ATOM     96  F   UNL A   1      49.057  27.050  24.143  1.00  0.00    -0.206 F 
ATOM     97  C   UNL A   1      51.996  25.687  25.754  1.00  0.00     0.060 A 
BRANCH  97  98
ATOM     98  S   UNL A   1      53.660  25.139  25.310  1.00  0.00     0.124 S 
ATOM     99  O   UNL A   1      54.484  25.994  26.158  1.00  0.00    -0.237 OA
ATOM    100  O   UNL A   1      53.644  23.723  25.663  1.00  0.00    -0.237 OA
ATOM    101  O   UNL A   1      53.724  25.419  23.878  1.00  0.00    -0.744 OA
ENDBRANCH  97  98
ENDBRANCH  65  90
ENDBRANCH  39  40
ENDBRANCH  31  34
ENDBRANCH  29  30
ENDBRANCH  28  29
ENDBRANCH   1  28
TORSDOF 20
ENDMDL
