MODEL 1
REMARK VINA RESULT:     -12.0      0.000      0.000
REMARK SMILES Cc1cccc(C(=O)Nc2cc(C(=O)NCCCCNC(=O)c3ccc(-c4c5nc(c(-c6c(F)cc(S(=O)(=O)[O-])cc6F)c6ccc([nH]6)c(-c6c(F)cc(S(=O)(=O)[O-])cc6F)c6nc(c(-c7c(F)cc(S(=O)(=O)[O-])cc7F)c7ccc4[nH]7)C=C6)C=C5)cc3)ccc2N2CC[NH+](CC(=O)NC(C)(C)C)CC2)c1
REMARK SMILES IDX 17 1 16 2 15 3 13 4 14 5 12 7 10 8 11 9 91 10 90 11 89 12
REMARK SMILES IDX 9 13 7 14 8 15 6 17 1 18 2 19 3 20 106 21 4 22 5 23 92 24
REMARK SMILES IDX 93 25 105 26 94 27 104 28 95 29 96 31 97 32 98 33 99 34
REMARK SMILES IDX 100 36 101 37 102 38 103 39 18 40 19 41 20 42 21 43 22 45
REMARK SMILES IDX 23 46 24 47 88 48 25 49 87 50 26 51 27 52 28 53 81 54 29 55
REMARK SMILES IDX 86 56 80 57 82 58 30 59 85 60 79 61 78 62 31 64 65 65 44 66
REMARK SMILES IDX 64 67 45 68 48 69 63 70 83 71 46 72 47 73 62 75 84 76 49 77
REMARK SMILES IDX 32 78 33 79 42 80 34 81 35 82 41 83 43 84 36 85 37 86 38 87
REMARK SMILES IDX 39 88 40 89 66 90 67 91 76 92 68 93 69 94 75 95 77 96 70 97
REMARK SMILES IDX 71 98 72 99 73 100 74 101 50 102 51 103 60 104 52 105 53 106
REMARK SMILES IDX 59 107 61 108 54 109 55 110 56 111 57 112 58 113
REMARK H PARENT 15 6 9 16 95 30 99 35 20 44 82 63 48 74
REMARK Flexibility Score: inf
ROOT
ATOM      1  C   UNL A   1      35.210  23.390  22.851  1.00  0.00     0.023 C 
ENDROOT
BRANCH   1   2
ATOM      2  C   UNL A   1      33.775  22.980  22.473  1.00  0.00     0.116 C 
BRANCH   2   3
ATOM      3  N   UNL A   1      33.257  23.666  21.291  1.00  0.00    -0.352 N 
ATOM      4  C   UNL A   1      32.926  24.972  21.008  1.00  0.00     0.251 C 
ATOM      5  O   UNL A   1      32.640  25.242  19.839  1.00  0.00    -0.269 OA
ATOM      6  H   UNL A   1      33.113  23.060  20.528  1.00  0.00     0.163 HD
BRANCH   4   7
ATOM      7  C   UNL A   1      32.917  26.083  22.007  1.00  0.00     0.042 A 
ATOM      8  C   UNL A   1      32.040  27.181  23.967  1.00  0.00     0.065 A 
ATOM      9  C   UNL A   1      31.916  26.253  22.941  1.00  0.00     0.042 A 
ATOM     10  C   UNL A   1      33.092  28.124  24.015  1.00  0.00     0.061 A 
ATOM     11  C   UNL A   1      34.061  28.017  23.016  1.00  0.00     0.029 A 
ATOM     12  C   UNL A   1      33.995  26.987  22.051  1.00  0.00     0.016 A 
BRANCH   8  13
ATOM     13  N   UNL A   1      31.139  27.096  25.040  1.00  0.00    -0.320 N 
ATOM     14  C   UNL A   1      31.138  26.138  26.043  1.00  0.00     0.255 C 
ATOM     15  O   UNL A   1      30.479  26.352  27.062  1.00  0.00    -0.269 OA
ATOM     16  H   UNL A   1      30.436  27.785  25.084  1.00  0.00     0.170 HD
BRANCH  14  17
ATOM     17  C   UNL A   1      31.965  24.895  25.975  1.00  0.00     0.040 A 
ATOM     18  C   UNL A   1      31.770  21.121  25.353  1.00  0.00     0.044 C 
ATOM     19  C   UNL A   1      32.307  22.493  25.645  1.00  0.00    -0.050 A 
ATOM     20  C   UNL A   1      33.592  22.622  26.170  1.00  0.00     0.003 A 
ATOM     21  C   UNL A   1      31.521  23.649  25.488  1.00  0.00     0.017 A 
ATOM     22  C   UNL A   1      34.064  23.875  26.555  1.00  0.00     0.001 A 
ATOM     23  C   UNL A   1      33.262  25.005  26.465  1.00  0.00     0.014 A 
ENDBRANCH  14  17
ENDBRANCH   8  13
BRANCH  10  24
ATOM     24  N   UNL A   1      33.202  28.989  25.090  1.00  0.00    -0.359 N 
ATOM     25  C   UNL A   1      32.358  30.159  25.351  1.00  0.00     0.178 C 
ATOM     26  C   UNL A   1      34.534  29.133  25.675  1.00  0.00     0.178 C 
ATOM     27  C   UNL A   1      32.383  30.513  26.884  1.00  0.00     0.284 C 
ATOM     28  C   UNL A   1      34.378  29.172  27.203  1.00  0.00     0.284 C 
ATOM     29  N   UNL A   1      33.637  30.349  27.664  1.00  0.00    -0.324 N 
ATOM     30  H   UNL A   1      33.316  30.200  28.620  1.00  0.00     0.348 HD
BRANCH  29  31
ATOM     31  C   UNL A   1      34.492  31.537  27.838  1.00  0.00     0.363 C 
BRANCH  31  32
ATOM     32  C   UNL A   1      34.567  32.102  29.251  1.00  0.00     0.275 C 
ATOM     33  O   UNL A   1      35.001  31.391  30.169  1.00  0.00    -0.268 OA
ATOM     34  N   UNL A   1      34.184  33.362  29.602  1.00  0.00    -0.347 N 
ATOM     35  H   UNL A   1      34.429  33.541  30.539  1.00  0.00     0.164 HD
BRANCH  34  36
ATOM     36  C   UNL A   1      33.511  34.560  29.015  1.00  0.00     0.032 C 
ATOM     37  C   UNL A   1      32.971  35.506  30.106  1.00  0.00     0.034 C 
ATOM     38  C   UNL A   1      34.615  35.350  28.277  1.00  0.00     0.034 C 
ATOM     39  C   UNL A   1      32.410  34.251  27.996  1.00  0.00     0.034 C 
ENDBRANCH  34  36
ENDBRANCH  31  32
ENDBRANCH  29  31
ENDBRANCH  10  24
ENDBRANCH   4   7
ENDBRANCH   2   3
ENDBRANCH   1   2
BRANCH   1  40
ATOM     40  C   UNL A   1      35.888  22.449  23.838  1.00  0.00     0.023 C 
BRANCH  40  41
ATOM     41  C   UNL A   1      37.102  23.076  24.502  1.00  0.00     0.116 C 
BRANCH  41  42
ATOM     42  N   UNL A   1      37.716  22.261  25.537  1.00  0.00    -0.352 N 
ATOM     43  C   UNL A   1      38.907  22.578  26.181  1.00  0.00     0.251 C 
ATOM     44  H   UNL A   1      37.259  21.429  25.798  1.00  0.00     0.163 HD
ATOM     45  O   UNL A   1      39.723  21.751  26.543  1.00  0.00    -0.269 OA
BRANCH  43  46
ATOM     46  C   UNL A   1      39.056  24.001  26.565  1.00  0.00     0.039 A 
ATOM     47  C   UNL A   1      39.944  24.788  25.818  1.00  0.00     0.014 A 
ATOM     48  C   UNL A   1      38.572  24.430  27.795  1.00  0.00     0.014 A 
ATOM     49  C   UNL A   1      40.494  25.929  26.395  1.00  0.00     0.010 A 
ATOM     50  C   UNL A   1      39.205  25.484  28.410  1.00  0.00     0.010 A 
ATOM     51  C   UNL A   1      40.192  26.206  27.725  1.00  0.00    -0.014 A 
BRANCH  51  52
ATOM     52  C   UNL A   1      40.859  27.212  28.536  1.00  0.00     0.031 A 
ATOM     53  C   UNL A   1      40.189  28.508  28.754  1.00  0.00     0.074 A 
ATOM     54  C   UNL A   1      41.960  26.862  29.233  1.00  0.00     0.049 A 
ATOM     55  N   UNL A   1      40.732  29.537  29.303  1.00  0.00    -0.248 NA
ATOM     56  C   UNL A   1      38.823  28.750  28.310  1.00  0.00     0.031 C 
ATOM     57  C   UNL A   1      42.539  27.544  30.384  1.00  0.00     0.029 A 
ATOM     58  N   UNL A   1      42.926  25.924  28.871  1.00  0.00    -0.354 N 
ATOM     59  C   UNL A   1      39.733  30.454  29.558  1.00  0.00     0.074 A 
ATOM     60  C   UNL A   1      38.584  29.946  28.850  1.00  0.00     0.031 C 
ATOM     61  C   UNL A   1      43.844  27.246  30.440  1.00  0.00     0.029 A 
ATOM     62  C   UNL A   1      44.156  26.487  29.238  1.00  0.00     0.049 A 
ATOM     63  H   UNL A   1      42.776  25.049  28.447  1.00  0.00     0.167 HD
ATOM     64  C   UNL A   1      39.978  31.452  30.457  1.00  0.00     0.037 A 
ATOM     65  C   UNL A   1      45.172  26.761  28.373  1.00  0.00     0.037 A 
ATOM     66  C   UNL A   1      41.403  31.465  30.816  1.00  0.00     0.049 A 
ATOM     67  C   UNL A   1      45.541  28.221  28.449  1.00  0.00     0.074 A 
ATOM     68  C   UNL A   1      42.104  30.962  31.901  1.00  0.00     0.029 A 
ATOM     69  N   UNL A   1      42.355  31.745  29.834  1.00  0.00    -0.354 N 
ATOM     70  N   UNL A   1      44.710  29.151  28.840  1.00  0.00    -0.248 NA
ATOM     71  C   UNL A   1      46.873  28.739  28.162  1.00  0.00     0.031 C 
ATOM     72  C   UNL A   1      43.469  30.844  31.525  1.00  0.00     0.029 A 
ATOM     73  C   UNL A   1      43.608  31.311  30.227  1.00  0.00     0.049 A 
ATOM     74  H   UNL A   1      42.160  32.190  28.978  1.00  0.00     0.167 HD
ATOM     75  C   UNL A   1      45.372  30.346  28.920  1.00  0.00     0.074 A 
ATOM     76  C   UNL A   1      46.719  30.039  28.467  1.00  0.00     0.031 C 
ATOM     77  C   UNL A   1      44.781  31.492  29.375  1.00  0.00     0.037 A 
BRANCH  64  78
ATOM     78  C   UNL A   1      38.889  32.195  31.225  1.00  0.00     0.058 A 
ATOM     79  C   UNL A   1      38.308  31.629  32.384  1.00  0.00     0.135 A 
ATOM     80  C   UNL A   1      38.310  33.423  30.840  1.00  0.00     0.135 A 
ATOM     81  F   UNL A   1      38.796  30.510  32.935  1.00  0.00    -0.206 F 
ATOM     82  C   UNL A   1      37.195  32.179  33.034  1.00  0.00     0.059 A 
ATOM     83  C   UNL A   1      37.165  33.964  31.436  1.00  0.00     0.059 A 
ATOM     84  F   UNL A   1      38.865  34.202  29.908  1.00  0.00    -0.206 F 
ATOM     85  C   UNL A   1      36.608  33.332  32.534  1.00  0.00     0.060 A 
BRANCH  85  86
ATOM     86  S   UNL A   1      35.151  34.013  33.349  1.00  0.00     0.124 S 
ATOM     87  O   UNL A   1      35.348  35.450  33.185  1.00  0.00    -0.237 OA
ATOM     88  O   UNL A   1      34.065  33.425  32.572  1.00  0.00    -0.237 OA
ATOM     89  O   UNL A   1      35.271  33.526  34.721  1.00  0.00    -0.744 OA
ENDBRANCH  85  86
ENDBRANCH  64  78
BRANCH  65  90
ATOM     90  C   UNL A   1      45.229  25.867  27.182  1.00  0.00     0.058 A 
ATOM     91  C   UNL A   1      45.902  24.640  27.341  1.00  0.00     0.135 A 
ATOM     92  C   UNL A   1      44.262  25.942  26.169  1.00  0.00     0.135 A 
ATOM     93  F   UNL A   1      46.873  24.527  28.262  1.00  0.00    -0.206 F 
ATOM     94  C   UNL A   1      45.479  23.481  26.696  1.00  0.00     0.059 A 
ATOM     95  C   UNL A   1      43.835  24.794  25.493  1.00  0.00     0.059 A 
ATOM     96  F   UNL A   1      43.584  27.081  25.966  1.00  0.00    -0.206 F 
ATOM     97  C   UNL A   1      44.387  23.558  25.836  1.00  0.00     0.060 A 
BRANCH  97  98
ATOM     98  S   UNL A   1      43.584  22.010  25.336  1.00  0.00     0.124 S 
ATOM     99  O   UNL A   1      42.325  22.486  24.776  1.00  0.00    -0.237 OA
ATOM    100  O   UNL A   1      44.548  21.473  24.374  1.00  0.00    -0.237 OA
ATOM    101  O   UNL A   1      43.482  21.275  26.590  1.00  0.00    -0.744 OA
ENDBRANCH  97  98
ENDBRANCH  65  90
BRANCH  77 102
ATOM    102  C   UNL A   1      45.327  32.883  29.163  1.00  0.00     0.058 A 
ATOM    103  C   UNL A   1      44.963  33.699  28.076  1.00  0.00     0.135 A 
ATOM    104  C   UNL A   1      46.119  33.510  30.155  1.00  0.00     0.135 A 
ATOM    105  F   UNL A   1      44.115  33.270  27.129  1.00  0.00    -0.206 F 
ATOM    106  C   UNL A   1      45.409  35.013  27.943  1.00  0.00     0.059 A 
ATOM    107  C   UNL A   1      46.522  34.840  30.072  1.00  0.00     0.059 A 
ATOM    108  F   UNL A   1      46.510  32.857  31.259  1.00  0.00    -0.206 F 
ATOM    109  C   UNL A   1      46.185  35.577  28.948  1.00  0.00     0.060 A 
BRANCH 109 110
ATOM    110  S   UNL A   1      46.688  37.301  28.817  1.00  0.00     0.124 S 
ATOM    111  O   UNL A   1      45.689  37.958  29.652  1.00  0.00    -0.237 OA
ATOM    112  O   UNL A   1      48.045  37.282  29.353  1.00  0.00    -0.237 OA
ATOM    113  O   UNL A   1      46.594  37.567  27.385  1.00  0.00    -0.744 OA
ENDBRANCH 109 110
ENDBRANCH  77 102
ENDBRANCH  51  52
ENDBRANCH  43  46
ENDBRANCH  41  42
ENDBRANCH  40  41
ENDBRANCH   1  40
TORSDOF 20
ENDMDL
MODEL 2
REMARK VINA RESULT:     -11.8      1.425      2.612
REMARK SMILES Cc1cccc(C(=O)Nc2cc(C(=O)NCCCCNC(=O)c3ccc(-c4c5nc(c(-c6c(F)cc(S(=O)(=O)[O-])cc6F)c6ccc([nH]6)c(-c6c(F)cc(S(=O)(=O)[O-])cc6F)c6nc(c(-c7c(F)cc(S(=O)(=O)[O-])cc7F)c7ccc4[nH]7)C=C6)C=C5)cc3)ccc2N2CC[NH+](CC(=O)NC(C)(C)C)CC2)c1
REMARK SMILES IDX 17 1 16 2 15 3 13 4 14 5 12 7 10 8 11 9 91 10 90 11 89 12
REMARK SMILES IDX 9 13 7 14 8 15 6 17 1 18 2 19 3 20 106 21 4 22 5 23 92 24
REMARK SMILES IDX 93 25 105 26 94 27 104 28 95 29 96 31 97 32 98 33 99 34
REMARK SMILES IDX 100 36 101 37 102 38 103 39 18 40 19 41 20 42 21 43 22 45
REMARK SMILES IDX 23 46 24 47 88 48 25 49 87 50 26 51 27 52 28 53 81 54 29 55
REMARK SMILES IDX 86 56 80 57 82 58 30 59 85 60 79 61 78 62 31 64 65 65 44 66
REMARK SMILES IDX 64 67 45 68 48 69 63 70 83 71 46 72 47 73 62 75 84 76 49 77
REMARK SMILES IDX 32 78 33 79 42 80 34 81 35 82 41 83 43 84 36 85 37 86 38 87
REMARK SMILES IDX 39 88 40 89 66 90 67 91 76 92 68 93 69 94 75 95 77 96 70 97
REMARK SMILES IDX 71 98 72 99 73 100 74 101 50 102 51 103 60 104 52 105 53 106
REMARK SMILES IDX 59 107 61 108 54 109 55 110 56 111 57 112 58 113
REMARK H PARENT 15 6 9 16 95 30 99 35 20 44 82 63 48 74
REMARK Flexibility Score: inf
ROOT
ATOM      1  C   UNL A   1      34.788  21.822  24.601  1.00  0.00     0.023 C 
ENDROOT
BRANCH   1   2
ATOM      2  C   UNL A   1      33.454  21.359  25.214  1.00  0.00     0.116 C 
BRANCH   2   3
ATOM      3  N   UNL A   1      32.274  21.889  24.532  1.00  0.00    -0.352 N 
ATOM      4  C   UNL A   1      31.784  23.156  24.311  1.00  0.00     0.251 C 
ATOM      5  O   UNL A   1      30.809  23.262  23.561  1.00  0.00    -0.269 OA
ATOM      6  H   UNL A   1      31.705  21.185  24.146  1.00  0.00     0.163 HD
BRANCH   4   7
ATOM      7  C   UNL A   1      32.364  24.406  24.889  1.00  0.00     0.042 A 
ATOM      8  C   UNL A   1      33.473  26.537  24.681  1.00  0.00     0.065 A 
ATOM      9  C   UNL A   1      33.114  25.302  24.156  1.00  0.00     0.042 A 
ATOM     10  C   UNL A   1      33.258  26.879  26.036  1.00  0.00     0.061 A 
ATOM     11  C   UNL A   1      32.580  25.934  26.808  1.00  0.00     0.029 A 
ATOM     12  C   UNL A   1      32.105  24.734  26.234  1.00  0.00     0.016 A 
BRANCH   8  13
ATOM     13  N   UNL A   1      33.968  27.506  23.795  1.00  0.00    -0.320 N 
ATOM     14  C   UNL A   1      33.233  28.496  23.159  1.00  0.00     0.255 C 
ATOM     15  O   UNL A   1      33.835  29.441  22.645  1.00  0.00    -0.269 OA
ATOM     16  H   UNL A   1      34.934  27.481  23.605  1.00  0.00     0.170 HD
BRANCH  14  17
ATOM     17  C   UNL A   1      31.739  28.508  23.139  1.00  0.00     0.040 A 
ATOM     18  C   UNL A   1      28.651  26.409  23.994  1.00  0.00     0.044 C 
ATOM     19  C   UNL A   1      29.524  27.541  23.532  1.00  0.00    -0.050 A 
ATOM     20  C   UNL A   1      28.962  28.564  22.769  1.00  0.00     0.003 A 
ATOM     21  C   UNL A   1      30.910  27.557  23.769  1.00  0.00     0.017 A 
ATOM     22  C   UNL A   1      29.775  29.561  22.234  1.00  0.00     0.001 A 
ATOM     23  C   UNL A   1      31.152  29.537  22.410  1.00  0.00     0.014 A 
ENDBRANCH  14  17
ENDBRANCH   8  13
BRANCH  10  24
ATOM     24  N   UNL A   1      33.581  28.144  26.494  1.00  0.00    -0.359 N 
ATOM     25  C   UNL A   1      34.829  28.534  27.157  1.00  0.00     0.178 C 
ATOM     26  C   UNL A   1      32.461  28.997  26.889  1.00  0.00     0.178 C 
ATOM     27  C   UNL A   1      35.072  30.080  26.987  1.00  0.00     0.284 C 
ATOM     28  C   UNL A   1      32.749  30.419  26.381  1.00  0.00     0.284 C 
ATOM     29  N   UNL A   1      33.922  31.020  27.021  1.00  0.00    -0.324 N 
ATOM     30  H   UNL A   1      34.240  31.819  26.474  1.00  0.00     0.348 HD
BRANCH  29  31
ATOM     31  C   UNL A   1      33.609  31.668  28.307  1.00  0.00     0.363 C 
BRANCH  31  32
ATOM     32  C   UNL A   1      34.730  32.490  28.930  1.00  0.00     0.275 C 
ATOM     33  O   UNL A   1      35.765  31.922  29.305  1.00  0.00    -0.268 OA
ATOM     34  N   UNL A   1      34.688  33.840  29.118  1.00  0.00    -0.347 N 
ATOM     35  H   UNL A   1      35.564  34.164  29.429  1.00  0.00     0.164 HD
BRANCH  34  36
ATOM     36  C   UNL A   1      33.734  34.983  29.000  1.00  0.00     0.032 C 
ATOM     37  C   UNL A   1      34.373  36.191  28.287  1.00  0.00     0.034 C 
ATOM     38  C   UNL A   1      32.597  34.496  28.073  1.00  0.00     0.034 C 
ATOM     39  C   UNL A   1      33.091  35.431  30.316  1.00  0.00     0.034 C 
ENDBRANCH  34  36
ENDBRANCH  31  32
ENDBRANCH  29  31
ENDBRANCH  10  24
ENDBRANCH   4   7
ENDBRANCH   2   3
ENDBRANCH   1   2
BRANCH   1  40
ATOM     40  C   UNL A   1      35.614  22.721  25.510  1.00  0.00     0.023 C 
BRANCH  40  41
ATOM     41  C   UNL A   1      37.082  22.757  25.119  1.00  0.00     0.116 C 
BRANCH  41  42
ATOM     42  N   UNL A   1      37.973  22.078  26.044  1.00  0.00    -0.352 N 
ATOM     43  C   UNL A   1      39.224  22.555  26.419  1.00  0.00     0.251 C 
ATOM     44  H   UNL A   1      37.671  21.224  26.429  1.00  0.00     0.163 HD
ATOM     45  O   UNL A   1      40.182  21.839  26.647  1.00  0.00    -0.269 OA
BRANCH  43  46
ATOM     46  C   UNL A   1      39.286  24.008  26.700  1.00  0.00     0.039 A 
ATOM     47  C   UNL A   1      40.072  24.802  25.855  1.00  0.00     0.014 A 
ATOM     48  C   UNL A   1      38.836  24.486  27.926  1.00  0.00     0.014 A 
ATOM     49  C   UNL A   1      40.565  26.016  26.323  1.00  0.00     0.010 A 
ATOM     50  C   UNL A   1      39.420  25.623  28.433  1.00  0.00     0.010 A 
ATOM     51  C   UNL A   1      40.314  26.363  27.647  1.00  0.00    -0.014 A 
BRANCH  51  52
ATOM     52  C   UNL A   1      40.945  27.468  28.350  1.00  0.00     0.031 A 
ATOM     53  C   UNL A   1      40.150  28.678  28.633  1.00  0.00     0.074 A 
ATOM     54  C   UNL A   1      42.159  27.276  28.907  1.00  0.00     0.049 A 
ATOM     55  N   UNL A   1      40.624  29.783  29.093  1.00  0.00    -0.248 NA
ATOM     56  C   UNL A   1      38.720  28.737  28.363  1.00  0.00     0.031 C 
ATOM     57  C   UNL A   1      42.787  28.059  29.964  1.00  0.00     0.029 A 
ATOM     58  N   UNL A   1      43.182  26.454  28.440  1.00  0.00    -0.354 N 
ATOM     59  C   UNL A   1      39.558  30.577  29.459  1.00  0.00     0.074 A 
ATOM     60  C   UNL A   1      38.402  29.911  28.910  1.00  0.00     0.031 C 
ATOM     61  C   UNL A   1      44.116  27.925  29.858  1.00  0.00     0.029 A 
ATOM     62  C   UNL A   1      44.368  27.174  28.638  1.00  0.00     0.049 A 
ATOM     63  H   UNL A   1      43.092  25.553  28.051  1.00  0.00     0.167 HD
ATOM     64  C   UNL A   1      39.786  31.626  30.303  1.00  0.00     0.037 A 
ATOM     65  C   UNL A   1      45.226  27.543  27.646  1.00  0.00     0.037 A 
ATOM     66  C   UNL A   1      41.232  31.824  30.478  1.00  0.00     0.049 A 
ATOM     67  C   UNL A   1      45.416  29.038  27.652  1.00  0.00     0.074 A 
ATOM     68  C   UNL A   1      42.120  31.444  31.472  1.00  0.00     0.029 A 
ATOM     69  N   UNL A   1      42.011  32.187  29.378  1.00  0.00    -0.354 N 
ATOM     70  N   UNL A   1      44.530  29.872  28.132  1.00  0.00    -0.248 NA
ATOM     71  C   UNL A   1      46.627  29.707  27.191  1.00  0.00     0.031 C 
ATOM     72  C   UNL A   1      43.431  31.483  30.927  1.00  0.00     0.029 A 
ATOM     73  C   UNL A   1      43.348  31.922  29.615  1.00  0.00     0.049 A 
ATOM     74  H   UNL A   1      41.657  32.579  28.547  1.00  0.00     0.167 HD
ATOM     75  C   UNL A   1      45.042  31.141  28.109  1.00  0.00     0.074 A 
ATOM     76  C   UNL A   1      46.350  30.987  27.492  1.00  0.00     0.031 C 
ATOM     77  C   UNL A   1      44.373  32.219  28.618  1.00  0.00     0.037 A 
BRANCH  64  78
ATOM     78  C   UNL A   1      38.716  32.253  31.193  1.00  0.00     0.058 A 
ATOM     79  C   UNL A   1      37.991  31.465  32.117  1.00  0.00     0.135 A 
ATOM     80  C   UNL A   1      38.294  33.598  31.138  1.00  0.00     0.135 A 
ATOM     81  F   UNL A   1      38.320  30.189  32.357  1.00  0.00    -0.206 F 
ATOM     82  C   UNL A   1      36.888  31.942  32.838  1.00  0.00     0.059 A 
ATOM     83  C   UNL A   1      37.163  34.086  31.803  1.00  0.00     0.059 A 
ATOM     84  F   UNL A   1      38.996  34.531  30.490  1.00  0.00    -0.206 F 
ATOM     85  C   UNL A   1      36.460  33.249  32.651  1.00  0.00     0.060 A 
BRANCH  85  86
ATOM     86  S   UNL A   1      35.016  33.847  33.550  1.00  0.00     0.124 S 
ATOM     87  O   UNL A   1      33.933  33.086  32.936  1.00  0.00    -0.237 OA
ATOM     88  O   UNL A   1      35.346  33.491  34.926  1.00  0.00    -0.237 OA
ATOM     89  O   UNL A   1      35.005  35.279  33.262  1.00  0.00    -0.744 OA
ENDBRANCH  85  86
ENDBRANCH  64  78
BRANCH  65  90
ATOM     90  C   UNL A   1      45.246  26.627  26.471  1.00  0.00     0.058 A 
ATOM     91  C   UNL A   1      46.105  25.513  26.550  1.00  0.00     0.135 A 
ATOM     92  C   UNL A   1      44.147  26.529  25.606  1.00  0.00     0.135 A 
ATOM     93  F   UNL A   1      47.201  25.571  27.324  1.00  0.00    -0.206 F 
ATOM     94  C   UNL A   1      45.769  24.285  25.987  1.00  0.00     0.059 A 
ATOM     95  C   UNL A   1      43.801  25.310  25.014  1.00  0.00     0.059 A 
ATOM     96  F   UNL A   1      43.289  27.553  25.486  1.00  0.00    -0.206 F 
ATOM     97  C   UNL A   1      44.569  24.177  25.291  1.00  0.00     0.060 A 
BRANCH  97  98
ATOM     98  S   UNL A   1      43.937  22.515  24.931  1.00  0.00     0.124 S 
ATOM     99  O   UNL A   1      42.496  22.710  25.020  1.00  0.00    -0.237 OA
ATOM    100  O   UNL A   1      44.468  22.280  23.587  1.00  0.00    -0.237 OA
ATOM    101  O   UNL A   1      44.533  21.704  25.985  1.00  0.00    -0.744 OA
ENDBRANCH  97  98
ENDBRANCH  65  90
BRANCH  77 102
ATOM    102  C   UNL A   1      44.710  33.660  28.317  1.00  0.00     0.058 A 
ATOM    103  C   UNL A   1      45.415  34.492  29.205  1.00  0.00     0.135 A 
ATOM    104  C   UNL A   1      44.475  34.205  27.031  1.00  0.00     0.135 A 
ATOM    105  F   UNL A   1      45.812  34.055  30.410  1.00  0.00    -0.206 F 
ATOM    106  C   UNL A   1      45.793  35.792  28.875  1.00  0.00     0.059 A 
ATOM    107  C   UNL A   1      44.899  35.477  26.660  1.00  0.00     0.059 A 
ATOM    108  F   UNL A   1      43.842  33.507  26.077  1.00  0.00    -0.206 F 
ATOM    109  C   UNL A   1      45.536  36.275  27.598  1.00  0.00     0.060 A 
BRANCH 109 110
ATOM    110  S   UNL A   1      46.102  37.923  27.143  1.00  0.00     0.124 S 
ATOM    111  O   UNL A   1      47.008  38.232  28.243  1.00  0.00    -0.237 OA
ATOM    112  O   UNL A   1      46.736  37.699  25.847  1.00  0.00    -0.237 OA
ATOM    113  O   UNL A   1      44.866  38.698  27.100  1.00  0.00    -0.744 OA
ENDBRANCH 109 110
ENDBRANCH  77 102
ENDBRANCH  51  52
ENDBRANCH  43  46
ENDBRANCH  41  42
ENDBRANCH  40  41
ENDBRANCH   1  40
TORSDOF 20
ENDMDL
MODEL 3
REMARK VINA RESULT:     -11.3      1.335      2.088
REMARK SMILES Cc1cccc(C(=O)Nc2cc(C(=O)NCCCCNC(=O)c3ccc(-c4c5nc(c(-c6c(F)cc(S(=O)(=O)[O-])cc6F)c6ccc([nH]6)c(-c6c(F)cc(S(=O)(=O)[O-])cc6F)c6nc(c(-c7c(F)cc(S(=O)(=O)[O-])cc7F)c7ccc4[nH]7)C=C6)C=C5)cc3)ccc2N2CC[NH+](CC(=O)NC(C)(C)C)CC2)c1
REMARK SMILES IDX 17 1 16 2 15 3 13 4 14 5 12 7 10 8 11 9 91 10 90 11 89 12
REMARK SMILES IDX 9 13 7 14 8 15 6 17 1 18 2 19 3 20 106 21 4 22 5 23 92 24
REMARK SMILES IDX 93 25 105 26 94 27 104 28 95 29 96 31 97 32 98 33 99 34
REMARK SMILES IDX 100 36 101 37 102 38 103 39 18 40 19 41 20 42 21 43 22 45
REMARK SMILES IDX 23 46 24 47 88 48 25 49 87 50 26 51 27 52 28 53 81 54 29 55
REMARK SMILES IDX 86 56 80 57 82 58 30 59 85 60 79 61 78 62 31 64 65 65 44 66
REMARK SMILES IDX 64 67 45 68 48 69 63 70 83 71 46 72 47 73 62 75 84 76 49 77
REMARK SMILES IDX 32 78 33 79 42 80 34 81 35 82 41 83 43 84 36 85 37 86 38 87
REMARK SMILES IDX 39 88 40 89 66 90 67 91 76 92 68 93 69 94 75 95 77 96 70 97
REMARK SMILES IDX 71 98 72 99 73 100 74 101 50 102 51 103 60 104 52 105 53 106
REMARK SMILES IDX 59 107 61 108 54 109 55 110 56 111 57 112 58 113
REMARK H PARENT 15 6 9 16 95 30 99 35 20 44 82 63 48 74
REMARK Flexibility Score: inf
ROOT
ATOM      1  C   UNL A   1      35.614  21.836  24.400  1.00  0.00     0.023 C 
ENDROOT
BRANCH   1   2
ATOM      2  C   UNL A   1      35.634  22.944  23.332  1.00  0.00     0.116 C 
BRANCH   2   3
ATOM      3  N   UNL A   1      34.518  22.877  22.390  1.00  0.00    -0.352 N 
ATOM      4  C   UNL A   1      33.502  23.739  22.046  1.00  0.00     0.251 C 
ATOM      5  O   UNL A   1      32.789  23.420  21.090  1.00  0.00    -0.269 OA
ATOM      6  H   UNL A   1      34.487  22.028  21.891  1.00  0.00     0.163 HD
BRANCH   4   7
ATOM      7  C   UNL A   1      33.220  25.038  22.727  1.00  0.00     0.042 A 
ATOM      8  C   UNL A   1      31.890  26.452  24.157  1.00  0.00     0.065 A 
ATOM      9  C   UNL A   1      32.036  25.309  23.381  1.00  0.00     0.042 A 
ATOM     10  C   UNL A   1      32.854  27.484  24.181  1.00  0.00     0.061 A 
ATOM     11  C   UNL A   1      34.017  27.256  23.444  1.00  0.00     0.029 A 
ATOM     12  C   UNL A   1      34.214  26.035  22.760  1.00  0.00     0.016 A 
BRANCH   8  13
ATOM     13  N   UNL A   1      30.787  26.516  25.024  1.00  0.00    -0.320 N 
ATOM     14  C   UNL A   1      30.486  25.627  26.045  1.00  0.00     0.255 C 
ATOM     15  O   UNL A   1      29.661  25.963  26.896  1.00  0.00    -0.269 OA
ATOM     16  H   UNL A   1      30.165  27.270  24.894  1.00  0.00     0.170 HD
BRANCH  14  17
ATOM     17  C   UNL A   1      31.175  24.311  26.200  1.00  0.00     0.040 A 
ATOM     18  C   UNL A   1      34.309  22.650  27.646  1.00  0.00     0.044 C 
ATOM     19  C   UNL A   1      32.988  22.850  26.959  1.00  0.00    -0.050 A 
ATOM     20  C   UNL A   1      32.479  21.831  26.156  1.00  0.00     0.003 A 
ATOM     21  C   UNL A   1      32.291  24.070  27.027  1.00  0.00     0.017 A 
ATOM     22  C   UNL A   1      31.316  22.040  25.419  1.00  0.00     0.001 A 
ATOM     23  C   UNL A   1      30.666  23.268  25.433  1.00  0.00     0.014 A 
ENDBRANCH  14  17
ENDBRANCH   8  13
BRANCH  10  24
ATOM     24  N   UNL A   1      32.687  28.574  25.016  1.00  0.00    -0.359 N 
ATOM     25  C   UNL A   1      31.842  29.744  24.756  1.00  0.00     0.178 C 
ATOM     26  C   UNL A   1      33.805  28.892  25.903  1.00  0.00     0.178 C 
ATOM     27  C   UNL A   1      31.447  30.439  26.112  1.00  0.00     0.284 C 
ATOM     28  C   UNL A   1      33.227  29.273  27.275  1.00  0.00     0.284 C 
ATOM     29  N   UNL A   1      32.426  30.499  27.228  1.00  0.00    -0.324 N 
ATOM     30  H   UNL A   1      31.845  30.561  28.064  1.00  0.00     0.348 HD
BRANCH  29  31
ATOM     31  C   UNL A   1      33.236  31.723  27.360  1.00  0.00     0.363 C 
BRANCH  31  32
ATOM     32  C   UNL A   1      32.463  33.036  27.378  1.00  0.00     0.275 C 
ATOM     33  O   UNL A   1      31.359  33.100  26.818  1.00  0.00    -0.268 OA
ATOM     34  N   UNL A   1      32.896  34.182  27.975  1.00  0.00    -0.347 N 
ATOM     35  H   UNL A   1      32.185  34.862  27.957  1.00  0.00     0.164 HD
BRANCH  34  36
ATOM     36  C   UNL A   1      34.110  34.732  28.651  1.00  0.00     0.032 C 
ATOM     37  C   UNL A   1      34.381  36.193  28.241  1.00  0.00     0.034 C 
ATOM     38  C   UNL A   1      33.779  34.770  30.160  1.00  0.00     0.034 C 
ATOM     39  C   UNL A   1      35.382  33.896  28.482  1.00  0.00     0.034 C 
ENDBRANCH  34  36
ENDBRANCH  31  32
ENDBRANCH  29  31
ENDBRANCH  10  24
ENDBRANCH   4   7
ENDBRANCH   2   3
ENDBRANCH   1   2
BRANCH   1  40
ATOM     40  C   UNL A   1      36.995  21.370  24.843  1.00  0.00     0.023 C 
BRANCH  40  41
ATOM     41  C   UNL A   1      37.700  22.389  25.722  1.00  0.00     0.116 C 
BRANCH  41  42
ATOM     42  N   UNL A   1      38.911  21.903  26.361  1.00  0.00    -0.352 N 
ATOM     43  C   UNL A   1      40.104  22.617  26.426  1.00  0.00     0.251 C 
ATOM     44  H   UNL A   1      38.887  21.010  26.774  1.00  0.00     0.163 HD
ATOM     45  O   UNL A   1      41.205  22.102  26.373  1.00  0.00    -0.269 OA
BRANCH  43  46
ATOM     46  C   UNL A   1      39.959  24.056  26.743  1.00  0.00     0.039 A 
ATOM     47  C   UNL A   1      40.609  24.976  25.909  1.00  0.00     0.014 A 
ATOM     48  C   UNL A   1      39.464  24.435  27.986  1.00  0.00     0.014 A 
ATOM     49  C   UNL A   1      40.929  26.237  26.401  1.00  0.00     0.010 A 
ATOM     50  C   UNL A   1      39.886  25.632  28.515  1.00  0.00     0.010 A 
ATOM     51  C   UNL A   1      40.651  26.513  27.737  1.00  0.00    -0.014 A 
BRANCH  51  52
ATOM     52  C   UNL A   1      41.127  27.680  28.461  1.00  0.00     0.031 A 
ATOM     53  C   UNL A   1      40.199  28.804  28.686  1.00  0.00     0.074 A 
ATOM     54  C   UNL A   1      42.322  27.617  29.084  1.00  0.00     0.049 A 
ATOM     55  N   UNL A   1      40.532  29.954  29.158  1.00  0.00    -0.248 NA
ATOM     56  C   UNL A   1      38.787  28.715  28.339  1.00  0.00     0.031 C 
ATOM     57  C   UNL A   1      42.808  28.467  30.164  1.00  0.00     0.029 A 
ATOM     58  N   UNL A   1      43.448  26.901  28.682  1.00  0.00    -0.354 N 
ATOM     59  C   UNL A   1      39.372  30.638  29.458  1.00  0.00     0.074 A 
ATOM     60  C   UNL A   1      38.322  29.853  28.856  1.00  0.00     0.031 C 
ATOM     61  C   UNL A   1      44.149  28.468  30.132  1.00  0.00     0.029 A 
ATOM     62  C   UNL A   1      44.542  27.739  28.935  1.00  0.00     0.049 A 
ATOM     63  H   UNL A   1      43.471  25.994  28.299  1.00  0.00     0.167 HD
ATOM     64  C   UNL A   1      39.446  31.709  30.301  1.00  0.00     0.037 A 
ATOM     65  C   UNL A   1      45.411  28.188  27.987  1.00  0.00     0.037 A 
ATOM     66  C   UNL A   1      40.852  32.055  30.551  1.00  0.00     0.049 A 
ATOM     67  C   UNL A   1      45.446  29.696  27.986  1.00  0.00     0.074 A 
ATOM     68  C   UNL A   1      41.719  31.774  31.595  1.00  0.00     0.029 A 
ATOM     69  N   UNL A   1      41.650  32.490  29.491  1.00  0.00    -0.354 N 
ATOM     70  N   UNL A   1      44.456  30.437  28.408  1.00  0.00    -0.248 NA
ATOM     71  C   UNL A   1      46.606  30.481  27.582  1.00  0.00     0.031 C 
ATOM     72  C   UNL A   1      43.047  31.943  31.121  1.00  0.00     0.029 A 
ATOM     73  C   UNL A   1      42.992  32.364  29.802  1.00  0.00     0.049 A 
ATOM     74  H   UNL A   1      41.303  32.839  28.637  1.00  0.00     0.167 HD
ATOM     75  C   UNL A   1      44.836  31.751  28.397  1.00  0.00     0.074 A 
ATOM     76  C   UNL A   1      46.184  31.729  27.854  1.00  0.00     0.031 C 
ATOM     77  C   UNL A   1      44.035  32.759  28.858  1.00  0.00     0.037 A 
BRANCH  64  78
ATOM     78  C   UNL A   1      38.272  32.229  31.125  1.00  0.00     0.058 A 
ATOM     79  C   UNL A   1      37.902  33.594  31.076  1.00  0.00     0.135 A 
ATOM     80  C   UNL A   1      37.516  31.468  32.042  1.00  0.00     0.135 A 
ATOM     81  F   UNL A   1      38.458  34.437  30.196  1.00  0.00    -0.206 F 
ATOM     82  C   UNL A   1      36.947  34.164  31.929  1.00  0.00     0.059 A 
ATOM     83  C   UNL A   1      36.599  32.022  32.943  1.00  0.00     0.059 A 
ATOM     84  F   UNL A   1      37.576  30.134  32.068  1.00  0.00    -0.206 F 
ATOM     85  C   UNL A   1      36.322  33.376  32.884  1.00  0.00     0.060 A 
BRANCH  85  86
ATOM     86  S   UNL A   1      35.125  34.122  34.006  1.00  0.00     0.124 S 
ATOM     87  O   UNL A   1      33.878  33.484  33.597  1.00  0.00    -0.237 OA
ATOM     88  O   UNL A   1      35.644  33.728  35.311  1.00  0.00    -0.237 OA
ATOM     89  O   UNL A   1      35.218  35.548  33.703  1.00  0.00    -0.744 OA
ENDBRANCH  85  86
ENDBRANCH  64  78
BRANCH  65  90
ATOM     90  C   UNL A   1      45.587  27.272  26.825  1.00  0.00     0.058 A 
ATOM     91  C   UNL A   1      46.537  26.241  26.970  1.00  0.00     0.135 A 
ATOM     92  C   UNL A   1      44.559  27.071  25.893  1.00  0.00     0.135 A 
ATOM     93  F   UNL A   1      47.571  26.401  27.810  1.00  0.00    -0.206 F 
ATOM     94  C   UNL A   1      46.349  24.985  26.400  1.00  0.00     0.059 A 
ATOM     95  C   UNL A   1      44.362  25.823  25.293  1.00  0.00     0.059 A 
ATOM     96  F   UNL A   1      43.622  28.013  25.708  1.00  0.00    -0.206 F 
ATOM     97  C   UNL A   1      45.210  24.766  25.630  1.00  0.00     0.060 A 
BRANCH  97  98
ATOM     98  S   UNL A   1      44.754  23.052  25.248  1.00  0.00     0.124 S 
ATOM     99  O   UNL A   1      45.995  22.522  24.697  1.00  0.00    -0.237 OA
ATOM    100  O   UNL A   1      44.374  22.545  26.568  1.00  0.00    -0.237 OA
ATOM    101  O   UNL A   1      43.657  23.208  24.303  1.00  0.00    -0.744 OA
ENDBRANCH  97  98
ENDBRANCH  65  90
BRANCH  77 102
ATOM    102  C   UNL A   1      44.239  34.224  28.558  1.00  0.00     0.058 A 
ATOM    103  C   UNL A   1      44.819  35.127  29.468  1.00  0.00     0.135 A 
ATOM    104  C   UNL A   1      44.005  34.738  27.260  1.00  0.00     0.135 A 
ATOM    105  F   UNL A   1      45.206  34.737  30.692  1.00  0.00    -0.206 F 
ATOM    106  C   UNL A   1      45.080  36.456  29.143  1.00  0.00     0.059 A 
ATOM    107  C   UNL A   1      44.316  36.045  26.896  1.00  0.00     0.059 A 
ATOM    108  F   UNL A   1      43.485  33.976  26.286  1.00  0.00    -0.206 F 
ATOM    109  C   UNL A   1      44.830  36.906  27.852  1.00  0.00     0.060 A 
BRANCH 109 110
ATOM    110  S   UNL A   1      45.248  38.600  27.407  1.00  0.00     0.124 S 
ATOM    111  O   UNL A   1      45.932  39.055  28.612  1.00  0.00    -0.237 OA
ATOM    112  O   UNL A   1      46.093  38.424  26.230  1.00  0.00    -0.237 OA
ATOM    113  O   UNL A   1      43.946  39.206  27.148  1.00  0.00    -0.744 OA
ENDBRANCH 109 110
ENDBRANCH  77 102
ENDBRANCH  51  52
ENDBRANCH  43  46
ENDBRANCH  41  42
ENDBRANCH  40  41
ENDBRANCH   1  40
TORSDOF 20
ENDMDL
