MODEL 1
REMARK VINA RESULT:     -11.9      0.000      0.000
REMARK SMILES O=C(CC1(NC(=O)c2csc(-c3ccsc3)n2)CCC1)NCCCCNC(=O)c1ccc(-c2c3nc(c(-c4c(F)cc(S(=O)(=O)[O-])cc4F)c4ccc([nH]4)c(-c4c(F)cc(S(=O)(=O)[O-])cc4F)c4nc(c(-c5c(F)cc(S(=O)(=O)[O-])cc5F)c5ccc2[nH]5)C=C4)C=C3)cc1
REMARK SMILES IDX 23 1 22 2 21 3 1 4 2 5 3 7 4 8 18 9 20 10 19 11 5 12 6 13
REMARK SMILES IDX 7 15 8 16 9 17 17 18 10 19 11 20 12 21 13 22 16 23 14 24
REMARK SMILES IDX 15 25 24 26 25 27 26 28 27 29 28 31 29 32 30 33 94 34 31 35
REMARK SMILES IDX 93 36 32 37 33 38 34 39 87 40 35 41 92 42 86 43 88 44 36 45
REMARK SMILES IDX 91 46 85 47 84 48 37 50 71 51 50 52 70 53 51 54 54 55 69 56
REMARK SMILES IDX 89 57 52 58 53 59 68 61 90 62 55 63 38 64 39 65 48 66 40 67
REMARK SMILES IDX 41 68 47 69 49 70 42 71 43 72 44 73 45 74 46 75 72 76 73 77
REMARK SMILES IDX 82 78 74 79 75 80 81 81 83 82 76 83 77 84 78 85 79 86 80 87
REMARK SMILES IDX 56 88 57 89 66 90 58 91 59 92 65 93 67 94 60 95 61 96 62 97
REMARK SMILES IDX 63 98 64 99
REMARK H PARENT 21 6 5 14 26 30 88 49 54 60
REMARK Flexibility Score: inf
ROOT
ATOM      1  C   UNL A   1      33.596  31.202  27.543  1.00  0.00     0.023 C 
ENDROOT
BRANCH   1   2
ATOM      2  C   UNL A   1      32.811  30.076  26.879  1.00  0.00     0.116 C 
BRANCH   2   3
ATOM      3  N   UNL A   1      33.219  29.800  25.514  1.00  0.00    -0.356 N 
ATOM      4  O   UNL A   1      33.797  27.635  25.936  1.00  0.00    -0.275 OA
ATOM      5  C   UNL A   1      33.598  28.539  25.124  1.00  0.00     0.222 C 
ATOM      6  H   UNL A   1      33.224  30.531  24.854  1.00  0.00     0.163 HD
BRANCH   5   7
ATOM      7  C   UNL A   1      33.684  28.248  23.643  1.00  0.00     0.128 C 
BRANCH   7   8
ATOM      8  C   UNL A   1      32.462  27.812  22.841  1.00  0.00     0.049 C 
ATOM      9  C   UNL A   1      31.353  27.227  23.775  1.00  0.00     0.029 C 
ATOM     10  C   UNL A   1      31.491  29.005  22.562  1.00  0.00     0.029 C 
ATOM     11  C   UNL A   1      30.334  28.192  23.155  1.00  0.00     0.005 C 
BRANCH   8  12
ATOM     12  N   UNL A   1      32.624  26.959  21.629  1.00  0.00    -0.345 N 
ATOM     13  C   UNL A   1      32.901  25.635  21.352  1.00  0.00     0.271 C 
ATOM     14  H   UNL A   1      32.500  27.481  20.803  1.00  0.00     0.164 HD
ATOM     15  O   UNL A   1      33.016  25.321  20.171  1.00  0.00    -0.267 OA
BRANCH  13  16
ATOM     16  C   UNL A   1      33.161  24.684  22.421  1.00  0.00     0.139 A 
ATOM     17  C   UNL A   1      32.211  23.772  22.847  1.00  0.00     0.101 A 
ATOM     18  N   UNL A   1      34.352  24.638  23.131  1.00  0.00    -0.231 NA
ATOM     19  S   UNL A   1      32.926  22.646  23.918  1.00  0.00    -0.122 S 
ATOM     20  C   UNL A   1      34.391  23.537  23.854  1.00  0.00     0.125 A 
BRANCH  20  21
ATOM     21  C   UNL A   1      35.674  23.097  24.497  1.00  0.00     0.021 A 
ATOM     22  C   UNL A   1      36.457  23.914  25.366  1.00  0.00     0.023 A 
ATOM     23  C   UNL A   1      36.273  21.879  24.256  1.00  0.00     0.076 A 
ATOM     24  C   UNL A   1      37.610  23.278  25.775  1.00  0.00     0.065 A 
ATOM     25  S   UNL A   1      37.769  21.725  25.078  1.00  0.00    -0.152 S 
ENDBRANCH  20  21
ENDBRANCH  13  16
ENDBRANCH   8  12
ENDBRANCH   7   8
ENDBRANCH   5   7
ENDBRANCH   2   3
ENDBRANCH   1   2
BRANCH   1  26
ATOM     26  C   UNL A   1      35.102  30.961  27.677  1.00  0.00     0.023 C 
BRANCH  26  27
ATOM     27  C   UNL A   1      35.800  31.686  28.825  1.00  0.00     0.116 C 
BRANCH  27  28
ATOM     28  N   UNL A   1      35.633  31.036  30.115  1.00  0.00    -0.352 N 
ATOM     29  C   UNL A   1      36.520  30.265  30.829  1.00  0.00     0.251 C 
ATOM     30  H   UNL A   1      34.754  31.168  30.540  1.00  0.00     0.163 HD
ATOM     31  O   UNL A   1      36.153  29.729  31.872  1.00  0.00    -0.269 OA
BRANCH  29  32
ATOM     32  C   UNL A   1      37.898  30.044  30.331  1.00  0.00     0.039 A 
ATOM     33  C   UNL A   1      38.934  29.914  31.262  1.00  0.00     0.014 A 
ATOM     34  C   UNL A   1      38.177  29.966  28.963  1.00  0.00     0.014 A 
ATOM     35  C   UNL A   1      40.231  29.627  30.827  1.00  0.00     0.010 A 
ATOM     36  C   UNL A   1      39.458  29.620  28.535  1.00  0.00     0.010 A 
ATOM     37  C   UNL A   1      40.496  29.439  29.461  1.00  0.00    -0.014 A 
BRANCH  37  38
ATOM     38  C   UNL A   1      41.843  29.028  28.986  1.00  0.00     0.031 A 
ATOM     39  C   UNL A   1      42.950  30.038  28.867  1.00  0.00     0.074 A 
ATOM     40  C   UNL A   1      42.048  27.757  28.587  1.00  0.00     0.049 A 
ATOM     41  N   UNL A   1      44.156  29.890  28.383  1.00  0.00    -0.248 NA
ATOM     42  C   UNL A   1      42.654  31.402  29.333  1.00  0.00     0.031 C 
ATOM     43  C   UNL A   1      41.043  26.691  28.604  1.00  0.00     0.029 A 
ATOM     44  N   UNL A   1      43.166  27.149  28.072  1.00  0.00    -0.354 N 
ATOM     45  C   UNL A   1      44.756  31.141  28.467  1.00  0.00     0.074 A 
ATOM     46  C   UNL A   1      43.767  32.045  29.014  1.00  0.00     0.031 C 
ATOM     47  C   UNL A   1      41.593  25.560  28.133  1.00  0.00     0.029 A 
ATOM     48  C   UNL A   1      42.977  25.825  27.750  1.00  0.00     0.049 A 
ATOM     49  H   UNL A   1      44.023  27.616  27.945  1.00  0.00     0.167 HD
ATOM     50  C   UNL A   1      46.020  31.498  28.135  1.00  0.00     0.037 A 
ATOM     51  C   UNL A   1      43.817  24.928  27.201  1.00  0.00     0.037 A 
ATOM     52  C   UNL A   1      47.013  30.592  27.619  1.00  0.00     0.049 A 
ATOM     53  C   UNL A   1      45.222  25.341  26.864  1.00  0.00     0.074 A 
ATOM     54  C   UNL A   1      48.335  30.851  27.301  1.00  0.00     0.029 A 
ATOM     55  N   UNL A   1      46.793  29.249  27.347  1.00  0.00    -0.354 N 
ATOM     56  N   UNL A   1      45.787  26.518  26.993  1.00  0.00    -0.248 NA
ATOM     57  C   UNL A   1      46.107  24.307  26.312  1.00  0.00     0.031 C 
ATOM     58  C   UNL A   1      48.909  29.670  26.815  1.00  0.00     0.029 A 
ATOM     59  C   UNL A   1      47.953  28.669  26.859  1.00  0.00     0.049 A 
ATOM     60  H   UNL A   1      45.939  28.778  27.482  1.00  0.00     0.167 HD
ATOM     61  C   UNL A   1      47.097  26.361  26.557  1.00  0.00     0.074 A 
ATOM     62  C   UNL A   1      47.246  24.973  26.170  1.00  0.00     0.031 C 
ATOM     63  C   UNL A   1      48.087  27.284  26.484  1.00  0.00     0.037 A 
BRANCH  50  64
ATOM     64  C   UNL A   1      46.402  32.938  28.330  1.00  0.00     0.058 A 
ATOM     65  C   UNL A   1      46.939  33.397  29.543  1.00  0.00     0.135 A 
ATOM     66  C   UNL A   1      46.245  33.868  27.290  1.00  0.00     0.135 A 
ATOM     67  F   UNL A   1      47.096  32.551  30.575  1.00  0.00    -0.206 F 
ATOM     68  C   UNL A   1      47.278  34.732  29.730  1.00  0.00     0.059 A 
ATOM     69  C   UNL A   1      46.599  35.205  27.447  1.00  0.00     0.059 A 
ATOM     70  F   UNL A   1      45.737  33.482  26.109  1.00  0.00    -0.206 F 
ATOM     71  C   UNL A   1      47.098  35.630  28.678  1.00  0.00     0.060 A 
BRANCH  71  72
ATOM     72  S   UNL A   1      47.527  37.365  28.936  1.00  0.00     0.124 S 
ATOM     73  O   UNL A   1      47.224  37.529  30.356  1.00  0.00    -0.237 OA
ATOM     74  O   UNL A   1      48.943  37.397  28.583  1.00  0.00    -0.237 OA
ATOM     75  O   UNL A   1      46.639  38.074  28.020  1.00  0.00    -0.744 OA
ENDBRANCH  71  72
ENDBRANCH  50  64
BRANCH  51  76
ATOM     76  C   UNL A   1      43.354  23.537  26.957  1.00  0.00     0.058 A 
ATOM     77  C   UNL A   1      43.077  23.091  25.656  1.00  0.00     0.135 A 
ATOM     78  C   UNL A   1      43.205  22.624  28.011  1.00  0.00     0.135 A 
ATOM     79  F   UNL A   1      43.201  23.932  24.619  1.00  0.00    -0.206 F 
ATOM     80  C   UNL A   1      42.660  21.788  25.409  1.00  0.00     0.059 A 
ATOM     81  C   UNL A   1      42.808  21.310  27.786  1.00  0.00     0.059 A 
ATOM     82  F   UNL A   1      43.474  23.001  29.271  1.00  0.00    -0.206 F 
ATOM     83  C   UNL A   1      42.531  20.903  26.481  1.00  0.00     0.060 A 
BRANCH  83  84
ATOM     84  S   UNL A   1      42.050  19.195  26.145  1.00  0.00     0.124 S 
ATOM     85  O   UNL A   1      42.289  18.564  27.438  1.00  0.00    -0.237 OA
ATOM     86  O   UNL A   1      40.650  19.339  25.754  1.00  0.00    -0.237 OA
ATOM     87  O   UNL A   1      42.954  18.800  25.069  1.00  0.00    -0.744 OA
ENDBRANCH  83  84
ENDBRANCH  51  76
BRANCH  63  88
ATOM     88  C   UNL A   1      49.427  26.819  25.991  1.00  0.00     0.058 A 
ATOM     89  C   UNL A   1      49.813  26.979  24.651  1.00  0.00     0.135 A 
ATOM     90  C   UNL A   1      50.354  26.250  26.880  1.00  0.00     0.135 A 
ATOM     91  F   UNL A   1      48.960  27.511  23.762  1.00  0.00    -0.206 F 
ATOM     92  C   UNL A   1      51.067  26.575  24.205  1.00  0.00     0.059 A 
ATOM     93  C   UNL A   1      51.620  25.858  26.459  1.00  0.00     0.059 A 
ATOM     94  F   UNL A   1      50.035  26.083  28.173  1.00  0.00    -0.206 F 
ATOM     95  C   UNL A   1      51.964  26.015  25.116  1.00  0.00     0.060 A 
BRANCH  95  96
ATOM     96  S   UNL A   1      53.603  25.528  24.536  1.00  0.00     0.124 S 
ATOM     97  O   UNL A   1      53.537  24.075  24.658  1.00  0.00    -0.237 OA
ATOM     98  O   UNL A   1      53.624  26.050  23.172  1.00  0.00    -0.237 OA
ATOM     99  O   UNL A   1      54.505  26.198  25.468  1.00  0.00    -0.744 OA
ENDBRANCH  95  96
ENDBRANCH  63  88
ENDBRANCH  37  38
ENDBRANCH  29  32
ENDBRANCH  27  28
ENDBRANCH  26  27
ENDBRANCH   1  26
TORSDOF 18
ENDMDL
MODEL 2
REMARK VINA RESULT:     -11.7      6.390      8.667
REMARK SMILES O=C(CC1(NC(=O)c2csc(-c3ccsc3)n2)CCC1)NCCCCNC(=O)c1ccc(-c2c3nc(c(-c4c(F)cc(S(=O)(=O)[O-])cc4F)c4ccc([nH]4)c(-c4c(F)cc(S(=O)(=O)[O-])cc4F)c4nc(c(-c5c(F)cc(S(=O)(=O)[O-])cc5F)c5ccc2[nH]5)C=C4)C=C3)cc1
REMARK SMILES IDX 23 1 22 2 21 3 1 4 2 5 3 7 4 8 18 9 20 10 19 11 5 12 6 13
REMARK SMILES IDX 7 15 8 16 9 17 17 18 10 19 11 20 12 21 13 22 16 23 14 24
REMARK SMILES IDX 15 25 24 26 25 27 26 28 27 29 28 31 29 32 30 33 94 34 31 35
REMARK SMILES IDX 93 36 32 37 33 38 34 39 87 40 35 41 92 42 86 43 88 44 36 45
REMARK SMILES IDX 91 46 85 47 84 48 37 50 71 51 50 52 70 53 51 54 54 55 69 56
REMARK SMILES IDX 89 57 52 58 53 59 68 61 90 62 55 63 38 64 39 65 48 66 40 67
REMARK SMILES IDX 41 68 47 69 49 70 42 71 43 72 44 73 45 74 46 75 72 76 73 77
REMARK SMILES IDX 82 78 74 79 75 80 81 81 83 82 76 83 77 84 78 85 79 86 80 87
REMARK SMILES IDX 56 88 57 89 66 90 58 91 59 92 65 93 67 94 60 95 61 96 62 97
REMARK SMILES IDX 63 98 64 99
REMARK H PARENT 21 6 5 14 26 30 88 49 54 60
REMARK Flexibility Score: inf
ROOT
ATOM      1  C   UNL A   1      31.711  30.689  26.745  1.00  0.00     0.023 C 
ENDROOT
BRANCH   1   2
ATOM      2  C   UNL A   1      33.053  30.091  27.156  1.00  0.00     0.116 C 
BRANCH   2   3
ATOM      3  N   UNL A   1      33.286  28.756  26.634  1.00  0.00    -0.356 N 
ATOM      4  O   UNL A   1      31.506  27.830  27.717  1.00  0.00    -0.275 OA
ATOM      5  C   UNL A   1      32.411  27.729  26.888  1.00  0.00     0.222 C 
ATOM      6  H   UNL A   1      34.087  28.585  26.086  1.00  0.00     0.163 HD
BRANCH   5   7
ATOM      7  C   UNL A   1      32.527  26.474  26.054  1.00  0.00     0.128 C 
BRANCH   7   8
ATOM      8  C   UNL A   1      31.296  25.757  25.513  1.00  0.00     0.049 C 
ATOM      9  C   UNL A   1      30.367  26.742  24.732  1.00  0.00     0.029 C 
ATOM     10  C   UNL A   1      31.581  25.060  24.143  1.00  0.00     0.029 C 
ATOM     11  C   UNL A   1      30.378  25.787  23.530  1.00  0.00     0.005 C 
BRANCH   8  12
ATOM     12  N   UNL A   1      30.487  24.875  26.403  1.00  0.00    -0.345 N 
ATOM     13  C   UNL A   1      30.575  23.593  26.910  1.00  0.00     0.271 C 
ATOM     14  H   UNL A   1      29.669  25.328  26.712  1.00  0.00     0.164 HD
ATOM     15  O   UNL A   1      29.634  23.193  27.590  1.00  0.00    -0.267 OA
BRANCH  13  16
ATOM     16  C   UNL A   1      31.682  22.721  26.555  1.00  0.00     0.139 A 
ATOM     17  C   UNL A   1      32.891  22.748  27.228  1.00  0.00     0.101 A 
ATOM     18  N   UNL A   1      31.643  21.828  25.493  1.00  0.00    -0.231 NA
ATOM     19  S   UNL A   1      33.861  21.428  26.734  1.00  0.00    -0.122 S 
ATOM     20  C   UNL A   1      32.676  21.013  25.564  1.00  0.00     0.125 A 
BRANCH  20  21
ATOM     21  C   UNL A   1      32.729  19.780  24.712  1.00  0.00     0.021 A 
ATOM     22  C   UNL A   1      32.242  19.709  23.372  1.00  0.00     0.023 A 
ATOM     23  C   UNL A   1      33.187  18.558  25.158  1.00  0.00     0.076 A 
ATOM     24  C   UNL A   1      32.372  18.445  22.839  1.00  0.00     0.065 A 
ATOM     25  S   UNL A   1      33.033  17.339  23.964  1.00  0.00    -0.152 S 
ENDBRANCH  20  21
ENDBRANCH  13  16
ENDBRANCH   8  12
ENDBRANCH   7   8
ENDBRANCH   5   7
ENDBRANCH   2   3
ENDBRANCH   1   2
BRANCH   1  26
ATOM     26  C   UNL A   1      31.624  32.215  26.818  1.00  0.00     0.023 C 
BRANCH  26  27
ATOM     27  C   UNL A   1      32.817  32.928  27.452  1.00  0.00     0.116 C 
BRANCH  27  28
ATOM     28  N   UNL A   1      32.532  34.291  27.865  1.00  0.00    -0.352 N 
ATOM     29  C   UNL A   1      33.119  35.050  28.851  1.00  0.00     0.251 C 
ATOM     30  H   UNL A   1      31.812  34.739  27.364  1.00  0.00     0.163 HD
ATOM     31  O   UNL A   1      32.670  36.165  29.104  1.00  0.00    -0.269 OA
BRANCH  29  32
ATOM     32  C   UNL A   1      34.259  34.517  29.634  1.00  0.00     0.039 A 
ATOM     33  C   UNL A   1      34.004  33.953  30.888  1.00  0.00     0.014 A 
ATOM     34  C   UNL A   1      35.568  34.570  29.147  1.00  0.00     0.014 A 
ATOM     35  C   UNL A   1      35.046  33.372  31.617  1.00  0.00     0.010 A 
ATOM     36  C   UNL A   1      36.595  33.937  29.847  1.00  0.00     0.010 A 
ATOM     37  C   UNL A   1      36.344  33.324  31.084  1.00  0.00    -0.014 A 
BRANCH  37  38
ATOM     38  C   UNL A   1      37.444  32.618  31.792  1.00  0.00     0.031 A 
ATOM     39  C   UNL A   1      37.969  33.143  33.098  1.00  0.00     0.074 A 
ATOM     40  C   UNL A   1      38.021  31.544  31.218  1.00  0.00     0.049 A 
ATOM     41  N   UNL A   1      38.983  32.722  33.810  1.00  0.00    -0.248 NA
ATOM     42  C   UNL A   1      37.280  34.312  33.667  1.00  0.00     0.031 C 
ATOM     43  C   UNL A   1      37.638  30.964  29.929  1.00  0.00     0.029 A 
ATOM     44  N   UNL A   1      39.067  30.759  31.636  1.00  0.00    -0.354 N 
ATOM     45  C   UNL A   1      39.065  33.582  34.899  1.00  0.00     0.074 A 
ATOM     46  C   UNL A   1      38.023  34.571  34.733  1.00  0.00     0.031 C 
ATOM     47  C   UNL A   1      38.429  29.910  29.668  1.00  0.00     0.029 A 
ATOM     48  C   UNL A   1      39.395  29.758  30.752  1.00  0.00     0.049 A 
ATOM     49  H   UNL A   1      39.537  30.899  32.489  1.00  0.00     0.167 HD
ATOM     50  C   UNL A   1      39.920  33.539  35.950  1.00  0.00     0.037 A 
ATOM     51  C   UNL A   1      40.368  28.829  30.801  1.00  0.00     0.037 A 
ATOM     52  C   UNL A   1      40.938  32.536  36.130  1.00  0.00     0.049 A 
ATOM     53  C   UNL A   1      41.289  28.786  31.988  1.00  0.00     0.074 A 
ATOM     54  C   UNL A   1      41.818  32.381  37.186  1.00  0.00     0.029 A 
ATOM     55  N   UNL A   1      41.210  31.515  35.232  1.00  0.00    -0.354 N 
ATOM     56  N   UNL A   1      41.323  29.580  33.032  1.00  0.00    -0.248 NA
ATOM     57  C   UNL A   1      42.300  27.720  32.009  1.00  0.00     0.031 C 
ATOM     58  C   UNL A   1      42.639  31.280  36.916  1.00  0.00     0.029 A 
ATOM     59  C   UNL A   1      42.249  30.730  35.706  1.00  0.00     0.049 A 
ATOM     60  H   UNL A   1      40.734  31.368  34.382  1.00  0.00     0.167 HD
ATOM     61  C   UNL A   1      42.345  29.098  33.841  1.00  0.00     0.074 A 
ATOM     62  C   UNL A   1      42.897  27.938  33.174  1.00  0.00     0.031 C 
ATOM     63  C   UNL A   1      42.784  29.575  35.032  1.00  0.00     0.037 A 
BRANCH  50  64
ATOM     64  C   UNL A   1      39.783  34.610  36.994  1.00  0.00     0.058 A 
ATOM     65  C   UNL A   1      38.908  34.466  38.082  1.00  0.00     0.135 A 
ATOM     66  C   UNL A   1      40.544  35.788  36.917  1.00  0.00     0.135 A 
ATOM     67  F   UNL A   1      38.145  33.366  38.195  1.00  0.00    -0.206 F 
ATOM     68  C   UNL A   1      38.767  35.465  39.040  1.00  0.00     0.059 A 
ATOM     69  C   UNL A   1      40.437  36.790  37.876  1.00  0.00     0.059 A 
ATOM     70  F   UNL A   1      41.396  35.976  35.897  1.00  0.00    -0.206 F 
ATOM     71  C   UNL A   1      39.532  36.626  38.925  1.00  0.00     0.060 A 
BRANCH  71  72
ATOM     72  S   UNL A   1      39.331  37.922  40.166  1.00  0.00     0.124 S 
ATOM     73  O   UNL A   1      39.120  37.132  41.376  1.00  0.00    -0.237 OA
ATOM     74  O   UNL A   1      40.603  38.634  40.088  1.00  0.00    -0.237 OA
ATOM     75  O   UNL A   1      38.169  38.667  39.692  1.00  0.00    -0.744 OA
ENDBRANCH  71  72
ENDBRANCH  50  64
BRANCH  51  76
ATOM     76  C   UNL A   1      40.505  27.845  29.696  1.00  0.00     0.058 A 
ATOM     77  C   UNL A   1      39.635  26.749  29.598  1.00  0.00     0.135 A 
ATOM     78  C   UNL A   1      41.487  27.996  28.706  1.00  0.00     0.135 A 
ATOM     79  F   UNL A   1      38.685  26.563  30.527  1.00  0.00    -0.206 F 
ATOM     80  C   UNL A   1      39.739  25.830  28.560  1.00  0.00     0.059 A 
ATOM     81  C   UNL A   1      41.598  27.100  27.647  1.00  0.00     0.059 A 
ATOM     82  F   UNL A   1      42.331  29.038  28.748  1.00  0.00    -0.206 F 
ATOM     83  C   UNL A   1      40.723  26.015  27.587  1.00  0.00     0.060 A 
BRANCH  83  84
ATOM     84  S   UNL A   1      40.811  24.852  26.208  1.00  0.00     0.124 S 
ATOM     85  O   UNL A   1      41.636  23.791  26.772  1.00  0.00    -0.237 OA
ATOM     86  O   UNL A   1      39.406  24.522  25.991  1.00  0.00    -0.237 OA
ATOM     87  O   UNL A   1      41.430  25.641  25.147  1.00  0.00    -0.744 OA
ENDBRANCH  83  84
ENDBRANCH  51  76
BRANCH  63  88
ATOM     88  C   UNL A   1      43.902  28.828  35.703  1.00  0.00     0.058 A 
ATOM     89  C   UNL A   1      45.244  29.194  35.518  1.00  0.00     0.135 A 
ATOM     90  C   UNL A   1      43.623  27.765  36.577  1.00  0.00     0.135 A 
ATOM     91  F   UNL A   1      45.561  30.199  34.688  1.00  0.00    -0.206 F 
ATOM     92  C   UNL A   1      46.274  28.520  36.165  1.00  0.00     0.059 A 
ATOM     93  C   UNL A   1      44.636  27.091  37.250  1.00  0.00     0.059 A 
ATOM     94  F   UNL A   1      42.354  27.382  36.792  1.00  0.00    -0.206 F 
ATOM     95  C   UNL A   1      45.960  27.469  37.029  1.00  0.00     0.060 A 
BRANCH  95  96
ATOM     96  S   UNL A   1      47.302  26.623  37.893  1.00  0.00     0.124 S 
ATOM     97  O   UNL A   1      46.892  26.770  39.286  1.00  0.00    -0.237 OA
ATOM     98  O   UNL A   1      47.224  25.270  37.349  1.00  0.00    -0.237 OA
ATOM     99  O   UNL A   1      48.487  27.381  37.502  1.00  0.00    -0.744 OA
ENDBRANCH  95  96
ENDBRANCH  63  88
ENDBRANCH  37  38
ENDBRANCH  29  32
ENDBRANCH  27  28
ENDBRANCH  26  27
ENDBRANCH   1  26
TORSDOF 18
ENDMDL
MODEL 3
REMARK VINA RESULT:     -11.7      5.050      6.932
REMARK SMILES O=C(CC1(NC(=O)c2csc(-c3ccsc3)n2)CCC1)NCCCCNC(=O)c1ccc(-c2c3nc(c(-c4c(F)cc(S(=O)(=O)[O-])cc4F)c4ccc([nH]4)c(-c4c(F)cc(S(=O)(=O)[O-])cc4F)c4nc(c(-c5c(F)cc(S(=O)(=O)[O-])cc5F)c5ccc2[nH]5)C=C4)C=C3)cc1
REMARK SMILES IDX 23 1 22 2 21 3 1 4 2 5 3 7 4 8 18 9 20 10 19 11 5 12 6 13
REMARK SMILES IDX 7 15 8 16 9 17 17 18 10 19 11 20 12 21 13 22 16 23 14 24
REMARK SMILES IDX 15 25 24 26 25 27 26 28 27 29 28 31 29 32 30 33 94 34 31 35
REMARK SMILES IDX 93 36 32 37 33 38 34 39 87 40 35 41 92 42 86 43 88 44 36 45
REMARK SMILES IDX 91 46 85 47 84 48 37 50 71 51 50 52 70 53 51 54 54 55 69 56
REMARK SMILES IDX 89 57 52 58 53 59 68 61 90 62 55 63 38 64 39 65 48 66 40 67
REMARK SMILES IDX 41 68 47 69 49 70 42 71 43 72 44 73 45 74 46 75 72 76 73 77
REMARK SMILES IDX 82 78 74 79 75 80 81 81 83 82 76 83 77 84 78 85 79 86 80 87
REMARK SMILES IDX 56 88 57 89 66 90 58 91 59 92 65 93 67 94 60 95 61 96 62 97
REMARK SMILES IDX 63 98 64 99
REMARK H PARENT 21 6 5 14 26 30 88 49 54 60
REMARK Flexibility Score: inf
ROOT
ATOM      1  C   UNL A   1      31.840  27.057  26.933  1.00  0.00     0.023 C 
ENDROOT
BRANCH   1   2
ATOM      2  C   UNL A   1      30.656  26.517  26.138  1.00  0.00     0.116 C 
BRANCH   2   3
ATOM      3  N   UNL A   1      31.036  25.777  24.948  1.00  0.00    -0.356 N 
ATOM      4  O   UNL A   1      30.596  23.735  25.862  1.00  0.00    -0.275 OA
ATOM      5  C   UNL A   1      30.877  24.415  24.875  1.00  0.00     0.222 C 
ATOM      6  H   UNL A   1      31.414  26.261  24.178  1.00  0.00     0.163 HD
BRANCH   5   7
ATOM      7  C   UNL A   1      30.972  23.761  23.516  1.00  0.00     0.128 C 
BRANCH   7   8
ATOM      8  C   UNL A   1      32.317  23.452  22.868  1.00  0.00     0.049 C 
ATOM      9  C   UNL A   1      33.488  23.625  23.889  1.00  0.00     0.029 C 
ATOM     10  C   UNL A   1      32.633  21.921  22.879  1.00  0.00     0.029 C 
ATOM     11  C   UNL A   1      33.982  22.213  23.548  1.00  0.00     0.005 C 
BRANCH   8  12
ATOM     12  N   UNL A   1      32.677  24.063  21.555  1.00  0.00    -0.345 N 
ATOM     13  C   UNL A   1      32.743  25.331  21.013  1.00  0.00     0.271 C 
ATOM     14  H   UNL A   1      32.938  23.377  20.899  1.00  0.00     0.164 HD
ATOM     15  O   UNL A   1      33.039  25.418  19.825  1.00  0.00    -0.267 OA
BRANCH  13  16
ATOM     16  C   UNL A   1      32.365  26.500  21.790  1.00  0.00     0.139 A 
ATOM     17  C   UNL A   1      33.288  27.247  22.501  1.00  0.00     0.101 A 
ATOM     18  N   UNL A   1      31.054  26.936  21.925  1.00  0.00    -0.231 NA
ATOM     19  S   UNL A   1      32.555  28.683  23.074  1.00  0.00    -0.122 S 
ATOM     20  C   UNL A   1      31.044  28.136  22.471  1.00  0.00     0.125 A 
BRANCH  20  21
ATOM     21  C   UNL A   1      29.788  28.957  22.473  1.00  0.00     0.021 A 
ATOM     22  C   UNL A   1      28.562  28.547  23.077  1.00  0.00     0.023 A 
ATOM     23  C   UNL A   1      29.663  30.168  21.826  1.00  0.00     0.076 A 
ATOM     24  C   UNL A   1      27.557  29.471  22.890  1.00  0.00     0.065 A 
ATOM     25  S   UNL A   1      28.076  30.803  21.951  1.00  0.00    -0.152 S 
ENDBRANCH  20  21
ENDBRANCH  13  16
ENDBRANCH   8  12
ENDBRANCH   7   8
ENDBRANCH   5   7
ENDBRANCH   2   3
ENDBRANCH   1   2
BRANCH   1  26
ATOM     26  C   UNL A   1      31.993  28.580  26.927  1.00  0.00     0.023 C 
BRANCH  26  27
ATOM     27  C   UNL A   1      33.398  29.116  27.191  1.00  0.00     0.116 C 
BRANCH  27  28
ATOM     28  N   UNL A   1      33.471  30.566  27.243  1.00  0.00    -0.352 N 
ATOM     29  C   UNL A   1      34.456  31.377  27.757  1.00  0.00     0.251 C 
ATOM     30  H   UNL A   1      32.700  31.039  26.851  1.00  0.00     0.163 HD
ATOM     31  O   UNL A   1      34.286  32.594  27.781  1.00  0.00    -0.269 OA
BRANCH  29  32
ATOM     32  C   UNL A   1      35.698  30.793  28.316  1.00  0.00     0.039 A 
ATOM     33  C   UNL A   1      36.929  31.271  27.855  1.00  0.00     0.014 A 
ATOM     34  C   UNL A   1      35.660  29.784  29.282  1.00  0.00     0.014 A 
ATOM     35  C   UNL A   1      38.117  30.797  28.419  1.00  0.00     0.010 A 
ATOM     36  C   UNL A   1      36.842  29.355  29.885  1.00  0.00     0.010 A 
ATOM     37  C   UNL A   1      38.082  29.863  29.466  1.00  0.00    -0.014 A 
BRANCH  37  38
ATOM     38  C   UNL A   1      39.326  29.425  30.152  1.00  0.00     0.031 A 
ATOM     39  C   UNL A   1      39.817  30.149  31.374  1.00  0.00     0.074 A 
ATOM     40  C   UNL A   1      40.054  28.419  29.628  1.00  0.00     0.049 A 
ATOM     41  N   UNL A   1      40.925  29.976  32.047  1.00  0.00    -0.248 NA
ATOM     42  C   UNL A   1      38.961  31.228  31.893  1.00  0.00     0.031 C 
ATOM     43  C   UNL A   1      39.713  27.667  28.418  1.00  0.00     0.029 A 
ATOM     44  N   UNL A   1      41.244  27.868  30.036  1.00  0.00    -0.354 N 
ATOM     45  C   UNL A   1      40.911  30.932  33.056  1.00  0.00     0.074 A 
ATOM     46  C   UNL A   1      39.701  31.707  32.882  1.00  0.00     0.031 C 
ATOM     47  C   UNL A   1      40.664  26.746  28.190  1.00  0.00     0.029 A 
ATOM     48  C   UNL A   1      41.698  26.862  29.215  1.00  0.00     0.049 A 
ATOM     49  H   UNL A   1      41.726  28.164  30.842  1.00  0.00     0.167 HD
ATOM     50  C   UNL A   1      41.813  31.133  34.046  1.00  0.00     0.037 A 
ATOM     51  C   UNL A   1      42.822  26.124  29.272  1.00  0.00     0.037 A 
ATOM     52  C   UNL A   1      43.002  30.342  34.236  1.00  0.00     0.049 A 
ATOM     53  C   UNL A   1      43.797  26.349  30.393  1.00  0.00     0.074 A 
ATOM     54  C   UNL A   1      43.950  30.438  35.240  1.00  0.00     0.029 A 
ATOM     55  N   UNL A   1      43.403  29.306  33.406  1.00  0.00    -0.354 N 
ATOM     56  N   UNL A   1      43.744  27.228  31.366  1.00  0.00    -0.248 NA
ATOM     57  C   UNL A   1      44.981  25.481  30.431  1.00  0.00     0.031 C 
ATOM     58  C   UNL A   1      44.938  29.475  35.004  1.00  0.00     0.029 A 
ATOM     59  C   UNL A   1      44.589  28.759  33.871  1.00  0.00     0.049 A 
ATOM     60  H   UNL A   1      42.918  29.002  32.605  1.00  0.00     0.167 HD
ATOM     61  C   UNL A   1      44.876  27.006  32.141  1.00  0.00     0.074 A 
ATOM     62  C   UNL A   1      45.591  25.903  31.532  1.00  0.00     0.031 C 
ATOM     63  C   UNL A   1      45.285  27.657  33.257  1.00  0.00     0.037 A 
BRANCH  50  64
ATOM     64  C   UNL A   1      41.542  32.255  35.008  1.00  0.00     0.058 A 
ATOM     65  C   UNL A   1      40.713  32.077  36.126  1.00  0.00     0.135 A 
ATOM     66  C   UNL A   1      42.129  33.517  34.820  1.00  0.00     0.135 A 
ATOM     67  F   UNL A   1      40.115  30.895  36.344  1.00  0.00    -0.206 F 
ATOM     68  C   UNL A   1      40.448  33.120  37.008  1.00  0.00     0.059 A 
ATOM     69  C   UNL A   1      41.896  34.567  35.702  1.00  0.00     0.059 A 
ATOM     70  F   UNL A   1      42.930  33.740  33.767  1.00  0.00    -0.206 F 
ATOM     71  C   UNL A   1      41.040  34.363  36.784  1.00  0.00     0.060 A 
BRANCH  71  72
ATOM     72  S   UNL A   1      40.677  35.714  37.926  1.00  0.00     0.124 S 
ATOM     73  O   UNL A   1      39.940  36.632  37.062  1.00  0.00    -0.237 OA
ATOM     74  O   UNL A   1      39.891  35.050  38.961  1.00  0.00    -0.237 OA
ATOM     75  O   UNL A   1      41.999  36.170  38.343  1.00  0.00    -0.744 OA
ENDBRANCH  71  72
ENDBRANCH  50  64
BRANCH  51  76
ATOM     76  C   UNL A   1      43.074  25.082  28.242  1.00  0.00     0.058 A 
ATOM     77  C   UNL A   1      43.656  25.417  27.012  1.00  0.00     0.135 A 
ATOM     78  C   UNL A   1      42.762  23.735  28.480  1.00  0.00     0.135 A 
ATOM     79  F   UNL A   1      43.965  26.694  26.741  1.00  0.00    -0.206 F 
ATOM     80  C   UNL A   1      43.915  24.451  26.045  1.00  0.00     0.059 A 
ATOM     81  C   UNL A   1      43.030  22.749  27.535  1.00  0.00     0.059 A 
ATOM     82  F   UNL A   1      42.219  23.366  29.649  1.00  0.00    -0.206 F 
ATOM     83  C   UNL A   1      43.600  23.119  26.317  1.00  0.00     0.060 A 
BRANCH  83  84
ATOM     84  S   UNL A   1      43.997  21.862  25.082  1.00  0.00     0.124 S 
ATOM     85  O   UNL A   1      42.941  20.882  25.311  1.00  0.00    -0.237 OA
ATOM     86  O   UNL A   1      43.908  22.615  23.834  1.00  0.00    -0.237 OA
ATOM     87  O   UNL A   1      45.344  21.443  25.454  1.00  0.00    -0.744 OA
ENDBRANCH  83  84
ENDBRANCH  51  76
BRANCH  63  88
ATOM     88  C   UNL A   1      46.552  27.179  33.908  1.00  0.00     0.058 A 
ATOM     89  C   UNL A   1      47.801  27.726  33.575  1.00  0.00     0.135 A 
ATOM     90  C   UNL A   1      46.509  26.197  34.910  1.00  0.00     0.135 A 
ATOM     91  F   UNL A   1      47.894  28.662  32.619  1.00  0.00    -0.206 F 
ATOM     92  C   UNL A   1      48.967  27.302  34.202  1.00  0.00     0.059 A 
ATOM     93  C   UNL A   1      47.661  25.773  35.564  1.00  0.00     0.059 A 
ATOM     94  F   UNL A   1      45.338  25.648  35.269  1.00  0.00    -0.206 F 
ATOM     95  C   UNL A   1      48.888  26.325  35.196  1.00  0.00     0.060 A 
BRANCH  95  96
ATOM     96  S   UNL A   1      50.403  25.807  36.030  1.00  0.00     0.124 S 
ATOM     97  O   UNL A   1      50.683  24.538  35.369  1.00  0.00    -0.237 OA
ATOM     98  O   UNL A   1      51.322  26.900  35.722  1.00  0.00    -0.237 OA
ATOM     99  O   UNL A   1      50.002  25.713  37.431  1.00  0.00    -0.744 OA
ENDBRANCH  95  96
ENDBRANCH  63  88
ENDBRANCH  37  38
ENDBRANCH  29  32
ENDBRANCH  27  28
ENDBRANCH  26  27
ENDBRANCH   1  26
TORSDOF 18
ENDMDL
