MODEL 1
REMARK VINA RESULT:     -12.0      0.000      0.000
REMARK SMILES Cc1cc(Br)c(C)c([C@@H]2[NH2+][C@H](C(=O)NCCCCNC(=O)c3ccc(-c4c5nc(c(-c6c(F)cc(S(=O)(=O)[O-])cc6F)c6ccc([nH]6)c(-c6c(F)cc(S(=O)(=O)[O-])cc6F)c6nc(c(-c7c(F)cc(S(=O)(=O)[O-])cc7F)c7ccc4[nH]7)C=C6)C=C5)cc3)CS2)c1O
REMARK SMILES IDX 17 1 16 2 15 3 14 4 12 5 13 6 11 8 9 9 10 10 89 11 88 14
REMARK SMILES IDX 8 15 1 16 2 17 3 18 90 19 4 20 5 21 6 22 7 23 91 24 18 26
REMARK SMILES IDX 19 27 20 28 21 30 22 31 23 32 87 33 24 34 86 35 25 36 26 37
REMARK SMILES IDX 27 38 80 39 28 40 85 41 79 42 81 43 29 44 84 45 78 46 77 47
REMARK SMILES IDX 30 49 64 50 43 51 63 52 44 53 47 54 62 55 82 56 45 57 46 58
REMARK SMILES IDX 61 60 83 61 48 62 31 63 32 64 41 65 33 66 34 67 40 68 42 69
REMARK SMILES IDX 35 70 36 71 37 72 38 73 39 74 65 75 66 76 75 77 67 78 68 79
REMARK SMILES IDX 74 80 76 81 69 82 70 83 71 84 72 85 73 86 49 87 50 88 59 89
REMARK SMILES IDX 51 90 52 91 58 92 60 93 53 94 54 95 55 96 56 97 57 98
REMARK H PARENT 14 7 10 12 10 13 91 25 19 29 81 48 47 59
REMARK Flexibility Score: inf
ROOT
ATOM      1  C   UNL A   1      34.921  31.984  28.064  1.00  0.00     0.023 C 
ENDROOT
BRANCH   1   2
ATOM      2  C   UNL A   1      34.408  30.597  27.664  1.00  0.00     0.023 C 
BRANCH   2   3
ATOM      3  C   UNL A   1      33.036  30.589  26.987  1.00  0.00     0.116 C 
BRANCH   3   4
ATOM      4  N   UNL A   1      32.152  29.530  27.432  1.00  0.00    -0.351 N 
ATOM      5  C   UNL A   1      31.878  28.313  26.876  1.00  0.00     0.279 C 
ATOM      6  O   UNL A   1      31.338  27.478  27.614  1.00  0.00    -0.268 OA
ATOM      7  H   UNL A   1      31.671  29.717  28.271  1.00  0.00     0.163 HD
BRANCH   5   8
ATOM      8  C   UNL A   1      32.225  27.911  25.427  1.00  0.00     0.283 C 
ATOM      9  C   UNL A   1      32.455  25.883  24.122  1.00  0.00     0.278 C 
ATOM     10  N   UNL A   1      32.905  26.605  25.318  1.00  0.00    -0.320 N 
ATOM     11  S   UNL A   1      31.378  26.941  23.136  1.00  0.00    -0.087 SA
ATOM     12  H   UNL A   1      33.913  26.757  25.258  1.00  0.00     0.348 HD
ATOM     13  H   UNL A   1      32.678  26.048  26.141  1.00  0.00     0.348 HD
ATOM     14  C   UNL A   1      30.992  28.009  24.537  1.00  0.00     0.151 C 
BRANCH   9  15
ATOM     15  C   UNL A   1      31.966  24.485  24.531  1.00  0.00     0.066 A 
ATOM     16  C   UNL A   1      29.616  22.894  27.156  1.00  0.00     0.048 C 
ATOM     17  C   UNL A   1      30.599  23.057  26.029  1.00  0.00    -0.008 A 
ATOM     18  C   UNL A   1      31.347  21.949  25.634  1.00  0.00     0.023 A 
ATOM     19  C   UNL A   1      30.898  24.302  25.453  1.00  0.00     0.128 A 
ATOM     20  C   UNL A   1      32.406  22.081  24.736  1.00  0.00     0.021 A 
ATOM     21  Br  UNL A   1      33.438  20.505  24.440  1.00  0.00    -0.051 Br
ATOM     22  C   UNL A   1      32.738  23.332  24.170  1.00  0.00    -0.023 A 
ATOM     23  C   UNL A   1      33.990  23.441  23.325  1.00  0.00     0.046 C 
BRANCH  19  24
ATOM     24  O   UNL A   1      30.203  25.401  25.883  1.00  0.00    -0.507 OA
ATOM     25  H   UNL A   1      30.439  26.254  25.575  1.00  0.00     0.293 HD
ENDBRANCH  19  24
ENDBRANCH   9  15
ENDBRANCH   5   8
ENDBRANCH   3   4
ENDBRANCH   2   3
ENDBRANCH   1   2
BRANCH   1  26
ATOM     26  C   UNL A   1      35.605  32.099  29.427  1.00  0.00     0.116 C 
BRANCH  26  27
ATOM     27  N   UNL A   1      35.533  30.908  30.263  1.00  0.00    -0.352 N 
ATOM     28  C   UNL A   1      36.562  30.043  30.588  1.00  0.00     0.251 C 
ATOM     29  H   UNL A   1      34.649  30.693  30.641  1.00  0.00     0.163 HD
ATOM     30  O   UNL A   1      36.386  29.079  31.325  1.00  0.00    -0.269 OA
BRANCH  28  31
ATOM     31  C   UNL A   1      37.882  30.270  29.967  1.00  0.00     0.039 A 
ATOM     32  C   UNL A   1      38.064  29.989  28.613  1.00  0.00     0.014 A 
ATOM     33  C   UNL A   1      38.968  30.568  30.793  1.00  0.00     0.014 A 
ATOM     34  C   UNL A   1      39.353  29.775  28.143  1.00  0.00     0.010 A 
ATOM     35  C   UNL A   1      40.263  30.431  30.292  1.00  0.00     0.010 A 
ATOM     36  C   UNL A   1      40.461  29.945  28.992  1.00  0.00    -0.014 A 
BRANCH  36  37
ATOM     37  C   UNL A   1      41.800  29.493  28.529  1.00  0.00     0.031 A 
ATOM     38  C   UNL A   1      42.989  30.418  28.638  1.00  0.00     0.074 A 
ATOM     39  C   UNL A   1      41.963  28.218  28.130  1.00  0.00     0.049 A 
ATOM     40  N   UNL A   1      44.236  30.202  28.304  1.00  0.00    -0.248 NA
ATOM     41  C   UNL A   1      42.749  31.761  29.194  1.00  0.00     0.031 C 
ATOM     42  C   UNL A   1      40.891  27.225  28.036  1.00  0.00     0.029 A 
ATOM     43  N   UNL A   1      43.091  27.526  27.775  1.00  0.00    -0.354 N 
ATOM     44  C   UNL A   1      44.919  31.381  28.585  1.00  0.00     0.074 A 
ATOM     45  C   UNL A   1      43.948  32.320  29.100  1.00  0.00     0.031 C 
ATOM     46  C   UNL A   1      41.423  26.035  27.721  1.00  0.00     0.029 A 
ATOM     47  C   UNL A   1      42.859  26.194  27.521  1.00  0.00     0.049 A 
ATOM     48  H   UNL A   1      43.981  27.940  27.708  1.00  0.00     0.167 HD
ATOM     49  C   UNL A   1      46.239  31.652  28.436  1.00  0.00     0.037 A 
ATOM     50  C   UNL A   1      43.709  25.215  27.158  1.00  0.00     0.037 A 
ATOM     51  C   UNL A   1      47.203  30.698  27.950  1.00  0.00     0.049 A 
ATOM     52  C   UNL A   1      45.159  25.550  26.965  1.00  0.00     0.074 A 
ATOM     53  C   UNL A   1      48.557  30.874  27.729  1.00  0.00     0.029 A 
ATOM     54  N   UNL A   1      46.914  29.379  27.629  1.00  0.00    -0.354 N 
ATOM     55  N   UNL A   1      45.772  26.693  27.164  1.00  0.00    -0.248 NA
ATOM     56  C   UNL A   1      46.028  24.473  26.475  1.00  0.00     0.031 C 
ATOM     57  C   UNL A   1      49.083  29.669  27.251  1.00  0.00     0.029 A 
ATOM     58  C   UNL A   1      48.063  28.732  27.207  1.00  0.00     0.049 A 
ATOM     59  H   UNL A   1      46.023  28.966  27.691  1.00  0.00     0.167 HD
ATOM     60  C   UNL A   1      47.099  26.476  26.817  1.00  0.00     0.074 A 
ATOM     61  C   UNL A   1      47.204  25.084  26.423  1.00  0.00     0.031 C 
ATOM     62  C   UNL A   1      48.135  27.350  26.811  1.00  0.00     0.037 A 
BRANCH  49  63
ATOM     63  C   UNL A   1      46.721  33.034  28.786  1.00  0.00     0.058 A 
ATOM     64  C   UNL A   1      46.714  34.078  27.848  1.00  0.00     0.135 A 
ATOM     65  C   UNL A   1      47.146  33.332  30.092  1.00  0.00     0.135 A 
ATOM     66  F   UNL A   1      46.337  33.844  26.581  1.00  0.00    -0.206 F 
ATOM     67  C   UNL A   1      47.122  35.365  28.188  1.00  0.00     0.059 A 
ATOM     68  C   UNL A   1      47.539  34.617  30.459  1.00  0.00     0.059 A 
ATOM     69  F   UNL A   1      47.177  32.371  31.028  1.00  0.00    -0.206 F 
ATOM     70  C   UNL A   1      47.532  35.625  29.497  1.00  0.00     0.060 A 
BRANCH  70  71
ATOM     71  S   UNL A   1      48.045  37.304  29.923  1.00  0.00     0.124 S 
ATOM     72  O   UNL A   1      47.180  38.100  29.058  1.00  0.00    -0.237 OA
ATOM     73  O   UNL A   1      47.746  37.369  31.351  1.00  0.00    -0.237 OA
ATOM     74  O   UNL A   1      49.464  37.324  29.581  1.00  0.00    -0.744 OA
ENDBRANCH  70  71
ENDBRANCH  49  63
BRANCH  50  75
ATOM     75  C   UNL A   1      43.195  23.837  26.945  1.00  0.00     0.058 A 
ATOM     76  C   UNL A   1      43.009  23.328  25.652  1.00  0.00     0.135 A 
ATOM     77  C   UNL A   1      42.928  22.987  28.029  1.00  0.00     0.135 A 
ATOM     78  F   UNL A   1      43.244  24.105  24.584  1.00  0.00    -0.206 F 
ATOM     79  C   UNL A   1      42.582  22.020  25.440  1.00  0.00     0.059 A 
ATOM     80  C   UNL A   1      42.525  21.669  27.843  1.00  0.00     0.059 A 
ATOM     81  F   UNL A   1      43.103  23.423  29.286  1.00  0.00    -0.206 F 
ATOM     82  C   UNL A   1      42.349  21.196  26.543  1.00  0.00     0.060 A 
BRANCH  82  83
ATOM     83  S   UNL A   1      41.876  19.477  26.260  1.00  0.00     0.124 S 
ATOM     84  O   UNL A   1      42.636  19.157  25.058  1.00  0.00    -0.237 OA
ATOM     85  O   UNL A   1      42.321  18.828  27.490  1.00  0.00    -0.237 OA
ATOM     86  O   UNL A   1      40.428  19.552  26.092  1.00  0.00    -0.744 OA
ENDBRANCH  82  83
ENDBRANCH  50  75
BRANCH  62  87
ATOM     87  C   UNL A   1      49.465  26.823  26.358  1.00  0.00     0.058 A 
ATOM     88  C   UNL A   1      50.288  26.089  27.225  1.00  0.00     0.135 A 
ATOM     89  C   UNL A   1      49.900  27.018  25.039  1.00  0.00     0.135 A 
ATOM     90  F   UNL A   1      49.916  25.884  28.498  1.00  0.00    -0.206 F 
ATOM     91  C   UNL A   1      51.511  25.583  26.804  1.00  0.00     0.059 A 
ATOM     92  C   UNL A   1      51.110  26.503  24.590  1.00  0.00     0.059 A 
ATOM     93  F   UNL A   1      49.140  27.706  24.171  1.00  0.00    -0.206 F 
ATOM     94  C   UNL A   1      51.915  25.796  25.484  1.00  0.00     0.060 A 
BRANCH  94  95
ATOM     95  S   UNL A   1      53.496  25.114  24.943  1.00  0.00     0.124 S 
ATOM     96  O   UNL A   1      54.441  25.941  25.685  1.00  0.00    -0.237 OA
ATOM     97  O   UNL A   1      53.399  23.722  25.372  1.00  0.00    -0.237 OA
ATOM     98  O   UNL A   1      53.478  25.320  23.498  1.00  0.00    -0.744 OA
ENDBRANCH  94  95
ENDBRANCH  62  87
ENDBRANCH  36  37
ENDBRANCH  28  31
ENDBRANCH  26  27
ENDBRANCH   1  26
TORSDOF 16
ENDMDL
MODEL 2
REMARK VINA RESULT:     -12.0      3.512      5.591
REMARK SMILES Cc1cc(Br)c(C)c([C@@H]2[NH2+][C@H](C(=O)NCCCCNC(=O)c3ccc(-c4c5nc(c(-c6c(F)cc(S(=O)(=O)[O-])cc6F)c6ccc([nH]6)c(-c6c(F)cc(S(=O)(=O)[O-])cc6F)c6nc(c(-c7c(F)cc(S(=O)(=O)[O-])cc7F)c7ccc4[nH]7)C=C6)C=C5)cc3)CS2)c1O
REMARK SMILES IDX 17 1 16 2 15 3 14 4 12 5 13 6 11 8 9 9 10 10 89 11 88 14
REMARK SMILES IDX 8 15 1 16 2 17 3 18 90 19 4 20 5 21 6 22 7 23 91 24 18 26
REMARK SMILES IDX 19 27 20 28 21 30 22 31 23 32 87 33 24 34 86 35 25 36 26 37
REMARK SMILES IDX 27 38 80 39 28 40 85 41 79 42 81 43 29 44 84 45 78 46 77 47
REMARK SMILES IDX 30 49 64 50 43 51 63 52 44 53 47 54 62 55 82 56 45 57 46 58
REMARK SMILES IDX 61 60 83 61 48 62 31 63 32 64 41 65 33 66 34 67 40 68 42 69
REMARK SMILES IDX 35 70 36 71 37 72 38 73 39 74 65 75 66 76 75 77 67 78 68 79
REMARK SMILES IDX 74 80 76 81 69 82 70 83 71 84 72 85 73 86 49 87 50 88 59 89
REMARK SMILES IDX 51 90 52 91 58 92 60 93 53 94 54 95 55 96 56 97 57 98
REMARK H PARENT 14 7 10 12 10 13 91 25 19 29 81 48 47 59
REMARK Flexibility Score: inf
ROOT
ATOM      1  C   UNL A   1      34.878  29.139  27.357  1.00  0.00     0.023 C 
ENDROOT
BRANCH   1   2
ATOM      2  C   UNL A   1      33.851  30.076  26.713  1.00  0.00     0.023 C 
BRANCH   2   3
ATOM      3  C   UNL A   1      33.303  31.164  27.638  1.00  0.00     0.116 C 
BRANCH   3   4
ATOM      4  N   UNL A   1      33.741  32.507  27.312  1.00  0.00    -0.351 N 
ATOM      5  C   UNL A   1      34.195  33.511  28.118  1.00  0.00     0.279 C 
ATOM      6  O   UNL A   1      34.798  34.437  27.559  1.00  0.00    -0.268 OA
ATOM      7  H   UNL A   1      33.705  32.732  26.353  1.00  0.00     0.163 HD
BRANCH   5   8
ATOM      8  C   UNL A   1      34.039  33.544  29.653  1.00  0.00     0.283 C 
ATOM      9  C   UNL A   1      35.458  33.439  31.614  1.00  0.00     0.278 C 
ATOM     10  N   UNL A   1      35.064  32.762  30.372  1.00  0.00    -0.320 N 
ATOM     11  S   UNL A   1      34.407  34.878  31.887  1.00  0.00    -0.087 SA
ATOM     12  H   UNL A   1      34.685  31.841  30.598  1.00  0.00     0.348 HD
ATOM     13  H   UNL A   1      35.886  32.671  29.775  1.00  0.00     0.348 HD
ATOM     14  C   UNL A   1      33.941  34.981  30.148  1.00  0.00     0.151 C 
BRANCH   9  15
ATOM     15  C   UNL A   1      36.985  33.607  31.635  1.00  0.00     0.066 A 
ATOM     16  C   UNL A   1      39.847  34.368  29.151  1.00  0.00     0.048 C 
ATOM     17  C   UNL A   1      39.100  34.038  30.414  1.00  0.00    -0.008 A 
ATOM     18  C   UNL A   1      39.813  33.507  31.487  1.00  0.00     0.023 A 
ATOM     19  C   UNL A   1      37.702  34.107  30.512  1.00  0.00     0.128 A 
ATOM     20  C   UNL A   1      39.153  33.000  32.606  1.00  0.00     0.021 A 
ATOM     21  Br  UNL A   1      40.263  32.148  33.903  1.00  0.00    -0.051 Br
ATOM     22  C   UNL A   1      37.745  33.036  32.709  1.00  0.00    -0.023 A 
ATOM     23  C   UNL A   1      37.079  32.333  33.873  1.00  0.00     0.046 C 
BRANCH  19  24
ATOM     24  O   UNL A   1      36.996  34.575  29.436  1.00  0.00    -0.507 OA
ATOM     25  H   UNL A   1      36.602  33.972  28.836  1.00  0.00     0.293 HD
ENDBRANCH  19  24
ENDBRANCH   9  15
ENDBRANCH   5   8
ENDBRANCH   3   4
ENDBRANCH   2   3
ENDBRANCH   1   2
BRANCH   1  26
ATOM     26  C   UNL A   1      35.924  29.785  28.267  1.00  0.00     0.116 C 
BRANCH  26  27
ATOM     27  N   UNL A   1      35.677  29.648  29.696  1.00  0.00    -0.352 N 
ATOM     28  C   UNL A   1      36.586  29.801  30.728  1.00  0.00     0.251 C 
ATOM     29  H   UNL A   1      34.756  29.420  29.960  1.00  0.00     0.163 HD
ATOM     30  O   UNL A   1      36.256  29.684  31.902  1.00  0.00    -0.269 OA
BRANCH  28  31
ATOM     31  C   UNL A   1      37.999  30.049  30.375  1.00  0.00     0.039 A 
ATOM     32  C   UNL A   1      38.325  30.468  29.086  1.00  0.00     0.014 A 
ATOM     33  C   UNL A   1      38.992  29.662  31.280  1.00  0.00     0.014 A 
ATOM     34  C   UNL A   1      39.621  30.274  28.628  1.00  0.00     0.010 A 
ATOM     35  C   UNL A   1      40.310  29.547  30.837  1.00  0.00     0.010 A 
ATOM     36  C   UNL A   1      40.614  29.764  29.484  1.00  0.00    -0.014 A 
BRANCH  36  37
ATOM     37  C   UNL A   1      41.923  29.358  28.910  1.00  0.00     0.031 A 
ATOM     38  C   UNL A   1      43.102  30.300  28.975  1.00  0.00     0.074 A 
ATOM     39  C   UNL A   1      42.078  28.105  28.444  1.00  0.00     0.049 A 
ATOM     40  N   UNL A   1      44.325  30.122  28.545  1.00  0.00    -0.248 NA
ATOM     41  C   UNL A   1      42.881  31.613  29.605  1.00  0.00     0.031 C 
ATOM     42  C   UNL A   1      41.017  27.096  28.382  1.00  0.00     0.029 A 
ATOM     43  N   UNL A   1      43.188  27.449  27.980  1.00  0.00    -0.354 N 
ATOM     44  C   UNL A   1      45.008  31.301  28.829  1.00  0.00     0.074 A 
ATOM     45  C   UNL A   1      44.061  32.198  29.452  1.00  0.00     0.031 C 
ATOM     46  C   UNL A   1      41.544  25.931  27.978  1.00  0.00     0.029 A 
ATOM     47  C   UNL A   1      42.960  26.126  27.685  1.00  0.00     0.049 A 
ATOM     48  H   UNL A   1      44.064  27.883  27.870  1.00  0.00     0.167 HD
ATOM     49  C   UNL A   1      46.309  31.603  28.600  1.00  0.00     0.037 A 
ATOM     50  C   UNL A   1      43.797  25.180  27.221  1.00  0.00     0.037 A 
ATOM     51  C   UNL A   1      47.251  30.688  28.006  1.00  0.00     0.049 A 
ATOM     52  C   UNL A   1      45.225  25.549  26.942  1.00  0.00     0.074 A 
ATOM     53  C   UNL A   1      48.584  30.900  27.699  1.00  0.00     0.029 A 
ATOM     54  N   UNL A   1      46.961  29.380  27.648  1.00  0.00    -0.354 N 
ATOM     55  N   UNL A   1      45.831  26.694  27.147  1.00  0.00    -0.248 NA
ATOM     56  C   UNL A   1      46.074  24.511  26.345  1.00  0.00     0.031 C 
ATOM     57  C   UNL A   1      49.093  29.726  27.133  1.00  0.00     0.029 A 
ATOM     58  C   UNL A   1      48.087  28.773  27.119  1.00  0.00     0.049 A 
ATOM     59  H   UNL A   1      46.083  28.947  27.754  1.00  0.00     0.167 HD
ATOM     60  C   UNL A   1      47.134  26.517  26.698  1.00  0.00     0.074 A 
ATOM     61  C   UNL A   1      47.233  25.146  26.238  1.00  0.00     0.031 C 
ATOM     62  C   UNL A   1      48.153  27.410  26.658  1.00  0.00     0.037 A 
BRANCH  49  63
ATOM     63  C   UNL A   1      46.793  32.977  28.976  1.00  0.00     0.058 A 
ATOM     64  C   UNL A   1      47.361  33.242  30.231  1.00  0.00     0.135 A 
ATOM     65  C   UNL A   1      46.737  34.032  28.049  1.00  0.00     0.135 A 
ATOM     66  F   UNL A   1      47.422  32.276  31.163  1.00  0.00    -0.206 F 
ATOM     67  C   UNL A   1      47.846  34.506  30.560  1.00  0.00     0.059 A 
ATOM     68  C   UNL A   1      47.233  35.298  28.349  1.00  0.00     0.059 A 
ATOM     69  F   UNL A   1      46.200  33.836  26.835  1.00  0.00    -0.206 F 
ATOM     70  C   UNL A   1      47.778  35.527  29.611  1.00  0.00     0.060 A 
BRANCH  70  71
ATOM     71  S   UNL A   1      48.424  37.156  30.049  1.00  0.00     0.124 S 
ATOM     72  O   UNL A   1      48.438  37.080  31.507  1.00  0.00    -0.237 OA
ATOM     73  O   UNL A   1      49.732  37.158  29.402  1.00  0.00    -0.237 OA
ATOM     74  O   UNL A   1      47.444  38.076  29.480  1.00  0.00    -0.744 OA
ENDBRANCH  70  71
ENDBRANCH  49  63
BRANCH  50  75
ATOM     75  C   UNL A   1      43.292  23.803  26.984  1.00  0.00     0.058 A 
ATOM     76  C   UNL A   1      43.028  23.343  25.686  1.00  0.00     0.135 A 
ATOM     77  C   UNL A   1      43.110  22.904  28.046  1.00  0.00     0.135 A 
ATOM     78  F   UNL A   1      43.180  24.168  24.638  1.00  0.00    -0.206 F 
ATOM     79  C   UNL A   1      42.607  22.038  25.447  1.00  0.00     0.059 A 
ATOM     80  C   UNL A   1      42.715  21.588  27.832  1.00  0.00     0.059 A 
ATOM     81  F   UNL A   1      43.360  23.291  29.306  1.00  0.00    -0.206 F 
ATOM     82  C   UNL A   1      42.461  21.166  26.527  1.00  0.00     0.060 A 
BRANCH  82  83
ATOM     83  S   UNL A   1      41.996  19.451  26.204  1.00  0.00     0.124 S 
ATOM     84  O   UNL A   1      42.743  19.170  24.984  1.00  0.00    -0.237 OA
ATOM     85  O   UNL A   1      42.462  18.772  27.410  1.00  0.00    -0.237 OA
ATOM     86  O   UNL A   1      40.545  19.521  26.056  1.00  0.00    -0.744 OA
ENDBRANCH  82  83
ENDBRANCH  50  75
BRANCH  62  87
ATOM     87  C   UNL A   1      49.456  26.928  26.090  1.00  0.00     0.058 A 
ATOM     88  C   UNL A   1      49.764  27.102  24.733  1.00  0.00     0.135 A 
ATOM     89  C   UNL A   1      50.416  26.326  26.917  1.00  0.00     0.135 A 
ATOM     90  F   UNL A   1      48.873  27.666  23.904  1.00  0.00    -0.206 F 
ATOM     91  C   UNL A   1      50.977  26.674  24.208  1.00  0.00     0.059 A 
ATOM     92  C   UNL A   1      51.645  25.910  26.417  1.00  0.00     0.059 A 
ATOM     93  F   UNL A   1      50.168  26.149  28.224  1.00  0.00    -0.206 F 
ATOM     94  C   UNL A   1      51.911  26.078  25.058  1.00  0.00     0.060 A 
BRANCH  94  95
ATOM     95  S   UNL A   1      53.493  25.548  24.368  1.00  0.00     0.124 S 
ATOM     96  O   UNL A   1      53.503  24.131  24.714  1.00  0.00    -0.237 OA
ATOM     97  O   UNL A   1      53.333  25.852  22.949  1.00  0.00    -0.237 OA
ATOM     98  O   UNL A   1      54.466  26.375  25.074  1.00  0.00    -0.744 OA
ENDBRANCH  94  95
ENDBRANCH  62  87
ENDBRANCH  36  37
ENDBRANCH  28  31
ENDBRANCH  26  27
ENDBRANCH   1  26
TORSDOF 16
ENDMDL
MODEL 3
REMARK VINA RESULT:     -11.9      6.550     11.870
REMARK SMILES Cc1cc(Br)c(C)c([C@@H]2[NH2+][C@H](C(=O)NCCCCNC(=O)c3ccc(-c4c5nc(c(-c6c(F)cc(S(=O)(=O)[O-])cc6F)c6ccc([nH]6)c(-c6c(F)cc(S(=O)(=O)[O-])cc6F)c6nc(c(-c7c(F)cc(S(=O)(=O)[O-])cc7F)c7ccc4[nH]7)C=C6)C=C5)cc3)CS2)c1O
REMARK SMILES IDX 17 1 16 2 15 3 14 4 12 5 13 6 11 8 9 9 10 10 89 11 88 14
REMARK SMILES IDX 8 15 1 16 2 17 3 18 90 19 4 20 5 21 6 22 7 23 91 24 18 26
REMARK SMILES IDX 19 27 20 28 21 30 22 31 23 32 87 33 24 34 86 35 25 36 26 37
REMARK SMILES IDX 27 38 80 39 28 40 85 41 79 42 81 43 29 44 84 45 78 46 77 47
REMARK SMILES IDX 30 49 64 50 43 51 63 52 44 53 47 54 62 55 82 56 45 57 46 58
REMARK SMILES IDX 61 60 83 61 48 62 31 63 32 64 41 65 33 66 34 67 40 68 42 69
REMARK SMILES IDX 35 70 36 71 37 72 38 73 39 74 65 75 66 76 75 77 67 78 68 79
REMARK SMILES IDX 74 80 76 81 69 82 70 83 71 84 72 85 73 86 49 87 50 88 59 89
REMARK SMILES IDX 51 90 52 91 58 92 60 93 53 94 54 95 55 96 56 97 57 98
REMARK H PARENT 14 7 10 12 10 13 91 25 19 29 81 48 47 59
REMARK Flexibility Score: inf
ROOT
ATOM      1  C   UNL A   1      40.035  22.471  27.236  1.00  0.00     0.023 C 
ENDROOT
BRANCH   1   2
ATOM      2  C   UNL A   1      39.120  21.985  26.107  1.00  0.00     0.023 C 
BRANCH   2   3
ATOM      3  C   UNL A   1      37.978  22.938  25.749  1.00  0.00     0.116 C 
BRANCH   3   4
ATOM      4  N   UNL A   1      37.464  22.782  24.402  1.00  0.00    -0.351 N 
ATOM      5  C   UNL A   1      36.187  22.863  23.927  1.00  0.00     0.279 C 
ATOM      6  O   UNL A   1      36.062  23.007  22.703  1.00  0.00    -0.268 OA
ATOM      7  H   UNL A   1      38.147  22.589  23.719  1.00  0.00     0.163 HD
BRANCH   5   8
ATOM      8  C   UNL A   1      34.919  22.823  24.805  1.00  0.00     0.283 C 
ATOM      9  C   UNL A   1      32.782  23.956  24.943  1.00  0.00     0.278 C 
ATOM     10  N   UNL A   1      34.240  24.127  24.931  1.00  0.00    -0.320 N 
ATOM     11  S   UNL A   1      32.372  22.202  24.988  1.00  0.00    -0.087 SA
ATOM     12  H   UNL A   1      34.532  24.575  25.801  1.00  0.00     0.348 HD
ATOM     13  H   UNL A   1      34.494  24.707  24.131  1.00  0.00     0.348 HD
ATOM     14  C   UNL A   1      33.983  21.715  24.339  1.00  0.00     0.151 C 
BRANCH   9  15
ATOM     15  C   UNL A   1      32.159  24.847  23.857  1.00  0.00     0.066 A 
ATOM     16  C   UNL A   1      32.609  25.550  20.083  1.00  0.00     0.048 C 
ATOM     17  C   UNL A   1      32.111  25.619  21.501  1.00  0.00    -0.008 A 
ATOM     18  C   UNL A   1      31.384  26.739  21.896  1.00  0.00     0.023 A 
ATOM     19  C   UNL A   1      32.464  24.675  22.478  1.00  0.00     0.128 A 
ATOM     20  C   UNL A   1      31.066  26.953  23.237  1.00  0.00     0.021 A 
ATOM     21  Br  UNL A   1      30.227  28.619  23.631  1.00  0.00    -0.051 Br
ATOM     22  C   UNL A   1      31.439  26.027  24.237  1.00  0.00    -0.023 A 
ATOM     23  C   UNL A   1      31.204  26.387  25.689  1.00  0.00     0.046 C 
BRANCH  19  24
ATOM     24  O   UNL A   1      33.229  23.603  22.101  1.00  0.00    -0.507 OA
ATOM     25  H   UNL A   1      33.226  23.315  21.210  1.00  0.00     0.293 HD
ENDBRANCH  19  24
ENDBRANCH   9  15
ENDBRANCH   5   8
ENDBRANCH   3   4
ENDBRANCH   2   3
ENDBRANCH   1   2
BRANCH   1  26
ATOM     26  C   UNL A   1      41.372  23.087  26.822  1.00  0.00     0.116 C 
BRANCH  26  27
ATOM     27  N   UNL A   1      41.283  24.197  25.881  1.00  0.00    -0.352 N 
ATOM     28  C   UNL A   1      41.250  25.548  26.173  1.00  0.00     0.251 C 
ATOM     29  H   UNL A   1      41.241  23.957  24.927  1.00  0.00     0.163 HD
ATOM     30  O   UNL A   1      41.197  26.398  25.291  1.00  0.00    -0.269 OA
BRANCH  28  31
ATOM     31  C   UNL A   1      41.212  25.950  27.593  1.00  0.00     0.039 A 
ATOM     32  C   UNL A   1      39.995  25.969  28.273  1.00  0.00     0.014 A 
ATOM     33  C   UNL A   1      42.364  26.496  28.165  1.00  0.00     0.014 A 
ATOM     34  C   UNL A   1      39.881  26.743  29.419  1.00  0.00     0.010 A 
ATOM     35  C   UNL A   1      42.261  27.205  29.362  1.00  0.00     0.010 A 
ATOM     36  C   UNL A   1      41.002  27.410  29.946  1.00  0.00    -0.014 A 
BRANCH  36  37
ATOM     37  C   UNL A   1      40.805  28.404  31.033  1.00  0.00     0.031 A 
ATOM     38  C   UNL A   1      41.795  28.486  32.172  1.00  0.00     0.074 A 
ATOM     39  C   UNL A   1      39.811  29.305  30.930  1.00  0.00     0.049 A 
ATOM     40  N   UNL A   1      41.804  29.294  33.201  1.00  0.00    -0.248 NA
ATOM     41  C   UNL A   1      42.924  27.539  32.153  1.00  0.00     0.031 C 
ATOM     42  C   UNL A   1      38.828  29.349  29.845  1.00  0.00     0.029 A 
ATOM     43  N   UNL A   1      39.488  30.381  31.715  1.00  0.00    -0.354 N 
ATOM     44  C   UNL A   1      42.916  28.939  33.959  1.00  0.00     0.074 A 
ATOM     45  C   UNL A   1      43.550  27.829  33.284  1.00  0.00     0.031 C 
ATOM     46  C   UNL A   1      38.061  30.438  29.992  1.00  0.00     0.029 A 
ATOM     47  C   UNL A   1      38.448  31.130  31.217  1.00  0.00     0.049 A 
ATOM     48  H   UNL A   1      39.956  30.598  32.553  1.00  0.00     0.167 HD
ATOM     49  C   UNL A   1      43.371  29.495  35.109  1.00  0.00     0.037 A 
ATOM     50  C   UNL A   1      37.866  32.243  31.700  1.00  0.00     0.037 A 
ATOM     51  C   UNL A   1      42.746  30.620  35.756  1.00  0.00     0.049 A 
ATOM     52  C   UNL A   1      38.366  32.819  32.993  1.00  0.00     0.074 A 
ATOM     53  C   UNL A   1      43.103  31.244  36.939  1.00  0.00     0.029 A 
ATOM     54  N   UNL A   1      41.645  31.304  35.260  1.00  0.00    -0.354 N 
ATOM     55  N   UNL A   1      39.373  32.421  33.735  1.00  0.00    -0.248 NA
ATOM     56  C   UNL A   1      37.637  33.975  33.530  1.00  0.00     0.031 C 
ATOM     57  C   UNL A   1      42.202  32.289  37.171  1.00  0.00     0.029 A 
ATOM     58  C   UNL A   1      41.306  32.339  36.115  1.00  0.00     0.049 A 
ATOM     59  H   UNL A   1      41.174  31.084  34.424  1.00  0.00     0.167 HD
ATOM     60  C   UNL A   1      39.396  33.274  34.831  1.00  0.00     0.074 A 
ATOM     61  C   UNL A   1      38.320  34.227  34.639  1.00  0.00     0.031 C 
ATOM     62  C   UNL A   1      40.223  33.264  35.904  1.00  0.00     0.037 A 
BRANCH  49  63
ATOM     63  C   UNL A   1      44.590  28.892  35.752  1.00  0.00     0.058 A 
ATOM     64  C   UNL A   1      44.496  27.823  36.656  1.00  0.00     0.135 A 
ATOM     65  C   UNL A   1      45.875  29.353  35.418  1.00  0.00     0.135 A 
ATOM     66  F   UNL A   1      43.292  27.356  37.025  1.00  0.00    -0.206 F 
ATOM     67  C   UNL A   1      45.629  27.240  37.217  1.00  0.00     0.059 A 
ATOM     68  C   UNL A   1      47.024  28.773  35.952  1.00  0.00     0.059 A 
ATOM     69  F   UNL A   1      46.024  30.375  34.562  1.00  0.00    -0.206 F 
ATOM     70  C   UNL A   1      46.889  27.722  36.858  1.00  0.00     0.060 A 
BRANCH  70  71
ATOM     71  S   UNL A   1      48.349  26.946  37.585  1.00  0.00     0.124 S 
ATOM     72  O   UNL A   1      49.392  27.908  37.239  1.00  0.00    -0.237 OA
ATOM     73  O   UNL A   1      47.994  26.877  38.999  1.00  0.00    -0.237 OA
ATOM     74  O   UNL A   1      48.430  25.661  36.898  1.00  0.00    -0.744 OA
ENDBRANCH  70  71
ENDBRANCH  49  63
BRANCH  50  75
ATOM     75  C   UNL A   1      36.742  32.869  30.957  1.00  0.00     0.058 A 
ATOM     76  C   UNL A   1      35.417  32.719  31.390  1.00  0.00     0.135 A 
ATOM     77  C   UNL A   1      36.975  33.668  29.826  1.00  0.00     0.135 A 
ATOM     78  F   UNL A   1      35.143  31.958  32.461  1.00  0.00    -0.206 F 
ATOM     79  C   UNL A   1      34.362  33.345  30.733  1.00  0.00     0.059 A 
ATOM     80  C   UNL A   1      35.941  34.324  29.169  1.00  0.00     0.059 A 
ATOM     81  F   UNL A   1      38.227  33.852  29.379  1.00  0.00    -0.206 F 
ATOM     82  C   UNL A   1      34.635  34.152  29.627  1.00  0.00     0.060 A 
BRANCH  82  83
ATOM     83  S   UNL A   1      33.272  35.028  28.831  1.00  0.00     0.124 S 
ATOM     84  O   UNL A   1      33.965  36.155  28.219  1.00  0.00    -0.237 OA
ATOM     85  O   UNL A   1      32.754  34.020  27.910  1.00  0.00    -0.237 OA
ATOM     86  O   UNL A   1      32.389  35.357  29.946  1.00  0.00    -0.744 OA
ENDBRANCH  82  83
ENDBRANCH  50  75
BRANCH  62  87
ATOM     87  C   UNL A   1      39.987  34.311  36.953  1.00  0.00     0.058 A 
ATOM     88  C   UNL A   1      39.167  34.055  38.062  1.00  0.00     0.135 A 
ATOM     89  C   UNL A   1      40.615  35.562  36.868  1.00  0.00     0.135 A 
ATOM     90  F   UNL A   1      38.539  32.875  38.182  1.00  0.00    -0.206 F 
ATOM     91  C   UNL A   1      38.961  35.016  39.045  1.00  0.00     0.059 A 
ATOM     92  C   UNL A   1      40.440  36.530  37.849  1.00  0.00     0.059 A 
ATOM     93  F   UNL A   1      41.416  35.847  35.828  1.00  0.00    -0.206 F 
ATOM     94  C   UNL A   1      39.602  36.251  38.929  1.00  0.00     0.060 A 
BRANCH  94  95
ATOM     95  S   UNL A   1      39.344  37.482  40.224  1.00  0.00     0.124 S 
ATOM     96  O   UNL A   1      38.421  38.404  39.572  1.00  0.00    -0.237 OA
ATOM     97  O   UNL A   1      38.782  36.683  41.308  1.00  0.00    -0.237 OA
ATOM     98  O   UNL A   1      40.686  38.003  40.469  1.00  0.00    -0.744 OA
ENDBRANCH  94  95
ENDBRANCH  62  87
ENDBRANCH  36  37
ENDBRANCH  28  31
ENDBRANCH  26  27
ENDBRANCH   1  26
TORSDOF 16
ENDMDL
