MODEL 1
REMARK VINA RESULT:     -12.1      0.000      0.000
REMARK SMILES O=C(NCCCCNC(=O)[C@H](c1ccc(Cl)cc1)[NH+]1CCCCC1)c1ccc(-c2c3nc(c(-c4c(F)cc(S(=O)(=O)[O-])cc4F)c4ccc([nH]4)c(-c4c(F)cc(S(=O)(=O)[O-])cc4F)c4nc(c(-c5c(F)cc(S(=O)(=O)[O-])cc5F)c5ccc2[nH]5)C=C4)C=C3)cc1
REMARK SMILES IDX 4 1 3 2 1 3 2 4 25 6 26 7 90 8 27 9 89 10 28 11 29 12 30 13
REMARK SMILES IDX 83 14 31 15 88 16 82 17 84 18 32 19 87 20 81 21 80 22 33 24
REMARK SMILES IDX 67 25 46 26 66 27 47 28 50 29 65 30 85 31 48 32 49 33 64 35
REMARK SMILES IDX 86 36 51 37 34 38 35 39 44 40 36 41 37 42 43 43 45 44 38 45
REMARK SMILES IDX 39 46 40 47 41 48 42 49 68 50 69 51 78 52 70 53 71 54 77 55
REMARK SMILES IDX 79 56 72 57 73 58 74 59 75 60 76 61 52 62 53 63 62 64 54 65
REMARK SMILES IDX 55 66 61 67 63 68 56 69 57 70 58 71 59 72 60 73 5 74 6 75
REMARK SMILES IDX 7 76 8 77 9 78 10 80 11 81 19 82 20 83 24 84 21 86 23 87
REMARK SMILES IDX 22 88 12 89 13 90 18 91 14 92 17 93 15 94 16 95
REMARK H PARENT 3 5 84 23 50 34 8 79 19 85
REMARK Flexibility Score: inf
ROOT
ATOM      1  C   UNL A   1      40.696  23.104  27.068  1.00  0.00     0.116 C 
ENDROOT
BRANCH   1   2
ATOM      2  N   UNL A   1      41.135  23.985  25.994  1.00  0.00    -0.352 N 
ATOM      3  O   UNL A   1      41.647  25.945  25.002  1.00  0.00    -0.269 OA
ATOM      4  C   UNL A   1      41.373  25.340  26.035  1.00  0.00     0.251 C 
ATOM      5  H   UNL A   1      41.281  23.553  25.123  1.00  0.00     0.163 HD
BRANCH   4   6
ATOM      6  C   UNL A   1      41.256  26.064  27.319  1.00  0.00     0.039 A 
ATOM      7  C   UNL A   1      40.113  25.931  28.109  1.00  0.00     0.014 A 
ATOM      8  C   UNL A   1      42.289  26.918  27.716  1.00  0.00     0.014 A 
ATOM      9  C   UNL A   1      39.932  26.772  29.202  1.00  0.00     0.010 A 
ATOM     10  C   UNL A   1      42.140  27.703  28.864  1.00  0.00     0.010 A 
ATOM     11  C   UNL A   1      40.939  27.671  29.589  1.00  0.00    -0.014 A 
BRANCH  11  12
ATOM     12  C   UNL A   1      40.706  28.554  30.763  1.00  0.00     0.031 A 
ATOM     13  C   UNL A   1      41.593  28.482  31.977  1.00  0.00     0.074 A 
ATOM     14  C   UNL A   1      39.719  29.468  30.700  1.00  0.00     0.049 A 
ATOM     15  N   UNL A   1      41.571  29.223  33.057  1.00  0.00    -0.248 NA
ATOM     16  C   UNL A   1      42.632  27.440  31.991  1.00  0.00     0.031 C 
ATOM     17  C   UNL A   1      38.784  29.622  29.582  1.00  0.00     0.029 A 
ATOM     18  N   UNL A   1      39.354  30.458  31.576  1.00  0.00    -0.354 N 
ATOM     19  C   UNL A   1      42.568  28.724  33.886  1.00  0.00     0.074 A 
ATOM     20  C   UNL A   1      43.167  27.603  33.193  1.00  0.00     0.031 C 
ATOM     21  C   UNL A   1      37.995  30.682  29.812  1.00  0.00     0.029 A 
ATOM     22  C   UNL A   1      38.331  31.251  31.112  1.00  0.00     0.049 A 
ATOM     23  H   UNL A   1      39.782  30.587  32.453  1.00  0.00     0.167 HD
ATOM     24  C   UNL A   1      42.953  29.164  35.109  1.00  0.00     0.037 A 
ATOM     25  C   UNL A   1      37.731  32.319  31.668  1.00  0.00     0.037 A 
ATOM     26  C   UNL A   1      42.377  30.302  35.780  1.00  0.00     0.049 A 
ATOM     27  C   UNL A   1      38.196  32.803  33.010  1.00  0.00     0.074 A 
ATOM     28  C   UNL A   1      42.727  30.850  37.002  1.00  0.00     0.029 A 
ATOM     29  N   UNL A   1      41.334  31.071  35.284  1.00  0.00    -0.354 N 
ATOM     30  N   UNL A   1      39.158  32.333  33.768  1.00  0.00    -0.248 NA
ATOM     31  C   UNL A   1      37.492  33.961  33.576  1.00  0.00     0.031 C 
ATOM     32  C   UNL A   1      41.875  31.932  37.258  1.00  0.00     0.029 A 
ATOM     33  C   UNL A   1      41.019  32.079  36.179  1.00  0.00     0.049 A 
ATOM     34  H   UNL A   1      40.883  30.920  34.421  1.00  0.00     0.167 HD
ATOM     35  C   UNL A   1      39.186  33.146  34.893  1.00  0.00     0.074 A 
ATOM     36  C   UNL A   1      38.154  34.148  34.710  1.00  0.00     0.031 C 
ATOM     37  C   UNL A   1      39.991  33.069  35.980  1.00  0.00     0.037 A 
BRANCH  24  38
ATOM     38  C   UNL A   1      44.040  28.401  35.816  1.00  0.00     0.058 A 
ATOM     39  C   UNL A   1      43.752  27.333  36.680  1.00  0.00     0.135 A 
ATOM     40  C   UNL A   1      45.389  28.719  35.595  1.00  0.00     0.135 A 
ATOM     41  F   UNL A   1      42.479  26.996  36.938  1.00  0.00    -0.206 F 
ATOM     42  C   UNL A   1      44.764  26.624  37.321  1.00  0.00     0.059 A 
ATOM     43  C   UNL A   1      46.418  28.010  36.208  1.00  0.00     0.059 A 
ATOM     44  F   UNL A   1      45.719  29.731  34.776  1.00  0.00    -0.206 F 
ATOM     45  C   UNL A   1      46.095  26.973  37.082  1.00  0.00     0.060 A 
BRANCH  45  46
ATOM     46  S   UNL A   1      47.400  26.049  37.921  1.00  0.00     0.124 S 
ATOM     47  O   UNL A   1      47.976  25.292  36.814  1.00  0.00    -0.237 OA
ATOM     48  O   UNL A   1      48.239  27.112  38.465  1.00  0.00    -0.237 OA
ATOM     49  O   UNL A   1      46.675  25.261  38.911  1.00  0.00    -0.744 OA
ENDBRANCH  45  46
ENDBRANCH  24  38
BRANCH  25  50
ATOM     50  C   UNL A   1      36.640  33.011  30.937  1.00  0.00     0.058 A 
ATOM     51  C   UNL A   1      35.299  32.829  31.304  1.00  0.00     0.135 A 
ATOM     52  C   UNL A   1      36.920  33.896  29.885  1.00  0.00     0.135 A 
ATOM     53  F   UNL A   1      34.984  31.991  32.303  1.00  0.00    -0.206 F 
ATOM     54  C   UNL A   1      34.269  33.496  30.648  1.00  0.00     0.059 A 
ATOM     55  C   UNL A   1      35.910  34.591  29.230  1.00  0.00     0.059 A 
ATOM     56  F   UNL A   1      38.190  34.117  29.511  1.00  0.00    -0.206 F 
ATOM     57  C   UNL A   1      34.586  34.378  29.613  1.00  0.00     0.060 A 
BRANCH  57  58
ATOM     58  S   UNL A   1      33.252  35.291  28.808  1.00  0.00     0.124 S 
ATOM     59  O   UNL A   1      32.533  35.829  29.956  1.00  0.00    -0.237 OA
ATOM     60  O   UNL A   1      33.984  36.262  28.001  1.00  0.00    -0.237 OA
ATOM     61  O   UNL A   1      32.554  34.259  28.048  1.00  0.00    -0.744 OA
ENDBRANCH  57  58
ENDBRANCH  25  50
BRANCH  37  62
ATOM     62  C   UNL A   1      39.801  34.113  37.043  1.00  0.00     0.058 A 
ATOM     63  C   UNL A   1      39.031  33.864  38.190  1.00  0.00     0.135 A 
ATOM     64  C   UNL A   1      40.411  35.371  36.920  1.00  0.00     0.135 A 
ATOM     65  F   UNL A   1      38.422  32.678  38.349  1.00  0.00    -0.206 F 
ATOM     66  C   UNL A   1      38.847  34.837  39.165  1.00  0.00     0.059 A 
ATOM     67  C   UNL A   1      40.258  36.352  37.894  1.00  0.00     0.059 A 
ATOM     68  F   UNL A   1      41.165  35.655  35.846  1.00  0.00    -0.206 F 
ATOM     69  C   UNL A   1      39.461  36.081  39.004  1.00  0.00     0.060 A 
BRANCH  69  70
ATOM     70  S   UNL A   1      39.225  37.339  40.280  1.00  0.00     0.124 S 
ATOM     71  O   UNL A   1      38.427  38.331  39.569  1.00  0.00    -0.237 OA
ATOM     72  O   UNL A   1      38.530  36.599  41.329  1.00  0.00    -0.237 OA
ATOM     73  O   UNL A   1      40.588  37.744  40.608  1.00  0.00    -0.744 OA
ENDBRANCH  69  70
ENDBRANCH  37  62
ENDBRANCH  11  12
ENDBRANCH   4   6
ENDBRANCH   1   2
BRANCH   1  74
ATOM     74  C   UNL A   1      39.466  22.283  26.709  1.00  0.00     0.023 C 
BRANCH  74  75
ATOM     75  C   UNL A   1      38.300  23.073  26.113  1.00  0.00     0.023 C 
BRANCH  75  76
ATOM     76  C   UNL A   1      37.175  22.227  25.512  1.00  0.00     0.116 C 
BRANCH  76  77
ATOM     77  N   UNL A   1      36.153  21.893  26.484  1.00  0.00    -0.351 N 
ATOM     78  C   UNL A   1      34.809  22.168  26.475  1.00  0.00     0.283 C 
ATOM     79  H   UNL A   1      36.471  21.392  27.269  1.00  0.00     0.163 HD
ATOM     80  O   UNL A   1      34.173  21.827  27.477  1.00  0.00    -0.268 OA
BRANCH  78  81
ATOM     81  C   UNL A   1      34.151  22.850  25.221  1.00  0.00     0.305 C 
BRANCH  81  82
ATOM     82  N   UNL A   1      33.183  21.903  24.572  1.00  0.00    -0.321 N 
ATOM     83  C   UNL A   1      32.888  22.193  23.163  1.00  0.00     0.263 C 
ATOM     84  C   UNL A   1      33.655  20.513  24.732  1.00  0.00     0.263 C 
ATOM     85  H   UNL A   1      32.297  22.035  25.059  1.00  0.00     0.349 HD
ATOM     86  C   UNL A   1      31.834  21.233  22.607  1.00  0.00     0.062 C 
ATOM     87  C   UNL A   1      32.652  19.493  24.190  1.00  0.00     0.062 C 
ATOM     88  C   UNL A   1      32.280  19.788  22.743  1.00  0.00     0.012 C 
ENDBRANCH  81  82
BRANCH  81  89
ATOM     89  C   UNL A   1      33.541  24.199  25.598  1.00  0.00     0.019 A 
ATOM     90  C   UNL A   1      32.263  24.293  26.174  1.00  0.00     0.012 A 
ATOM     91  C   UNL A   1      34.259  25.382  25.338  1.00  0.00     0.012 A 
ATOM     92  C   UNL A   1      31.727  25.541  26.502  1.00  0.00     0.021 A 
ATOM     93  C   UNL A   1      33.723  26.626  25.669  1.00  0.00     0.021 A 
ATOM     94  C   UNL A   1      32.459  26.700  26.250  1.00  0.00     0.041 A 
ATOM     95  Cl  UNL A   1      31.798  28.237  26.650  1.00  0.00    -0.084 Cl
ENDBRANCH  81  89
ENDBRANCH  78  81
ENDBRANCH  76  77
ENDBRANCH  75  76
ENDBRANCH  74  75
ENDBRANCH   1  74
TORSDOF 16
ENDMDL
MODEL 2
REMARK VINA RESULT:     -12.0      2.902      8.974
REMARK SMILES O=C(NCCCCNC(=O)[C@H](c1ccc(Cl)cc1)[NH+]1CCCCC1)c1ccc(-c2c3nc(c(-c4c(F)cc(S(=O)(=O)[O-])cc4F)c4ccc([nH]4)c(-c4c(F)cc(S(=O)(=O)[O-])cc4F)c4nc(c(-c5c(F)cc(S(=O)(=O)[O-])cc5F)c5ccc2[nH]5)C=C4)C=C3)cc1
REMARK SMILES IDX 4 1 3 2 1 3 2 4 25 6 26 7 90 8 27 9 89 10 28 11 29 12 30 13
REMARK SMILES IDX 83 14 31 15 88 16 82 17 84 18 32 19 87 20 81 21 80 22 33 24
REMARK SMILES IDX 67 25 46 26 66 27 47 28 50 29 65 30 85 31 48 32 49 33 64 35
REMARK SMILES IDX 86 36 51 37 34 38 35 39 44 40 36 41 37 42 43 43 45 44 38 45
REMARK SMILES IDX 39 46 40 47 41 48 42 49 68 50 69 51 78 52 70 53 71 54 77 55
REMARK SMILES IDX 79 56 72 57 73 58 74 59 75 60 76 61 52 62 53 63 62 64 54 65
REMARK SMILES IDX 55 66 61 67 63 68 56 69 57 70 58 71 59 72 60 73 5 74 6 75
REMARK SMILES IDX 7 76 8 77 9 78 10 80 11 81 19 82 20 83 24 84 21 86 23 87
REMARK SMILES IDX 22 88 12 89 13 90 18 91 14 92 17 93 15 94 16 95
REMARK H PARENT 3 5 84 23 50 34 8 79 19 85
REMARK Flexibility Score: inf
ROOT
ATOM      1  C   UNL A   1      32.976  32.498  27.452  1.00  0.00     0.116 C 
ENDROOT
BRANCH   1   2
ATOM      2  N   UNL A   1      32.609  33.882  27.715  1.00  0.00    -0.352 N 
ATOM      3  O   UNL A   1      32.653  35.869  28.782  1.00  0.00    -0.269 OA
ATOM      4  C   UNL A   1      33.154  34.759  28.625  1.00  0.00     0.251 C 
ATOM      5  H   UNL A   1      31.872  34.238  27.170  1.00  0.00     0.163 HD
BRANCH   4   6
ATOM      6  C   UNL A   1      34.318  34.342  29.436  1.00  0.00     0.039 A 
ATOM      7  C   UNL A   1      35.618  34.520  28.959  1.00  0.00     0.014 A 
ATOM      8  C   UNL A   1      34.102  33.730  30.674  1.00  0.00     0.014 A 
ATOM      9  C   UNL A   1      36.684  33.939  29.637  1.00  0.00     0.010 A 
ATOM     10  C   UNL A   1      35.186  33.219  31.395  1.00  0.00     0.010 A 
ATOM     11  C   UNL A   1      36.481  33.277  30.859  1.00  0.00    -0.014 A 
BRANCH  11  12
ATOM     12  C   UNL A   1      37.647  32.669  31.552  1.00  0.00     0.031 A 
ATOM     13  C   UNL A   1      38.086  33.154  32.908  1.00  0.00     0.074 A 
ATOM     14  C   UNL A   1      38.275  31.628  30.972  1.00  0.00     0.049 A 
ATOM     15  N   UNL A   1      39.037  32.692  33.680  1.00  0.00    -0.248 NA
ATOM     16  C   UNL A   1      37.376  34.315  33.469  1.00  0.00     0.031 C 
ATOM     17  C   UNL A   1      37.950  31.078  29.653  1.00  0.00     0.029 A 
ATOM     18  N   UNL A   1      39.292  30.826  31.424  1.00  0.00    -0.354 N 
ATOM     19  C   UNL A   1      39.059  33.514  34.799  1.00  0.00     0.074 A 
ATOM     20  C   UNL A   1      38.036  34.519  34.601  1.00  0.00     0.031 C 
ATOM     21  C   UNL A   1      38.709  29.995  29.429  1.00  0.00     0.029 A 
ATOM     22  C   UNL A   1      39.607  29.803  30.563  1.00  0.00     0.049 A 
ATOM     23  H   UNL A   1      39.752  30.971  32.282  1.00  0.00     0.167 HD
ATOM     24  C   UNL A   1      39.854  33.435  35.895  1.00  0.00     0.037 A 
ATOM     25  C   UNL A   1      40.516  28.816  30.671  1.00  0.00     0.037 A 
ATOM     26  C   UNL A   1      40.846  32.412  36.105  1.00  0.00     0.049 A 
ATOM     27  C   UNL A   1      41.362  28.734  31.907  1.00  0.00     0.074 A 
ATOM     28  C   UNL A   1      41.672  32.223  37.199  1.00  0.00     0.029 A 
ATOM     29  N   UNL A   1      41.145  31.401  35.202  1.00  0.00    -0.354 N 
ATOM     30  N   UNL A   1      41.350  29.507  32.967  1.00  0.00    -0.248 NA
ATOM     31  C   UNL A   1      42.350  27.648  31.963  1.00  0.00     0.031 C 
ATOM     32  C   UNL A   1      42.491  31.116  36.947  1.00  0.00     0.029 A 
ATOM     33  C   UNL A   1      42.150  30.594  35.709  1.00  0.00     0.049 A 
ATOM     34  H   UNL A   1      40.707  31.276  34.329  1.00  0.00     0.167 HD
ATOM     35  C   UNL A   1      42.316  28.993  33.821  1.00  0.00     0.074 A 
ATOM     36  C   UNL A   1      42.882  27.833  33.163  1.00  0.00     0.031 C 
ATOM     37  C   UNL A   1      42.701  29.442  35.041  1.00  0.00     0.037 A 
BRANCH  24  38
ATOM     38  C   UNL A   1      39.697  34.496  36.949  1.00  0.00     0.058 A 
ATOM     39  C   UNL A   1      38.850  34.322  38.055  1.00  0.00     0.135 A 
ATOM     40  C   UNL A   1      40.433  35.689  36.871  1.00  0.00     0.135 A 
ATOM     41  F   UNL A   1      38.112  33.207  38.172  1.00  0.00    -0.206 F 
ATOM     42  C   UNL A   1      38.718  35.304  39.032  1.00  0.00     0.059 A 
ATOM     43  C   UNL A   1      40.335  36.675  37.848  1.00  0.00     0.059 A 
ATOM     44  F   UNL A   1      41.259  35.906  35.835  1.00  0.00    -0.206 F 
ATOM     45  C   UNL A   1      39.462  36.480  38.918  1.00  0.00     0.060 A 
BRANCH  45  46
ATOM     46  S   UNL A   1      39.283  37.749  40.190  1.00  0.00     0.124 S 
ATOM     47  O   UNL A   1      38.195  38.555  39.644  1.00  0.00    -0.237 OA
ATOM     48  O   UNL A   1      38.954  36.964  41.375  1.00  0.00    -0.237 OA
ATOM     49  O   UNL A   1      40.591  38.393  40.214  1.00  0.00    -0.744 OA
ENDBRANCH  45  46
ENDBRANCH  24  38
BRANCH  25  50
ATOM     50  C   UNL A   1      40.648  27.816  29.582  1.00  0.00     0.058 A 
ATOM     51  C   UNL A   1      41.684  27.908  28.642  1.00  0.00     0.135 A 
ATOM     52  C   UNL A   1      39.765  26.731  29.483  1.00  0.00     0.135 A 
ATOM     53  F   UNL A   1      42.551  28.930  28.697  1.00  0.00    -0.206 F 
ATOM     54  C   UNL A   1      41.838  26.960  27.635  1.00  0.00     0.059 A 
ATOM     55  C   UNL A   1      39.912  25.759  28.499  1.00  0.00     0.059 A 
ATOM     56  F   UNL A   1      38.768  26.590  30.371  1.00  0.00    -0.206 F 
ATOM     57  C   UNL A   1      40.947  25.887  27.574  1.00  0.00     0.060 A 
BRANCH  57  58
ATOM     58  S   UNL A   1      41.190  24.624  26.306  1.00  0.00     0.124 S 
ATOM     59  O   UNL A   1      41.498  25.439  25.138  1.00  0.00    -0.237 OA
ATOM     60  O   UNL A   1      42.297  23.846  26.852  1.00  0.00    -0.237 OA
ATOM     61  O   UNL A   1      39.905  23.932  26.277  1.00  0.00    -0.744 OA
ENDBRANCH  57  58
ENDBRANCH  25  50
BRANCH  37  62
ATOM     62  C   UNL A   1      43.768  28.659  35.749  1.00  0.00     0.058 A 
ATOM     63  C   UNL A   1      45.130  28.956  35.583  1.00  0.00     0.135 A 
ATOM     64  C   UNL A   1      43.424  27.610  36.616  1.00  0.00     0.135 A 
ATOM     65  F   UNL A   1      45.510  29.945  34.758  1.00  0.00    -0.206 F 
ATOM     66  C   UNL A   1      46.117  28.219  36.230  1.00  0.00     0.059 A 
ATOM     67  C   UNL A   1      44.394  26.875  37.290  1.00  0.00     0.059 A 
ATOM     68  F   UNL A   1      42.135  27.293  36.815  1.00  0.00    -0.206 F 
ATOM     69  C   UNL A   1      45.738  27.177  37.077  1.00  0.00     0.060 A 
BRANCH  69  70
ATOM     70  S   UNL A   1      47.024  26.231  37.922  1.00  0.00     0.124 S 
ATOM     71  O   UNL A   1      47.066  26.890  39.223  1.00  0.00    -0.237 OA
ATOM     72  O   UNL A   1      46.477  24.877  37.915  1.00  0.00    -0.237 OA
ATOM     73  O   UNL A   1      48.197  26.428  37.077  1.00  0.00    -0.744 OA
ENDBRANCH  69  70
ENDBRANCH  37  62
ENDBRANCH  11  12
ENDBRANCH   4   6
ENDBRANCH   1   2
BRANCH   1  74
ATOM     74  C   UNL A   1      31.832  31.667  26.887  1.00  0.00     0.023 C 
BRANCH  74  75
ATOM     75  C   UNL A   1      32.077  30.158  26.842  1.00  0.00     0.023 C 
BRANCH  75  76
ATOM     76  C   UNL A   1      33.482  29.736  26.408  1.00  0.00     0.116 C 
BRANCH  76  77
ATOM     77  N   UNL A   1      33.627  29.689  24.966  1.00  0.00    -0.351 N 
ATOM     78  C   UNL A   1      33.277  28.701  24.081  1.00  0.00     0.283 C 
ATOM     79  H   UNL A   1      34.037  30.486  24.561  1.00  0.00     0.163 HD
ATOM     80  O   UNL A   1      33.583  28.892  22.899  1.00  0.00    -0.268 OA
BRANCH  78  81
ATOM     81  C   UNL A   1      32.498  27.431  24.581  1.00  0.00     0.305 C 
BRANCH  81  82
ATOM     82  N   UNL A   1      31.167  27.342  23.892  1.00  0.00    -0.321 N 
ATOM     83  C   UNL A   1      30.166  26.526  24.591  1.00  0.00     0.263 C 
ATOM     84  C   UNL A   1      30.645  28.697  23.628  1.00  0.00     0.263 C 
ATOM     85  H   UNL A   1      31.341  26.851  23.015  1.00  0.00     0.349 HD
ATOM     86  C   UNL A   1      28.871  26.421  23.781  1.00  0.00     0.062 C 
ATOM     87  C   UNL A   1      29.343  28.672  22.825  1.00  0.00     0.062 C 
ATOM     88  C   UNL A   1      28.292  27.795  23.491  1.00  0.00     0.012 C 
ENDBRANCH  81  82
BRANCH  81  89
ATOM     89  C   UNL A   1      33.359  26.177  24.433  1.00  0.00     0.019 A 
ATOM     90  C   UNL A   1      33.381  25.437  23.239  1.00  0.00     0.012 A 
ATOM     91  C   UNL A   1      34.130  25.732  25.524  1.00  0.00     0.012 A 
ATOM     92  C   UNL A   1      34.171  24.289  23.134  1.00  0.00     0.021 A 
ATOM     93  C   UNL A   1      34.921  24.589  25.416  1.00  0.00     0.021 A 
ATOM     94  C   UNL A   1      34.939  23.872  24.221  1.00  0.00     0.041 A 
ATOM     95  Cl  UNL A   1      35.909  22.459  24.094  1.00  0.00    -0.084 Cl
ENDBRANCH  81  89
ENDBRANCH  78  81
ENDBRANCH  76  77
ENDBRANCH  75  76
ENDBRANCH  74  75
ENDBRANCH   1  74
TORSDOF 16
ENDMDL
MODEL 3
REMARK VINA RESULT:     -12.0      1.489      2.748
REMARK SMILES O=C(NCCCCNC(=O)[C@H](c1ccc(Cl)cc1)[NH+]1CCCCC1)c1ccc(-c2c3nc(c(-c4c(F)cc(S(=O)(=O)[O-])cc4F)c4ccc([nH]4)c(-c4c(F)cc(S(=O)(=O)[O-])cc4F)c4nc(c(-c5c(F)cc(S(=O)(=O)[O-])cc5F)c5ccc2[nH]5)C=C4)C=C3)cc1
REMARK SMILES IDX 4 1 3 2 1 3 2 4 25 6 26 7 90 8 27 9 89 10 28 11 29 12 30 13
REMARK SMILES IDX 83 14 31 15 88 16 82 17 84 18 32 19 87 20 81 21 80 22 33 24
REMARK SMILES IDX 67 25 46 26 66 27 47 28 50 29 65 30 85 31 48 32 49 33 64 35
REMARK SMILES IDX 86 36 51 37 34 38 35 39 44 40 36 41 37 42 43 43 45 44 38 45
REMARK SMILES IDX 39 46 40 47 41 48 42 49 68 50 69 51 78 52 70 53 71 54 77 55
REMARK SMILES IDX 79 56 72 57 73 58 74 59 75 60 76 61 52 62 53 63 62 64 54 65
REMARK SMILES IDX 55 66 61 67 63 68 56 69 57 70 58 71 59 72 60 73 5 74 6 75
REMARK SMILES IDX 7 76 8 77 9 78 10 80 11 81 19 82 20 83 24 84 21 86 23 87
REMARK SMILES IDX 22 88 12 89 13 90 18 91 14 92 17 93 15 94 16 95
REMARK H PARENT 3 5 84 23 50 34 8 79 19 85
REMARK Flexibility Score: inf
ROOT
ATOM      1  C   UNL A   1      41.524  23.062  27.176  1.00  0.00     0.116 C 
ENDROOT
BRANCH   1   2
ATOM      2  N   UNL A   1      41.536  23.978  26.044  1.00  0.00    -0.352 N 
ATOM      3  O   UNL A   1      41.332  25.954  24.976  1.00  0.00    -0.269 OA
ATOM      4  C   UNL A   1      41.395  25.347  26.041  1.00  0.00     0.251 C 
ATOM      5  H   UNL A   1      41.661  23.561  25.161  1.00  0.00     0.163 HD
BRANCH   4   6
ATOM      6  C   UNL A   1      41.280  26.072  27.324  1.00  0.00     0.039 A 
ATOM      7  C   UNL A   1      40.123  25.968  28.099  1.00  0.00     0.014 A 
ATOM      8  C   UNL A   1      42.329  26.898  27.738  1.00  0.00     0.014 A 
ATOM      9  C   UNL A   1      39.948  26.811  29.191  1.00  0.00     0.010 A 
ATOM     10  C   UNL A   1      42.184  27.684  28.885  1.00  0.00     0.010 A 
ATOM     11  C   UNL A   1      40.973  27.683  29.594  1.00  0.00    -0.014 A 
BRANCH  11  12
ATOM     12  C   UNL A   1      40.747  28.569  30.765  1.00  0.00     0.031 A 
ATOM     13  C   UNL A   1      41.646  28.508  31.971  1.00  0.00     0.074 A 
ATOM     14  C   UNL A   1      39.755  29.478  30.709  1.00  0.00     0.049 A 
ATOM     15  N   UNL A   1      41.631  29.253  33.048  1.00  0.00    -0.248 NA
ATOM     16  C   UNL A   1      42.691  27.471  31.980  1.00  0.00     0.031 C 
ATOM     17  C   UNL A   1      38.808  29.623  29.599  1.00  0.00     0.029 A 
ATOM     18  N   UNL A   1      39.393  30.470  31.583  1.00  0.00    -0.354 N 
ATOM     19  C   UNL A   1      42.639  28.763  33.870  1.00  0.00     0.074 A 
ATOM     20  C   UNL A   1      43.237  27.642  33.176  1.00  0.00     0.031 C 
ATOM     21  C   UNL A   1      38.016  30.680  29.832  1.00  0.00     0.029 A 
ATOM     22  C   UNL A   1      38.363  31.256  31.127  1.00  0.00     0.049 A 
ATOM     23  H   UNL A   1      39.830  30.606  32.455  1.00  0.00     0.167 HD
ATOM     24  C   UNL A   1      43.034  29.211  35.087  1.00  0.00     0.037 A 
ATOM     25  C   UNL A   1      37.762  32.324  31.684  1.00  0.00     0.037 A 
ATOM     26  C   UNL A   1      42.459  30.349  35.758  1.00  0.00     0.049 A 
ATOM     27  C   UNL A   1      38.238  32.816  33.019  1.00  0.00     0.074 A 
ATOM     28  C   UNL A   1      42.818  30.904  36.974  1.00  0.00     0.029 A 
ATOM     29  N   UNL A   1      41.407  31.110  35.269  1.00  0.00    -0.354 N 
ATOM     30  N   UNL A   1      39.210  32.354  33.769  1.00  0.00    -0.248 NA
ATOM     31  C   UNL A   1      37.534  33.973  33.587  1.00  0.00     0.031 C 
ATOM     32  C   UNL A   1      41.963  31.982  37.234  1.00  0.00     0.029 A 
ATOM     33  C   UNL A   1      41.096  32.120  36.163  1.00  0.00     0.049 A 
ATOM     34  H   UNL A   1      40.948  30.953  34.411  1.00  0.00     0.167 HD
ATOM     35  C   UNL A   1      39.244  33.172  34.890  1.00  0.00     0.074 A 
ATOM     36  C   UNL A   1      38.206  34.169  34.713  1.00  0.00     0.031 C 
ATOM     37  C   UNL A   1      40.061  33.104  35.970  1.00  0.00     0.037 A 
BRANCH  24  38
ATOM     38  C   UNL A   1      44.131  28.456  35.786  1.00  0.00     0.058 A 
ATOM     39  C   UNL A   1      45.486  28.768  35.588  1.00  0.00     0.135 A 
ATOM     40  C   UNL A   1      43.822  27.432  36.694  1.00  0.00     0.135 A 
ATOM     41  F   UNL A   1      45.838  29.729  34.719  1.00  0.00    -0.206 F 
ATOM     42  C   UNL A   1      46.495  28.073  36.247  1.00  0.00     0.059 A 
ATOM     43  C   UNL A   1      44.814  26.738  37.381  1.00  0.00     0.059 A 
ATOM     44  F   UNL A   1      42.542  27.094  36.921  1.00  0.00    -0.206 F 
ATOM     45  C   UNL A   1      46.150  27.056  37.139  1.00  0.00     0.060 A 
BRANCH  45  46
ATOM     46  S   UNL A   1      47.468  26.158  37.987  1.00  0.00     0.124 S 
ATOM     47  O   UNL A   1      46.838  25.863  39.270  1.00  0.00    -0.237 OA
ATOM     48  O   UNL A   1      47.683  25.011  37.109  1.00  0.00    -0.237 OA
ATOM     49  O   UNL A   1      48.562  27.122  38.030  1.00  0.00    -0.744 OA
ENDBRANCH  45  46
ENDBRANCH  24  38
BRANCH  25  50
ATOM     50  C   UNL A   1      36.661  33.007  30.961  1.00  0.00     0.058 A 
ATOM     51  C   UNL A   1      35.323  32.810  31.333  1.00  0.00     0.135 A 
ATOM     52  C   UNL A   1      36.926  33.899  29.911  1.00  0.00     0.135 A 
ATOM     53  F   UNL A   1      35.022  31.964  32.329  1.00  0.00    -0.206 F 
ATOM     54  C   UNL A   1      34.283  33.468  30.684  1.00  0.00     0.059 A 
ATOM     55  C   UNL A   1      35.906  34.586  29.263  1.00  0.00     0.059 A 
ATOM     56  F   UNL A   1      38.192  34.135  29.532  1.00  0.00    -0.206 F 
ATOM     57  C   UNL A   1      34.586  34.357  29.651  1.00  0.00     0.060 A 
BRANCH  57  58
ATOM     58  S   UNL A   1      33.239  35.260  28.856  1.00  0.00     0.124 S 
ATOM     59  O   UNL A   1      32.634  34.217  28.036  1.00  0.00    -0.237 OA
ATOM     60  O   UNL A   1      32.452  35.712  29.998  1.00  0.00    -0.237 OA
ATOM     61  O   UNL A   1      33.933  36.317  28.127  1.00  0.00    -0.744 OA
ENDBRANCH  57  58
ENDBRANCH  25  50
BRANCH  37  62
ATOM     62  C   UNL A   1      39.876  34.152  37.029  1.00  0.00     0.058 A 
ATOM     63  C   UNL A   1      39.131  33.899  38.192  1.00  0.00     0.135 A 
ATOM     64  C   UNL A   1      40.466  35.418  36.888  1.00  0.00     0.135 A 
ATOM     65  F   UNL A   1      38.542  32.706  38.370  1.00  0.00    -0.206 F 
ATOM     66  C   UNL A   1      38.951  34.876  39.165  1.00  0.00     0.059 A 
ATOM     67  C   UNL A   1      40.317  36.403  37.859  1.00  0.00     0.059 A 
ATOM     68  F   UNL A   1      41.195  35.706  35.798  1.00  0.00    -0.206 F 
ATOM     69  C   UNL A   1      39.545  36.127  38.986  1.00  0.00     0.060 A 
BRANCH  69  70
ATOM     70  S   UNL A   1      39.315  37.389  40.258  1.00  0.00     0.124 S 
ATOM     71  O   UNL A   1      40.695  37.755  40.560  1.00  0.00    -0.237 OA
ATOM     72  O   UNL A   1      38.530  38.403  39.561  1.00  0.00    -0.237 OA
ATOM     73  O   UNL A   1      38.606  36.676  41.315  1.00  0.00    -0.744 OA
ENDBRANCH  69  70
ENDBRANCH  37  62
ENDBRANCH  11  12
ENDBRANCH   4   6
ENDBRANCH   1   2
BRANCH   1  74
ATOM     74  C   UNL A   1      40.142  22.505  27.488  1.00  0.00     0.023 C 
BRANCH  74  75
ATOM     75  C   UNL A   1      39.287  22.153  26.270  1.00  0.00     0.023 C 
BRANCH  75  76
ATOM     76  C   UNL A   1      38.136  23.117  25.977  1.00  0.00     0.116 C 
BRANCH  76  77
ATOM     77  N   UNL A   1      37.740  23.101  24.583  1.00  0.00    -0.351 N 
ATOM     78  C   UNL A   1      36.500  22.918  24.024  1.00  0.00     0.283 C 
ATOM     79  H   UNL A   1      38.471  23.244  23.939  1.00  0.00     0.163 HD
ATOM     80  O   UNL A   1      36.456  22.877  22.791  1.00  0.00    -0.268 OA
BRANCH  78  81
ATOM     81  C   UNL A   1      35.229  22.806  24.942  1.00  0.00     0.305 C 
BRANCH  81  82
ATOM     82  N   UNL A   1      34.350  24.007  24.747  1.00  0.00    -0.321 N 
ATOM     83  C   UNL A   1      34.623  25.126  25.658  1.00  0.00     0.263 C 
ATOM     84  C   UNL A   1      34.409  24.451  23.341  1.00  0.00     0.263 C 
ATOM     85  H   UNL A   1      33.406  23.700  24.983  1.00  0.00     0.349 HD
ATOM     86  C   UNL A   1      33.631  26.271  25.446  1.00  0.00     0.062 C 
ATOM     87  C   UNL A   1      33.444  25.603  23.054  1.00  0.00     0.062 C 
ATOM     88  C   UNL A   1      33.662  26.767  24.011  1.00  0.00     0.012 C 
ENDBRANCH  81  82
BRANCH  81  89
ATOM     89  C   UNL A   1      34.518  21.472  24.719  1.00  0.00     0.019 A 
ATOM     90  C   UNL A   1      33.163  21.413  24.352  1.00  0.00     0.012 A 
ATOM     91  C   UNL A   1      35.224  20.269  24.911  1.00  0.00     0.012 A 
ATOM     92  C   UNL A   1      32.536  20.179  24.162  1.00  0.00     0.021 A 
ATOM     93  C   UNL A   1      34.597  19.039  24.718  1.00  0.00     0.021 A 
ATOM     94  C   UNL A   1      33.256  18.999  24.344  1.00  0.00     0.041 A 
ATOM     95  Cl  UNL A   1      32.484  17.479  24.114  1.00  0.00    -0.084 Cl
ENDBRANCH  81  89
ENDBRANCH  78  81
ENDBRANCH  76  77
ENDBRANCH  75  76
ENDBRANCH  74  75
ENDBRANCH   1  74
TORSDOF 16
ENDMDL
