MODEL 1
REMARK VINA RESULT:     -11.7      0.000      0.000
REMARK SMILES Cc1ccc(Cl)c(Nc2ccccc2C(=O)NCC(=O)NCCCCNC(=O)c2ccc(-c3c4nc(c(-c5c(F)cc(S(=O)(=O)[O-])cc5F)c5ccc([nH]5)c(-c5c(F)cc(S(=O)(=O)[O-])cc5F)c5nc(c(-c6c(F)cc(S(=O)(=O)[O-])cc6F)c6ccc3[nH]6)C=C5)C=C4)cc2)c1Cl
REMARK SMILES IDX 23 1 22 2 21 3 19 4 20 5 18 7 17 8 15 9 16 10 14 12 9 13
REMARK SMILES IDX 10 14 11 15 13 16 12 17 8 18 7 20 1 21 2 22 3 23 95 24 4 25
REMARK SMILES IDX 96 26 5 27 6 28 24 29 25 30 26 31 27 32 28 34 29 35 30 36
REMARK SMILES IDX 94 37 31 38 93 39 32 40 33 41 34 42 87 43 35 44 92 45 86 46
REMARK SMILES IDX 88 47 36 48 91 49 85 50 84 51 37 53 71 54 50 55 70 56 51 57
REMARK SMILES IDX 54 58 69 59 89 60 52 61 53 62 68 64 90 65 55 66 38 67 39 68
REMARK SMILES IDX 48 69 40 70 41 71 47 72 49 73 42 74 43 75 44 76 45 77 46 78
REMARK SMILES IDX 72 79 73 80 82 81 74 82 75 83 81 84 83 85 76 86 77 87 78 88
REMARK SMILES IDX 79 89 80 90 56 91 57 92 66 93 58 94 59 95 65 96 67 97 60 98
REMARK SMILES IDX 61 99 62 100 63 101 64 102
REMARK H PARENT 21 6 17 11 8 19 26 33 88 52 54 63
REMARK Flexibility Score: inf
ROOT
ATOM      1  C   UNL A   1      32.015  26.855  25.794  1.00  0.00     0.023 C 
ENDROOT
BRANCH   1   2
ATOM      2  C   UNL A   1      30.627  26.258  25.991  1.00  0.00     0.116 C 
BRANCH   2   3
ATOM      3  N   UNL A   1      30.742  24.908  26.482  1.00  0.00    -0.355 N 
ATOM      4  C   UNL A   1      30.710  23.768  25.736  1.00  0.00     0.239 C 
ATOM      5  O   UNL A   1      30.680  22.682  26.317  1.00  0.00    -0.273 OA
ATOM      6  H   UNL A   1      30.856  24.798  27.454  1.00  0.00     0.163 HD
BRANCH   4   7
ATOM      7  C   UNL A   1      31.006  23.856  24.242  1.00  0.00     0.216 C 
BRANCH   7   8
ATOM      8  N   UNL A   1      32.328  23.857  23.653  1.00  0.00    -0.343 N 
ATOM      9  C   UNL A   1      33.096  22.843  23.129  1.00  0.00     0.253 C 
ATOM     10  O   UNL A   1      33.906  23.193  22.261  1.00  0.00    -0.269 OA
ATOM     11  H   UNL A   1      32.754  24.744  23.621  1.00  0.00     0.164 HD
BRANCH   9  12
ATOM     12  C   UNL A   1      33.198  21.435  23.657  1.00  0.00     0.063 A 
ATOM     13  C   UNL A   1      34.007  20.868  24.669  1.00  0.00     0.051 A 
ATOM     14  C   UNL A   1      33.945  19.461  24.861  1.00  0.00     0.027 A 
ATOM     15  C   UNL A   1      33.071  18.639  24.152  1.00  0.00     0.002 A 
ATOM     16  C   UNL A   1      32.306  20.570  22.961  1.00  0.00     0.016 A 
ATOM     17  C   UNL A   1      32.230  19.200  23.212  1.00  0.00     0.001 A 
BRANCH  13  18
ATOM     18  N   UNL A   1      34.799  21.522  25.637  1.00  0.00    -0.352 N 
ATOM     19  H   UNL A   1      34.373  21.562  26.524  1.00  0.00     0.167 HD
BRANCH  18  20
ATOM     20  C   UNL A   1      36.077  22.135  25.605  1.00  0.00     0.077 A 
ATOM     21  C   UNL A   1      39.777  21.254  26.015  1.00  0.00     0.046 C 
ATOM     22  C   UNL A   1      38.501  22.042  25.912  1.00  0.00    -0.030 A 
ATOM     23  C   UNL A   1      38.511  23.409  26.228  1.00  0.00     0.006 A 
ATOM     24  C   UNL A   1      37.288  21.421  25.556  1.00  0.00     0.069 A 
ATOM     25  C   UNL A   1      37.343  24.162  26.151  1.00  0.00     0.023 A 
ATOM     26  Cl  UNL A   1      37.328  19.792  24.947  1.00  0.00    -0.082 Cl
ATOM     27  C   UNL A   1      36.143  23.533  25.832  1.00  0.00     0.066 A 
ATOM     28  Cl  UNL A   1      34.699  24.495  25.849  1.00  0.00    -0.082 Cl
ENDBRANCH  18  20
ENDBRANCH  13  18
ENDBRANCH   9  12
ENDBRANCH   7   8
ENDBRANCH   4   7
ENDBRANCH   2   3
ENDBRANCH   1   2
BRANCH   1  29
ATOM     29  C   UNL A   1      32.402  27.822  26.915  1.00  0.00     0.023 C 
BRANCH  29  30
ATOM     30  C   UNL A   1      33.712  28.554  26.669  1.00  0.00     0.116 C 
BRANCH  30  31
ATOM     31  N   UNL A   1      33.581  29.990  26.859  1.00  0.00    -0.352 N 
ATOM     32  C   UNL A   1      34.388  30.818  27.601  1.00  0.00     0.251 C 
ATOM     33  H   UNL A   1      32.823  30.420  26.401  1.00  0.00     0.163 HD
ATOM     34  O   UNL A   1      34.068  31.976  27.818  1.00  0.00    -0.269 OA
BRANCH  32  35
ATOM     35  C   UNL A   1      35.637  30.256  28.150  1.00  0.00     0.039 A 
ATOM     36  C   UNL A   1      36.822  30.419  27.434  1.00  0.00     0.014 A 
ATOM     37  C   UNL A   1      35.633  29.641  29.406  1.00  0.00     0.014 A 
ATOM     38  C   UNL A   1      38.024  30.004  28.007  1.00  0.00     0.010 A 
ATOM     39  C   UNL A   1      36.838  29.296  30.002  1.00  0.00     0.010 A 
ATOM     40  C   UNL A   1      38.044  29.467  29.306  1.00  0.00    -0.014 A 
BRANCH  40  41
ATOM     41  C   UNL A   1      39.320  29.070  29.951  1.00  0.00     0.031 A 
ATOM     42  C   UNL A   1      39.819  29.833  31.148  1.00  0.00     0.074 A 
ATOM     43  C   UNL A   1      40.055  28.072  29.419  1.00  0.00     0.049 A 
ATOM     44  N   UNL A   1      40.937  29.686  31.811  1.00  0.00    -0.248 NA
ATOM     45  C   UNL A   1      38.965  30.923  31.651  1.00  0.00     0.031 C 
ATOM     46  C   UNL A   1      39.701  27.300  28.224  1.00  0.00     0.029 A 
ATOM     47  N   UNL A   1      41.260  27.543  29.806  1.00  0.00    -0.354 N 
ATOM     48  C   UNL A   1      40.931  30.675  32.786  1.00  0.00     0.074 A 
ATOM     49  C   UNL A   1      39.721  31.444  32.607  1.00  0.00     0.031 C 
ATOM     50  C   UNL A   1      40.656  26.386  27.990  1.00  0.00     0.029 A 
ATOM     51  C   UNL A   1      41.708  26.528  28.992  1.00  0.00     0.049 A 
ATOM     52  H   UNL A   1      41.759  27.859  30.595  1.00  0.00     0.167 HD
ATOM     53  C   UNL A   1      41.845  30.905  33.758  1.00  0.00     0.037 A 
ATOM     54  C   UNL A   1      42.842  25.803  29.044  1.00  0.00     0.037 A 
ATOM     55  C   UNL A   1      43.020  30.101  33.963  1.00  0.00     0.049 A 
ATOM     56  C   UNL A   1      43.828  26.069  30.153  1.00  0.00     0.074 A 
ATOM     57  C   UNL A   1      43.956  30.194  34.977  1.00  0.00     0.029 A 
ATOM     58  N   UNL A   1      43.419  29.058  33.142  1.00  0.00    -0.354 N 
ATOM     59  N   UNL A   1      43.759  26.948  31.124  1.00  0.00    -0.248 NA
ATOM     60  C   UNL A   1      45.041  25.240  30.178  1.00  0.00     0.031 C 
ATOM     61  C   UNL A   1      44.948  29.238  34.743  1.00  0.00     0.029 A 
ATOM     62  C   UNL A   1      44.602  28.516  33.612  1.00  0.00     0.049 A 
ATOM     63  H   UNL A   1      42.934  28.749  32.343  1.00  0.00     0.167 HD
ATOM     64  C   UNL A   1      44.901  26.754  31.893  1.00  0.00     0.074 A 
ATOM     65  C   UNL A   1      45.636  25.666  31.283  1.00  0.00     0.031 C 
ATOM     66  C   UNL A   1      45.307  27.416  33.004  1.00  0.00     0.037 A 
BRANCH  53  67
ATOM     67  C   UNL A   1      41.615  32.062  34.690  1.00  0.00     0.058 A 
ATOM     68  C   UNL A   1      42.098  33.348  34.403  1.00  0.00     0.135 A 
ATOM     69  C   UNL A   1      40.825  31.899  35.839  1.00  0.00     0.135 A 
ATOM     70  F   UNL A   1      42.875  33.555  33.329  1.00  0.00    -0.206 F 
ATOM     71  C   UNL A   1      41.809  34.432  35.225  1.00  0.00     0.059 A 
ATOM     72  C   UNL A   1      40.500  32.973  36.662  1.00  0.00     0.059 A 
ATOM     73  F   UNL A   1      40.344  30.688  36.162  1.00  0.00    -0.206 F 
ATOM     74  C   UNL A   1      41.000  34.236  36.347  1.00  0.00     0.060 A 
BRANCH  74  75
ATOM     75  S   UNL A   1      40.586  35.665  37.369  1.00  0.00     0.124 S 
ATOM     76  O   UNL A   1      40.114  36.614  36.365  1.00  0.00    -0.237 OA
ATOM     77  O   UNL A   1      39.563  35.125  38.259  1.00  0.00    -0.237 OA
ATOM     78  O   UNL A   1      41.853  36.006  38.008  1.00  0.00    -0.744 OA
ENDBRANCH  74  75
ENDBRANCH  53  67
BRANCH  54  79
ATOM     79  C   UNL A   1      43.116  24.750  28.028  1.00  0.00     0.058 A 
ATOM     80  C   UNL A   1      42.857  23.398  28.299  1.00  0.00     0.135 A 
ATOM     81  C   UNL A   1      43.683  25.069  26.784  1.00  0.00     0.135 A 
ATOM     82  F   UNL A   1      42.319  23.042  29.475  1.00  0.00    -0.206 F 
ATOM     83  C   UNL A   1      43.189  22.395  27.393  1.00  0.00     0.059 A 
ATOM     84  C   UNL A   1      43.996  24.087  25.850  1.00  0.00     0.059 A 
ATOM     85  F   UNL A   1      43.931  26.349  26.465  1.00  0.00    -0.206 F 
ATOM     86  C   UNL A   1      43.767  22.750  26.174  1.00  0.00     0.060 A 
BRANCH  86  87
ATOM     87  S   UNL A   1      44.203  21.443  25.007  1.00  0.00     0.124 S 
ATOM     88  O   UNL A   1      44.147  22.155  23.736  1.00  0.00    -0.237 OA
ATOM     89  O   UNL A   1      45.533  21.052  25.464  1.00  0.00    -0.237 OA
ATOM     90  O   UNL A   1      43.157  20.444  25.218  1.00  0.00    -0.744 OA
ENDBRANCH  86  87
ENDBRANCH  54  79
BRANCH  66  91
ATOM     91  C   UNL A   1      46.575  26.953  33.664  1.00  0.00     0.058 A 
ATOM     92  C   UNL A   1      46.580  25.911  34.604  1.00  0.00     0.135 A 
ATOM     93  C   UNL A   1      47.808  27.525  33.309  1.00  0.00     0.135 A 
ATOM     94  F   UNL A   1      45.429  25.335  34.981  1.00  0.00    -0.206 F 
ATOM     95  C   UNL A   1      47.763  25.467  35.187  1.00  0.00     0.059 A 
ATOM     96  C   UNL A   1      49.005  27.077  33.858  1.00  0.00     0.059 A 
ATOM     97  F   UNL A   1      47.859  28.517  32.406  1.00  0.00    -0.206 F 
ATOM     98  C   UNL A   1      48.970  26.055  34.806  1.00  0.00     0.060 A 
BRANCH  98  99
ATOM     99  S   UNL A   1      50.501  25.447  35.544  1.00  0.00     0.124 S 
ATOM    100  O   UNL A   1      50.083  25.190  36.917  1.00  0.00    -0.237 OA
ATOM    101  O   UNL A   1      50.790  24.266  34.736  1.00  0.00    -0.237 OA
ATOM    102  O   UNL A   1      51.429  26.560  35.367  1.00  0.00    -0.744 OA
ENDBRANCH  98  99
ENDBRANCH  66  91
ENDBRANCH  40  41
ENDBRANCH  32  35
ENDBRANCH  30  31
ENDBRANCH  29  30
ENDBRANCH   1  29
TORSDOF 18
ENDMDL
MODEL 2
REMARK VINA RESULT:     -11.6      3.436      8.966
REMARK SMILES Cc1ccc(Cl)c(Nc2ccccc2C(=O)NCC(=O)NCCCCNC(=O)c2ccc(-c3c4nc(c(-c5c(F)cc(S(=O)(=O)[O-])cc5F)c5ccc([nH]5)c(-c5c(F)cc(S(=O)(=O)[O-])cc5F)c5nc(c(-c6c(F)cc(S(=O)(=O)[O-])cc6F)c6ccc3[nH]6)C=C5)C=C4)cc2)c1Cl
REMARK SMILES IDX 23 1 22 2 21 3 19 4 20 5 18 7 17 8 15 9 16 10 14 12 9 13
REMARK SMILES IDX 10 14 11 15 13 16 12 17 8 18 7 20 1 21 2 22 3 23 95 24 4 25
REMARK SMILES IDX 96 26 5 27 6 28 24 29 25 30 26 31 27 32 28 34 29 35 30 36
REMARK SMILES IDX 94 37 31 38 93 39 32 40 33 41 34 42 87 43 35 44 92 45 86 46
REMARK SMILES IDX 88 47 36 48 91 49 85 50 84 51 37 53 71 54 50 55 70 56 51 57
REMARK SMILES IDX 54 58 69 59 89 60 52 61 53 62 68 64 90 65 55 66 38 67 39 68
REMARK SMILES IDX 48 69 40 70 41 71 47 72 49 73 42 74 43 75 44 76 45 77 46 78
REMARK SMILES IDX 72 79 73 80 82 81 74 82 75 83 81 84 83 85 76 86 77 87 78 88
REMARK SMILES IDX 79 89 80 90 56 91 57 92 66 93 58 94 59 95 65 96 67 97 60 98
REMARK SMILES IDX 61 99 62 100 63 101 64 102
REMARK H PARENT 21 6 17 11 8 19 26 33 88 52 54 63
REMARK Flexibility Score: inf
ROOT
ATOM      1  C   UNL A   1      41.066  21.532  26.183  1.00  0.00     0.023 C 
ENDROOT
BRANCH   1   2
ATOM      2  C   UNL A   1      39.548  21.477  26.050  1.00  0.00     0.116 C 
BRANCH   2   3
ATOM      3  N   UNL A   1      38.982  22.753  26.408  1.00  0.00    -0.355 N 
ATOM      4  C   UNL A   1      37.761  23.231  26.038  1.00  0.00     0.239 C 
ATOM      5  O   UNL A   1      37.477  24.399  26.307  1.00  0.00    -0.273 OA
ATOM      6  H   UNL A   1      39.532  23.337  26.978  1.00  0.00     0.163 HD
BRANCH   4   7
ATOM      7  C   UNL A   1      36.692  22.245  25.576  1.00  0.00     0.216 C 
BRANCH   7   8
ATOM      8  N   UNL A   1      35.973  22.321  24.323  1.00  0.00    -0.343 N 
ATOM      9  C   UNL A   1      35.066  23.239  23.843  1.00  0.00     0.253 C 
ATOM     10  O   UNL A   1      35.026  23.340  22.610  1.00  0.00    -0.269 OA
ATOM     11  H   UNL A   1      36.167  21.582  23.702  1.00  0.00     0.164 HD
BRANCH   9  12
ATOM     12  C   UNL A   1      33.998  23.941  24.641  1.00  0.00     0.063 A 
ATOM     13  C   UNL A   1      32.696  23.542  25.023  1.00  0.00     0.051 A 
ATOM     14  C   UNL A   1      31.878  24.491  25.694  1.00  0.00     0.027 A 
ATOM     15  C   UNL A   1      32.332  25.758  26.056  1.00  0.00     0.002 A 
ATOM     16  C   UNL A   1      34.436  25.237  25.038  1.00  0.00     0.016 A 
ATOM     17  C   UNL A   1      33.627  26.125  25.746  1.00  0.00     0.001 A 
BRANCH  13  18
ATOM     18  N   UNL A   1      32.108  22.260  24.951  1.00  0.00    -0.352 N 
ATOM     19  H   UNL A   1      31.140  22.267  25.128  1.00  0.00     0.167 HD
BRANCH  18  20
ATOM     20  C   UNL A   1      32.616  20.965  24.679  1.00  0.00     0.077 A 
ATOM     21  C   UNL A   1      32.153  18.077  22.213  1.00  0.00     0.046 C 
ATOM     22  C   UNL A   1      32.560  18.865  23.427  1.00  0.00    -0.030 A 
ATOM     23  C   UNL A   1      33.089  18.191  24.538  1.00  0.00     0.006 A 
ATOM     24  C   UNL A   1      32.369  20.259  23.488  1.00  0.00     0.069 A 
ATOM     25  C   UNL A   1      33.465  18.893  25.679  1.00  0.00     0.023 A 
ATOM     26  Cl  UNL A   1      31.933  21.109  22.034  1.00  0.00    -0.082 Cl
ATOM     27  C   UNL A   1      33.242  20.266  25.743  1.00  0.00     0.066 A 
ATOM     28  Cl  UNL A   1      33.633  21.079  27.226  1.00  0.00    -0.082 Cl
ENDBRANCH  18  20
ENDBRANCH  13  18
ENDBRANCH   9  12
ENDBRANCH   7   8
ENDBRANCH   4   7
ENDBRANCH   2   3
ENDBRANCH   1   2
BRANCH   1  29
ATOM     29  C   UNL A   1      41.517  22.197  27.485  1.00  0.00     0.023 C 
BRANCH  29  30
ATOM     30  C   UNL A   1      42.448  23.381  27.278  1.00  0.00     0.116 C 
BRANCH  30  31
ATOM     31  N   UNL A   1      42.079  24.172  26.114  1.00  0.00    -0.352 N 
ATOM     32  C   UNL A   1      41.524  25.429  26.092  1.00  0.00     0.251 C 
ATOM     33  H   UNL A   1      42.246  23.756  25.238  1.00  0.00     0.163 HD
ATOM     34  O   UNL A   1      41.103  25.910  25.053  1.00  0.00    -0.269 OA
BRANCH  32  35
ATOM     35  C   UNL A   1      41.429  26.165  27.367  1.00  0.00     0.039 A 
ATOM     36  C   UNL A   1      42.341  27.188  27.627  1.00  0.00     0.014 A 
ATOM     37  C   UNL A   1      40.389  25.885  28.258  1.00  0.00     0.014 A 
ATOM     38  C   UNL A   1      42.177  27.971  28.769  1.00  0.00     0.010 A 
ATOM     39  C   UNL A   1      40.187  26.712  29.356  1.00  0.00     0.010 A 
ATOM     40  C   UNL A   1      41.083  27.758  29.625  1.00  0.00    -0.014 A 
BRANCH  40  41
ATOM     41  C   UNL A   1      40.864  28.616  30.816  1.00  0.00     0.031 A 
ATOM     42  C   UNL A   1      39.768  29.646  30.801  1.00  0.00     0.074 A 
ATOM     43  C   UNL A   1      41.692  28.511  31.875  1.00  0.00     0.049 A 
ATOM     44  N   UNL A   1      39.459  30.533  31.711  1.00  0.00    -0.248 NA
ATOM     45  C   UNL A   1      38.924  29.708  29.594  1.00  0.00     0.031 C 
ATOM     46  C   UNL A   1      42.827  27.589  31.979  1.00  0.00     0.029 A 
ATOM     47  N   UNL A   1      41.715  29.195  33.065  1.00  0.00    -0.354 N 
ATOM     48  C   UNL A   1      38.409  31.270  31.178  1.00  0.00     0.074 A 
ATOM     49  C   UNL A   1      38.157  30.757  29.851  1.00  0.00     0.031 C 
ATOM     50  C   UNL A   1      43.421  27.752  33.173  1.00  0.00     0.029 A 
ATOM     51  C   UNL A   1      42.735  28.812  33.905  1.00  0.00     0.049 A 
ATOM     52  H   UNL A   1      41.062  29.894  33.296  1.00  0.00     0.167 HD
ATOM     53  C   UNL A   1      37.704  32.271  31.756  1.00  0.00     0.037 A 
ATOM     54  C   UNL A   1      43.082  29.273  35.122  1.00  0.00     0.037 A 
ATOM     55  C   UNL A   1      37.926  32.738  33.098  1.00  0.00     0.049 A 
ATOM     56  C   UNL A   1      42.263  30.372  35.748  1.00  0.00     0.074 A 
ATOM     57  C   UNL A   1      37.203  33.680  33.809  1.00  0.00     0.029 A 
ATOM     58  N   UNL A   1      38.943  32.300  33.933  1.00  0.00    -0.354 N 
ATOM     59  N   UNL A   1      41.213  30.993  35.266  1.00  0.00    -0.248 NA
ATOM     60  C   UNL A   1      42.669  30.828  37.084  1.00  0.00     0.031 C 
ATOM     61  C   UNL A   1      37.812  33.847  35.055  1.00  0.00     0.029 A 
ATOM     62  C   UNL A   1      38.882  32.972  35.141  1.00  0.00     0.049 A 
ATOM     63  H   UNL A   1      39.609  31.614  33.700  1.00  0.00     0.167 HD
ATOM     64  C   UNL A   1      40.814  31.887  36.254  1.00  0.00     0.074 A 
ATOM     65  C   UNL A   1      41.727  31.717  37.365  1.00  0.00     0.031 C 
ATOM     66  C   UNL A   1      39.787  32.771  36.244  1.00  0.00     0.037 A 
BRANCH  53  67
ATOM     67  C   UNL A   1      36.614  32.927  30.956  1.00  0.00     0.058 A 
ATOM     68  C   UNL A   1      35.256  32.689  31.225  1.00  0.00     0.135 A 
ATOM     69  C   UNL A   1      36.932  33.874  29.970  1.00  0.00     0.135 A 
ATOM     70  F   UNL A   1      34.898  31.779  32.143  1.00  0.00    -0.206 F 
ATOM     71  C   UNL A   1      34.252  33.365  30.540  1.00  0.00     0.059 A 
ATOM     72  C   UNL A   1      35.944  34.582  29.291  1.00  0.00     0.059 A 
ATOM     73  F   UNL A   1      38.214  34.134  29.671  1.00  0.00    -0.206 F 
ATOM     74  C   UNL A   1      34.607  34.317  29.582  1.00  0.00     0.060 A 
BRANCH  74  75
ATOM     75  S   UNL A   1      33.291  35.228  28.745  1.00  0.00     0.124 S 
ATOM     76  O   UNL A   1      32.526  35.741  29.879  1.00  0.00    -0.237 OA
ATOM     77  O   UNL A   1      34.038  36.223  27.984  1.00  0.00    -0.237 OA
ATOM     78  O   UNL A   1      32.621  34.204  27.949  1.00  0.00    -0.744 OA
ENDBRANCH  74  75
ENDBRANCH  53  67
BRANCH  54  79
ATOM     79  C   UNL A   1      44.253  28.702  35.844  1.00  0.00     0.058 A 
ATOM     80  C   UNL A   1      44.096  27.648  36.757  1.00  0.00     0.135 A 
ATOM     81  C   UNL A   1      45.543  29.225  35.668  1.00  0.00     0.135 A 
ATOM     82  F   UNL A   1      42.882  27.115  36.962  1.00  0.00    -0.206 F 
ATOM     83  C   UNL A   1      45.166  27.163  37.503  1.00  0.00     0.059 A 
ATOM     84  C   UNL A   1      46.634  28.736  36.380  1.00  0.00     0.059 A 
ATOM     85  F   UNL A   1      45.753  30.219  34.791  1.00  0.00    -0.206 F 
ATOM     86  C   UNL A   1      46.430  27.720  37.313  1.00  0.00     0.060 A 
BRANCH  86  87
ATOM     87  S   UNL A   1      47.812  27.091  38.290  1.00  0.00     0.124 S 
ATOM     88  O   UNL A   1      47.562  27.715  39.583  1.00  0.00    -0.237 OA
ATOM     89  O   UNL A   1      47.604  25.647  38.225  1.00  0.00    -0.237 OA
ATOM     90  O   UNL A   1      48.983  27.580  37.566  1.00  0.00    -0.744 OA
ENDBRANCH  86  87
ENDBRANCH  54  79
BRANCH  66  91
ATOM     91  C   UNL A   1      39.559  33.585  37.486  1.00  0.00     0.058 A 
ATOM     92  C   UNL A   1      38.660  33.176  38.484  1.00  0.00     0.135 A 
ATOM     93  C   UNL A   1      40.291  34.763  37.706  1.00  0.00     0.135 A 
ATOM     94  F   UNL A   1      37.932  32.060  38.321  1.00  0.00    -0.206 F 
ATOM     95  C   UNL A   1      38.479  33.919  39.645  1.00  0.00     0.059 A 
ATOM     96  C   UNL A   1      40.147  35.506  38.872  1.00  0.00     0.059 A 
ATOM     97  F   UNL A   1      41.173  35.192  36.788  1.00  0.00    -0.206 F 
ATOM     98  C   UNL A   1      39.228  35.082  39.831  1.00  0.00     0.060 A 
BRANCH  98  99
ATOM     99  S   UNL A   1      39.009  36.019  41.358  1.00  0.00     0.124 S 
ATOM    100  O   UNL A   1      37.780  35.438  41.886  1.00  0.00    -0.237 OA
ATOM    101  O   UNL A   1      40.228  35.704  42.096  1.00  0.00    -0.237 OA
ATOM    102  O   UNL A   1      38.903  37.400  40.896  1.00  0.00    -0.744 OA
ENDBRANCH  98  99
ENDBRANCH  66  91
ENDBRANCH  40  41
ENDBRANCH  32  35
ENDBRANCH  30  31
ENDBRANCH  29  30
ENDBRANCH   1  29
TORSDOF 18
ENDMDL
MODEL 3
REMARK VINA RESULT:     -11.5      3.269      9.418
REMARK SMILES Cc1ccc(Cl)c(Nc2ccccc2C(=O)NCC(=O)NCCCCNC(=O)c2ccc(-c3c4nc(c(-c5c(F)cc(S(=O)(=O)[O-])cc5F)c5ccc([nH]5)c(-c5c(F)cc(S(=O)(=O)[O-])cc5F)c5nc(c(-c6c(F)cc(S(=O)(=O)[O-])cc6F)c6ccc3[nH]6)C=C5)C=C4)cc2)c1Cl
REMARK SMILES IDX 23 1 22 2 21 3 19 4 20 5 18 7 17 8 15 9 16 10 14 12 9 13
REMARK SMILES IDX 10 14 11 15 13 16 12 17 8 18 7 20 1 21 2 22 3 23 95 24 4 25
REMARK SMILES IDX 96 26 5 27 6 28 24 29 25 30 26 31 27 32 28 34 29 35 30 36
REMARK SMILES IDX 94 37 31 38 93 39 32 40 33 41 34 42 87 43 35 44 92 45 86 46
REMARK SMILES IDX 88 47 36 48 91 49 85 50 84 51 37 53 71 54 50 55 70 56 51 57
REMARK SMILES IDX 54 58 69 59 89 60 52 61 53 62 68 64 90 65 55 66 38 67 39 68
REMARK SMILES IDX 48 69 40 70 41 71 47 72 49 73 42 74 43 75 44 76 45 77 46 78
REMARK SMILES IDX 72 79 73 80 82 81 74 82 75 83 81 84 83 85 76 86 77 87 78 88
REMARK SMILES IDX 79 89 80 90 56 91 57 92 66 93 58 94 59 95 65 96 67 97 60 98
REMARK SMILES IDX 61 99 62 100 63 101 64 102
REMARK H PARENT 21 6 17 11 8 19 26 33 88 52 54 63
REMARK Flexibility Score: inf
ROOT
ATOM      1  C   UNL A   1      40.451  21.720  26.494  1.00  0.00     0.023 C 
ENDROOT
BRANCH   1   2
ATOM      2  C   UNL A   1      39.074  22.247  26.106  1.00  0.00     0.116 C 
BRANCH   2   3
ATOM      3  N   UNL A   1      38.291  21.184  25.529  1.00  0.00    -0.355 N 
ATOM      4  C   UNL A   1      36.980  21.251  25.160  1.00  0.00     0.239 C 
ATOM      5  O   UNL A   1      36.411  20.215  24.812  1.00  0.00    -0.273 OA
ATOM      6  H   UNL A   1      38.748  20.325  25.386  1.00  0.00     0.163 HD
BRANCH   4   7
ATOM      7  C   UNL A   1      36.353  22.619  24.910  1.00  0.00     0.216 C 
BRANCH   7   8
ATOM      8  N   UNL A   1      35.512  22.957  23.782  1.00  0.00    -0.343 N 
ATOM      9  C   UNL A   1      34.614  23.982  23.586  1.00  0.00     0.253 C 
ATOM     10  O   UNL A   1      34.450  24.315  22.406  1.00  0.00    -0.269 OA
ATOM     11  H   UNL A   1      35.596  22.342  23.018  1.00  0.00     0.164 HD
BRANCH   9  12
ATOM     12  C   UNL A   1      33.679  24.560  24.617  1.00  0.00     0.063 A 
ATOM     13  C   UNL A   1      32.481  24.064  25.181  1.00  0.00     0.051 A 
ATOM     14  C   UNL A   1      31.760  24.911  26.066  1.00  0.00     0.027 A 
ATOM     15  C   UNL A   1      32.223  26.167  26.455  1.00  0.00     0.002 A 
ATOM     16  C   UNL A   1      34.131  25.841  25.045  1.00  0.00     0.016 A 
ATOM     17  C   UNL A   1      33.427  26.625  25.959  1.00  0.00     0.001 A 
BRANCH  13  18
ATOM     18  N   UNL A   1      31.938  22.763  25.099  1.00  0.00    -0.352 N 
ATOM     19  H   UNL A   1      30.956  22.747  25.163  1.00  0.00     0.167 HD
BRANCH  18  20
ATOM     20  C   UNL A   1      32.507  21.473  24.944  1.00  0.00     0.077 A 
ATOM     21  C   UNL A   1      32.334  18.437  22.624  1.00  0.00     0.046 C 
ATOM     22  C   UNL A   1      32.618  19.306  23.817  1.00  0.00    -0.030 A 
ATOM     23  C   UNL A   1      33.078  18.715  25.003  1.00  0.00     0.006 A 
ATOM     24  C   UNL A   1      32.378  20.694  23.781  1.00  0.00     0.069 A 
ATOM     25  C   UNL A   1      33.339  19.493  26.126  1.00  0.00     0.023 A 
ATOM     26  Cl  UNL A   1      32.032  21.444  22.250  1.00  0.00    -0.082 Cl
ATOM     27  C   UNL A   1      33.068  20.858  26.092  1.00  0.00     0.066 A 
ATOM     28  Cl  UNL A   1      33.315  21.767  27.550  1.00  0.00    -0.082 Cl
ENDBRANCH  18  20
ENDBRANCH  13  18
ENDBRANCH   9  12
ENDBRANCH   7   8
ENDBRANCH   4   7
ENDBRANCH   2   3
ENDBRANCH   1   2
BRANCH   1  29
ATOM     29  C   UNL A   1      40.860  22.133  27.909  1.00  0.00     0.023 C 
BRANCH  29  30
ATOM     30  C   UNL A   1      41.976  23.165  27.949  1.00  0.00     0.116 C 
BRANCH  30  31
ATOM     31  N   UNL A   1      42.257  23.719  26.634  1.00  0.00    -0.352 N 
ATOM     32  C   UNL A   1      42.085  25.016  26.212  1.00  0.00     0.251 C 
ATOM     33  H   UNL A   1      42.612  23.089  25.966  1.00  0.00     0.163 HD
ATOM     34  O   UNL A   1      42.196  25.311  25.034  1.00  0.00    -0.269 OA
BRANCH  32  35
ATOM     35  C   UNL A   1      41.735  26.030  27.224  1.00  0.00     0.039 A 
ATOM     36  C   UNL A   1      40.628  25.812  28.044  1.00  0.00     0.014 A 
ATOM     37  C   UNL A   1      42.553  27.150  27.402  1.00  0.00     0.014 A 
ATOM     38  C   UNL A   1      40.368  26.703  29.085  1.00  0.00     0.010 A 
ATOM     39  C   UNL A   1      42.333  27.993  28.483  1.00  0.00     0.010 A 
ATOM     40  C   UNL A   1      41.234  27.782  29.331  1.00  0.00    -0.014 A 
BRANCH  40  41
ATOM     41  C   UNL A   1      41.002  28.707  30.467  1.00  0.00     0.031 A 
ATOM     42  C   UNL A   1      41.821  28.568  31.721  1.00  0.00     0.074 A 
ATOM     43  C   UNL A   1      40.014  29.622  30.392  1.00  0.00     0.049 A 
ATOM     44  N   UNL A   1      41.728  29.232  32.844  1.00  0.00    -0.248 NA
ATOM     45  C   UNL A   1      42.865  27.528  31.727  1.00  0.00     0.031 C 
ATOM     46  C   UNL A   1      39.116  29.810  29.249  1.00  0.00     0.029 A 
ATOM     47  N   UNL A   1      39.591  30.559  31.300  1.00  0.00    -0.354 N 
ATOM     48  C   UNL A   1      42.677  28.675  33.692  1.00  0.00     0.074 A 
ATOM     49  C   UNL A   1      43.309  27.593  32.974  1.00  0.00     0.031 C 
ATOM     50  C   UNL A   1      38.263  30.812  29.518  1.00  0.00     0.029 A 
ATOM     51  C   UNL A   1      38.527  31.314  30.862  1.00  0.00     0.049 A 
ATOM     52  H   UNL A   1      40.009  30.681  32.183  1.00  0.00     0.167 HD
ATOM     53  C   UNL A   1      43.005  29.050  34.951  1.00  0.00     0.037 A 
ATOM     54  C   UNL A   1      37.838  32.293  31.481  1.00  0.00     0.037 A 
ATOM     55  C   UNL A   1      42.407  30.164  35.639  1.00  0.00     0.049 A 
ATOM     56  C   UNL A   1      38.243  32.702  32.874  1.00  0.00     0.074 A 
ATOM     57  C   UNL A   1      42.738  30.683  36.877  1.00  0.00     0.029 A 
ATOM     58  N   UNL A   1      41.360  30.929  35.148  1.00  0.00    -0.354 N 
ATOM     59  N   UNL A   1      39.208  32.226  33.625  1.00  0.00    -0.248 NA
ATOM     60  C   UNL A   1      37.474  33.787  33.499  1.00  0.00     0.031 C 
ATOM     61  C   UNL A   1      41.858  31.733  37.158  1.00  0.00     0.029 A 
ATOM     62  C   UNL A   1      41.015  31.899  36.072  1.00  0.00     0.049 A 
ATOM     63  H   UNL A   1      40.927  30.801  34.274  1.00  0.00     0.167 HD
ATOM     64  C   UNL A   1      39.181  32.976  34.796  1.00  0.00     0.074 A 
ATOM     65  C   UNL A   1      38.116  33.944  34.649  1.00  0.00     0.031 C 
ATOM     66  C   UNL A   1      39.966  32.872  35.896  1.00  0.00     0.037 A 
BRANCH  53  67
ATOM     67  C   UNL A   1      44.066  28.268  35.673  1.00  0.00     0.058 A 
ATOM     68  C   UNL A   1      45.426  28.605  35.575  1.00  0.00     0.135 A 
ATOM     69  C   UNL A   1      43.709  27.226  36.543  1.00  0.00     0.135 A 
ATOM     70  F   UNL A   1      45.823  29.579  34.743  1.00  0.00    -0.206 F 
ATOM     71  C   UNL A   1      46.394  27.933  36.313  1.00  0.00     0.059 A 
ATOM     72  C   UNL A   1      44.657  26.557  37.311  1.00  0.00     0.059 A 
ATOM     73  F   UNL A   1      42.423  26.861  36.667  1.00  0.00    -0.206 F 
ATOM     74  C   UNL A   1      45.998  26.917  37.186  1.00  0.00     0.060 A 
BRANCH  74  75
ATOM     75  S   UNL A   1      47.262  26.096  38.180  1.00  0.00     0.124 S 
ATOM     76  O   UNL A   1      48.266  27.150  38.304  1.00  0.00    -0.237 OA
ATOM     77  O   UNL A   1      46.534  25.770  39.401  1.00  0.00    -0.237 OA
ATOM     78  O   UNL A   1      47.651  24.953  37.360  1.00  0.00    -0.744 OA
ENDBRANCH  74  75
ENDBRANCH  53  67
BRANCH  54  79
ATOM     79  C   UNL A   1      36.698  32.965  30.800  1.00  0.00     0.058 A 
ATOM     80  C   UNL A   1      36.917  33.894  29.770  1.00  0.00     0.135 A 
ATOM     81  C   UNL A   1      35.372  32.727  31.192  1.00  0.00     0.135 A 
ATOM     82  F   UNL A   1      38.167  34.159  29.362  1.00  0.00    -0.206 F 
ATOM     83  C   UNL A   1      35.867  34.595  29.184  1.00  0.00     0.059 A 
ATOM     84  C   UNL A   1      34.303  33.393  30.600  1.00  0.00     0.059 A 
ATOM     85  F   UNL A   1      35.105  31.832  32.156  1.00  0.00    -0.206 F 
ATOM     86  C   UNL A   1      34.563  34.342  29.612  1.00  0.00     0.060 A 
BRANCH  86  87
ATOM     87  S   UNL A   1      33.207  35.261  28.853  1.00  0.00     0.124 S 
ATOM     88  O   UNL A   1      33.927  36.326  28.164  1.00  0.00    -0.237 OA
ATOM     89  O   UNL A   1      32.589  34.251  27.999  1.00  0.00    -0.237 OA
ATOM     90  O   UNL A   1      32.404  35.679  29.999  1.00  0.00    -0.744 OA
ENDBRANCH  86  87
ENDBRANCH  54  79
BRANCH  66  91
ATOM     91  C   UNL A   1      39.741  33.860  37.006  1.00  0.00     0.058 A 
ATOM     92  C   UNL A   1      38.951  33.548  38.123  1.00  0.00     0.135 A 
ATOM     93  C   UNL A   1      40.371  35.115  36.976  1.00  0.00     0.135 A 
ATOM     94  F   UNL A   1      38.324  32.364  38.199  1.00  0.00    -0.206 F 
ATOM     95  C   UNL A   1      38.774  34.457  39.162  1.00  0.00     0.059 A 
ATOM     96  C   UNL A   1      40.231  36.027  38.016  1.00  0.00     0.059 A 
ATOM     97  F   UNL A   1      41.147  35.457  35.935  1.00  0.00    -0.206 F 
ATOM     98  C   UNL A   1      39.420  35.692  39.100  1.00  0.00     0.060 A 
BRANCH  98  99
ATOM     99  S   UNL A   1      39.210  36.849  40.469  1.00  0.00     0.124 S 
ATOM    100  O   UNL A   1      40.533  36.823  41.083  1.00  0.00    -0.237 OA
ATOM    101  O   UNL A   1      38.854  38.087  39.781  1.00  0.00    -0.237 OA
ATOM    102  O   UNL A   1      38.139  36.250  41.259  1.00  0.00    -0.744 OA
ENDBRANCH  98  99
ENDBRANCH  66  91
ENDBRANCH  40  41
ENDBRANCH  32  35
ENDBRANCH  30  31
ENDBRANCH  29  30
ENDBRANCH   1  29
TORSDOF 18
ENDMDL
