MODEL 1
REMARK VINA RESULT:     -11.5      0.000      0.000
REMARK SMILES C[C@H](CNC(=O)N1C[C@H]2CCCC[N@@H+]2C[C@@H]1C)C(=O)NCCCCNC(=O)c1ccc(-c2c3nc(c(-c4c(F)cc(S(=O)(=O)[O-])cc4F)c4ccc([nH]4)c(-c4c(F)cc(S(=O)(=O)[O-])cc4F)c4nc(c(-c5c(F)cc(S(=O)(=O)[O-])cc5F)c5ccc2[nH]5)C=C4)C=C3)cc1
REMARK SMILES IDX 22 1 21 2 20 3 18 4 19 5 2 7 1 8 3 9 4 10 5 11 6 13 7 14
REMARK SMILES IDX 8 15 16 16 9 17 15 18 17 19 10 20 14 21 11 22 13 23 12 25
REMARK SMILES IDX 23 26 24 27 25 28 26 29 27 31 28 32 29 33 93 34 30 35 92 36
REMARK SMILES IDX 31 37 32 38 33 39 86 40 34 41 91 42 85 43 87 44 35 45 90 46
REMARK SMILES IDX 84 47 83 48 36 50 70 51 49 52 69 53 50 54 53 55 68 56 88 57
REMARK SMILES IDX 51 58 52 59 67 61 89 62 54 63 37 64 38 65 47 66 39 67 40 68
REMARK SMILES IDX 46 69 48 70 41 71 42 72 43 73 44 74 45 75 71 76 72 77 81 78
REMARK SMILES IDX 73 79 74 80 80 81 82 82 75 83 76 84 77 85 78 86 79 87 55 88
REMARK SMILES IDX 56 89 65 90 57 91 58 92 64 93 66 94 59 95 60 96 61 97 62 98
REMARK SMILES IDX 63 99
REMARK H PARENT 20 6 4 12 14 24 25 30 87 49 53 60
REMARK Flexibility Score: inf
ROOT
ATOM      1  C   UNL A   1      33.620  28.236  24.556  1.00  0.00     0.023 C 
ENDROOT
BRANCH   1   2
ATOM      2  C   UNL A   1      33.763  26.767  24.170  1.00  0.00     0.116 C 
BRANCH   2   3
ATOM      3  N   UNL A   1      33.790  26.589  22.731  1.00  0.00    -0.356 N 
ATOM      4  C   UNL A   1      32.974  25.880  21.908  1.00  0.00     0.224 C 
ATOM      5  O   UNL A   1      33.261  25.859  20.706  1.00  0.00    -0.275 OA
ATOM      6  H   UNL A   1      34.522  27.061  22.273  1.00  0.00     0.163 HD
BRANCH   4   7
ATOM      7  C   UNL A   1      31.753  25.116  22.401  1.00  0.00     0.094 C 
ATOM      8  C   UNL A   1      30.669  25.982  23.040  1.00  0.00     0.020 C 
BRANCH   7   9
ATOM      9  C   UNL A   1      32.089  23.792  23.108  1.00  0.00     0.130 C 
BRANCH   9  10
ATOM     10  N   UNL A   1      31.444  23.503  24.378  1.00  0.00    -0.337 N 
ATOM     11  C   UNL A   1      31.797  22.674  25.400  1.00  0.00     0.318 C 
ATOM     12  H   UNL A   1      30.604  23.993  24.526  1.00  0.00     0.165 HD
ATOM     13  O   UNL A   1      30.977  22.393  26.268  1.00  0.00    -0.249 OA
BRANCH  11  14
ATOM     14  N   UNL A   1      33.065  22.172  25.377  1.00  0.00    -0.311 N 
ATOM     15  C   UNL A   1      34.029  22.873  26.211  1.00  0.00     0.186 C 
ATOM     16  C   UNL A   1      33.328  20.723  25.287  1.00  0.00     0.139 C 
ATOM     17  C   UNL A   1      35.416  22.731  25.599  1.00  0.00     0.203 C 
ATOM     18  C   UNL A   1      34.838  20.453  24.956  1.00  0.00     0.287 C 
ATOM     19  C   UNL A   1      32.482  20.020  24.214  1.00  0.00     0.037 C 
ATOM     20  C   UNL A   1      36.407  23.631  26.338  1.00  0.00     0.067 C 
ATOM     21  N   UNL A   1      35.841  21.313  25.638  1.00  0.00    -0.329 N 
ATOM     22  C   UNL A   1      37.783  23.515  25.699  1.00  0.00     0.012 C 
ATOM     23  C   UNL A   1      37.158  21.160  24.999  1.00  0.00     0.262 C 
ATOM     24  H   UNL A   1      35.913  21.021  26.613  1.00  0.00     0.348 HD
ATOM     25  C   UNL A   1      38.218  22.056  25.648  1.00  0.00     0.062 C 
ENDBRANCH  11  14
ENDBRANCH   9  10
ENDBRANCH   7   9
ENDBRANCH   4   7
ENDBRANCH   2   3
ENDBRANCH   1   2
BRANCH   1  26
ATOM     26  C   UNL A   1      32.774  28.503  25.787  1.00  0.00     0.023 C 
BRANCH  26  27
ATOM     27  C   UNL A   1      33.569  28.649  27.071  1.00  0.00     0.116 C 
BRANCH  27  28
ATOM     28  N   UNL A   1      33.528  29.992  27.639  1.00  0.00    -0.352 N 
ATOM     29  C   UNL A   1      34.523  30.680  28.294  1.00  0.00     0.251 C 
ATOM     30  H   UNL A   1      32.673  30.471  27.541  1.00  0.00     0.163 HD
ATOM     31  O   UNL A   1      34.306  31.776  28.799  1.00  0.00    -0.269 OA
BRANCH  29  32
ATOM     32  C   UNL A   1      35.849  30.046  28.414  1.00  0.00     0.039 A 
ATOM     33  C   UNL A   1      36.723  30.082  27.326  1.00  0.00     0.014 A 
ATOM     34  C   UNL A   1      36.259  29.526  29.643  1.00  0.00     0.014 A 
ATOM     35  C   UNL A   1      38.045  29.674  27.501  1.00  0.00     0.010 A 
ATOM     36  C   UNL A   1      37.598  29.231  29.842  1.00  0.00     0.010 A 
ATOM     37  C   UNL A   1      38.505  29.294  28.773  1.00  0.00    -0.014 A 
BRANCH  37  38
ATOM     38  C   UNL A   1      39.924  28.936  29.016  1.00  0.00     0.031 A 
ATOM     39  C   UNL A   1      40.860  29.975  29.573  1.00  0.00     0.074 A 
ATOM     40  C   UNL A   1      40.384  27.721  28.657  1.00  0.00     0.049 A 
ATOM     41  N   UNL A   1      42.154  29.910  29.752  1.00  0.00    -0.248 NA
ATOM     42  C   UNL A   1      40.272  31.277  29.932  1.00  0.00     0.031 C 
ATOM     43  C   UNL A   1      39.587  26.655  28.048  1.00  0.00     0.029 A 
ATOM     44  N   UNL A   1      41.642  27.181  28.744  1.00  0.00    -0.354 N 
ATOM     45  C   UNL A   1      42.533  31.166  30.210  1.00  0.00     0.074 A 
ATOM     46  C   UNL A   1      41.347  31.991  30.222  1.00  0.00     0.031 C 
ATOM     47  C   UNL A   1      40.366  25.580  27.845  1.00  0.00     0.029 A 
ATOM     48  C   UNL A   1      41.726  25.891  28.274  1.00  0.00     0.049 A 
ATOM     49  H   UNL A   1      42.415  27.671  29.108  1.00  0.00     0.167 HD
ATOM     50  C   UNL A   1      43.754  31.585  30.615  1.00  0.00     0.037 A 
ATOM     51  C   UNL A   1      42.781  25.056  28.199  1.00  0.00     0.037 A 
ATOM     52  C   UNL A   1      44.916  30.739  30.655  1.00  0.00     0.049 A 
ATOM     53  C   UNL A   1      44.120  25.532  28.693  1.00  0.00     0.074 A 
ATOM     54  C   UNL A   1      46.182  31.037  31.124  1.00  0.00     0.029 A 
ATOM     55  N   UNL A   1      44.949  29.424  30.215  1.00  0.00    -0.354 N 
ATOM     56  N   UNL A   1      44.448  26.702  29.188  1.00  0.00    -0.248 NA
ATOM     57  C   UNL A   1      45.232  24.574  28.627  1.00  0.00     0.031 C 
ATOM     58  C   UNL A   1      46.991  29.911  30.937  1.00  0.00     0.029 A 
ATOM     59  C   UNL A   1      46.216  28.899  30.390  1.00  0.00     0.049 A 
ATOM     60  H   UNL A   1      44.183  28.935  29.835  1.00  0.00     0.167 HD
ATOM     61  C   UNL A   1      45.796  26.612  29.517  1.00  0.00     0.074 A 
ATOM     62  C   UNL A   1      46.219  25.269  29.174  1.00  0.00     0.031 C 
ATOM     63  C   UNL A   1      46.611  27.554  30.053  1.00  0.00     0.037 A 
BRANCH  50  64
ATOM     64  C   UNL A   1      43.884  33.015  31.063  1.00  0.00     0.058 A 
ATOM     65  C   UNL A   1      43.699  33.387  32.405  1.00  0.00     0.135 A 
ATOM     66  C   UNL A   1      44.214  34.024  30.145  1.00  0.00     0.135 A 
ATOM     67  F   UNL A   1      43.364  32.466  33.323  1.00  0.00    -0.206 F 
ATOM     68  C   UNL A   1      43.800  34.712  32.812  1.00  0.00     0.059 A 
ATOM     69  C   UNL A   1      44.348  35.353  30.535  1.00  0.00     0.059 A 
ATOM     70  F   UNL A   1      44.399  33.724  28.849  1.00  0.00    -0.206 F 
ATOM     71  C   UNL A   1      44.123  35.689  31.869  1.00  0.00     0.060 A 
BRANCH  71  72
ATOM     72  S   UNL A   1      44.252  37.405  32.415  1.00  0.00     0.124 S 
ATOM     73  O   UNL A   1      45.664  37.492  32.771  1.00  0.00    -0.237 OA
ATOM     74  O   UNL A   1      43.853  38.144  31.221  1.00  0.00    -0.237 OA
ATOM     75  O   UNL A   1      43.317  37.476  33.533  1.00  0.00    -0.744 OA
ENDBRANCH  71  72
ENDBRANCH  50  64
BRANCH  51  76
ATOM     76  C   UNL A   1      42.606  23.676  27.671  1.00  0.00     0.058 A 
ATOM     77  C   UNL A   1      42.674  23.422  26.294  1.00  0.00     0.135 A 
ATOM     78  C   UNL A   1      42.382  22.586  28.526  1.00  0.00     0.135 A 
ATOM     79  F   UNL A   1      42.882  24.433  25.435  1.00  0.00    -0.206 F 
ATOM     80  C   UNL A   1      42.508  22.141  25.778  1.00  0.00     0.059 A 
ATOM     81  C   UNL A   1      42.236  21.291  28.036  1.00  0.00     0.059 A 
ATOM     82  F   UNL A   1      42.326  22.773  29.853  1.00  0.00    -0.206 F 
ATOM     83  C   UNL A   1      42.289  21.080  26.659  1.00  0.00     0.060 A 
BRANCH  83  84
ATOM     84  S   UNL A   1      42.119  19.414  25.982  1.00  0.00     0.124 S 
ATOM     85  O   UNL A   1      40.689  19.356  25.703  1.00  0.00    -0.237 OA
ATOM     86  O   UNL A   1      42.996  19.464  24.817  1.00  0.00    -0.237 OA
ATOM     87  O   UNL A   1      42.586  18.561  27.072  1.00  0.00    -0.744 OA
ENDBRANCH  83  84
ENDBRANCH  51  76
BRANCH  63  88
ATOM     88  C   UNL A   1      48.030  27.157  30.338  1.00  0.00     0.058 A 
ATOM     89  C   UNL A   1      49.050  27.339  29.391  1.00  0.00     0.135 A 
ATOM     90  C   UNL A   1      48.384  26.645  31.596  1.00  0.00     0.135 A 
ATOM     91  F   UNL A   1      48.761  27.821  28.172  1.00  0.00    -0.206 F 
ATOM     92  C   UNL A   1      50.370  27.009  29.676  1.00  0.00     0.059 A 
ATOM     93  C   UNL A   1      49.702  26.332  31.912  1.00  0.00     0.059 A 
ATOM     94  F   UNL A   1      47.447  26.463  32.540  1.00  0.00    -0.206 F 
ATOM     95  C   UNL A   1      50.687  26.507  30.940  1.00  0.00     0.060 A 
BRANCH  95  96
ATOM     96  S   UNL A   1      52.410  26.120  31.311  1.00  0.00     0.124 S 
ATOM     97  O   UNL A   1      52.295  24.776  31.869  1.00  0.00    -0.237 OA
ATOM     98  O   UNL A   1      53.042  26.209  29.999  1.00  0.00    -0.237 OA
ATOM     99  O   UNL A   1      52.796  27.163  32.258  1.00  0.00    -0.744 OA
ENDBRANCH  95  96
ENDBRANCH  63  88
ENDBRANCH  37  38
ENDBRANCH  29  32
ENDBRANCH  27  28
ENDBRANCH  26  27
ENDBRANCH   1  26
TORSDOF 17
ENDMDL
MODEL 2
REMARK VINA RESULT:     -11.2      4.590      5.887
REMARK SMILES C[C@H](CNC(=O)N1C[C@H]2CCCC[N@@H+]2C[C@@H]1C)C(=O)NCCCCNC(=O)c1ccc(-c2c3nc(c(-c4c(F)cc(S(=O)(=O)[O-])cc4F)c4ccc([nH]4)c(-c4c(F)cc(S(=O)(=O)[O-])cc4F)c4nc(c(-c5c(F)cc(S(=O)(=O)[O-])cc5F)c5ccc2[nH]5)C=C4)C=C3)cc1
REMARK SMILES IDX 22 1 21 2 20 3 18 4 19 5 2 7 1 8 3 9 4 10 5 11 6 13 7 14
REMARK SMILES IDX 8 15 16 16 9 17 15 18 17 19 10 20 14 21 11 22 13 23 12 25
REMARK SMILES IDX 23 26 24 27 25 28 26 29 27 31 28 32 29 33 93 34 30 35 92 36
REMARK SMILES IDX 31 37 32 38 33 39 86 40 34 41 91 42 85 43 87 44 35 45 90 46
REMARK SMILES IDX 84 47 83 48 36 50 70 51 49 52 69 53 50 54 53 55 68 56 88 57
REMARK SMILES IDX 51 58 52 59 67 61 89 62 54 63 37 64 38 65 47 66 39 67 40 68
REMARK SMILES IDX 46 69 48 70 41 71 42 72 43 73 44 74 45 75 71 76 72 77 81 78
REMARK SMILES IDX 73 79 74 80 80 81 82 82 75 83 76 84 77 85 78 86 79 87 55 88
REMARK SMILES IDX 56 89 65 90 57 91 58 92 64 93 66 94 59 95 60 96 61 97 62 98
REMARK SMILES IDX 63 99
REMARK H PARENT 20 6 4 12 14 24 25 30 87 49 53 60
REMARK Flexibility Score: inf
ROOT
ATOM      1  C   UNL A   1      34.962  30.364  27.975  1.00  0.00     0.023 C 
ENDROOT
BRANCH   1   2
ATOM      2  C   UNL A   1      34.436  29.123  27.260  1.00  0.00     0.116 C 
BRANCH   2   3
ATOM      3  N   UNL A   1      33.183  28.664  27.828  1.00  0.00    -0.356 N 
ATOM      4  C   UNL A   1      32.037  28.245  27.231  1.00  0.00     0.224 C 
ATOM      5  O   UNL A   1      31.089  27.953  27.967  1.00  0.00    -0.275 OA
ATOM      6  H   UNL A   1      33.159  28.653  28.812  1.00  0.00     0.163 HD
BRANCH   4   7
ATOM      7  C   UNL A   1      31.876  28.138  25.720  1.00  0.00     0.094 C 
ATOM      8  C   UNL A   1      31.433  29.426  25.030  1.00  0.00     0.020 C 
BRANCH   7   9
ATOM      9  C   UNL A   1      31.204  26.836  25.255  1.00  0.00     0.130 C 
BRANCH   9  10
ATOM     10  N   UNL A   1      30.815  25.860  26.260  1.00  0.00    -0.337 N 
ATOM     11  C   UNL A   1      31.100  24.534  26.386  1.00  0.00     0.318 C 
ATOM     12  H   UNL A   1      30.246  26.222  26.975  1.00  0.00     0.165 HD
ATOM     13  O   UNL A   1      30.460  23.846  27.174  1.00  0.00    -0.249 OA
BRANCH  11  14
ATOM     14  N   UNL A   1      32.086  24.036  25.587  1.00  0.00    -0.311 N 
ATOM     15  C   UNL A   1      33.293  23.608  26.277  1.00  0.00     0.186 C 
ATOM     16  C   UNL A   1      31.785  23.220  24.395  1.00  0.00     0.139 C 
ATOM     17  C   UNL A   1      34.486  23.765  25.343  1.00  0.00     0.203 C 
ATOM     18  C   UNL A   1      33.062  23.058  23.497  1.00  0.00     0.287 C 
ATOM     19  C   UNL A   1      30.671  23.816  23.520  1.00  0.00     0.037 C 
ATOM     20  C   UNL A   1      35.786  23.525  26.111  1.00  0.00     0.067 C 
ATOM     21  N   UNL A   1      34.355  22.837  24.198  1.00  0.00    -0.329 N 
ATOM     22  C   UNL A   1      36.975  23.721  25.184  1.00  0.00     0.012 C 
ATOM     23  C   UNL A   1      35.476  23.023  23.262  1.00  0.00     0.262 C 
ATOM     24  H   UNL A   1      34.375  21.880  24.550  1.00  0.00     0.348 HD
ATOM     25  C   UNL A   1      36.832  22.838  23.950  1.00  0.00     0.062 C 
ENDBRANCH  11  14
ENDBRANCH   9  10
ENDBRANCH   7   9
ENDBRANCH   4   7
ENDBRANCH   2   3
ENDBRANCH   1   2
BRANCH   1  26
ATOM     26  C   UNL A   1      34.494  31.688  27.403  1.00  0.00     0.023 C 
BRANCH  26  27
ATOM     27  C   UNL A   1      33.181  32.187  27.976  1.00  0.00     0.116 C 
BRANCH  27  28
ATOM     28  N   UNL A   1      33.026  33.637  27.918  1.00  0.00    -0.352 N 
ATOM     29  C   UNL A   1      33.707  34.603  28.621  1.00  0.00     0.251 C 
ATOM     30  H   UNL A   1      32.342  33.968  27.292  1.00  0.00     0.163 HD
ATOM     31  O   UNL A   1      33.398  35.786  28.529  1.00  0.00    -0.269 OA
BRANCH  29  32
ATOM     32  C   UNL A   1      34.791  34.177  29.525  1.00  0.00     0.039 A 
ATOM     33  C   UNL A   1      34.475  33.459  30.679  1.00  0.00     0.014 A 
ATOM     34  C   UNL A   1      36.122  34.389  29.158  1.00  0.00     0.014 A 
ATOM     35  C   UNL A   1      35.502  32.877  31.422  1.00  0.00     0.010 A 
ATOM     36  C   UNL A   1      37.127  33.714  29.831  1.00  0.00     0.010 A 
ATOM     37  C   UNL A   1      36.831  32.957  30.974  1.00  0.00    -0.014 A 
BRANCH  37  38
ATOM     38  C   UNL A   1      37.939  32.277  31.688  1.00  0.00     0.031 A 
ATOM     39  C   UNL A   1      38.363  32.782  33.041  1.00  0.00     0.074 A 
ATOM     40  C   UNL A   1      38.613  31.274  31.089  1.00  0.00     0.049 A 
ATOM     41  N   UNL A   1      39.374  32.411  33.782  1.00  0.00    -0.248 NA
ATOM     42  C   UNL A   1      37.573  33.884  33.617  1.00  0.00     0.031 C 
ATOM     43  C   UNL A   1      38.338  30.742  29.753  1.00  0.00     0.029 A 
ATOM     44  N   UNL A   1      39.680  30.531  31.525  1.00  0.00    -0.354 N 
ATOM     45  C   UNL A   1      39.358  33.253  34.887  1.00  0.00     0.074 A 
ATOM     46  C   UNL A   1      38.279  34.193  34.692  1.00  0.00     0.031 C 
ATOM     47  C   UNL A   1      39.190  29.739  29.492  1.00  0.00     0.029 A 
ATOM     48  C   UNL A   1      40.098  29.579  30.624  1.00  0.00     0.049 A 
ATOM     49  H   UNL A   1      40.109  30.665  32.402  1.00  0.00     0.167 HD
ATOM     50  C   UNL A   1      40.153  33.225  35.983  1.00  0.00     0.037 A 
ATOM     51  C   UNL A   1      41.100  28.682  30.703  1.00  0.00     0.037 A 
ATOM     52  C   UNL A   1      41.186  32.249  36.195  1.00  0.00     0.049 A 
ATOM     53  C   UNL A   1      41.943  28.643  31.949  1.00  0.00     0.074 A 
ATOM     54  C   UNL A   1      41.994  32.077  37.304  1.00  0.00     0.029 A 
ATOM     55  N   UNL A   1      41.547  31.271  35.279  1.00  0.00    -0.354 N 
ATOM     56  N   UNL A   1      41.872  29.403  33.017  1.00  0.00    -0.248 NA
ATOM     57  C   UNL A   1      42.999  27.623  32.006  1.00  0.00     0.031 C 
ATOM     58  C   UNL A   1      42.868  31.015  37.045  1.00  0.00     0.029 A 
ATOM     59  C   UNL A   1      42.575  30.500  35.792  1.00  0.00     0.049 A 
ATOM     60  H   UNL A   1      41.132  31.144  34.395  1.00  0.00     0.167 HD
ATOM     61  C   UNL A   1      42.854  28.935  33.883  1.00  0.00     0.074 A 
ATOM     62  C   UNL A   1      43.497  27.820  33.219  1.00  0.00     0.031 C 
ATOM     63  C   UNL A   1      43.192  29.386  35.116  1.00  0.00     0.037 A 
BRANCH  50  64
ATOM     64  C   UNL A   1      39.916  34.270  37.039  1.00  0.00     0.058 A 
ATOM     65  C   UNL A   1      39.149  34.001  38.184  1.00  0.00     0.135 A 
ATOM     66  C   UNL A   1      40.476  35.550  36.913  1.00  0.00     0.135 A 
ATOM     67  F   UNL A   1      38.574  32.799  38.347  1.00  0.00    -0.206 F 
ATOM     68  C   UNL A   1      38.916  34.975  39.148  1.00  0.00     0.059 A 
ATOM     69  C   UNL A   1      40.280  36.532  37.880  1.00  0.00     0.059 A 
ATOM     70  F   UNL A   1      41.216  35.862  35.836  1.00  0.00    -0.206 F 
ATOM     71  C   UNL A   1      39.484  36.240  38.987  1.00  0.00     0.060 A 
BRANCH  71  72
ATOM     72  S   UNL A   1      39.173  37.493  40.248  1.00  0.00     0.124 S 
ATOM     73  O   UNL A   1      38.198  38.346  39.576  1.00  0.00    -0.237 OA
ATOM     74  O   UNL A   1      38.658  36.698  41.359  1.00  0.00    -0.237 OA
ATOM     75  O   UNL A   1      40.486  38.089  40.465  1.00  0.00    -0.744 OA
ENDBRANCH  71  72
ENDBRANCH  50  64
BRANCH  51  76
ATOM     76  C   UNL A   1      41.335  27.724  29.590  1.00  0.00     0.058 A 
ATOM     77  C   UNL A   1      42.480  27.827  28.786  1.00  0.00     0.135 A 
ATOM     78  C   UNL A   1      40.436  26.683  29.315  1.00  0.00     0.135 A 
ATOM     79  F   UNL A   1      43.369  28.808  29.007  1.00  0.00    -0.206 F 
ATOM     80  C   UNL A   1      42.717  26.945  27.737  1.00  0.00     0.059 A 
ATOM     81  C   UNL A   1      40.662  25.773  28.285  1.00  0.00     0.059 A 
ATOM     82  F   UNL A   1      39.335  26.529  30.066  1.00  0.00    -0.206 F 
ATOM     83  C   UNL A   1      41.801  25.920  27.494  1.00  0.00     0.060 A 
BRANCH  83  84
ATOM     84  S   UNL A   1      42.142  24.754  26.157  1.00  0.00     0.124 S 
ATOM     85  O   UNL A   1      41.053  23.797  26.319  1.00  0.00    -0.237 OA
ATOM     86  O   UNL A   1      42.070  25.608  24.976  1.00  0.00    -0.237 OA
ATOM     87  O   UNL A   1      43.475  24.255  26.480  1.00  0.00    -0.744 OA
ENDBRANCH  83  84
ENDBRANCH  51  76
BRANCH  63  88
ATOM     88  C   UNL A   1      44.282  28.653  35.844  1.00  0.00     0.058 A 
ATOM     89  C   UNL A   1      44.002  27.569  36.689  1.00  0.00     0.135 A 
ATOM     90  C   UNL A   1      45.626  29.003  35.645  1.00  0.00     0.135 A 
ATOM     91  F   UNL A   1      42.731  27.199  36.915  1.00  0.00    -0.206 F 
ATOM     92  C   UNL A   1      45.018  26.866  37.327  1.00  0.00     0.059 A 
ATOM     93  C   UNL A   1      46.661  28.299  36.253  1.00  0.00     0.059 A 
ATOM     94  F   UNL A   1      45.947  30.026  34.837  1.00  0.00    -0.206 F 
ATOM     95  C   UNL A   1      46.345  27.238  37.102  1.00  0.00     0.060 A 
BRANCH  95  96
ATOM     96  S   UNL A   1      47.657  26.294  37.904  1.00  0.00     0.124 S 
ATOM     97  O   UNL A   1      46.896  25.243  38.571  1.00  0.00    -0.237 OA
ATOM     98  O   UNL A   1      48.473  25.866  36.773  1.00  0.00    -0.237 OA
ATOM     99  O   UNL A   1      48.286  27.271  38.788  1.00  0.00    -0.744 OA
ENDBRANCH  95  96
ENDBRANCH  63  88
ENDBRANCH  37  38
ENDBRANCH  29  32
ENDBRANCH  27  28
ENDBRANCH  26  27
ENDBRANCH   1  26
TORSDOF 17
ENDMDL
MODEL 3
REMARK VINA RESULT:     -11.1      2.779      3.705
REMARK SMILES C[C@H](CNC(=O)N1C[C@H]2CCCC[N@@H+]2C[C@@H]1C)C(=O)NCCCCNC(=O)c1ccc(-c2c3nc(c(-c4c(F)cc(S(=O)(=O)[O-])cc4F)c4ccc([nH]4)c(-c4c(F)cc(S(=O)(=O)[O-])cc4F)c4nc(c(-c5c(F)cc(S(=O)(=O)[O-])cc5F)c5ccc2[nH]5)C=C4)C=C3)cc1
REMARK SMILES IDX 22 1 21 2 20 3 18 4 19 5 2 7 1 8 3 9 4 10 5 11 6 13 7 14
REMARK SMILES IDX 8 15 16 16 9 17 15 18 17 19 10 20 14 21 11 22 13 23 12 25
REMARK SMILES IDX 23 26 24 27 25 28 26 29 27 31 28 32 29 33 93 34 30 35 92 36
REMARK SMILES IDX 31 37 32 38 33 39 86 40 34 41 91 42 85 43 87 44 35 45 90 46
REMARK SMILES IDX 84 47 83 48 36 50 70 51 49 52 69 53 50 54 53 55 68 56 88 57
REMARK SMILES IDX 51 58 52 59 67 61 89 62 54 63 37 64 38 65 47 66 39 67 40 68
REMARK SMILES IDX 46 69 48 70 41 71 42 72 43 73 44 74 45 75 71 76 72 77 81 78
REMARK SMILES IDX 73 79 74 80 80 81 82 82 75 83 76 84 77 85 78 86 79 87 55 88
REMARK SMILES IDX 56 89 65 90 57 91 58 92 64 93 66 94 59 95 60 96 61 97 62 98
REMARK SMILES IDX 63 99
REMARK H PARENT 20 6 4 12 14 24 25 30 87 49 53 60
REMARK Flexibility Score: inf
ROOT
ATOM      1  C   UNL A   1      33.958  31.078  27.549  1.00  0.00     0.023 C 
ENDROOT
BRANCH   1   2
ATOM      2  C   UNL A   1      32.583  30.492  27.248  1.00  0.00     0.116 C 
BRANCH   2   3
ATOM      3  N   UNL A   1      32.429  30.170  25.842  1.00  0.00    -0.356 N 
ATOM      4  C   UNL A   1      32.356  28.972  25.207  1.00  0.00     0.224 C 
ATOM      5  O   UNL A   1      32.275  28.989  23.974  1.00  0.00    -0.275 OA
ATOM      6  H   UNL A   1      32.365  30.953  25.248  1.00  0.00     0.163 HD
BRANCH   4   7
ATOM      7  C   UNL A   1      32.386  27.638  25.940  1.00  0.00     0.094 C 
ATOM      8  C   UNL A   1      33.778  27.036  26.120  1.00  0.00     0.020 C 
BRANCH   7   9
ATOM      9  C   UNL A   1      31.261  26.674  25.527  1.00  0.00     0.130 C 
BRANCH   9  10
ATOM     10  N   UNL A   1      30.857  25.640  26.465  1.00  0.00    -0.337 N 
ATOM     11  C   UNL A   1      31.120  24.304  26.502  1.00  0.00     0.318 C 
ATOM     12  H   UNL A   1      30.294  25.962  27.204  1.00  0.00     0.165 HD
ATOM     13  O   UNL A   1      30.470  23.574  27.243  1.00  0.00    -0.249 OA
BRANCH  11  14
ATOM     14  N   UNL A   1      32.098  23.844  25.669  1.00  0.00    -0.311 N 
ATOM     15  C   UNL A   1      33.319  23.401  26.324  1.00  0.00     0.186 C 
ATOM     16  C   UNL A   1      31.785  23.072  24.452  1.00  0.00     0.139 C 
ATOM     17  C   UNL A   1      34.495  23.604  25.378  1.00  0.00     0.203 C 
ATOM     18  C   UNL A   1      33.049  22.955  23.529  1.00  0.00     0.287 C 
ATOM     19  C   UNL A   1      30.653  23.690  23.617  1.00  0.00     0.037 C 
ATOM     20  C   UNL A   1      35.809  23.346  26.117  1.00  0.00     0.067 C 
ATOM     21  N   UNL A   1      34.354  22.718  24.201  1.00  0.00    -0.329 N 
ATOM     22  C   UNL A   1      36.983  23.587  25.179  1.00  0.00     0.012 C 
ATOM     23  C   UNL A   1      35.459  22.949  23.256  1.00  0.00     0.262 C 
ATOM     24  H   UNL A   1      34.388  21.749  24.516  1.00  0.00     0.348 HD
ATOM     25  C   UNL A   1      36.827  22.750  23.915  1.00  0.00     0.062 C 
ENDBRANCH  11  14
ENDBRANCH   9  10
ENDBRANCH   7   9
ENDBRANCH   4   7
ENDBRANCH   2   3
ENDBRANCH   1   2
BRANCH   1  26
ATOM     26  C   UNL A   1      35.134  30.186  27.198  1.00  0.00     0.023 C 
BRANCH  26  27
ATOM     27  C   UNL A   1      35.747  29.466  28.384  1.00  0.00     0.116 C 
BRANCH  27  28
ATOM     28  N   UNL A   1      35.559  30.159  29.654  1.00  0.00    -0.352 N 
ATOM     29  C   UNL A   1      36.511  30.592  30.547  1.00  0.00     0.251 C 
ATOM     30  H   UNL A   1      34.624  30.342  29.907  1.00  0.00     0.163 HD
ATOM     31  O   UNL A   1      36.190  31.083  31.624  1.00  0.00    -0.269 OA
BRANCH  29  32
ATOM     32  C   UNL A   1      37.932  30.412  30.196  1.00  0.00     0.039 A 
ATOM     33  C   UNL A   1      38.804  29.870  31.141  1.00  0.00     0.014 A 
ATOM     34  C   UNL A   1      38.361  30.672  28.893  1.00  0.00     0.014 A 
ATOM     35  C   UNL A   1      40.092  29.505  30.748  1.00  0.00     0.010 A 
ATOM     36  C   UNL A   1      39.598  30.203  28.480  1.00  0.00     0.010 A 
ATOM     37  C   UNL A   1      40.480  29.621  29.403  1.00  0.00    -0.014 A 
BRANCH  37  38
ATOM     38  C   UNL A   1      41.810  29.163  28.931  1.00  0.00     0.031 A 
ATOM     39  C   UNL A   1      42.934  30.157  28.815  1.00  0.00     0.074 A 
ATOM     40  C   UNL A   1      41.979  27.888  28.527  1.00  0.00     0.049 A 
ATOM     41  N   UNL A   1      44.132  29.995  28.320  1.00  0.00    -0.248 NA
ATOM     42  C   UNL A   1      42.657  31.529  29.275  1.00  0.00     0.031 C 
ATOM     43  C   UNL A   1      40.946  26.850  28.529  1.00  0.00     0.029 A 
ATOM     44  N   UNL A   1      43.084  27.250  28.023  1.00  0.00    -0.354 N 
ATOM     45  C   UNL A   1      44.735  31.246  28.378  1.00  0.00     0.074 A 
ATOM     46  C   UNL A   1      43.753  32.169  28.898  1.00  0.00     0.031 C 
ATOM     47  C   UNL A   1      41.474  25.699  28.082  1.00  0.00     0.029 A 
ATOM     48  C   UNL A   1      42.871  25.924  27.724  1.00  0.00     0.049 A 
ATOM     49  H   UNL A   1      43.950  27.699  27.888  1.00  0.00     0.167 HD
ATOM     50  C   UNL A   1      46.005  31.588  28.058  1.00  0.00     0.037 A 
ATOM     51  C   UNL A   1      43.709  24.998  27.218  1.00  0.00     0.037 A 
ATOM     52  C   UNL A   1      46.992  30.651  27.598  1.00  0.00     0.049 A 
ATOM     53  C   UNL A   1      45.127  25.393  26.908  1.00  0.00     0.074 A 
ATOM     54  C   UNL A   1      48.329  30.874  27.323  1.00  0.00     0.029 A 
ATOM     55  N   UNL A   1      46.751  29.307  27.352  1.00  0.00    -0.354 N 
ATOM     56  N   UNL A   1      45.702  26.566  27.033  1.00  0.00    -0.248 NA
ATOM     57  C   UNL A   1      46.014  24.341  26.394  1.00  0.00     0.031 C 
ATOM     58  C   UNL A   1      48.889  29.671  26.880  1.00  0.00     0.029 A 
ATOM     59  C   UNL A   1      47.910  28.690  26.918  1.00  0.00     0.049 A 
ATOM     60  H   UNL A   1      45.882  28.858  27.471  1.00  0.00     0.167 HD
ATOM     61  C   UNL A   1      47.023  26.387  26.641  1.00  0.00     0.074 A 
ATOM     62  C   UNL A   1      47.165  24.989  26.284  1.00  0.00     0.031 C 
ATOM     63  C   UNL A   1      48.029  27.294  26.580  1.00  0.00     0.037 A 
BRANCH  50  64
ATOM     64  C   UNL A   1      46.395  33.033  28.215  1.00  0.00     0.058 A 
ATOM     65  C   UNL A   1      46.963  33.518  29.405  1.00  0.00     0.135 A 
ATOM     66  C   UNL A   1      46.215  33.939  27.159  1.00  0.00     0.135 A 
ATOM     67  F   UNL A   1      47.140  32.699  30.454  1.00  0.00    -0.206 F 
ATOM     68  C   UNL A   1      47.303  34.857  29.554  1.00  0.00     0.059 A 
ATOM     69  C   UNL A   1      46.575  35.279  27.276  1.00  0.00     0.059 A 
ATOM     70  F   UNL A   1      45.674  33.529  26.000  1.00  0.00    -0.206 F 
ATOM     71  C   UNL A   1      47.104  35.732  28.484  1.00  0.00     0.060 A 
BRANCH  71  72
ATOM     72  S   UNL A   1      47.553  37.467  28.694  1.00  0.00     0.124 S 
ATOM     73  O   UNL A   1      47.283  37.668  30.114  1.00  0.00    -0.237 OA
ATOM     74  O   UNL A   1      48.961  37.475  28.310  1.00  0.00    -0.237 OA
ATOM     75  O   UNL A   1      46.653  38.163  27.779  1.00  0.00    -0.744 OA
ENDBRANCH  71  72
ENDBRANCH  50  64
BRANCH  51  76
ATOM     76  C   UNL A   1      43.241  23.601  27.010  1.00  0.00     0.058 A 
ATOM     77  C   UNL A   1      43.067  22.734  28.099  1.00  0.00     0.135 A 
ATOM     78  C   UNL A   1      42.946  23.108  25.730  1.00  0.00     0.135 A 
ATOM     79  F   UNL A   1      43.340  23.158  29.344  1.00  0.00    -0.206 F 
ATOM     80  C   UNL A   1      42.636  21.423  27.927  1.00  0.00     0.059 A 
ATOM     81  C   UNL A   1      42.490  21.808  25.534  1.00  0.00     0.059 A 
ATOM     82  F   UNL A   1      43.078  23.903  24.657  1.00  0.00    -0.206 F 
ATOM     83  C   UNL A   1      42.350  20.968  26.639  1.00  0.00     0.060 A 
BRANCH  83  84
ATOM     84  S   UNL A   1      41.747  19.278  26.432  1.00  0.00     0.124 S 
ATOM     85  O   UNL A   1      42.011  18.710  27.748  1.00  0.00    -0.237 OA
ATOM     86  O   UNL A   1      40.343  19.490  26.097  1.00  0.00    -0.237 OA
ATOM     87  O   UNL A   1      42.572  18.760  25.343  1.00  0.00    -0.744 OA
ENDBRANCH  83  84
ENDBRANCH  51  76
BRANCH  63  88
ATOM     88  C   UNL A   1      49.379  26.800  26.148  1.00  0.00     0.058 A 
ATOM     89  C   UNL A   1      49.824  26.934  24.824  1.00  0.00     0.135 A 
ATOM     90  C   UNL A   1      50.262  26.239  27.085  1.00  0.00     0.135 A 
ATOM     91  F   UNL A   1      49.014  27.458  23.891  1.00  0.00    -0.206 F 
ATOM     92  C   UNL A   1      51.092  26.513  24.439  1.00  0.00     0.059 A 
ATOM     93  C   UNL A   1      51.544  25.835  26.728  1.00  0.00     0.059 A 
ATOM     94  F   UNL A   1      49.888  26.100  28.367  1.00  0.00    -0.206 F 
ATOM     95  C   UNL A   1      51.946  25.965  25.399  1.00  0.00     0.060 A 
BRANCH  95  96
ATOM     96  S   UNL A   1      53.603  25.459  24.896  1.00  0.00     0.124 S 
ATOM     97  O   UNL A   1      53.646  25.929  23.515  1.00  0.00    -0.237 OA
ATOM     98  O   UNL A   1      54.452  26.181  25.838  1.00  0.00    -0.237 OA
ATOM     99  O   UNL A   1      53.581  24.009  25.066  1.00  0.00    -0.744 OA
ENDBRANCH  95  96
ENDBRANCH  63  88
ENDBRANCH  37  38
ENDBRANCH  29  32
ENDBRANCH  27  28
ENDBRANCH  26  27
ENDBRANCH   1  26
TORSDOF 17
ENDMDL
