MODEL 1
REMARK VINA RESULT:     -15.1      0.000      0.000
REMARK SMILES CC(=O)Nc1cnc(N2CC=C(c3ccccc3C)CC2)c(C(=O)NCCCCNC(=O)c2ccc(-c3c4nc(c(-c5c(F)cc(S(=O)(=O)[O-])cc5F)c5ccc([nH]5)c(-c5c(F)cc(S(=O)(=O)[O-])cc5F)c5nc(c(-c6c(F)cc(S(=O)(=O)[O-])cc6F)c6ccc3[nH]6)C=C5)C=C4)cc2)c1
REMARK SMILES IDX 28 1 27 2 26 3 25 4 23 5 24 6 22 8 5 9 6 10 99 11 7 12 8 13
REMARK SMILES IDX 4 14 1 15 2 16 3 17 9 19 10 20 21 21 11 22 20 23 12 24 13 25
REMARK SMILES IDX 14 26 18 27 15 28 17 29 19 30 16 31 29 32 30 33 31 34 32 36
REMARK SMILES IDX 33 37 34 38 98 39 35 40 97 41 36 42 37 43 38 44 91 45 39 46
REMARK SMILES IDX 96 47 90 48 92 49 40 50 95 51 89 52 88 53 41 55 75 56 54 57
REMARK SMILES IDX 74 58 55 59 58 60 73 61 93 62 56 63 57 64 72 66 94 67 59 68
REMARK SMILES IDX 42 69 43 70 52 71 44 72 45 73 51 74 53 75 46 76 47 77 48 78
REMARK SMILES IDX 49 79 50 80 76 81 77 82 86 83 78 84 79 85 85 86 87 87 80 88
REMARK SMILES IDX 81 89 82 90 83 91 84 92 60 93 61 94 70 95 62 96 63 97 69 98
REMARK SMILES IDX 71 99 64 100 65 101 66 102 67 103 68 104
REMARK H PARENT 25 7 4 18 30 35 92 54 58 65
REMARK Flexibility Score: inf
ROOT
ATOM      1  C   UNL A   1      33.015  29.936  26.240  1.00  0.00     0.023 C 
ENDROOT
BRANCH   1   2
ATOM      2  C   UNL A   1      31.762  29.170  26.692  1.00  0.00     0.023 C 
BRANCH   2   3
ATOM      3  C   UNL A   1      32.046  27.837  27.398  1.00  0.00     0.116 C 
BRANCH   3   4
ATOM      4  N   UNL A   1      31.321  26.714  26.816  1.00  0.00    -0.352 N 
ATOM      5  C   UNL A   1      30.738  26.374  25.618  1.00  0.00     0.255 C 
ATOM      6  O   UNL A   1      30.312  25.217  25.613  1.00  0.00    -0.269 OA
ATOM      7  H   UNL A   1      31.219  25.988  27.473  1.00  0.00     0.163 HD
BRANCH   5   8
ATOM      8  C   UNL A   1      30.625  27.242  24.393  1.00  0.00     0.084 A 
ATOM      9  C   UNL A   1      29.466  29.006  23.156  1.00  0.00     0.060 A 
ATOM     10  C   UNL A   1      30.513  29.000  22.261  1.00  0.00     0.139 A 
ATOM     11  C   UNL A   1      29.509  28.072  24.187  1.00  0.00     0.045 A 
ATOM     12  N   UNL A   1      31.593  28.210  22.390  1.00  0.00    -0.236 NA
ATOM     13  C   UNL A   1      31.674  27.346  23.444  1.00  0.00     0.141 A 
BRANCH   9  14
ATOM     14  N   UNL A   1      28.420  29.923  22.971  1.00  0.00    -0.325 N 
ATOM     15  C   UNL A   1      29.350  31.871  24.222  1.00  0.00     0.114 C 
ATOM     16  C   UNL A   1      28.234  31.174  23.489  1.00  0.00     0.221 C 
ATOM     17  O   UNL A   1      27.163  31.744  23.267  1.00  0.00    -0.275 OA
ATOM     18  H   UNL A   1      27.704  29.614  22.370  1.00  0.00     0.169 HD
ENDBRANCH   9  14
BRANCH  13  19
ATOM     19  N   UNL A   1      32.848  26.637  23.440  1.00  0.00    -0.352 N 
ATOM     20  C   UNL A   1      33.065  25.684  22.364  1.00  0.00     0.146 C 
ATOM     21  C   UNL A   1      33.910  26.847  24.410  1.00  0.00     0.123 C 
ATOM     22  C   UNL A   1      33.890  24.515  22.834  1.00  0.00    -0.002 C 
ATOM     23  C   UNL A   1      34.262  25.508  25.079  1.00  0.00     0.057 C 
ATOM     24  C   UNL A   1      34.431  24.404  24.063  1.00  0.00    -0.041 C 
BRANCH  24  25
ATOM     25  C   UNL A   1      35.217  23.208  24.427  1.00  0.00    -0.020 A 
ATOM     26  C   UNL A   1      36.600  23.366  24.640  1.00  0.00     0.008 A 
ATOM     27  C   UNL A   1      34.651  21.923  24.555  1.00  0.00    -0.044 A 
ATOM     28  C   UNL A   1      37.407  22.280  24.979  1.00  0.00     0.001 A 
ATOM     29  C   UNL A   1      35.477  20.841  24.917  1.00  0.00     0.004 A 
ATOM     30  C   UNL A   1      33.186  21.660  24.338  1.00  0.00     0.045 C 
ATOM     31  C   UNL A   1      36.845  21.017  25.122  1.00  0.00     0.000 A 
ENDBRANCH  24  25
ENDBRANCH  13  19
ENDBRANCH   5   8
ENDBRANCH   3   4
ENDBRANCH   2   3
ENDBRANCH   1   2
BRANCH   1  32
ATOM     32  C   UNL A   1      34.212  29.792  27.183  1.00  0.00     0.116 C 
BRANCH  32  33
ATOM     33  N   UNL A   1      34.975  30.987  27.397  1.00  0.00    -0.352 N 
ATOM     34  C   UNL A   1      36.063  31.083  28.311  1.00  0.00     0.251 C 
ATOM     35  H   UNL A   1      34.732  31.789  26.880  1.00  0.00     0.163 HD
ATOM     36  O   UNL A   1      36.306  32.062  28.954  1.00  0.00    -0.269 OA
BRANCH  34  37
ATOM     37  C   UNL A   1      36.976  29.917  28.292  1.00  0.00     0.039 A 
ATOM     38  C   UNL A   1      37.087  29.168  29.469  1.00  0.00     0.014 A 
ATOM     39  C   UNL A   1      37.874  29.751  27.248  1.00  0.00     0.014 A 
ATOM     40  C   UNL A   1      38.214  28.367  29.669  1.00  0.00     0.010 A 
ATOM     41  C   UNL A   1      39.030  29.027  27.477  1.00  0.00     0.010 A 
ATOM     42  C   UNL A   1      39.219  28.370  28.701  1.00  0.00    -0.014 A 
BRANCH  42  43
ATOM     43  C   UNL A   1      40.539  27.785  28.904  1.00  0.00     0.031 A 
ATOM     44  C   UNL A   1      40.805  26.385  28.499  1.00  0.00     0.074 A 
ATOM     45  C   UNL A   1      41.552  28.559  29.351  1.00  0.00     0.049 A 
ATOM     46  N   UNL A   1      41.783  25.672  28.948  1.00  0.00    -0.248 NA
ATOM     47  C   UNL A   1      39.955  25.664  27.558  1.00  0.00     0.031 C 
ATOM     48  C   UNL A   1      42.981  28.266  29.294  1.00  0.00     0.029 A 
ATOM     49  N   UNL A   1      41.467  29.716  30.130  1.00  0.00    -0.354 N 
ATOM     50  C   UNL A   1      41.861  24.535  28.176  1.00  0.00     0.074 A 
ATOM     51  C   UNL A   1      40.669  24.552  27.360  1.00  0.00     0.031 C 
ATOM     52  C   UNL A   1      43.621  29.034  30.189  1.00  0.00     0.029 A 
ATOM     53  C   UNL A   1      42.607  29.736  30.958  1.00  0.00     0.049 A 
ATOM     54  H   UNL A   1      40.748  30.388  30.106  1.00  0.00     0.167 HD
ATOM     55  C   UNL A   1      42.990  23.768  28.213  1.00  0.00     0.037 A 
ATOM     56  C   UNL A   1      42.491  29.681  32.318  1.00  0.00     0.037 A 
ATOM     57  C   UNL A   1      43.954  24.297  29.173  1.00  0.00     0.049 A 
ATOM     58  C   UNL A   1      43.137  28.460  32.937  1.00  0.00     0.074 A 
ATOM     59  C   UNL A   1      45.054  25.128  29.029  1.00  0.00     0.029 A 
ATOM     60  N   UNL A   1      43.669  24.256  30.533  1.00  0.00    -0.354 N 
ATOM     61  N   UNL A   1      43.467  27.389  32.267  1.00  0.00    -0.248 NA
ATOM     62  C   UNL A   1      43.469  28.348  34.355  1.00  0.00     0.031 C 
ATOM     63  C   UNL A   1      45.393  25.637  30.306  1.00  0.00     0.029 A 
ATOM     64  C   UNL A   1      44.514  25.099  31.229  1.00  0.00     0.049 A 
ATOM     65  H   UNL A   1      42.963  23.704  30.943  1.00  0.00     0.167 HD
ATOM     66  C   UNL A   1      44.016  26.460  33.117  1.00  0.00     0.074 A 
ATOM     67  C   UNL A   1      44.019  27.121  34.408  1.00  0.00     0.031 C 
ATOM     68  C   UNL A   1      44.420  25.229  32.677  1.00  0.00     0.037 A 
BRANCH  55  69
ATOM     69  C   UNL A   1      43.318  22.738  27.153  1.00  0.00     0.058 A 
ATOM     70  C   UNL A   1      42.632  21.505  27.101  1.00  0.00     0.135 A 
ATOM     71  C   UNL A   1      44.342  22.885  26.197  1.00  0.00     0.135 A 
ATOM     72  F   UNL A   1      41.575  21.254  27.884  1.00  0.00    -0.206 F 
ATOM     73  C   UNL A   1      43.011  20.460  26.256  1.00  0.00     0.059 A 
ATOM     74  C   UNL A   1      44.776  21.836  25.378  1.00  0.00     0.059 A 
ATOM     75  F   UNL A   1      44.941  24.070  26.006  1.00  0.00    -0.206 F 
ATOM     76  C   UNL A   1      44.109  20.618  25.424  1.00  0.00     0.060 A 
BRANCH  76  77
ATOM     77  S   UNL A   1      44.649  19.216  24.428  1.00  0.00     0.124 S 
ATOM     78  O   UNL A   1      44.443  19.704  23.068  1.00  0.00    -0.237 OA
ATOM     79  O   UNL A   1      46.039  19.065  24.844  1.00  0.00    -0.237 OA
ATOM     80  O   UNL A   1      43.751  18.141  24.841  1.00  0.00    -0.744 OA
ENDBRANCH  76  77
ENDBRANCH  55  69
BRANCH  56  81
ATOM     81  C   UNL A   1      41.285  30.394  32.823  1.00  0.00     0.058 A 
ATOM     82  C   UNL A   1      40.152  29.612  33.131  1.00  0.00     0.135 A 
ATOM     83  C   UNL A   1      41.376  31.660  33.419  1.00  0.00     0.135 A 
ATOM     84  F   UNL A   1      40.011  28.395  32.581  1.00  0.00    -0.206 F 
ATOM     85  C   UNL A   1      39.245  29.988  34.115  1.00  0.00     0.059 A 
ATOM     86  C   UNL A   1      40.470  32.062  34.405  1.00  0.00     0.059 A 
ATOM     87  F   UNL A   1      42.425  32.454  33.161  1.00  0.00    -0.206 F 
ATOM     88  C   UNL A   1      39.458  31.183  34.798  1.00  0.00     0.060 A 
BRANCH  88  89
ATOM     89  S   UNL A   1      38.508  31.468  36.314  1.00  0.00     0.124 S 
ATOM     90  O   UNL A   1      37.400  32.282  35.829  1.00  0.00    -0.237 OA
ATOM     91  O   UNL A   1      38.159  30.102  36.714  1.00  0.00    -0.237 OA
ATOM     92  O   UNL A   1      39.461  32.147  37.182  1.00  0.00    -0.744 OA
ENDBRANCH  88  89
ENDBRANCH  56  81
BRANCH  68  93
ATOM     93  C   UNL A   1      44.860  24.054  33.530  1.00  0.00     0.058 A 
ATOM     94  C   UNL A   1      44.031  22.980  33.894  1.00  0.00     0.135 A 
ATOM     95  C   UNL A   1      46.225  23.911  33.896  1.00  0.00     0.135 A 
ATOM     96  F   UNL A   1      42.746  22.931  33.520  1.00  0.00    -0.206 F 
ATOM     97  C   UNL A   1      44.502  21.876  34.613  1.00  0.00     0.059 A 
ATOM     98  C   UNL A   1      46.727  22.793  34.559  1.00  0.00     0.059 A 
ATOM     99  F   UNL A   1      47.135  24.853  33.604  1.00  0.00    -0.206 F 
ATOM    100  C   UNL A   1      45.852  21.789  34.937  1.00  0.00     0.060 A 
BRANCH 100 101
ATOM    101  S   UNL A   1      46.484  20.330  35.786  1.00  0.00     0.124 S 
ATOM    102  O   UNL A   1      46.143  20.630  37.173  1.00  0.00    -0.237 OA
ATOM    103  O   UNL A   1      45.726  19.244  35.171  1.00  0.00    -0.237 OA
ATOM    104  O   UNL A   1      47.907  20.348  35.465  1.00  0.00    -0.744 OA
ENDBRANCH 100 101
ENDBRANCH  68  93
ENDBRANCH  42  43
ENDBRANCH  34  37
ENDBRANCH  32  33
ENDBRANCH   1  32
TORSDOF 17
ENDMDL
MODEL 2
REMARK VINA RESULT:     -15.0      1.363      4.335
REMARK SMILES CC(=O)Nc1cnc(N2CC=C(c3ccccc3C)CC2)c(C(=O)NCCCCNC(=O)c2ccc(-c3c4nc(c(-c5c(F)cc(S(=O)(=O)[O-])cc5F)c5ccc([nH]5)c(-c5c(F)cc(S(=O)(=O)[O-])cc5F)c5nc(c(-c6c(F)cc(S(=O)(=O)[O-])cc6F)c6ccc3[nH]6)C=C5)C=C4)cc2)c1
REMARK SMILES IDX 28 1 27 2 26 3 25 4 23 5 24 6 22 8 5 9 6 10 99 11 7 12 8 13
REMARK SMILES IDX 4 14 1 15 2 16 3 17 9 19 10 20 21 21 11 22 20 23 12 24 13 25
REMARK SMILES IDX 14 26 18 27 15 28 17 29 19 30 16 31 29 32 30 33 31 34 32 36
REMARK SMILES IDX 33 37 34 38 98 39 35 40 97 41 36 42 37 43 38 44 91 45 39 46
REMARK SMILES IDX 96 47 90 48 92 49 40 50 95 51 89 52 88 53 41 55 75 56 54 57
REMARK SMILES IDX 74 58 55 59 58 60 73 61 93 62 56 63 57 64 72 66 94 67 59 68
REMARK SMILES IDX 42 69 43 70 52 71 44 72 45 73 51 74 53 75 46 76 47 77 48 78
REMARK SMILES IDX 49 79 50 80 76 81 77 82 86 83 78 84 79 85 85 86 87 87 80 88
REMARK SMILES IDX 81 89 82 90 83 91 84 92 60 93 61 94 70 95 62 96 63 97 69 98
REMARK SMILES IDX 71 99 64 100 65 101 66 102 67 103 68 104
REMARK H PARENT 25 7 4 18 30 35 92 54 58 65
REMARK Flexibility Score: inf
ROOT
ATOM      1  C   UNL A   1      32.756  29.885  27.339  1.00  0.00     0.023 C 
ENDROOT
BRANCH   1   2
ATOM      2  C   UNL A   1      31.977  28.566  27.465  1.00  0.00     0.023 C 
BRANCH   2   3
ATOM      3  C   UNL A   1      32.485  27.434  26.563  1.00  0.00     0.116 C 
BRANCH   3   4
ATOM      4  N   UNL A   1      31.856  26.149  26.846  1.00  0.00    -0.352 N 
ATOM      5  C   UNL A   1      31.969  24.838  26.449  1.00  0.00     0.255 C 
ATOM      6  O   UNL A   1      31.226  24.087  27.086  1.00  0.00    -0.269 OA
ATOM      7  H   UNL A   1      31.143  26.251  27.517  1.00  0.00     0.163 HD
BRANCH   5   8
ATOM      8  C   UNL A   1      32.895  24.292  25.394  1.00  0.00     0.084 A 
ATOM      9  C   UNL A   1      34.718  22.790  24.757  1.00  0.00     0.060 A 
ATOM     10  C   UNL A   1      34.458  23.111  23.443  1.00  0.00     0.139 A 
ATOM     11  C   UNL A   1      33.962  23.441  25.729  1.00  0.00     0.045 A 
ATOM     12  N   UNL A   1      33.470  23.939  23.063  1.00  0.00    -0.236 NA
ATOM     13  C   UNL A   1      32.677  24.520  24.011  1.00  0.00     0.141 A 
BRANCH   9  14
ATOM     14  N   UNL A   1      35.725  21.856  25.043  1.00  0.00    -0.325 N 
ATOM     15  C   UNL A   1      37.581  23.417  25.631  1.00  0.00     0.114 C 
ATOM     16  C   UNL A   1      37.047  22.039  25.336  1.00  0.00     0.221 C 
ATOM     17  O   UNL A   1      37.766  21.042  25.436  1.00  0.00    -0.275 OA
ATOM     18  H   UNL A   1      35.432  20.917  25.029  1.00  0.00     0.169 HD
ENDBRANCH   9  14
BRANCH  13  19
ATOM     19  N   UNL A   1      31.705  25.312  23.454  1.00  0.00    -0.352 N 
ATOM     20  C   UNL A   1      32.114  26.305  22.474  1.00  0.00     0.146 C 
ATOM     21  C   UNL A   1      30.288  25.154  23.739  1.00  0.00     0.123 C 
ATOM     22  C   UNL A   1      31.222  27.518  22.529  1.00  0.00    -0.002 C 
ATOM     23  C   UNL A   1      29.710  26.497  24.214  1.00  0.00     0.057 C 
ATOM     24  C   UNL A   1      30.137  27.636  23.319  1.00  0.00    -0.041 C 
BRANCH  24  25
ATOM     25  C   UNL A   1      29.334  28.876  23.304  1.00  0.00    -0.020 A 
ATOM     26  C   UNL A   1      28.056  28.828  22.717  1.00  0.00     0.008 A 
ATOM     27  C   UNL A   1      29.794  30.099  23.835  1.00  0.00    -0.044 A 
ATOM     28  C   UNL A   1      27.244  29.961  22.659  1.00  0.00     0.001 A 
ATOM     29  C   UNL A   1      28.955  31.229  23.786  1.00  0.00     0.004 A 
ATOM     30  C   UNL A   1      31.149  30.244  24.472  1.00  0.00     0.045 C 
ATOM     31  C   UNL A   1      27.692  31.162  23.198  1.00  0.00     0.000 A 
ENDBRANCH  24  25
ENDBRANCH  13  19
ENDBRANCH   5   8
ENDBRANCH   3   4
ENDBRANCH   2   3
ENDBRANCH   1   2
BRANCH   1  32
ATOM     32  C   UNL A   1      34.276  29.715  27.308  1.00  0.00     0.116 C 
BRANCH  32  33
ATOM     33  N   UNL A   1      35.034  30.925  27.440  1.00  0.00    -0.352 N 
ATOM     34  C   UNL A   1      36.166  31.066  28.292  1.00  0.00     0.251 C 
ATOM     35  H   UNL A   1      34.755  31.706  26.908  1.00  0.00     0.163 HD
ATOM     36  O   UNL A   1      36.430  32.071  28.885  1.00  0.00    -0.269 OA
BRANCH  34  37
ATOM     37  C   UNL A   1      37.092  29.911  28.267  1.00  0.00     0.039 A 
ATOM     38  C   UNL A   1      37.195  29.144  29.433  1.00  0.00     0.014 A 
ATOM     39  C   UNL A   1      38.006  29.770  27.233  1.00  0.00     0.014 A 
ATOM     40  C   UNL A   1      38.328  28.352  29.637  1.00  0.00     0.010 A 
ATOM     41  C   UNL A   1      39.166  29.055  27.467  1.00  0.00     0.010 A 
ATOM     42  C   UNL A   1      39.345  28.380  28.682  1.00  0.00    -0.014 A 
BRANCH  42  43
ATOM     43  C   UNL A   1      40.668  27.806  28.894  1.00  0.00     0.031 A 
ATOM     44  C   UNL A   1      40.954  26.415  28.474  1.00  0.00     0.074 A 
ATOM     45  C   UNL A   1      41.668  28.584  29.364  1.00  0.00     0.049 A 
ATOM     46  N   UNL A   1      41.933  25.706  28.925  1.00  0.00    -0.248 NA
ATOM     47  C   UNL A   1      40.123  25.697  27.513  1.00  0.00     0.031 C 
ATOM     48  C   UNL A   1      43.101  28.306  29.321  1.00  0.00     0.029 A 
ATOM     49  N   UNL A   1      41.562  29.730  30.157  1.00  0.00    -0.354 N 
ATOM     50  C   UNL A   1      42.032  24.579  28.140  1.00  0.00     0.074 A 
ATOM     51  C   UNL A   1      40.851  24.595  27.309  1.00  0.00     0.031 C 
ATOM     52  C   UNL A   1      43.721  29.069  30.234  1.00  0.00     0.029 A 
ATOM     53  C   UNL A   1      42.691  29.750  30.998  1.00  0.00     0.049 A 
ATOM     54  H   UNL A   1      40.836  30.395  30.132  1.00  0.00     0.167 HD
ATOM     55  C   UNL A   1      43.168  23.824  28.181  1.00  0.00     0.037 A 
ATOM     56  C   UNL A   1      42.559  29.676  32.356  1.00  0.00     0.037 A 
ATOM     57  C   UNL A   1      44.116  24.349  29.160  1.00  0.00     0.049 A 
ATOM     58  C   UNL A   1      43.210  28.454  32.967  1.00  0.00     0.074 A 
ATOM     59  C   UNL A   1      45.208  25.193  29.040  1.00  0.00     0.029 A 
ATOM     60  N   UNL A   1      43.814  24.287  30.515  1.00  0.00    -0.354 N 
ATOM     61  N   UNL A   1      43.559  27.395  32.288  1.00  0.00    -0.248 NA
ATOM     62  C   UNL A   1      43.526  28.327  34.387  1.00  0.00     0.031 C 
ATOM     63  C   UNL A   1      45.527  25.688  30.328  1.00  0.00     0.029 A 
ATOM     64  C   UNL A   1      44.642  25.130  31.233  1.00  0.00     0.049 A 
ATOM     65  H   UNL A   1      43.109  23.723  30.909  1.00  0.00     0.167 HD
ATOM     66  C   UNL A   1      44.107  26.461  33.132  1.00  0.00     0.074 A 
ATOM     67  C   UNL A   1      44.087  27.105  34.431  1.00  0.00     0.031 C 
ATOM     68  C   UNL A   1      44.529  25.239  32.681  1.00  0.00     0.037 A 
BRANCH  55  69
ATOM     69  C   UNL A   1      43.520  22.811  27.112  1.00  0.00     0.058 A 
ATOM     70  C   UNL A   1      42.820  21.589  27.008  1.00  0.00     0.135 A 
ATOM     71  C   UNL A   1      44.580  22.962  26.196  1.00  0.00     0.135 A 
ATOM     72  F   UNL A   1      41.731  21.338  27.748  1.00  0.00    -0.206 F 
ATOM     73  C   UNL A   1      43.213  20.556  26.156  1.00  0.00     0.059 A 
ATOM     74  C   UNL A   1      45.028  21.924  25.371  1.00  0.00     0.059 A 
ATOM     75  F   UNL A   1      45.202  24.141  26.052  1.00  0.00    -0.206 F 
ATOM     76  C   UNL A   1      44.343  20.715  25.368  1.00  0.00     0.060 A 
BRANCH  76  77
ATOM     77  S   UNL A   1      44.899  19.326  24.362  1.00  0.00     0.124 S 
ATOM     78  O   UNL A   1      46.346  19.365  24.552  1.00  0.00    -0.237 OA
ATOM     79  O   UNL A   1      44.207  18.204  24.986  1.00  0.00    -0.237 OA
ATOM     80  O   UNL A   1      44.443  19.675  23.019  1.00  0.00    -0.744 OA
ENDBRANCH  76  77
ENDBRANCH  55  69
BRANCH  56  81
ATOM     81  C   UNL A   1      41.340  30.370  32.856  1.00  0.00     0.058 A 
ATOM     82  C   UNL A   1      40.221  29.570  33.167  1.00  0.00     0.135 A 
ATOM     83  C   UNL A   1      41.407  31.641  33.444  1.00  0.00     0.135 A 
ATOM     84  F   UNL A   1      40.102  28.347  32.623  1.00  0.00    -0.206 F 
ATOM     85  C   UNL A   1      39.306  29.936  34.147  1.00  0.00     0.059 A 
ATOM     86  C   UNL A   1      40.493  32.032  34.427  1.00  0.00     0.059 A 
ATOM     87  F   UNL A   1      42.443  32.452  33.183  1.00  0.00    -0.206 F 
ATOM     88  C   UNL A   1      39.497  31.138  34.824  1.00  0.00     0.060 A 
BRANCH  88  89
ATOM     89  S   UNL A   1      38.539  31.414  36.336  1.00  0.00     0.124 S 
ATOM     90  O   UNL A   1      37.438  32.238  35.852  1.00  0.00    -0.237 OA
ATOM     91  O   UNL A   1      38.182  30.047  36.723  1.00  0.00    -0.237 OA
ATOM     92  O   UNL A   1      39.490  32.082  37.216  1.00  0.00    -0.744 OA
ENDBRANCH  88  89
ENDBRANCH  56  81
BRANCH  68  93
ATOM     93  C   UNL A   1      44.970  24.057  33.524  1.00  0.00     0.058 A 
ATOM     94  C   UNL A   1      44.163  22.947  33.823  1.00  0.00     0.135 A 
ATOM     95  C   UNL A   1      46.322  23.951  33.948  1.00  0.00     0.135 A 
ATOM     96  F   UNL A   1      42.899  22.866  33.390  1.00  0.00    -0.206 F 
ATOM     97  C   UNL A   1      44.639  21.842  34.536  1.00  0.00     0.059 A 
ATOM     98  C   UNL A   1      46.831  22.833  34.606  1.00  0.00     0.059 A 
ATOM     99  F   UNL A   1      47.211  24.929  33.721  1.00  0.00    -0.206 F 
ATOM    100  C   UNL A   1      45.976  21.791  34.919  1.00  0.00     0.060 A 
BRANCH 100 101
ATOM    101  S   UNL A   1      46.619  20.332  35.759  1.00  0.00     0.124 S 
ATOM    102  O   UNL A   1      48.051  20.461  35.510  1.00  0.00    -0.237 OA
ATOM    103  O   UNL A   1      46.198  20.542  37.141  1.00  0.00    -0.237 OA
ATOM    104  O   UNL A   1      45.953  19.231  35.072  1.00  0.00    -0.744 OA
ENDBRANCH 100 101
ENDBRANCH  68  93
ENDBRANCH  42  43
ENDBRANCH  34  37
ENDBRANCH  32  33
ENDBRANCH   1  32
TORSDOF 17
ENDMDL
MODEL 3
REMARK VINA RESULT:     -14.7      4.819     10.942
REMARK SMILES CC(=O)Nc1cnc(N2CC=C(c3ccccc3C)CC2)c(C(=O)NCCCCNC(=O)c2ccc(-c3c4nc(c(-c5c(F)cc(S(=O)(=O)[O-])cc5F)c5ccc([nH]5)c(-c5c(F)cc(S(=O)(=O)[O-])cc5F)c5nc(c(-c6c(F)cc(S(=O)(=O)[O-])cc6F)c6ccc3[nH]6)C=C5)C=C4)cc2)c1
REMARK SMILES IDX 28 1 27 2 26 3 25 4 23 5 24 6 22 8 5 9 6 10 99 11 7 12 8 13
REMARK SMILES IDX 4 14 1 15 2 16 3 17 9 19 10 20 21 21 11 22 20 23 12 24 13 25
REMARK SMILES IDX 14 26 18 27 15 28 17 29 19 30 16 31 29 32 30 33 31 34 32 36
REMARK SMILES IDX 33 37 34 38 98 39 35 40 97 41 36 42 37 43 38 44 91 45 39 46
REMARK SMILES IDX 96 47 90 48 92 49 40 50 95 51 89 52 88 53 41 55 75 56 54 57
REMARK SMILES IDX 74 58 55 59 58 60 73 61 93 62 56 63 57 64 72 66 94 67 59 68
REMARK SMILES IDX 42 69 43 70 52 71 44 72 45 73 51 74 53 75 46 76 47 77 48 78
REMARK SMILES IDX 49 79 50 80 76 81 77 82 86 83 78 84 79 85 85 86 87 87 80 88
REMARK SMILES IDX 81 89 82 90 83 91 84 92 60 93 61 94 70 95 62 96 63 97 69 98
REMARK SMILES IDX 71 99 64 100 65 101 66 102 67 103 68 104
REMARK H PARENT 25 7 4 18 30 35 92 54 58 65
REMARK Flexibility Score: inf
ROOT
ATOM      1  C   UNL A   1      37.604  22.243  25.017  1.00  0.00     0.023 C 
ENDROOT
BRANCH   1   2
ATOM      2  C   UNL A   1      36.673  22.751  23.905  1.00  0.00     0.023 C 
BRANCH   2   3
ATOM      3  C   UNL A   1      35.495  23.603  24.397  1.00  0.00     0.116 C 
BRANCH   3   4
ATOM      4  N   UNL A   1      34.832  24.338  23.326  1.00  0.00    -0.352 N 
ATOM      5  C   UNL A   1      33.809  25.244  23.179  1.00  0.00     0.255 C 
ATOM      6  O   UNL A   1      33.696  25.644  22.018  1.00  0.00    -0.269 OA
ATOM      7  H   UNL A   1      35.235  24.122  22.454  1.00  0.00     0.163 HD
BRANCH   5   8
ATOM      8  C   UNL A   1      32.907  25.769  24.265  1.00  0.00     0.084 A 
ATOM      9  C   UNL A   1      32.009  27.659  25.533  1.00  0.00     0.060 A 
ATOM     10  C   UNL A   1      31.104  26.788  26.097  1.00  0.00     0.139 A 
ATOM     11  C   UNL A   1      32.949  27.117  24.660  1.00  0.00     0.045 A 
ATOM     12  N   UNL A   1      31.033  25.483  25.780  1.00  0.00    -0.236 NA
ATOM     13  C   UNL A   1      31.905  24.964  24.866  1.00  0.00     0.141 A 
BRANCH   9  14
ATOM     14  N   UNL A   1      31.950  29.017  25.878  1.00  0.00    -0.325 N 
ATOM     15  C   UNL A   1      34.012  29.181  27.272  1.00  0.00     0.114 C 
ATOM     16  C   UNL A   1      32.732  29.753  26.723  1.00  0.00     0.221 C 
ATOM     17  O   UNL A   1      32.404  30.920  26.953  1.00  0.00    -0.275 OA
ATOM     18  H   UNL A   1      31.228  29.522  25.439  1.00  0.00     0.169 HD
ENDBRANCH   9  14
BRANCH  13  19
ATOM     19  N   UNL A   1      31.681  23.630  24.639  1.00  0.00    -0.352 N 
ATOM     20  C   UNL A   1      31.654  22.739  25.787  1.00  0.00     0.146 C 
ATOM     21  C   UNL A   1      31.394  23.083  23.323  1.00  0.00     0.123 C 
ATOM     22  C   UNL A   1      32.162  21.369  25.420  1.00  0.00    -0.002 C 
ATOM     23  C   UNL A   1      32.385  21.948  23.016  1.00  0.00     0.057 C 
ATOM     24  C   UNL A   1      32.514  20.990  24.176  1.00  0.00    -0.041 C 
BRANCH  24  25
ATOM     25  C   UNL A   1      33.011  19.622  23.925  1.00  0.00    -0.020 A 
ATOM     26  C   UNL A   1      32.238  18.780  23.104  1.00  0.00     0.008 A 
ATOM     27  C   UNL A   1      34.208  19.123  24.479  1.00  0.00    -0.044 A 
ATOM     28  C   UNL A   1      32.641  17.472  22.828  1.00  0.00     0.001 A 
ATOM     29  C   UNL A   1      34.610  17.808  24.175  1.00  0.00     0.004 A 
ATOM     30  C   UNL A   1      35.090  19.949  25.373  1.00  0.00     0.045 C 
ATOM     31  C   UNL A   1      33.829  16.987  23.361  1.00  0.00     0.000 A 
ENDBRANCH  24  25
ENDBRANCH  13  19
ENDBRANCH   5   8
ENDBRANCH   3   4
ENDBRANCH   2   3
ENDBRANCH   1   2
BRANCH   1  32
ATOM     32  C   UNL A   1      38.055  23.325  26.001  1.00  0.00     0.116 C 
BRANCH  32  33
ATOM     33  N   UNL A   1      39.126  22.951  26.879  1.00  0.00    -0.352 N 
ATOM     34  C   UNL A   1      40.191  23.821  27.249  1.00  0.00     0.251 C 
ATOM     35  H   UNL A   1      39.124  22.038  27.248  1.00  0.00     0.163 HD
ATOM     36  O   UNL A   1      41.317  23.455  27.422  1.00  0.00    -0.269 OA
BRANCH  34  37
ATOM     37  C   UNL A   1      39.765  25.204  27.560  1.00  0.00     0.039 A 
ATOM     38  C   UNL A   1      40.253  26.228  26.740  1.00  0.00     0.014 A 
ATOM     39  C   UNL A   1      39.139  25.487  28.766  1.00  0.00     0.014 A 
ATOM     40  C   UNL A   1      40.268  27.541  27.216  1.00  0.00     0.010 A 
ATOM     41  C   UNL A   1      39.229  26.771  29.274  1.00  0.00     0.010 A 
ATOM     42  C   UNL A   1      39.829  27.787  28.518  1.00  0.00    -0.014 A 
BRANCH  42  43
ATOM     43  C   UNL A   1      40.028  29.053  29.212  1.00  0.00     0.031 A 
ATOM     44  C   UNL A   1      38.981  30.100  29.170  1.00  0.00     0.074 A 
ATOM     45  C   UNL A   1      41.117  29.224  29.994  1.00  0.00     0.049 A 
ATOM     46  N   UNL A   1      39.190  31.348  29.425  1.00  0.00    -0.248 NA
ATOM     47  C   UNL A   1      37.597  29.814  28.805  1.00  0.00     0.031 C 
ATOM     48  C   UNL A   1      41.322  30.248  31.013  1.00  0.00     0.029 A 
ATOM     49  N   UNL A   1      42.358  28.591  29.884  1.00  0.00    -0.354 N 
ATOM     50  C   UNL A   1      37.964  31.965  29.531  1.00  0.00     0.074 A 
ATOM     51  C   UNL A   1      37.006  30.980  29.085  1.00  0.00     0.031 C 
ATOM     52  C   UNL A   1      42.637  30.362  31.260  1.00  0.00     0.029 A 
ATOM     53  C   UNL A   1      43.330  29.523  30.297  1.00  0.00     0.049 A 
ATOM     54  H   UNL A   1      42.522  27.670  29.576  1.00  0.00     0.167 HD
ATOM     55  C   UNL A   1      37.875  33.197  30.112  1.00  0.00     0.037 A 
ATOM     56  C   UNL A   1      44.291  29.968  29.434  1.00  0.00     0.037 A 
ATOM     57  C   UNL A   1      39.194  33.698  30.489  1.00  0.00     0.049 A 
ATOM     58  C   UNL A   1      44.234  31.457  29.171  1.00  0.00     0.074 A 
ATOM     59  C   UNL A   1      39.894  33.672  31.684  1.00  0.00     0.029 A 
ATOM     60  N   UNL A   1      40.113  34.035  29.502  1.00  0.00    -0.354 N 
ATOM     61  N   UNL A   1      43.198  32.207  29.435  1.00  0.00    -0.248 NA
ATOM     62  C   UNL A   1      45.337  32.223  28.598  1.00  0.00     0.031 C 
ATOM     63  C   UNL A   1      41.257  33.936  31.403  1.00  0.00     0.029 A 
ATOM     64  C   UNL A   1      41.381  34.143  30.040  1.00  0.00     0.049 A 
ATOM     65  H   UNL A   1      39.892  34.175  28.552  1.00  0.00     0.167 HD
ATOM     66  C   UNL A   1      43.457  33.505  29.069  1.00  0.00     0.074 A 
ATOM     67  C   UNL A   1      44.820  33.466  28.574  1.00  0.00     0.031 C 
ATOM     68  C   UNL A   1      42.523  34.495  29.207  1.00  0.00     0.037 A 
BRANCH  55  69
ATOM     69  C   UNL A   1      36.567  33.780  30.605  1.00  0.00     0.058 A 
ATOM     70  C   UNL A   1      35.575  34.212  29.698  1.00  0.00     0.135 A 
ATOM     71  C   UNL A   1      36.259  33.996  31.963  1.00  0.00     0.135 A 
ATOM     72  F   UNL A   1      35.683  33.992  28.381  1.00  0.00    -0.206 F 
ATOM     73  C   UNL A   1      34.432  34.908  30.096  1.00  0.00     0.059 A 
ATOM     74  C   UNL A   1      35.149  34.737  32.384  1.00  0.00     0.059 A 
ATOM     75  F   UNL A   1      37.017  33.465  32.934  1.00  0.00    -0.206 F 
ATOM     76  C   UNL A   1      34.245  35.202  31.438  1.00  0.00     0.060 A 
BRANCH  76  77
ATOM     77  S   UNL A   1      32.822  36.202  31.913  1.00  0.00     0.124 S 
ATOM     78  O   UNL A   1      32.455  36.839  30.652  1.00  0.00    -0.237 OA
ATOM     79  O   UNL A   1      31.893  35.193  32.408  1.00  0.00    -0.237 OA
ATOM     80  O   UNL A   1      33.364  37.105  32.925  1.00  0.00    -0.744 OA
ENDBRANCH  76  77
ENDBRANCH  55  69
BRANCH  56  81
ATOM     81  C   UNL A   1      44.735  28.918  28.475  1.00  0.00     0.058 A 
ATOM     82  C   UNL A   1      44.159  28.931  27.188  1.00  0.00     0.135 A 
ATOM     83  C   UNL A   1      45.964  28.260  28.625  1.00  0.00     0.135 A 
ATOM     84  F   UNL A   1      42.977  29.540  26.991  1.00  0.00    -0.206 F 
ATOM     85  C   UNL A   1      44.846  28.471  26.070  1.00  0.00     0.059 A 
ATOM     86  C   UNL A   1      46.669  27.783  27.515  1.00  0.00     0.059 A 
ATOM     87  F   UNL A   1      46.561  28.208  29.824  1.00  0.00    -0.206 F 
ATOM     88  C   UNL A   1      46.133  27.968  26.239  1.00  0.00     0.060 A 
BRANCH  88  89
ATOM     89  S   UNL A   1      47.147  27.736  24.755  1.00  0.00     0.124 S 
ATOM     90  O   UNL A   1      46.597  28.739  23.852  1.00  0.00    -0.237 OA
ATOM     91  O   UNL A   1      48.493  28.014  25.262  1.00  0.00    -0.237 OA
ATOM     92  O   UNL A   1      46.893  26.348  24.391  1.00  0.00    -0.744 OA
ENDBRANCH  88  89
ENDBRANCH  56  81
BRANCH  68  93
ATOM     93  C   UNL A   1      42.609  35.913  28.673  1.00  0.00     0.058 A 
ATOM     94  C   UNL A   1      42.164  36.312  27.402  1.00  0.00     0.135 A 
ATOM     95  C   UNL A   1      43.029  36.969  29.523  1.00  0.00     0.135 A 
ATOM     96  F   UNL A   1      41.640  35.434  26.537  1.00  0.00    -0.206 F 
ATOM     97  C   UNL A   1      42.188  37.646  26.982  1.00  0.00     0.059 A 
ATOM     98  C   UNL A   1      43.003  38.311  29.147  1.00  0.00     0.059 A 
ATOM     99  F   UNL A   1      43.468  36.739  30.769  1.00  0.00    -0.206 F 
ATOM    100  C   UNL A   1      42.604  38.640  27.863  1.00  0.00     0.060 A 
BRANCH 100 101
ATOM    101  S   UNL A   1      42.553  40.370  27.361  1.00  0.00     0.124 S 
ATOM    102  O   UNL A   1      43.294  40.330  26.104  1.00  0.00    -0.237 OA
ATOM    103  O   UNL A   1      41.121  40.630  27.240  1.00  0.00    -0.237 OA
ATOM    104  O   UNL A   1      43.214  41.057  28.465  1.00  0.00    -0.744 OA
ENDBRANCH 100 101
ENDBRANCH  68  93
ENDBRANCH  42  43
ENDBRANCH  34  37
ENDBRANCH  32  33
ENDBRANCH   1  32
TORSDOF 17
ENDMDL
