MODEL 1
REMARK VINA RESULT:     -12.3      0.000      0.000
REMARK SMILES CC1(C)S[C@H](c2ccc(-c3ccccc3)o2)[NH2+][C@H]1C(=O)NCCCCNC(=O)c1ccc(-c2c3nc(c(-c4c(F)cc(S(=O)(=O)[O-])cc4F)c4ccc([nH]4)c(-c4c(F)cc(S(=O)(=O)[O-])cc4F)c4nc(c(-c5c(F)cc(S(=O)(=O)[O-])cc5F)c5ccc2[nH]5)C=C4)C=C3)cc1
REMARK SMILES IDX 24 1 23 2 22 3 21 4 19 5 20 6 18 8 1 9 2 10 3 11 4 12 5 13
REMARK SMILES IDX 17 14 6 17 7 18 16 19 8 20 9 21 10 22 11 23 15 24 12 25
REMARK SMILES IDX 14 26 13 27 25 28 26 29 27 30 28 32 29 33 30 34 94 35 31 36
REMARK SMILES IDX 93 37 32 38 33 39 34 40 87 41 35 42 92 43 86 44 88 45 36 46
REMARK SMILES IDX 91 47 85 48 84 49 37 51 71 52 50 53 70 54 51 55 54 56 69 57
REMARK SMILES IDX 89 58 52 59 53 60 68 62 90 63 55 64 38 65 39 66 48 67 40 68
REMARK SMILES IDX 41 69 47 70 49 71 42 72 43 73 44 74 45 75 46 76 72 77 73 78
REMARK SMILES IDX 82 79 74 80 75 81 81 82 83 83 76 84 77 85 78 86 79 87 80 88
REMARK SMILES IDX 56 89 57 90 66 91 58 92 59 93 65 94 67 95 60 96 61 97 62 98
REMARK SMILES IDX 63 99 64 100
REMARK H PARENT 21 7 17 15 17 16 26 31 88 50 54 61
REMARK Flexibility Score: inf
ROOT
ATOM      1  C   UNL A   1      39.336  22.850  26.765  1.00  0.00     0.023 C 
ENDROOT
BRANCH   1   2
ATOM      2  C   UNL A   1      38.263  23.834  26.319  1.00  0.00     0.023 C 
BRANCH   2   3
ATOM      3  C   UNL A   1      37.154  23.243  25.447  1.00  0.00     0.116 C 
BRANCH   3   4
ATOM      4  N   UNL A   1      36.251  22.396  26.206  1.00  0.00    -0.351 N 
ATOM      5  C   UNL A   1      34.899  22.380  26.383  1.00  0.00     0.279 C 
ATOM      6  O   UNL A   1      34.473  21.563  27.209  1.00  0.00    -0.268 OA
ATOM      7  H   UNL A   1      36.714  21.681  26.698  1.00  0.00     0.163 HD
BRANCH   5   8
ATOM      8  C   UNL A   1      33.909  23.331  25.671  1.00  0.00     0.289 C 
ATOM      9  C   UNL A   1      32.925  21.333  24.259  1.00  0.00     0.030 C 
ATOM     10  C   UNL A   1      33.342  22.797  24.336  1.00  0.00     0.078 C 
ATOM     11  C   UNL A   1      34.304  23.088  23.180  1.00  0.00     0.030 C 
ATOM     12  S   UNL A   1      31.814  23.758  24.105  1.00  0.00    -0.078 SA
ATOM     13  C   UNL A   1      31.786  24.423  25.792  1.00  0.00     0.311 C 
ATOM     14  N   UNL A   1      32.873  23.857  26.584  1.00  0.00    -0.317 N 
ATOM     15  H   UNL A   1      32.513  23.101  27.167  1.00  0.00     0.348 HD
ATOM     16  H   UNL A   1      33.275  24.579  27.183  1.00  0.00     0.348 HD
BRANCH  13  17
ATOM     17  C   UNL A   1      31.746  25.916  25.722  1.00  0.00     0.172 A 
ATOM     18  C   UNL A   1      30.889  26.759  25.038  1.00  0.00     0.054 A 
ATOM     19  O   UNL A   1      32.700  26.656  26.371  1.00  0.00    -0.454 OA
ATOM     20  C   UNL A   1      31.325  28.074  25.292  1.00  0.00     0.051 A 
ATOM     21  C   UNL A   1      32.424  27.971  26.119  1.00  0.00     0.134 A 
BRANCH  21  22
ATOM     22  C   UNL A   1      33.283  28.967  26.740  1.00  0.00     0.017 A 
ATOM     23  C   UNL A   1      34.643  28.723  26.959  1.00  0.00     0.012 A 
ATOM     24  C   UNL A   1      32.758  30.223  27.079  1.00  0.00     0.012 A 
ATOM     25  C   UNL A   1      35.465  29.723  27.487  1.00  0.00     0.001 A 
ATOM     26  C   UNL A   1      33.574  31.218  27.619  1.00  0.00     0.001 A 
ATOM     27  C   UNL A   1      34.930  30.970  27.814  1.00  0.00     0.000 A 
ENDBRANCH  21  22
ENDBRANCH  13  17
ENDBRANCH   5   8
ENDBRANCH   3   4
ENDBRANCH   2   3
ENDBRANCH   1   2
BRANCH   1  28
ATOM     28  C   UNL A   1      40.653  23.495  27.165  1.00  0.00     0.116 C 
BRANCH  28  29
ATOM     29  N   UNL A   1      41.296  24.205  26.068  1.00  0.00    -0.352 N 
ATOM     30  C   UNL A   1      41.673  25.526  26.000  1.00  0.00     0.251 C 
ATOM     31  H   UNL A   1      41.487  23.666  25.266  1.00  0.00     0.163 HD
ATOM     32  O   UNL A   1      42.074  26.001  24.947  1.00  0.00    -0.269 OA
BRANCH  30  33
ATOM     33  C   UNL A   1      41.553  26.362  27.211  1.00  0.00     0.039 A 
ATOM     34  C   UNL A   1      42.447  27.416  27.406  1.00  0.00     0.014 A 
ATOM     35  C   UNL A   1      40.518  26.130  28.120  1.00  0.00     0.014 A 
ATOM     36  C   UNL A   1      42.260  28.281  28.485  1.00  0.00     0.010 A 
ATOM     37  C   UNL A   1      40.273  27.050  29.128  1.00  0.00     0.010 A 
ATOM     38  C   UNL A   1      41.152  28.123  29.334  1.00  0.00    -0.014 A 
BRANCH  38  39
ATOM     39  C   UNL A   1      40.911  29.032  30.480  1.00  0.00     0.031 A 
ATOM     40  C   UNL A   1      41.744  28.881  31.725  1.00  0.00     0.074 A 
ATOM     41  C   UNL A   1      39.905  29.927  30.433  1.00  0.00     0.049 A 
ATOM     42  N   UNL A   1      41.629  29.489  32.876  1.00  0.00    -0.248 NA
ATOM     43  C   UNL A   1      42.824  27.880  31.682  1.00  0.00     0.031 C 
ATOM     44  C   UNL A   1      38.990  30.120  29.305  1.00  0.00     0.029 A 
ATOM     45  N   UNL A   1      39.474  30.835  31.365  1.00  0.00    -0.354 N 
ATOM     46  C   UNL A   1      42.596  28.922  33.699  1.00  0.00     0.074 A 
ATOM     47  C   UNL A   1      43.246  27.880  32.936  1.00  0.00     0.031 C 
ATOM     48  C   UNL A   1      38.126  31.104  29.602  1.00  0.00     0.029 A 
ATOM     49  C   UNL A   1      38.403  31.589  30.950  1.00  0.00     0.049 A 
ATOM     50  H   UNL A   1      39.893  30.937  32.250  1.00  0.00     0.167 HD
ATOM     51  C   UNL A   1      42.935  29.261  34.965  1.00  0.00     0.037 A 
ATOM     52  C   UNL A   1      37.724  32.563  31.588  1.00  0.00     0.037 A 
ATOM     53  C   UNL A   1      42.320  30.336  35.694  1.00  0.00     0.049 A 
ATOM     54  C   UNL A   1      38.154  32.960  32.975  1.00  0.00     0.074 A 
ATOM     55  C   UNL A   1      42.627  30.807  36.958  1.00  0.00     0.029 A 
ATOM     56  N   UNL A   1      41.279  31.120  35.214  1.00  0.00    -0.354 N 
ATOM     57  N   UNL A   1      39.105  32.448  33.721  1.00  0.00    -0.248 NA
ATOM     58  C   UNL A   1      37.430  34.074  33.601  1.00  0.00     0.031 C 
ATOM     59  C   UNL A   1      41.754  31.861  37.253  1.00  0.00     0.029 A 
ATOM     60  C   UNL A   1      40.931  32.070  36.156  1.00  0.00     0.049 A 
ATOM     61  H   UNL A   1      40.853  31.014  34.333  1.00  0.00     0.167 HD
ATOM     62  C   UNL A   1      39.115  33.198  34.891  1.00  0.00     0.074 A 
ATOM     63  C   UNL A   1      38.080  34.203  34.750  1.00  0.00     0.031 C 
ATOM     64  C   UNL A   1      39.908  33.072  35.983  1.00  0.00     0.037 A 
BRANCH  51  65
ATOM     65  C   UNL A   1      44.032  28.470  35.623  1.00  0.00     0.058 A 
ATOM     66  C   UNL A   1      45.384  28.812  35.463  1.00  0.00     0.135 A 
ATOM     67  C   UNL A   1      43.729  27.360  36.427  1.00  0.00     0.135 A 
ATOM     68  F   UNL A   1      45.732  29.852  34.687  1.00  0.00    -0.206 F 
ATOM     69  C   UNL A   1      46.399  28.060  36.044  1.00  0.00     0.059 A 
ATOM     70  C   UNL A   1      44.728  26.610  37.043  1.00  0.00     0.059 A 
ATOM     71  F   UNL A   1      42.453  26.986  36.613  1.00  0.00    -0.206 F 
ATOM     72  C   UNL A   1      46.061  26.958  36.829  1.00  0.00     0.060 A 
BRANCH  72  73
ATOM     73  S   UNL A   1      47.389  25.988  37.573  1.00  0.00     0.124 S 
ATOM     74  O   UNL A   1      47.421  24.820  36.698  1.00  0.00    -0.237 OA
ATOM     75  O   UNL A   1      48.533  26.889  37.467  1.00  0.00    -0.237 OA
ATOM     76  O   UNL A   1      46.911  25.743  38.930  1.00  0.00    -0.744 OA
ENDBRANCH  72  73
ENDBRANCH  51  65
BRANCH  52  77
ATOM     77  C   UNL A   1      36.604  33.261  30.904  1.00  0.00     0.058 A 
ATOM     78  C   UNL A   1      35.274  33.037  31.293  1.00  0.00     0.135 A 
ATOM     79  C   UNL A   1      36.834  34.172  29.862  1.00  0.00     0.135 A 
ATOM     80  F   UNL A   1      35.003  32.172  32.282  1.00  0.00    -0.206 F 
ATOM     81  C   UNL A   1      34.212  33.674  30.663  1.00  0.00     0.059 A 
ATOM     82  C   UNL A   1      35.790  34.841  29.231  1.00  0.00     0.059 A 
ATOM     83  F   UNL A   1      38.089  34.437  29.466  1.00  0.00    -0.206 F 
ATOM     84  C   UNL A   1      34.480  34.576  29.631  1.00  0.00     0.060 A 
BRANCH  84  85
ATOM     85  S   UNL A   1      33.096  35.435  28.850  1.00  0.00     0.124 S 
ATOM     86  O   UNL A   1      32.350  35.907  30.011  1.00  0.00    -0.237 OA
ATOM     87  O   UNL A   1      33.775  36.463  28.066  1.00  0.00    -0.237 OA
ATOM     88  O   UNL A   1      32.450  34.386  28.066  1.00  0.00    -0.744 OA
ENDBRANCH  84  85
ENDBRANCH  52  77
BRANCH  64  89
ATOM     89  C   UNL A   1      39.723  34.072  37.089  1.00  0.00     0.058 A 
ATOM     90  C   UNL A   1      38.900  33.807  38.193  1.00  0.00     0.135 A 
ATOM     91  C   UNL A   1      40.418  35.291  37.061  1.00  0.00     0.135 A 
ATOM     92  F   UNL A   1      38.212  32.657  38.263  1.00  0.00    -0.206 F 
ATOM     93  C   UNL A   1      38.750  34.731  39.222  1.00  0.00     0.059 A 
ATOM     94  C   UNL A   1      40.303  36.219  38.090  1.00  0.00     0.059 A 
ATOM     95  F   UNL A   1      41.228  35.585  36.032  1.00  0.00    -0.206 F 
ATOM     96  C   UNL A   1      39.455  35.935  39.160  1.00  0.00     0.060 A 
BRANCH  96  97
ATOM     97  S   UNL A   1      39.273  37.116  40.513  1.00  0.00     0.124 S 
ATOM     98  O   UNL A   1      40.632  37.639  40.628  1.00  0.00    -0.237 OA
ATOM     99  O   UNL A   1      38.278  38.045  39.988  1.00  0.00    -0.237 OA
ATOM    100  O   UNL A   1      38.822  36.288  41.628  1.00  0.00    -0.744 OA
ENDBRANCH  96  97
ENDBRANCH  64  89
ENDBRANCH  38  39
ENDBRANCH  30  33
ENDBRANCH  28  29
ENDBRANCH   1  28
TORSDOF 16
ENDMDL
MODEL 2
REMARK VINA RESULT:     -12.2      6.288     12.041
REMARK SMILES CC1(C)S[C@H](c2ccc(-c3ccccc3)o2)[NH2+][C@H]1C(=O)NCCCCNC(=O)c1ccc(-c2c3nc(c(-c4c(F)cc(S(=O)(=O)[O-])cc4F)c4ccc([nH]4)c(-c4c(F)cc(S(=O)(=O)[O-])cc4F)c4nc(c(-c5c(F)cc(S(=O)(=O)[O-])cc5F)c5ccc2[nH]5)C=C4)C=C3)cc1
REMARK SMILES IDX 24 1 23 2 22 3 21 4 19 5 20 6 18 8 1 9 2 10 3 11 4 12 5 13
REMARK SMILES IDX 17 14 6 17 7 18 16 19 8 20 9 21 10 22 11 23 15 24 12 25
REMARK SMILES IDX 14 26 13 27 25 28 26 29 27 30 28 32 29 33 30 34 94 35 31 36
REMARK SMILES IDX 93 37 32 38 33 39 34 40 87 41 35 42 92 43 86 44 88 45 36 46
REMARK SMILES IDX 91 47 85 48 84 49 37 51 71 52 50 53 70 54 51 55 54 56 69 57
REMARK SMILES IDX 89 58 52 59 53 60 68 62 90 63 55 64 38 65 39 66 48 67 40 68
REMARK SMILES IDX 41 69 47 70 49 71 42 72 43 73 44 74 45 75 46 76 72 77 73 78
REMARK SMILES IDX 82 79 74 80 75 81 81 82 83 83 76 84 77 85 78 86 79 87 80 88
REMARK SMILES IDX 56 89 57 90 66 91 58 92 59 93 65 94 67 95 60 96 61 97 62 98
REMARK SMILES IDX 63 99 64 100
REMARK H PARENT 21 7 17 15 17 16 26 31 88 50 54 61
REMARK Flexibility Score: inf
ROOT
ATOM      1  C   UNL A   1      34.437  30.927  27.585  1.00  0.00     0.023 C 
ENDROOT
BRANCH   1   2
ATOM      2  C   UNL A   1      34.336  29.581  26.880  1.00  0.00     0.023 C 
BRANCH   2   3
ATOM      3  C   UNL A   1      33.045  29.349  26.093  1.00  0.00     0.116 C 
BRANCH   3   4
ATOM      4  N   UNL A   1      33.235  29.520  24.663  1.00  0.00    -0.351 N 
ATOM      5  C   UNL A   1      33.235  28.663  23.603  1.00  0.00     0.279 C 
ATOM      6  O   UNL A   1      33.550  29.156  22.512  1.00  0.00    -0.268 OA
ATOM      7  H   UNL A   1      33.398  30.455  24.404  1.00  0.00     0.163 HD
BRANCH   5   8
ATOM      8  C   UNL A   1      32.924  27.152  23.696  1.00  0.00     0.289 C 
ATOM      9  C   UNL A   1      30.500  27.537  22.733  1.00  0.00     0.030 C 
ATOM     10  C   UNL A   1      31.420  26.796  23.695  1.00  0.00     0.078 C 
ATOM     11  C   UNL A   1      30.834  26.905  25.107  1.00  0.00     0.030 C 
ATOM     12  S   UNL A   1      31.391  25.056  23.164  1.00  0.00    -0.078 SA
ATOM     13  C   UNL A   1      33.121  25.025  22.621  1.00  0.00     0.311 C 
ATOM     14  N   UNL A   1      33.720  26.350  22.742  1.00  0.00    -0.317 N 
ATOM     15  H   UNL A   1      33.725  26.807  21.831  1.00  0.00     0.348 HD
ATOM     16  H   UNL A   1      34.679  26.265  23.079  1.00  0.00     0.348 HD
BRANCH  13  17
ATOM     17  C   UNL A   1      33.834  23.925  23.341  1.00  0.00     0.172 A 
ATOM     18  C   UNL A   1      33.448  22.621  23.592  1.00  0.00     0.054 A 
ATOM     19  O   UNL A   1      35.054  24.164  23.918  1.00  0.00    -0.454 OA
ATOM     20  C   UNL A   1      34.483  22.029  24.342  1.00  0.00     0.051 A 
ATOM     21  C   UNL A   1      35.451  22.997  24.509  1.00  0.00     0.134 A 
BRANCH  21  22
ATOM     22  C   UNL A   1      36.750  22.985  25.161  1.00  0.00     0.017 A 
ATOM     23  C   UNL A   1      37.207  24.083  25.898  1.00  0.00     0.012 A 
ATOM     24  C   UNL A   1      37.546  21.831  25.104  1.00  0.00     0.012 A 
ATOM     25  C   UNL A   1      38.426  24.020  26.581  1.00  0.00     0.001 A 
ATOM     26  C   UNL A   1      38.769  21.771  25.774  1.00  0.00     0.001 A 
ATOM     27  C   UNL A   1      39.204  22.863  26.519  1.00  0.00     0.000 A 
ENDBRANCH  21  22
ENDBRANCH  13  17
ENDBRANCH   5   8
ENDBRANCH   3   4
ENDBRANCH   2   3
ENDBRANCH   1   2
BRANCH   1  28
ATOM     28  C   UNL A   1      35.709  31.120  28.392  1.00  0.00     0.116 C 
BRANCH  28  29
ATOM     29  N   UNL A   1      35.519  30.891  29.818  1.00  0.00    -0.352 N 
ATOM     30  C   UNL A   1      36.404  30.366  30.732  1.00  0.00     0.251 C 
ATOM     31  H   UNL A   1      34.639  31.147  30.177  1.00  0.00     0.163 HD
ATOM     32  O   UNL A   1      36.037  30.107  31.869  1.00  0.00    -0.269 OA
BRANCH  30  33
ATOM     33  C   UNL A   1      37.791  30.096  30.302  1.00  0.00     0.039 A 
ATOM     34  C   UNL A   1      38.747  29.750  31.259  1.00  0.00     0.014 A 
ATOM     35  C   UNL A   1      38.121  30.130  28.946  1.00  0.00     0.014 A 
ATOM     36  C   UNL A   1      40.025  29.376  30.842  1.00  0.00     0.010 A 
ATOM     37  C   UNL A   1      39.356  29.657  28.529  1.00  0.00     0.010 A 
ATOM     38  C   UNL A   1      40.328  29.294  29.473  1.00  0.00    -0.014 A 
BRANCH  38  39
ATOM     39  C   UNL A   1      41.669  28.883  28.992  1.00  0.00     0.031 A 
ATOM     40  C   UNL A   1      42.761  29.915  28.893  1.00  0.00     0.074 A 
ATOM     41  C   UNL A   1      41.880  27.619  28.576  1.00  0.00     0.049 A 
ATOM     42  N   UNL A   1      43.965  29.800  28.397  1.00  0.00    -0.248 NA
ATOM     43  C   UNL A   1      42.439  31.269  29.376  1.00  0.00     0.031 C 
ATOM     44  C   UNL A   1      40.879  26.550  28.565  1.00  0.00     0.029 A 
ATOM     45  N   UNL A   1      43.005  27.023  28.068  1.00  0.00    -0.354 N 
ATOM     46  C   UNL A   1      44.528  31.068  28.479  1.00  0.00     0.074 A 
ATOM     47  C   UNL A   1      43.515  31.950  29.013  1.00  0.00     0.031 C 
ATOM     48  C   UNL A   1      41.444  25.422  28.101  1.00  0.00     0.029 A 
ATOM     49  C   UNL A   1      42.834  25.697  27.752  1.00  0.00     0.049 A 
ATOM     50  H   UNL A   1      43.857  27.501  27.941  1.00  0.00     0.167 HD
ATOM     51  C   UNL A   1      45.787  31.458  28.169  1.00  0.00     0.037 A 
ATOM     52  C   UNL A   1      43.705  24.804  27.240  1.00  0.00     0.037 A 
ATOM     53  C   UNL A   1      46.804  30.561  27.692  1.00  0.00     0.049 A 
ATOM     54  C   UNL A   1      45.115  25.247  26.953  1.00  0.00     0.074 A 
ATOM     55  C   UNL A   1      48.130  30.834  27.405  1.00  0.00     0.029 A 
ATOM     56  N   UNL A   1      46.609  29.209  27.445  1.00  0.00    -0.354 N 
ATOM     57  N   UNL A   1      45.647  26.440  27.086  1.00  0.00    -0.248 NA
ATOM     58  C   UNL A   1      46.045  24.222  26.463  1.00  0.00     0.031 C 
ATOM     59  C   UNL A   1      48.731  29.650  26.961  1.00  0.00     0.029 A 
ATOM     60  C   UNL A   1      47.789  28.634  27.009  1.00  0.00     0.049 A 
ATOM     61  H   UNL A   1      45.757  28.730  27.563  1.00  0.00     0.167 HD
ATOM     62  C   UNL A   1      46.983  26.301  26.725  1.00  0.00     0.074 A 
ATOM     63  C   UNL A   1      47.178  24.908  26.378  1.00  0.00     0.031 C 
ATOM     64  C   UNL A   1      47.961  27.239  26.687  1.00  0.00     0.037 A 
BRANCH  51  65
ATOM     65  C   UNL A   1      46.129  32.910  28.359  1.00  0.00     0.058 A 
ATOM     66  C   UNL A   1      46.617  33.398  29.582  1.00  0.00     0.135 A 
ATOM     67  C   UNL A   1      45.973  33.824  27.305  1.00  0.00     0.135 A 
ATOM     68  F   UNL A   1      46.765  32.570  30.630  1.00  0.00    -0.206 F 
ATOM     69  C   UNL A   1      46.900  34.746  29.767  1.00  0.00     0.059 A 
ATOM     70  C   UNL A   1      46.279  35.174  27.459  1.00  0.00     0.059 A 
ATOM     71  F   UNL A   1      45.508  33.414  26.115  1.00  0.00    -0.206 F 
ATOM     72  C   UNL A   1      46.725  35.628  28.701  1.00  0.00     0.060 A 
BRANCH  72  73
ATOM     73  S   UNL A   1      47.092  37.377  28.957  1.00  0.00     0.124 S 
ATOM     74  O   UNL A   1      46.404  37.636  30.218  1.00  0.00    -0.237 OA
ATOM     75  O   UNL A   1      48.551  37.384  29.019  1.00  0.00    -0.237 OA
ATOM     76  O   UNL A   1      46.514  38.020  27.781  1.00  0.00    -0.744 OA
ENDBRANCH  72  73
ENDBRANCH  51  65
BRANCH  52  77
ATOM     77  C   UNL A   1      43.282  23.398  27.012  1.00  0.00     0.058 A 
ATOM     78  C   UNL A   1      43.027  22.925  25.716  1.00  0.00     0.135 A 
ATOM     79  C   UNL A   1      43.137  22.495  28.077  1.00  0.00     0.135 A 
ATOM     80  F   UNL A   1      43.150  23.752  24.666  1.00  0.00    -0.206 F 
ATOM     81  C   UNL A   1      42.626  21.615  25.482  1.00  0.00     0.059 A 
ATOM     82  C   UNL A   1      42.759  21.172  27.867  1.00  0.00     0.059 A 
ATOM     83  F   UNL A   1      43.388  22.891  29.334  1.00  0.00    -0.206 F 
ATOM     84  C   UNL A   1      42.494  20.744  26.565  1.00  0.00     0.060 A 
BRANCH  84  85
ATOM     85  S   UNL A   1      42.017  19.032  26.248  1.00  0.00     0.124 S 
ATOM     86  O   UNL A   1      42.210  18.425  27.560  1.00  0.00    -0.237 OA
ATOM     87  O   UNL A   1      40.633  19.174  25.807  1.00  0.00    -0.237 OA
ATOM     88  O   UNL A   1      42.955  18.610  25.211  1.00  0.00    -0.744 OA
ENDBRANCH  84  85
ENDBRANCH  52  77
BRANCH  64  89
ATOM     89  C   UNL A   1      49.339  26.780  26.304  1.00  0.00     0.058 A 
ATOM     90  C   UNL A   1      50.215  26.213  27.241  1.00  0.00     0.135 A 
ATOM     91  C   UNL A   1      49.767  26.868  24.970  1.00  0.00     0.135 A 
ATOM     92  F   UNL A   1      49.853  26.111  28.529  1.00  0.00    -0.206 F 
ATOM     93  C   UNL A   1      51.482  25.773  26.873  1.00  0.00     0.059 A 
ATOM     94  C   UNL A   1      51.019  26.411  24.574  1.00  0.00     0.059 A 
ATOM     95  F   UNL A   1      48.959  27.391  24.033  1.00  0.00    -0.206 F 
ATOM     96  C   UNL A   1      51.875  25.878  25.537  1.00  0.00     0.060 A 
BRANCH  96  97
ATOM     97  S   UNL A   1      53.512  25.280  25.065  1.00  0.00     0.124 S 
ATOM     98  O   UNL A   1      54.375  26.078  25.930  1.00  0.00    -0.237 OA
ATOM     99  O   UNL A   1      53.432  23.859  25.385  1.00  0.00    -0.237 OA
ATOM    100  O   UNL A   1      53.588  25.593  23.641  1.00  0.00    -0.744 OA
ENDBRANCH  96  97
ENDBRANCH  64  89
ENDBRANCH  38  39
ENDBRANCH  30  33
ENDBRANCH  28  29
ENDBRANCH   1  28
TORSDOF 16
ENDMDL
MODEL 3
REMARK VINA RESULT:     -12.1      0.552      8.241
REMARK SMILES CC1(C)S[C@H](c2ccc(-c3ccccc3)o2)[NH2+][C@H]1C(=O)NCCCCNC(=O)c1ccc(-c2c3nc(c(-c4c(F)cc(S(=O)(=O)[O-])cc4F)c4ccc([nH]4)c(-c4c(F)cc(S(=O)(=O)[O-])cc4F)c4nc(c(-c5c(F)cc(S(=O)(=O)[O-])cc5F)c5ccc2[nH]5)C=C4)C=C3)cc1
REMARK SMILES IDX 24 1 23 2 22 3 21 4 19 5 20 6 18 8 1 9 2 10 3 11 4 12 5 13
REMARK SMILES IDX 17 14 6 17 7 18 16 19 8 20 9 21 10 22 11 23 15 24 12 25
REMARK SMILES IDX 14 26 13 27 25 28 26 29 27 30 28 32 29 33 30 34 94 35 31 36
REMARK SMILES IDX 93 37 32 38 33 39 34 40 87 41 35 42 92 43 86 44 88 45 36 46
REMARK SMILES IDX 91 47 85 48 84 49 37 51 71 52 50 53 70 54 51 55 54 56 69 57
REMARK SMILES IDX 89 58 52 59 53 60 68 62 90 63 55 64 38 65 39 66 48 67 40 68
REMARK SMILES IDX 41 69 47 70 49 71 42 72 43 73 44 74 45 75 46 76 72 77 73 78
REMARK SMILES IDX 82 79 74 80 75 81 81 82 83 83 76 84 77 85 78 86 79 87 80 88
REMARK SMILES IDX 56 89 57 90 66 91 58 92 59 93 65 94 67 95 60 96 61 97 62 98
REMARK SMILES IDX 63 99 64 100
REMARK H PARENT 21 7 17 15 17 16 26 31 88 50 54 61
REMARK Flexibility Score: inf
ROOT
ATOM      1  C   UNL A   1      39.231  22.262  26.581  1.00  0.00     0.023 C 
ENDROOT
BRANCH   1   2
ATOM      2  C   UNL A   1      38.172  22.263  25.487  1.00  0.00     0.023 C 
BRANCH   2   3
ATOM      3  C   UNL A   1      36.927  23.102  25.781  1.00  0.00     0.116 C 
BRANCH   3   4
ATOM      4  N   UNL A   1      35.929  22.359  26.529  1.00  0.00    -0.351 N 
ATOM      5  C   UNL A   1      34.571  22.435  26.622  1.00  0.00     0.279 C 
ATOM      6  O   UNL A   1      34.045  21.697  27.465  1.00  0.00    -0.268 OA
ATOM      7  H   UNL A   1      36.315  21.647  27.089  1.00  0.00     0.163 HD
BRANCH   5   8
ATOM      8  C   UNL A   1      33.687  23.399  25.797  1.00  0.00     0.289 C 
ATOM      9  C   UNL A   1      32.871  21.418  24.260  1.00  0.00     0.030 C 
ATOM     10  C   UNL A   1      33.287  22.877  24.398  1.00  0.00     0.078 C 
ATOM     11  C   UNL A   1      34.391  23.166  23.374  1.00  0.00     0.030 C 
ATOM     12  S   UNL A   1      31.810  23.855  23.982  1.00  0.00    -0.078 SA
ATOM     13  C   UNL A   1      31.575  24.511  25.656  1.00  0.00     0.311 C 
ATOM     14  N   UNL A   1      32.548  23.931  26.576  1.00  0.00    -0.317 N 
ATOM     15  H   UNL A   1      32.111  23.175  27.103  1.00  0.00     0.348 HD
ATOM     16  H   UNL A   1      32.878  24.645  27.225  1.00  0.00     0.348 HD
BRANCH  13  17
ATOM     17  C   UNL A   1      31.558  26.005  25.592  1.00  0.00     0.172 A 
ATOM     18  C   UNL A   1      30.704  26.864  24.924  1.00  0.00     0.054 A 
ATOM     19  O   UNL A   1      32.533  26.728  26.228  1.00  0.00    -0.454 OA
ATOM     20  C   UNL A   1      31.165  28.171  25.174  1.00  0.00     0.051 A 
ATOM     21  C   UNL A   1      32.274  28.048  25.985  1.00  0.00     0.134 A 
BRANCH  21  22
ATOM     22  C   UNL A   1      33.158  29.028  26.596  1.00  0.00     0.017 A 
ATOM     23  C   UNL A   1      32.721  30.326  26.882  1.00  0.00     0.012 A 
ATOM     24  C   UNL A   1      34.460  28.656  26.963  1.00  0.00     0.012 A 
ATOM     25  C   UNL A   1      33.564  31.227  27.541  1.00  0.00     0.001 A 
ATOM     26  C   UNL A   1      35.307  29.558  27.608  1.00  0.00     0.001 A 
ATOM     27  C   UNL A   1      34.855  30.841  27.905  1.00  0.00     0.000 A 
ENDBRANCH  21  22
ENDBRANCH  13  17
ENDBRANCH   5   8
ENDBRANCH   3   4
ENDBRANCH   2   3
ENDBRANCH   1   2
BRANCH   1  28
ATOM     28  C   UNL A   1      39.707  23.643  26.997  1.00  0.00     0.116 C 
BRANCH  28  29
ATOM     29  N   UNL A   1      40.568  24.271  26.004  1.00  0.00    -0.352 N 
ATOM     30  C   UNL A   1      41.049  25.560  25.971  1.00  0.00     0.251 C 
ATOM     31  H   UNL A   1      40.843  23.695  25.253  1.00  0.00     0.163 HD
ATOM     32  O   UNL A   1      41.647  25.972  24.987  1.00  0.00    -0.269 OA
BRANCH  30  33
ATOM     33  C   UNL A   1      40.803  26.439  27.132  1.00  0.00     0.039 A 
ATOM     34  C   UNL A   1      39.961  26.000  28.155  1.00  0.00     0.014 A 
ATOM     35  C   UNL A   1      41.455  27.670  27.225  1.00  0.00     0.014 A 
ATOM     36  C   UNL A   1      39.825  26.775  29.308  1.00  0.00     0.010 A 
ATOM     37  C   UNL A   1      41.401  28.385  28.412  1.00  0.00     0.010 A 
ATOM     38  C   UNL A   1      40.570  27.957  29.458  1.00  0.00    -0.014 A 
BRANCH  38  39
ATOM     39  C   UNL A   1      40.464  28.797  30.674  1.00  0.00     0.031 A 
ATOM     40  C   UNL A   1      39.423  29.883  30.729  1.00  0.00     0.074 A 
ATOM     41  C   UNL A   1      41.343  28.639  31.684  1.00  0.00     0.049 A 
ATOM     42  N   UNL A   1      39.231  30.800  31.640  1.00  0.00    -0.248 NA
ATOM     43  C   UNL A   1      38.504  29.977  29.582  1.00  0.00     0.031 C 
ATOM     44  C   UNL A   1      42.434  27.663  31.715  1.00  0.00     0.029 A 
ATOM     45  N   UNL A   1      41.464  29.308  32.874  1.00  0.00    -0.354 N 
ATOM     46  C   UNL A   1      38.195  31.594  31.162  1.00  0.00     0.074 A 
ATOM     47  C   UNL A   1      37.842  31.091  29.853  1.00  0.00     0.031 C 
ATOM     48  C   UNL A   1      43.096  27.779  32.879  1.00  0.00     0.029 A 
ATOM     49  C   UNL A   1      42.497  28.857  33.660  1.00  0.00     0.049 A 
ATOM     50  H   UNL A   1      40.867  30.044  33.141  1.00  0.00     0.167 HD
ATOM     51  C   UNL A   1      37.570  32.629  31.771  1.00  0.00     0.037 A 
ATOM     52  C   UNL A   1      42.911  29.267  34.875  1.00  0.00     0.037 A 
ATOM     53  C   UNL A   1      37.891  33.086  33.096  1.00  0.00     0.049 A 
ATOM     54  C   UNL A   1      42.167  30.384  35.556  1.00  0.00     0.074 A 
ATOM     55  C   UNL A   1      37.283  34.084  33.835  1.00  0.00     0.029 A 
ATOM     56  N   UNL A   1      38.904  32.560  33.886  1.00  0.00    -0.354 N 
ATOM     57  N   UNL A   1      41.155  31.092  35.112  1.00  0.00    -0.248 NA
ATOM     58  C   UNL A   1      42.610  30.749  36.908  1.00  0.00     0.031 C 
ATOM     59  C   UNL A   1      37.944  34.178  35.065  1.00  0.00     0.029 A 
ATOM     60  C   UNL A   1      38.938  33.212  35.105  1.00  0.00     0.049 A 
ATOM     61  H   UNL A   1      39.508  31.830  33.618  1.00  0.00     0.167 HD
ATOM     62  C   UNL A   1      40.820  31.964  36.141  1.00  0.00     0.074 A 
ATOM     63  C   UNL A   1      41.732  31.689  37.233  1.00  0.00     0.031 C 
ATOM     64  C   UNL A   1      39.846  32.906  36.183  1.00  0.00     0.037 A 
BRANCH  51  65
ATOM     65  C   UNL A   1      36.468  33.316  31.012  1.00  0.00     0.058 A 
ATOM     66  C   UNL A   1      36.739  34.162  29.924  1.00  0.00     0.135 A 
ATOM     67  C   UNL A   1      35.125  33.123  31.372  1.00  0.00     0.135 A 
ATOM     68  F   UNL A   1      38.008  34.397  29.551  1.00  0.00    -0.206 F 
ATOM     69  C   UNL A   1      35.722  34.823  29.245  1.00  0.00     0.059 A 
ATOM     70  C   UNL A   1      34.088  33.752  30.687  1.00  0.00     0.059 A 
ATOM     71  F   UNL A   1      34.808  32.328  32.406  1.00  0.00    -0.206 F 
ATOM     72  C   UNL A   1      34.400  34.615  29.636  1.00  0.00     0.060 A 
BRANCH  72  73
ATOM     73  S   UNL A   1      33.090  35.484  28.748  1.00  0.00     0.124 S 
ATOM     74  O   UNL A   1      32.481  34.394  27.991  1.00  0.00    -0.237 OA
ATOM     75  O   UNL A   1      32.282  36.028  29.835  1.00  0.00    -0.237 OA
ATOM     76  O   UNL A   1      33.815  36.471  27.955  1.00  0.00    -0.744 OA
ENDBRANCH  72  73
ENDBRANCH  51  65
BRANCH  52  77
ATOM     77  C   UNL A   1      44.052  28.588  35.542  1.00  0.00     0.058 A 
ATOM     78  C   UNL A   1      45.371  29.013  35.319  1.00  0.00     0.135 A 
ATOM     79  C   UNL A   1      43.853  27.514  36.423  1.00  0.00     0.135 A 
ATOM     80  F   UNL A   1      45.613  30.034  34.482  1.00  0.00    -0.206 F 
ATOM     81  C   UNL A   1      46.453  28.388  35.928  1.00  0.00     0.059 A 
ATOM     82  C   UNL A   1      44.917  26.887  37.064  1.00  0.00     0.059 A 
ATOM     83  F   UNL A   1      42.610  27.082  36.687  1.00  0.00    -0.206 F 
ATOM     84  C   UNL A   1      46.216  27.324  36.800  1.00  0.00     0.060 A 
BRANCH  84  85
ATOM     85  S   UNL A   1      47.624  26.549  37.624  1.00  0.00     0.124 S 
ATOM     86  O   UNL A   1      47.960  25.482  36.689  1.00  0.00    -0.237 OA
ATOM     87  O   UNL A   1      48.578  27.651  37.706  1.00  0.00    -0.237 OA
ATOM     88  O   UNL A   1      47.067  26.117  38.903  1.00  0.00    -0.744 OA
ENDBRANCH  84  85
ENDBRANCH  52  77
BRANCH  64  89
ATOM     89  C   UNL A   1      39.683  33.671  37.465  1.00  0.00     0.058 A 
ATOM     90  C   UNL A   1      40.359  34.879  37.694  1.00  0.00     0.135 A 
ATOM     91  C   UNL A   1      38.800  33.211  38.455  1.00  0.00     0.135 A 
ATOM     92  F   UNL A   1      41.217  35.357  36.780  1.00  0.00    -0.206 F 
ATOM     93  C   UNL A   1      40.187  35.591  38.877  1.00  0.00     0.059 A 
ATOM     94  C   UNL A   1      38.593  33.920  39.633  1.00  0.00     0.059 A 
ATOM     95  F   UNL A   1      38.119  32.068  38.276  1.00  0.00    -0.206 F 
ATOM     96  C   UNL A   1      39.303  35.102  39.840  1.00  0.00     0.060 A 
BRANCH  96  97
ATOM     97  S   UNL A   1      39.067  36.047  41.360  1.00  0.00     0.124 S 
ATOM     98  O   UNL A   1      37.833  35.464  41.878  1.00  0.00    -0.237 OA
ATOM     99  O   UNL A   1      40.278  35.741  42.112  1.00  0.00    -0.237 OA
ATOM    100  O   UNL A   1      38.960  37.425  40.888  1.00  0.00    -0.744 OA
ENDBRANCH  96  97
ENDBRANCH  64  89
ENDBRANCH  38  39
ENDBRANCH  30  33
ENDBRANCH  28  29
ENDBRANCH   1  28
TORSDOF 16
ENDMDL
