MODEL 1
REMARK VINA RESULT:     -11.1      0.000      0.000
REMARK SMILES C[C@H]([NH2+][C@@H](C)[C@@H](C)C(=O)NCCCCNC(=O)c1ccc(-c2c3nc(c(-c4c(F)cc(S(=O)(=O)[O-])cc4F)c4ccc([nH]4)c(-c4c(F)cc(S(=O)(=O)[O-])cc4F)c4nc(c(-c5c(F)cc(S(=O)(=O)[O-])cc5F)c5ccc2[nH]5)C=C4)C=C3)cc1)c1cccc(Br)c1
REMARK SMILES IDX 12 1 11 2 10 3 8 4 9 5 6 7 7 8 4 9 5 10 3 11 2 14 1 15 84 16
REMARK SMILES IDX 85 17 90 18 86 19 88 20 87 21 89 22 13 23 14 24 15 25 16 26
REMARK SMILES IDX 17 28 18 29 19 30 83 31 20 32 82 33 21 34 22 35 23 36 76 37
REMARK SMILES IDX 24 38 81 39 75 40 77 41 25 42 80 43 74 44 73 45 26 47 60 48
REMARK SMILES IDX 39 49 59 50 40 51 43 52 58 53 78 54 41 55 42 56 57 58 79 59
REMARK SMILES IDX 44 60 27 61 28 62 37 63 29 64 30 65 36 66 38 67 31 68 32 69
REMARK SMILES IDX 33 70 34 71 35 72 61 73 62 74 71 75 63 76 64 77 70 78 72 79
REMARK SMILES IDX 65 80 66 81 67 82 68 83 69 84 45 85 46 86 55 87 47 88 48 89
REMARK SMILES IDX 54 90 56 91 49 92 50 93 51 94 52 95 53 96
REMARK H PARENT 10 6 3 12 3 13 15 27 77 46 43 57
REMARK Flexibility Score: inf
ROOT
ATOM      1  C   UNL A   1      36.769  23.532  24.602  1.00  0.00     0.023 C 
ENDROOT
BRANCH   1   2
ATOM      2  C   UNL A   1      35.932  22.427  23.969  1.00  0.00     0.116 C 
BRANCH   2   3
ATOM      3  N   UNL A   1      34.784  22.983  23.279  1.00  0.00    -0.356 N 
ATOM      4  C   UNL A   1      33.465  22.955  23.613  1.00  0.00     0.228 C 
ATOM      5  O   UNL A   1      32.656  23.482  22.848  1.00  0.00    -0.275 OA
ATOM      6  H   UNL A   1      34.991  23.454  22.440  1.00  0.00     0.163 HD
BRANCH   4   7
ATOM      7  C   UNL A   1      33.002  22.315  24.917  1.00  0.00     0.133 C 
ATOM      8  C   UNL A   1      32.330  20.987  24.560  1.00  0.00     0.024 C 
BRANCH   7   9
ATOM      9  C   UNL A   1      32.205  23.306  25.817  1.00  0.00     0.192 C 
ATOM     10  C   UNL A   1      30.742  22.831  25.943  1.00  0.00     0.076 C 
BRANCH   9  11
ATOM     11  N   UNL A   1      32.100  24.679  25.309  1.00  0.00    -0.337 N 
ATOM     12  H   UNL A   1      32.426  24.653  24.343  1.00  0.00     0.347 HD
ATOM     13  H   UNL A   1      31.122  24.904  25.491  1.00  0.00     0.347 HD
BRANCH  11  14
ATOM     14  C   UNL A   1      32.806  25.794  25.956  1.00  0.00     0.210 C 
ATOM     15  C   UNL A   1      34.329  25.692  25.764  1.00  0.00     0.081 C 
BRANCH  14  16
ATOM     16  C   UNL A   1      32.203  27.169  25.669  1.00  0.00     0.010 A 
ATOM     17  C   UNL A   1      32.444  28.286  26.490  1.00  0.00     0.010 A 
ATOM     18  C   UNL A   1      31.356  27.355  24.558  1.00  0.00     0.025 A 
ATOM     19  C   UNL A   1      31.947  29.551  26.159  1.00  0.00     0.002 A 
ATOM     20  C   UNL A   1      30.893  28.627  24.212  1.00  0.00     0.018 A 
ATOM     21  C   UNL A   1      31.195  29.729  25.002  1.00  0.00     0.016 A 
ATOM     22  Br  UNL A   1      29.917  28.860  22.608  1.00  0.00    -0.051 Br
ENDBRANCH  14  16
ENDBRANCH  11  14
ENDBRANCH   9  11
ENDBRANCH   7   9
ENDBRANCH   4   7
ENDBRANCH   2   3
ENDBRANCH   1   2
BRANCH   1  23
ATOM     23  C   UNL A   1      37.622  23.052  25.776  1.00  0.00     0.023 C 
BRANCH  23  24
ATOM     24  C   UNL A   1      38.481  24.136  26.417  1.00  0.00     0.116 C 
BRANCH  24  25
ATOM     25  N   UNL A   1      39.901  23.957  26.154  1.00  0.00    -0.352 N 
ATOM     26  C   UNL A   1      40.952  24.738  26.576  1.00  0.00     0.251 C 
ATOM     27  H   UNL A   1      40.140  23.177  25.602  1.00  0.00     0.163 HD
ATOM     28  O   UNL A   1      42.080  24.546  26.147  1.00  0.00    -0.269 OA
BRANCH  26  29
ATOM     29  C   UNL A   1      40.678  25.829  27.533  1.00  0.00     0.039 A 
ATOM     30  C   UNL A   1      39.670  25.657  28.481  1.00  0.00     0.014 A 
ATOM     31  C   UNL A   1      41.467  26.983  27.528  1.00  0.00     0.014 A 
ATOM     32  C   UNL A   1      39.497  26.620  29.474  1.00  0.00     0.010 A 
ATOM     33  C   UNL A   1      41.343  27.903  28.563  1.00  0.00     0.010 A 
ATOM     34  C   UNL A   1      40.358  27.729  29.548  1.00  0.00    -0.014 A 
BRANCH  34  35
ATOM     35  C   UNL A   1      40.250  28.706  30.660  1.00  0.00     0.031 A 
ATOM     36  C   UNL A   1      41.124  28.566  31.876  1.00  0.00     0.074 A 
ATOM     37  C   UNL A   1      39.329  29.688  30.591  1.00  0.00     0.049 A 
ATOM     38  N   UNL A   1      41.153  29.302  32.958  1.00  0.00    -0.248 NA
ATOM     39  C   UNL A   1      42.071  27.439  31.892  1.00  0.00     0.031 C 
ATOM     40  C   UNL A   1      38.381  29.885  29.491  1.00  0.00     0.029 A 
ATOM     41  N   UNL A   1      39.033  30.703  31.465  1.00  0.00    -0.354 N 
ATOM     42  C   UNL A   1      42.115  28.727  33.780  1.00  0.00     0.074 A 
ATOM     43  C   UNL A   1      42.603  27.548  33.101  1.00  0.00     0.031 C 
ATOM     44  C   UNL A   1      37.630  30.969  29.744  1.00  0.00     0.029 A 
ATOM     45  C   UNL A   1      38.017  31.525  31.036  1.00  0.00     0.049 A 
ATOM     46  H   UNL A   1      39.504  30.831  32.321  1.00  0.00     0.167 HD
ATOM     47  C   UNL A   1      42.569  29.162  34.980  1.00  0.00     0.037 A 
ATOM     48  C   UNL A   1      37.459  32.602  31.621  1.00  0.00     0.037 A 
ATOM     49  C   UNL A   1      42.094  30.350  35.639  1.00  0.00     0.049 A 
ATOM     50  C   UNL A   1      37.988  33.065  32.952  1.00  0.00     0.074 A 
ATOM     51  C   UNL A   1      42.528  30.904  36.831  1.00  0.00     0.029 A 
ATOM     52  N   UNL A   1      41.082  31.169  35.163  1.00  0.00    -0.354 N 
ATOM     53  N   UNL A   1      38.948  32.549  33.682  1.00  0.00    -0.248 NA
ATOM     54  C   UNL A   1      37.366  34.263  33.533  1.00  0.00     0.031 C 
ATOM     55  C   UNL A   1      41.750  32.035  37.096  1.00  0.00     0.029 A 
ATOM     56  C   UNL A   1      40.864  32.214  36.046  1.00  0.00     0.049 A 
ATOM     57  H   UNL A   1      40.589  31.029  34.322  1.00  0.00     0.167 HD
ATOM     58  C   UNL A   1      39.060  33.374  34.797  1.00  0.00     0.074 A 
ATOM     59  C   UNL A   1      38.086  34.432  34.633  1.00  0.00     0.031 C 
ATOM     60  C   UNL A   1      39.891  33.262  35.863  1.00  0.00     0.037 A 
BRANCH  47  61
ATOM     61  C   UNL A   1      43.651  28.360  35.650  1.00  0.00     0.058 A 
ATOM     62  C   UNL A   1      45.010  28.612  35.401  1.00  0.00     0.135 A 
ATOM     63  C   UNL A   1      43.332  27.369  36.591  1.00  0.00     0.135 A 
ATOM     64  F   UNL A   1      45.373  29.536  34.497  1.00  0.00    -0.206 F 
ATOM     65  C   UNL A   1      46.013  27.900  36.050  1.00  0.00     0.059 A 
ATOM     66  C   UNL A   1      44.318  26.662  37.272  1.00  0.00     0.059 A 
ATOM     67  F   UNL A   1      42.048  27.083  36.862  1.00  0.00    -0.206 F 
ATOM     68  C   UNL A   1      45.657  26.929  36.987  1.00  0.00     0.060 A 
BRANCH  68  69
ATOM     69  S   UNL A   1      46.973  26.037  37.842  1.00  0.00     0.124 S 
ATOM     70  O   UNL A   1      48.112  26.926  37.632  1.00  0.00    -0.237 OA
ATOM     71  O   UNL A   1      46.466  25.969  39.209  1.00  0.00    -0.237 OA
ATOM     72  O   UNL A   1      47.035  24.761  37.135  1.00  0.00    -0.744 OA
ENDBRANCH  68  69
ENDBRANCH  47  61
BRANCH  48  73
ATOM     73  C   UNL A   1      36.348  33.330  30.949  1.00  0.00     0.058 A 
ATOM     74  C   UNL A   1      36.579  34.101  29.800  1.00  0.00     0.135 A 
ATOM     75  C   UNL A   1      35.039  33.282  31.450  1.00  0.00     0.135 A 
ATOM     76  F   UNL A   1      37.814  34.182  29.284  1.00  0.00    -0.206 F 
ATOM     77  C   UNL A   1      35.559  34.825  29.190  1.00  0.00     0.059 A 
ATOM     78  C   UNL A   1      33.996  33.973  30.841  1.00  0.00     0.059 A 
ATOM     79  F   UNL A   1      34.760  32.543  32.536  1.00  0.00    -0.206 F 
ATOM     80  C   UNL A   1      34.271  34.756  29.720  1.00  0.00     0.060 A 
BRANCH  80  81
ATOM     81  S   UNL A   1      32.948  35.681  28.910  1.00  0.00     0.124 S 
ATOM     82  O   UNL A   1      32.395  34.674  28.012  1.00  0.00    -0.237 OA
ATOM     83  O   UNL A   1      32.105  36.065  30.037  1.00  0.00    -0.237 OA
ATOM     84  O   UNL A   1      33.657  36.782  28.264  1.00  0.00    -0.744 OA
ENDBRANCH  80  81
ENDBRANCH  48  73
BRANCH  60  85
ATOM     85  C   UNL A   1      39.801  34.329  36.919  1.00  0.00     0.058 A 
ATOM     86  C   UNL A   1      38.992  34.176  38.055  1.00  0.00     0.135 A 
ATOM     87  C   UNL A   1      40.555  35.509  36.804  1.00  0.00     0.135 A 
ATOM     88  F   UNL A   1      38.247  33.069  38.209  1.00  0.00    -0.206 F 
ATOM     89  C   UNL A   1      38.906  35.168  39.025  1.00  0.00     0.059 A 
ATOM     90  C   UNL A   1      40.507  36.501  37.778  1.00  0.00     0.059 A 
ATOM     91  F   UNL A   1      41.356  35.700  35.744  1.00  0.00    -0.206 F 
ATOM     92  C   UNL A   1      39.667  36.329  38.876  1.00  0.00     0.060 A 
BRANCH  92  93
ATOM     93  S   UNL A   1      39.557  37.605  40.148  1.00  0.00     0.124 S 
ATOM     94  O   UNL A   1      39.144  36.826  41.311  1.00  0.00    -0.237 OA
ATOM     95  O   UNL A   1      40.919  38.128  40.187  1.00  0.00    -0.237 OA
ATOM     96  O   UNL A   1      38.554  38.525  39.619  1.00  0.00    -0.744 OA
ENDBRANCH  92  93
ENDBRANCH  60  85
ENDBRANCH  34  35
ENDBRANCH  26  29
ENDBRANCH  24  25
ENDBRANCH  23  24
ENDBRANCH   1  23
TORSDOF 18
ENDMDL
MODEL 2
REMARK VINA RESULT:     -11.0      6.807     12.197
REMARK SMILES C[C@H]([NH2+][C@@H](C)[C@@H](C)C(=O)NCCCCNC(=O)c1ccc(-c2c3nc(c(-c4c(F)cc(S(=O)(=O)[O-])cc4F)c4ccc([nH]4)c(-c4c(F)cc(S(=O)(=O)[O-])cc4F)c4nc(c(-c5c(F)cc(S(=O)(=O)[O-])cc5F)c5ccc2[nH]5)C=C4)C=C3)cc1)c1cccc(Br)c1
REMARK SMILES IDX 12 1 11 2 10 3 8 4 9 5 6 7 7 8 4 9 5 10 3 11 2 14 1 15 84 16
REMARK SMILES IDX 85 17 90 18 86 19 88 20 87 21 89 22 13 23 14 24 15 25 16 26
REMARK SMILES IDX 17 28 18 29 19 30 83 31 20 32 82 33 21 34 22 35 23 36 76 37
REMARK SMILES IDX 24 38 81 39 75 40 77 41 25 42 80 43 74 44 73 45 26 47 60 48
REMARK SMILES IDX 39 49 59 50 40 51 43 52 58 53 78 54 41 55 42 56 57 58 79 59
REMARK SMILES IDX 44 60 27 61 28 62 37 63 29 64 30 65 36 66 38 67 31 68 32 69
REMARK SMILES IDX 33 70 34 71 35 72 61 73 62 74 71 75 63 76 64 77 70 78 72 79
REMARK SMILES IDX 65 80 66 81 67 82 68 83 69 84 45 85 46 86 55 87 47 88 48 89
REMARK SMILES IDX 54 90 56 91 49 92 50 93 51 94 52 95 53 96
REMARK H PARENT 10 6 3 12 3 13 15 27 77 46 43 57
REMARK Flexibility Score: inf
ROOT
ATOM      1  C   UNL A   1      33.940  29.009  26.403  1.00  0.00     0.023 C 
ENDROOT
BRANCH   1   2
ATOM      2  C   UNL A   1      32.673  29.497  25.713  1.00  0.00     0.116 C 
BRANCH   2   3
ATOM      3  N   UNL A   1      31.642  28.477  25.750  1.00  0.00    -0.356 N 
ATOM      4  C   UNL A   1      31.191  27.654  24.764  1.00  0.00     0.228 C 
ATOM      5  O   UNL A   1      30.275  26.873  25.028  1.00  0.00    -0.275 OA
ATOM      6  H   UNL A   1      31.201  28.363  26.622  1.00  0.00     0.163 HD
BRANCH   4   7
ATOM      7  C   UNL A   1      31.824  27.674  23.378  1.00  0.00     0.133 C 
ATOM      8  C   UNL A   1      30.683  27.680  22.356  1.00  0.00     0.024 C 
BRANCH   7   9
ATOM      9  C   UNL A   1      32.933  26.592  23.213  1.00  0.00     0.192 C 
ATOM     10  C   UNL A   1      33.020  26.160  21.734  1.00  0.00     0.076 C 
BRANCH   9  11
ATOM     11  N   UNL A   1      32.710  25.340  23.946  1.00  0.00    -0.337 N 
ATOM     12  H   UNL A   1      31.736  25.353  24.247  1.00  0.00     0.347 HD
ATOM     13  H   UNL A   1      33.005  24.636  23.269  1.00  0.00     0.347 HD
BRANCH  11  14
ATOM     14  C   UNL A   1      33.506  24.991  25.131  1.00  0.00     0.210 C 
ATOM     15  C   UNL A   1      32.626  24.445  26.269  1.00  0.00     0.081 C 
BRANCH  14  16
ATOM     16  C   UNL A   1      34.759  24.171  24.825  1.00  0.00     0.010 A 
ATOM     17  C   UNL A   1      34.855  23.329  23.702  1.00  0.00     0.010 A 
ATOM     18  C   UNL A   1      35.871  24.224  25.689  1.00  0.00     0.025 A 
ATOM     19  C   UNL A   1      36.043  22.654  23.400  1.00  0.00     0.002 A 
ATOM     20  C   UNL A   1      37.066  23.576  25.365  1.00  0.00     0.018 A 
ATOM     21  C   UNL A   1      37.160  22.800  24.217  1.00  0.00     0.016 A 
ATOM     22  Br  UNL A   1      38.590  23.829  26.457  1.00  0.00    -0.051 Br
ENDBRANCH  14  16
ENDBRANCH  11  14
ENDBRANCH   9  11
ENDBRANCH   7   9
ENDBRANCH   4   7
ENDBRANCH   2   3
ENDBRANCH   1   2
BRANCH   1  23
ATOM     23  C   UNL A   1      34.619  30.080  27.257  1.00  0.00     0.023 C 
BRANCH  23  24
ATOM     24  C   UNL A   1      35.661  29.543  28.233  1.00  0.00     0.116 C 
BRANCH  24  25
ATOM     25  N   UNL A   1      35.520  30.104  29.569  1.00  0.00    -0.352 N 
ATOM     26  C   UNL A   1      36.504  30.350  30.498  1.00  0.00     0.251 C 
ATOM     27  H   UNL A   1      34.603  30.336  29.842  1.00  0.00     0.163 HD
ATOM     28  O   UNL A   1      36.213  30.683  31.637  1.00  0.00    -0.269 OA
BRANCH  26  29
ATOM     29  C   UNL A   1      37.913  30.171  30.095  1.00  0.00     0.039 A 
ATOM     30  C   UNL A   1      38.834  29.725  31.043  1.00  0.00     0.014 A 
ATOM     31  C   UNL A   1      38.297  30.379  28.767  1.00  0.00     0.014 A 
ATOM     32  C   UNL A   1      40.133  29.420  30.640  1.00  0.00     0.010 A 
ATOM     33  C   UNL A   1      39.570  30.002  28.354  1.00  0.00     0.010 A 
ATOM     34  C   UNL A   1      40.500  29.517  29.287  1.00  0.00    -0.014 A 
BRANCH  34  35
ATOM     35  C   UNL A   1      41.848  29.097  28.830  1.00  0.00     0.031 A 
ATOM     36  C   UNL A   1      42.966  30.100  28.752  1.00  0.00     0.074 A 
ATOM     37  C   UNL A   1      42.048  27.821  28.441  1.00  0.00     0.049 A 
ATOM     38  N   UNL A   1      44.200  29.927  28.350  1.00  0.00    -0.248 NA
ATOM     39  C   UNL A   1      42.653  31.482  29.151  1.00  0.00     0.031 C 
ATOM     40  C   UNL A   1      41.022  26.774  28.412  1.00  0.00     0.029 A 
ATOM     41  N   UNL A   1      43.177  27.187  27.991  1.00  0.00    -0.354 N 
ATOM     42  C   UNL A   1      44.806  31.175  28.446  1.00  0.00     0.074 A 
ATOM     43  C   UNL A   1      43.791  32.107  28.884  1.00  0.00     0.031 C 
ATOM     44  C   UNL A   1      41.577  25.626  27.994  1.00  0.00     0.029 A 
ATOM     45  C   UNL A   1      42.985  25.858  27.694  1.00  0.00     0.049 A 
ATOM     46  H   UNL A   1      44.045  27.642  27.889  1.00  0.00     0.167 HD
ATOM     47  C   UNL A   1      46.099  31.505  28.217  1.00  0.00     0.037 A 
ATOM     48  C   UNL A   1      43.847  24.933  27.229  1.00  0.00     0.037 A 
ATOM     49  C   UNL A   1      47.109  30.567  27.803  1.00  0.00     0.049 A 
ATOM     50  C   UNL A   1      45.280  25.328  26.988  1.00  0.00     0.074 A 
ATOM     51  C   UNL A   1      48.459  30.792  27.597  1.00  0.00     0.029 A 
ATOM     52  N   UNL A   1      46.882  29.226  27.535  1.00  0.00    -0.354 N 
ATOM     53  N   UNL A   1      45.852  26.497  27.153  1.00  0.00    -0.248 NA
ATOM     54  C   UNL A   1      46.187  24.276  26.510  1.00  0.00     0.031 C 
ATOM     55  C   UNL A   1      49.041  29.596  27.164  1.00  0.00     0.029 A 
ATOM     56  C   UNL A   1      48.063  28.614  27.148  1.00  0.00     0.049 A 
ATOM     57  H   UNL A   1      46.011  28.773  27.609  1.00  0.00     0.167 HD
ATOM     58  C   UNL A   1      47.191  26.314  26.820  1.00  0.00     0.074 A 
ATOM     59  C   UNL A   1      47.345  24.919  26.468  1.00  0.00     0.031 C 
ATOM     60  C   UNL A   1      48.199  27.221  26.804  1.00  0.00     0.037 A 
BRANCH  47  61
ATOM     61  C   UNL A   1      46.503  32.938  28.430  1.00  0.00     0.058 A 
ATOM     62  C   UNL A   1      47.026  33.378  29.657  1.00  0.00     0.135 A 
ATOM     63  C   UNL A   1      46.421  33.870  27.383  1.00  0.00     0.135 A 
ATOM     64  F   UNL A   1      47.109  32.533  30.698  1.00  0.00    -0.206 F 
ATOM     65  C   UNL A   1      47.438  34.692  29.843  1.00  0.00     0.059 A 
ATOM     66  C   UNL A   1      46.852  35.184  27.539  1.00  0.00     0.059 A 
ATOM     67  F   UNL A   1      45.923  33.505  26.190  1.00  0.00    -0.206 F 
ATOM     68  C   UNL A   1      47.351  35.588  28.777  1.00  0.00     0.060 A 
BRANCH  68  69
ATOM     69  S   UNL A   1      47.920  37.282  29.029  1.00  0.00     0.124 S 
ATOM     70  O   UNL A   1      46.660  37.981  29.260  1.00  0.00    -0.237 OA
ATOM     71  O   UNL A   1      48.793  37.148  30.191  1.00  0.00    -0.237 OA
ATOM     72  O   UNL A   1      48.595  37.605  27.776  1.00  0.00    -0.744 OA
ENDBRANCH  68  69
ENDBRANCH  47  61
BRANCH  48  73
ATOM     73  C   UNL A   1      43.389  23.540  26.974  1.00  0.00     0.058 A 
ATOM     74  C   UNL A   1      43.161  23.080  25.669  1.00  0.00     0.135 A 
ATOM     75  C   UNL A   1      43.157  22.647  28.031  1.00  0.00     0.135 A 
ATOM     76  F   UNL A   1      43.366  23.897  24.625  1.00  0.00    -0.206 F 
ATOM     77  C   UNL A   1      42.688  21.796  25.420  1.00  0.00     0.059 A 
ATOM     78  C   UNL A   1      42.711  21.348  27.806  1.00  0.00     0.059 A 
ATOM     79  F   UNL A   1      43.379  23.031  29.298  1.00  0.00    -0.206 F 
ATOM     80  C   UNL A   1      42.463  20.938  26.497  1.00  0.00     0.060 A 
BRANCH  80  81
ATOM     81  S   UNL A   1      41.870  19.265  26.164  1.00  0.00     0.124 S 
ATOM     82  O   UNL A   1      40.450  19.500  25.931  1.00  0.00    -0.237 OA
ATOM     83  O   UNL A   1      42.657  18.887  24.995  1.00  0.00    -0.237 OA
ATOM     84  O   UNL A   1      42.198  18.544  27.390  1.00  0.00    -0.744 OA
ENDBRANCH  80  81
ENDBRANCH  48  73
BRANCH  60  85
ATOM     85  C   UNL A   1      49.564  26.722  26.419  1.00  0.00     0.058 A 
ATOM     86  C   UNL A   1      50.050  26.837  25.108  1.00  0.00     0.135 A 
ATOM     87  C   UNL A   1      50.408  26.144  27.383  1.00  0.00     0.135 A 
ATOM     88  F   UNL A   1      49.280  27.377  24.148  1.00  0.00    -0.206 F 
ATOM     89  C   UNL A   1      51.310  26.367  24.755  1.00  0.00     0.059 A 
ATOM     90  C   UNL A   1      51.684  25.695  27.058  1.00  0.00     0.059 A 
ATOM     91  F   UNL A   1      49.999  26.021  28.655  1.00  0.00    -0.206 F 
ATOM     92  C   UNL A   1      52.120  25.796  25.739  1.00  0.00     0.060 A 
BRANCH  92  93
ATOM     93  S   UNL A   1      53.758  25.201  25.271  1.00  0.00     0.124 S 
ATOM     94  O   UNL A   1      53.593  23.756  25.395  1.00  0.00    -0.237 OA
ATOM     95  O   UNL A   1      53.900  25.708  23.910  1.00  0.00    -0.237 OA
ATOM     96  O   UNL A   1      54.638  25.820  26.259  1.00  0.00    -0.744 OA
ENDBRANCH  92  93
ENDBRANCH  60  85
ENDBRANCH  34  35
ENDBRANCH  26  29
ENDBRANCH  24  25
ENDBRANCH  23  24
ENDBRANCH   1  23
TORSDOF 18
ENDMDL
MODEL 3
REMARK VINA RESULT:     -11.0      2.649      4.420
REMARK SMILES C[C@H]([NH2+][C@@H](C)[C@@H](C)C(=O)NCCCCNC(=O)c1ccc(-c2c3nc(c(-c4c(F)cc(S(=O)(=O)[O-])cc4F)c4ccc([nH]4)c(-c4c(F)cc(S(=O)(=O)[O-])cc4F)c4nc(c(-c5c(F)cc(S(=O)(=O)[O-])cc5F)c5ccc2[nH]5)C=C4)C=C3)cc1)c1cccc(Br)c1
REMARK SMILES IDX 12 1 11 2 10 3 8 4 9 5 6 7 7 8 4 9 5 10 3 11 2 14 1 15 84 16
REMARK SMILES IDX 85 17 90 18 86 19 88 20 87 21 89 22 13 23 14 24 15 25 16 26
REMARK SMILES IDX 17 28 18 29 19 30 83 31 20 32 82 33 21 34 22 35 23 36 76 37
REMARK SMILES IDX 24 38 81 39 75 40 77 41 25 42 80 43 74 44 73 45 26 47 60 48
REMARK SMILES IDX 39 49 59 50 40 51 43 52 58 53 78 54 41 55 42 56 57 58 79 59
REMARK SMILES IDX 44 60 27 61 28 62 37 63 29 64 30 65 36 66 38 67 31 68 32 69
REMARK SMILES IDX 33 70 34 71 35 72 61 73 62 74 71 75 63 76 64 77 70 78 72 79
REMARK SMILES IDX 65 80 66 81 67 82 68 83 69 84 45 85 46 86 55 87 47 88 48 89
REMARK SMILES IDX 54 90 56 91 49 92 50 93 51 94 52 95 53 96
REMARK H PARENT 10 6 3 12 3 13 15 27 77 46 43 57
REMARK Flexibility Score: inf
ROOT
ATOM      1  C   UNL A   1      44.974  24.209  27.993  1.00  0.00     0.023 C 
ENDROOT
BRANCH   1   2
ATOM      2  C   UNL A   1      43.944  23.089  28.064  1.00  0.00     0.116 C 
BRANCH   2   3
ATOM      3  N   UNL A   1      43.567  22.651  26.734  1.00  0.00    -0.356 N 
ATOM      4  C   UNL A   1      42.351  22.280  26.248  1.00  0.00     0.228 C 
ATOM      5  O   UNL A   1      42.276  21.917  25.073  1.00  0.00    -0.275 OA
ATOM      6  H   UNL A   1      44.303  22.618  26.083  1.00  0.00     0.163 HD
BRANCH   4   7
ATOM      7  C   UNL A   1      41.106  22.342  27.125  1.00  0.00     0.133 C 
ATOM      8  C   UNL A   1      41.012  21.012  27.879  1.00  0.00     0.024 C 
BRANCH   7   9
ATOM      9  C   UNL A   1      39.846  22.815  26.340  1.00  0.00     0.192 C 
ATOM     10  C   UNL A   1      39.285  24.100  26.985  1.00  0.00     0.076 C 
BRANCH   9  11
ATOM     11  N   UNL A   1      38.712  21.882  26.342  1.00  0.00    -0.337 N 
ATOM     12  H   UNL A   1      39.015  21.062  26.866  1.00  0.00     0.347 HD
ATOM     13  H   UNL A   1      37.959  22.456  26.720  1.00  0.00     0.347 HD
BRANCH  11  14
ATOM     14  C   UNL A   1      38.128  21.381  25.089  1.00  0.00     0.210 C 
ATOM     15  C   UNL A   1      38.247  19.850  24.977  1.00  0.00     0.081 C 
BRANCH  14  16
ATOM     16  C   UNL A   1      36.747  21.953  24.768  1.00  0.00     0.010 A 
ATOM     17  C   UNL A   1      36.561  23.280  24.341  1.00  0.00     0.010 A 
ATOM     18  C   UNL A   1      35.597  21.153  24.912  1.00  0.00     0.025 A 
ATOM     19  C   UNL A   1      35.296  23.754  23.974  1.00  0.00     0.002 A 
ATOM     20  C   UNL A   1      34.342  21.619  24.511  1.00  0.00     0.018 A 
ATOM     21  C   UNL A   1      34.188  22.914  24.031  1.00  0.00     0.016 A 
ATOM     22  Br  UNL A   1      32.857  20.448  24.544  1.00  0.00    -0.051 Br
ENDBRANCH  14  16
ENDBRANCH  11  14
ENDBRANCH   9  11
ENDBRANCH   7   9
ENDBRANCH   4   7
ENDBRANCH   2   3
ENDBRANCH   1   2
BRANCH   1  23
ATOM     23  C   UNL A   1      45.541  24.426  26.590  1.00  0.00     0.023 C 
BRANCH  23  24
ATOM     24  C   UNL A   1      45.141  25.749  25.946  1.00  0.00     0.116 C 
BRANCH  24  25
ATOM     25  N   UNL A   1      43.877  25.666  25.229  1.00  0.00    -0.352 N 
ATOM     26  C   UNL A   1      42.625  26.035  25.663  1.00  0.00     0.251 C 
ATOM     27  H   UNL A   1      43.924  25.298  24.317  1.00  0.00     0.163 HD
ATOM     28  O   UNL A   1      41.633  25.763  25.002  1.00  0.00    -0.269 OA
BRANCH  26  29
ATOM     29  C   UNL A   1      42.506  26.736  26.956  1.00  0.00     0.039 A 
ATOM     30  C   UNL A   1      43.037  28.020  27.078  1.00  0.00     0.014 A 
ATOM     31  C   UNL A   1      41.811  26.146  28.016  1.00  0.00     0.014 A 
ATOM     32  C   UNL A   1      42.809  28.743  28.248  1.00  0.00     0.010 A 
ATOM     33  C   UNL A   1      41.520  26.897  29.149  1.00  0.00     0.010 A 
ATOM     34  C   UNL A   1      42.015  28.204  29.275  1.00  0.00    -0.014 A 
BRANCH  34  35
ATOM     35  C   UNL A   1      41.680  29.004  30.479  1.00  0.00     0.031 A 
ATOM     36  C   UNL A   1      42.485  28.847  31.740  1.00  0.00     0.074 A 
ATOM     37  C   UNL A   1      40.618  29.836  30.447  1.00  0.00     0.049 A 
ATOM     38  N   UNL A   1      42.325  29.435  32.898  1.00  0.00    -0.248 NA
ATOM     39  C   UNL A   1      43.598  27.883  31.706  1.00  0.00     0.031 C 
ATOM     40  C   UNL A   1      39.724  30.024  29.302  1.00  0.00     0.029 A 
ATOM     41  N   UNL A   1      40.108  30.675  31.404  1.00  0.00    -0.354 N 
ATOM     42  C   UNL A   1      43.312  28.914  33.726  1.00  0.00     0.074 A 
ATOM     43  C   UNL A   1      44.026  27.918  32.959  1.00  0.00     0.031 C 
ATOM     44  C   UNL A   1      38.794  30.940  29.614  1.00  0.00     0.029 A 
ATOM     45  C   UNL A   1      39.002  31.380  30.989  1.00  0.00     0.049 A 
ATOM     46  H   UNL A   1      40.496  30.764  32.305  1.00  0.00     0.167 HD
ATOM     47  C   UNL A   1      43.612  29.257  35.001  1.00  0.00     0.037 A 
ATOM     48  C   UNL A   1      38.241  32.278  31.645  1.00  0.00     0.037 A 
ATOM     49  C   UNL A   1      42.911  30.266  35.751  1.00  0.00     0.049 A 
ATOM     50  C   UNL A   1      38.603  32.644  33.060  1.00  0.00     0.074 A 
ATOM     51  C   UNL A   1      43.172  30.725  37.030  1.00  0.00     0.029 A 
ATOM     52  N   UNL A   1      41.812  30.975  35.289  1.00  0.00    -0.354 N 
ATOM     53  N   UNL A   1      39.584  32.192  33.804  1.00  0.00    -0.248 NA
ATOM     54  C   UNL A   1      37.760  33.650  33.721  1.00  0.00     0.031 C 
ATOM     55  C   UNL A   1      42.207  31.681  37.358  1.00  0.00     0.029 A 
ATOM     56  C   UNL A   1      41.373  31.855  36.265  1.00  0.00     0.049 A 
ATOM     57  H   UNL A   1      41.404  30.869  34.400  1.00  0.00     0.167 HD
ATOM     58  C   UNL A   1      39.490  32.875  35.012  1.00  0.00     0.074 A 
ATOM     59  C   UNL A   1      38.371  33.786  34.889  1.00  0.00     0.031 C 
ATOM     60  C   UNL A   1      40.258  32.757  36.124  1.00  0.00     0.037 A 
BRANCH  47  61
ATOM     61  C   UNL A   1      44.764  28.551  35.663  1.00  0.00     0.058 A 
ATOM     62  C   UNL A   1      44.569  27.390  36.429  1.00  0.00     0.135 A 
ATOM     63  C   UNL A   1      46.081  29.004  35.485  1.00  0.00     0.135 A 
ATOM     64  F   UNL A   1      43.329  26.923  36.647  1.00  0.00    -0.206 F 
ATOM     65  C   UNL A   1      45.636  26.712  37.007  1.00  0.00     0.059 A 
ATOM     66  C   UNL A   1      47.167  28.327  36.033  1.00  0.00     0.059 A 
ATOM     67  F   UNL A   1      46.324  30.112  34.766  1.00  0.00    -0.206 F 
ATOM     68  C   UNL A   1      46.933  27.186  36.800  1.00  0.00     0.060 A 
BRANCH  68  69
ATOM     69  S   UNL A   1      48.308  26.275  37.533  1.00  0.00     0.124 S 
ATOM     70  O   UNL A   1      49.368  26.515  36.559  1.00  0.00    -0.237 OA
ATOM     71  O   UNL A   1      48.469  26.940  38.822  1.00  0.00    -0.237 OA
ATOM     72  O   UNL A   1      47.813  24.903  37.596  1.00  0.00    -0.744 OA
ENDBRANCH  68  69
ENDBRANCH  47  61
BRANCH  48  73
ATOM     73  C   UNL A   1      37.074  32.908  30.971  1.00  0.00     0.058 A 
ATOM     74  C   UNL A   1      35.763  32.507  31.268  1.00  0.00     0.135 A 
ATOM     75  C   UNL A   1      37.245  33.912  30.006  1.00  0.00     0.135 A 
ATOM     76  F   UNL A   1      35.547  31.548  32.182  1.00  0.00    -0.206 F 
ATOM     77  C   UNL A   1      34.665  33.054  30.612  1.00  0.00     0.059 A 
ATOM     78  C   UNL A   1      36.162  34.495  29.356  1.00  0.00     0.059 A 
ATOM     79  F   UNL A   1      38.478  34.346  29.699  1.00  0.00    -0.206 F 
ATOM     80  C   UNL A   1      34.876  34.046  29.655  1.00  0.00     0.060 A 
BRANCH  80  81
ATOM     81  S   UNL A   1      33.445  34.767  28.822  1.00  0.00     0.124 S 
ATOM     82  O   UNL A   1      33.145  33.749  27.821  1.00  0.00    -0.237 OA
ATOM     83  O   UNL A   1      32.485  34.892  29.915  1.00  0.00    -0.237 OA
ATOM     84  O   UNL A   1      33.960  36.031  28.305  1.00  0.00    -0.744 OA
ENDBRANCH  80  81
ENDBRANCH  48  73
BRANCH  60  85
ATOM     85  C   UNL A   1      39.929  33.656  37.284  1.00  0.00     0.058 A 
ATOM     86  C   UNL A   1      40.475  34.943  37.397  1.00  0.00     0.135 A 
ATOM     87  C   UNL A   1      39.034  33.231  38.280  1.00  0.00     0.135 A 
ATOM     88  F   UNL A   1      41.340  35.394  36.474  1.00  0.00    -0.206 F 
ATOM     89  C   UNL A   1      40.173  35.768  38.476  1.00  0.00     0.059 A 
ATOM     90  C   UNL A   1      38.695  34.051  39.352  1.00  0.00     0.059 A 
ATOM     91  F   UNL A   1      38.473  32.013  38.213  1.00  0.00    -0.206 F 
ATOM     92  C   UNL A   1      39.282  35.311  39.449  1.00  0.00     0.060 A 
BRANCH  92  93
ATOM     93  S   UNL A   1      38.889  36.395  40.838  1.00  0.00     0.124 S 
ATOM     94  O   UNL A   1      40.154  36.413  41.564  1.00  0.00    -0.237 OA
ATOM     95  O   UNL A   1      38.524  37.641  40.169  1.00  0.00    -0.237 OA
ATOM     96  O   UNL A   1      37.790  35.705  41.506  1.00  0.00    -0.744 OA
ENDBRANCH  92  93
ENDBRANCH  60  85
ENDBRANCH  34  35
ENDBRANCH  26  29
ENDBRANCH  24  25
ENDBRANCH  23  24
ENDBRANCH   1  23
TORSDOF 18
ENDMDL
