MODEL 1
REMARK VINA RESULT:     -10.5      0.000      0.000
REMARK SMILES CN(CC(C)(C)O)C(=O)N[C@H]1CC[C@H](C(=O)NCCCCNC(=O)c2ccc(-c3c4nc(c(-c5c(F)cc(S(=O)(=O)[O-])cc5F)c5ccc([nH]5)c(-c5c(F)cc(S(=O)(=O)[O-])cc5F)c5nc(c(-c6c(F)cc(S(=O)(=O)[O-])cc6F)c6ccc3[nH]6)C=C5)C=C4)cc2)C1
REMARK SMILES IDX 18 1 17 2 15 3 16 4 14 6 11 7 12 8 91 9 13 10 10 11 8 12
REMARK SMILES IDX 9 13 2 15 1 16 3 17 4 18 5 19 6 20 7 21 19 23 20 24 21 25
REMARK SMILES IDX 22 26 23 27 24 29 25 30 26 31 90 32 27 33 89 34 28 35 29 36
REMARK SMILES IDX 30 37 83 38 31 39 88 40 82 41 84 42 32 43 87 44 81 45 80 46
REMARK SMILES IDX 33 48 67 49 46 50 66 51 47 52 50 53 65 54 85 55 48 56 49 57
REMARK SMILES IDX 64 59 86 60 51 61 34 62 35 63 44 64 36 65 37 66 43 67 45 68
REMARK SMILES IDX 38 69 39 70 40 71 41 72 42 73 68 74 69 75 78 76 70 77 71 78
REMARK SMILES IDX 77 79 79 80 72 81 73 82 74 83 75 84 76 85 52 86 53 87 62 88
REMARK SMILES IDX 54 89 55 90 61 91 63 92 56 93 57 94 58 95 59 96 60 97
REMARK H PARENT 17 5 10 14 7 22 22 28 84 47 50 58
REMARK Flexibility Score: inf
ROOT
ATOM      1  C   UNL A   1      34.410  20.882  25.619  1.00  0.00     0.116 C 
ENDROOT
BRANCH   1   2
ATOM      2  N   UNL A   1      33.868  21.277  26.906  1.00  0.00    -0.356 N 
ATOM      3  C   UNL A   1      33.136  22.360  27.282  1.00  0.00     0.223 C 
ATOM      4  O   UNL A   1      32.881  22.493  28.481  1.00  0.00    -0.275 OA
ATOM      5  H   UNL A   1      34.065  20.649  27.638  1.00  0.00     0.163 HD
BRANCH   3   6
ATOM      6  C   UNL A   1      32.526  23.302  26.263  1.00  0.00     0.080 C 
ATOM      7  C   UNL A   1      32.582  25.728  25.880  1.00  0.00     0.084 C 
ATOM      8  C   UNL A   1      31.123  25.292  26.109  1.00  0.00     0.026 C 
ATOM      9  C   UNL A   1      33.431  24.506  26.132  1.00  0.00     0.038 C 
ATOM     10  C   UNL A   1      31.123  23.817  26.507  1.00  0.00     0.015 C 
BRANCH   7  11
ATOM     11  N   UNL A   1      32.781  26.324  24.572  1.00  0.00    -0.335 N 
ATOM     12  C   UNL A   1      32.685  27.550  24.029  1.00  0.00     0.317 C 
ATOM     13  O   UNL A   1      33.122  27.625  22.873  1.00  0.00    -0.249 OA
ATOM     14  H   UNL A   1      33.060  25.654  23.907  1.00  0.00     0.165 HD
BRANCH  12  15
ATOM     15  N   UNL A   1      32.244  28.659  24.694  1.00  0.00    -0.325 N 
ATOM     16  C   UNL A   1      30.801  28.868  24.608  1.00  0.00     0.148 C 
BRANCH  15  17
ATOM     17  C   UNL A   1      32.960  29.722  25.429  1.00  0.00     0.155 C 
BRANCH  17  18
ATOM     18  C   UNL A   1      33.480  29.526  26.880  1.00  0.00     0.077 C 
ATOM     19  C   UNL A   1      34.797  28.784  27.075  1.00  0.00     0.043 C 
ATOM     20  C   UNL A   1      33.600  30.931  27.509  1.00  0.00     0.043 C 
BRANCH  18  21
ATOM     21  O   UNL A   1      32.475  28.813  27.618  1.00  0.00    -0.389 OA
ATOM     22  H   UNL A   1      32.754  27.891  27.735  1.00  0.00     0.211 HD
ENDBRANCH  18  21
ENDBRANCH  17  18
ENDBRANCH  15  17
ENDBRANCH  12  15
ENDBRANCH   7  11
ENDBRANCH   3   6
ENDBRANCH   1   2
BRANCH   1  23
ATOM     23  C   UNL A   1      35.859  21.341  25.486  1.00  0.00     0.023 C 
BRANCH  23  24
ATOM     24  C   UNL A   1      36.007  22.728  24.857  1.00  0.00     0.023 C 
BRANCH  24  25
ATOM     25  C   UNL A   1      37.224  23.512  25.337  1.00  0.00     0.116 C 
BRANCH  25  26
ATOM     26  N   UNL A   1      38.396  22.666  25.503  1.00  0.00    -0.352 N 
ATOM     27  C   UNL A   1      39.610  22.982  26.073  1.00  0.00     0.251 C 
ATOM     28  H   UNL A   1      38.311  21.746  25.163  1.00  0.00     0.163 HD
ATOM     29  O   UNL A   1      40.559  22.223  25.982  1.00  0.00    -0.269 OA
BRANCH  27  30
ATOM     30  C   UNL A   1      39.736  24.277  26.773  1.00  0.00     0.039 A 
ATOM     31  C   UNL A   1      39.122  24.446  28.015  1.00  0.00     0.014 A 
ATOM     32  C   UNL A   1      40.535  25.283  26.225  1.00  0.00     0.014 A 
ATOM     33  C   UNL A   1      39.376  25.605  28.751  1.00  0.00     0.010 A 
ATOM     34  C   UNL A   1      40.848  26.397  26.993  1.00  0.00     0.010 A 
ATOM     35  C   UNL A   1      40.275  26.568  28.264  1.00  0.00    -0.014 A 
BRANCH  35  36
ATOM     36  C   UNL A   1      40.646  27.771  29.050  1.00  0.00     0.031 A 
ATOM     37  C   UNL A   1      41.897  27.750  29.882  1.00  0.00     0.074 A 
ATOM     38  C   UNL A   1      39.803  28.821  29.116  1.00  0.00     0.049 A 
ATOM     39  N   UNL A   1      42.308  28.606  30.779  1.00  0.00    -0.248 NA
ATOM     40  C   UNL A   1      42.778  26.583  29.712  1.00  0.00     0.031 C 
ATOM     41  C   UNL A   1      38.535  28.935  28.394  1.00  0.00     0.029 A 
ATOM     42  N   UNL A   1      39.871  29.977  29.853  1.00  0.00    -0.354 N 
ATOM     43  C   UNL A   1      43.472  28.064  31.311  1.00  0.00     0.074 A 
ATOM     44  C   UNL A   1      43.678  26.787  30.663  1.00  0.00     0.031 C 
ATOM     45  C   UNL A   1      37.943  30.094  28.725  1.00  0.00     0.029 A 
ATOM     46  C   UNL A   1      38.767  30.784  29.714  1.00  0.00     0.049 A 
ATOM     47  H   UNL A   1      40.637  30.205  30.427  1.00  0.00     0.167 HD
ATOM     48  C   UNL A   1      44.299  28.589  32.245  1.00  0.00     0.037 A 
ATOM     49  C   UNL A   1      38.443  31.939  30.331  1.00  0.00     0.037 A 
ATOM     50  C   UNL A   1      44.106  29.879  32.850  1.00  0.00     0.049 A 
ATOM     51  C   UNL A   1      39.392  32.527  31.337  1.00  0.00     0.074 A 
ATOM     52  C   UNL A   1      44.932  30.543  33.740  1.00  0.00     0.029 A 
ATOM     53  N   UNL A   1      43.010  30.701  32.629  1.00  0.00    -0.354 N 
ATOM     54  N   UNL A   1      40.526  32.037  31.777  1.00  0.00    -0.248 NA
ATOM     55  C   UNL A   1      39.026  33.822  31.927  1.00  0.00     0.031 C 
ATOM     56  C   UNL A   1      44.315  31.749  34.088  1.00  0.00     0.029 A 
ATOM     57  C   UNL A   1      43.128  31.858  33.378  1.00  0.00     0.049 A 
ATOM     58  H   UNL A   1      42.259  30.492  32.027  1.00  0.00     0.167 HD
ATOM     59  C   UNL A   1      41.025  32.975  32.674  1.00  0.00     0.074 A 
ATOM     60  C   UNL A   1      40.067  34.062  32.716  1.00  0.00     0.031 C 
ATOM     61  C   UNL A   1      42.173  32.940  33.393  1.00  0.00     0.037 A 
BRANCH  48  62
ATOM     62  C   UNL A   1      45.477  27.757  32.672  1.00  0.00     0.058 A 
ATOM     63  C   UNL A   1      46.717  27.840  32.020  1.00  0.00     0.135 A 
ATOM     64  C   UNL A   1      45.359  26.860  33.746  1.00  0.00     0.135 A 
ATOM     65  F   UNL A   1      46.881  28.671  30.978  1.00  0.00    -0.206 F 
ATOM     66  C   UNL A   1      47.784  27.024  32.382  1.00  0.00     0.059 A 
ATOM     67  C   UNL A   1      46.422  26.057  34.146  1.00  0.00     0.059 A 
ATOM     68  F   UNL A   1      44.196  26.744  34.406  1.00  0.00    -0.206 F 
ATOM     69  C   UNL A   1      47.624  26.129  33.441  1.00  0.00     0.060 A 
BRANCH  69  70
ATOM     70  S   UNL A   1      49.003  25.051  33.877  1.00  0.00     0.124 S 
ATOM     71  O   UNL A   1      49.709  24.956  32.603  1.00  0.00    -0.237 OA
ATOM     72  O   UNL A   1      49.682  25.814  34.921  1.00  0.00    -0.237 OA
ATOM     73  O   UNL A   1      48.349  23.827  34.326  1.00  0.00    -0.744 OA
ENDBRANCH  69  70
ENDBRANCH  48  62
BRANCH  49  74
ATOM     74  C   UNL A   1      37.163  32.613  29.987  1.00  0.00     0.058 A 
ATOM     75  C   UNL A   1      35.976  32.292  30.662  1.00  0.00     0.135 A 
ATOM     76  C   UNL A   1      37.115  33.639  29.030  1.00  0.00     0.135 A 
ATOM     77  F   UNL A   1      35.971  31.313  31.580  1.00  0.00    -0.206 F 
ATOM     78  C   UNL A   1      34.787  32.966  30.404  1.00  0.00     0.059 A 
ATOM     79  C   UNL A   1      35.943  34.342  28.769  1.00  0.00     0.059 A 
ATOM     80  F   UNL A   1      38.228  33.995  28.370  1.00  0.00    -0.206 F 
ATOM     81  C   UNL A   1      34.782  33.997  29.464  1.00  0.00     0.060 A 
BRANCH  81  82
ATOM     82  S   UNL A   1      33.256  34.930  29.209  1.00  0.00     0.124 S 
ATOM     83  O   UNL A   1      33.770  36.218  28.757  1.00  0.00    -0.237 OA
ATOM     84  O   UNL A   1      32.571  34.126  28.202  1.00  0.00    -0.237 OA
ATOM     85  O   UNL A   1      32.635  34.924  30.531  1.00  0.00    -0.744 OA
ENDBRANCH  81  82
ENDBRANCH  49  74
BRANCH  61  86
ATOM     86  C   UNL A   1      42.500  34.123  34.260  1.00  0.00     0.058 A 
ATOM     87  C   UNL A   1      42.180  34.145  35.625  1.00  0.00     0.135 A 
ATOM     88  C   UNL A   1      43.249  35.190  33.739  1.00  0.00     0.135 A 
ATOM     89  F   UNL A   1      41.458  33.153  36.167  1.00  0.00    -0.206 F 
ATOM     90  C   UNL A   1      42.599  35.186  36.448  1.00  0.00     0.059 A 
ATOM     91  C   UNL A   1      43.697  36.229  34.549  1.00  0.00     0.059 A 
ATOM     92  F   UNL A   1      43.586  35.210  32.440  1.00  0.00    -0.206 F 
ATOM     93  C   UNL A   1      43.368  36.217  35.904  1.00  0.00     0.060 A 
BRANCH  93  94
ATOM     94  S   UNL A   1      43.983  37.513  37.000  1.00  0.00     0.124 S 
ATOM     95  O   UNL A   1      42.920  37.587  37.995  1.00  0.00    -0.237 OA
ATOM     96  O   UNL A   1      45.249  36.953  37.466  1.00  0.00    -0.237 OA
ATOM     97  O   UNL A   1      44.105  38.673  36.121  1.00  0.00    -0.744 OA
ENDBRANCH  93  94
ENDBRANCH  61  86
ENDBRANCH  35  36
ENDBRANCH  27  30
ENDBRANCH  25  26
ENDBRANCH  24  25
ENDBRANCH  23  24
ENDBRANCH   1  23
TORSDOF 19
ENDMDL
MODEL 2
REMARK VINA RESULT:     -10.4      4.964     10.763
REMARK SMILES CN(CC(C)(C)O)C(=O)N[C@H]1CC[C@H](C(=O)NCCCCNC(=O)c2ccc(-c3c4nc(c(-c5c(F)cc(S(=O)(=O)[O-])cc5F)c5ccc([nH]5)c(-c5c(F)cc(S(=O)(=O)[O-])cc5F)c5nc(c(-c6c(F)cc(S(=O)(=O)[O-])cc6F)c6ccc3[nH]6)C=C5)C=C4)cc2)C1
REMARK SMILES IDX 18 1 17 2 15 3 16 4 14 6 11 7 12 8 91 9 13 10 10 11 8 12
REMARK SMILES IDX 9 13 2 15 1 16 3 17 4 18 5 19 6 20 7 21 19 23 20 24 21 25
REMARK SMILES IDX 22 26 23 27 24 29 25 30 26 31 90 32 27 33 89 34 28 35 29 36
REMARK SMILES IDX 30 37 83 38 31 39 88 40 82 41 84 42 32 43 87 44 81 45 80 46
REMARK SMILES IDX 33 48 67 49 46 50 66 51 47 52 50 53 65 54 85 55 48 56 49 57
REMARK SMILES IDX 64 59 86 60 51 61 34 62 35 63 44 64 36 65 37 66 43 67 45 68
REMARK SMILES IDX 38 69 39 70 40 71 41 72 42 73 68 74 69 75 78 76 70 77 71 78
REMARK SMILES IDX 77 79 79 80 72 81 73 82 74 83 75 84 76 85 52 86 53 87 62 88
REMARK SMILES IDX 54 89 55 90 61 91 63 92 56 93 57 94 58 95 59 96 60 97
REMARK H PARENT 17 5 10 14 7 22 22 28 84 47 50 58
REMARK Flexibility Score: inf
ROOT
ATOM      1  C   UNL A   1      31.650  30.373  26.124  1.00  0.00     0.116 C 
ENDROOT
BRANCH   1   2
ATOM      2  N   UNL A   1      32.011  30.017  24.764  1.00  0.00    -0.356 N 
ATOM      3  C   UNL A   1      31.724  28.920  24.013  1.00  0.00     0.223 C 
ATOM      4  O   UNL A   1      32.244  28.834  22.898  1.00  0.00    -0.275 OA
ATOM      5  H   UNL A   1      32.563  30.689  24.302  1.00  0.00     0.163 HD
BRANCH   3   6
ATOM      6  C   UNL A   1      30.693  27.900  24.454  1.00  0.00     0.080 C 
ATOM      7  C   UNL A   1      30.583  25.446  24.515  1.00  0.00     0.084 C 
ATOM      8  C   UNL A   1      29.443  25.975  23.626  1.00  0.00     0.026 C 
ATOM      9  C   UNL A   1      31.421  26.647  24.882  1.00  0.00     0.038 C 
ATOM     10  C   UNL A   1      29.623  27.484  23.466  1.00  0.00     0.015 C 
BRANCH   7  11
ATOM     11  N   UNL A   1      30.091  24.699  25.657  1.00  0.00    -0.335 N 
ATOM     12  C   UNL A   1      30.518  23.673  26.414  1.00  0.00     0.317 C 
ATOM     13  O   UNL A   1      29.824  23.466  27.418  1.00  0.00    -0.249 OA
ATOM     14  H   UNL A   1      29.214  25.030  25.957  1.00  0.00     0.165 HD
BRANCH  12  15
ATOM     15  N   UNL A   1      31.662  22.964  26.183  1.00  0.00    -0.325 N 
ATOM     16  C   UNL A   1      32.871  23.606  26.693  1.00  0.00     0.148 C 
BRANCH  15  17
ATOM     17  C   UNL A   1      31.916  21.702  25.458  1.00  0.00     0.155 C 
BRANCH  17  18
ATOM     18  C   UNL A   1      32.520  21.672  24.027  1.00  0.00     0.077 C 
ATOM     19  C   UNL A   1      33.952  22.156  23.843  1.00  0.00     0.043 C 
ATOM     20  C   UNL A   1      32.415  20.215  23.526  1.00  0.00     0.043 C 
BRANCH  18  21
ATOM     21  O   UNL A   1      31.685  22.475  23.177  1.00  0.00    -0.389 OA
ATOM     22  H   UNL A   1      31.535  23.338  23.595  1.00  0.00     0.211 HD
ENDBRANCH  18  21
ENDBRANCH  17  18
ENDBRANCH  15  17
ENDBRANCH  12  15
ENDBRANCH   7  11
ENDBRANCH   3   6
ENDBRANCH   1   2
BRANCH   1  23
ATOM     23  C   UNL A   1      32.899  30.519  26.988  1.00  0.00     0.023 C 
BRANCH  23  24
ATOM     24  C   UNL A   1      33.616  29.195  27.258  1.00  0.00     0.023 C 
BRANCH  24  25
ATOM     25  C   UNL A   1      35.046  29.344  27.768  1.00  0.00     0.116 C 
BRANCH  25  26
ATOM     26  N   UNL A   1      35.168  30.388  28.775  1.00  0.00    -0.352 N 
ATOM     27  C   UNL A   1      36.250  30.689  29.574  1.00  0.00     0.251 C 
ATOM     28  H   UNL A   1      34.372  30.953  28.904  1.00  0.00     0.163 HD
ATOM     29  O   UNL A   1      36.144  31.479  30.496  1.00  0.00    -0.269 OA
BRANCH  27  30
ATOM     30  C   UNL A   1      37.532  30.011  29.296  1.00  0.00     0.039 A 
ATOM     31  C   UNL A   1      37.996  29.933  27.982  1.00  0.00     0.014 A 
ATOM     32  C   UNL A   1      38.302  29.530  30.358  1.00  0.00     0.014 A 
ATOM     33  C   UNL A   1      39.279  29.442  27.738  1.00  0.00     0.010 A 
ATOM     34  C   UNL A   1      39.606  29.116  30.119  1.00  0.00     0.010 A 
ATOM     35  C   UNL A   1      40.109  29.071  28.808  1.00  0.00    -0.014 A 
BRANCH  35  36
ATOM     36  C   UNL A   1      41.511  28.629  28.605  1.00  0.00     0.031 A 
ATOM     37  C   UNL A   1      42.611  29.652  28.590  1.00  0.00     0.074 A 
ATOM     38  C   UNL A   1      41.777  27.341  28.309  1.00  0.00     0.049 A 
ATOM     39  N   UNL A   1      43.865  29.514  28.248  1.00  0.00    -0.248 NA
ATOM     40  C   UNL A   1      42.236  31.024  28.969  1.00  0.00     0.031 C 
ATOM     41  C   UNL A   1      40.786  26.265  28.242  1.00  0.00     0.029 A 
ATOM     42  N   UNL A   1      42.957  26.726  27.973  1.00  0.00    -0.354 N 
ATOM     43  C   UNL A   1      44.418  30.787  28.328  1.00  0.00     0.074 A 
ATOM     44  C   UNL A   1      43.354  31.688  28.714  1.00  0.00     0.031 C 
ATOM     45  C   UNL A   1      41.398  25.125  27.885  1.00  0.00     0.029 A 
ATOM     46  C   UNL A   1      42.815  25.396  27.655  1.00  0.00     0.049 A 
ATOM     47  H   UNL A   1      43.823  27.193  27.959  1.00  0.00     0.167 HD
ATOM     48  C   UNL A   1      45.699  31.166  28.112  1.00  0.00     0.037 A 
ATOM     49  C   UNL A   1      43.717  24.500  27.208  1.00  0.00     0.037 A 
ATOM     50  C   UNL A   1      46.757  30.254  27.771  1.00  0.00     0.049 A 
ATOM     51  C   UNL A   1      45.145  24.930  27.011  1.00  0.00     0.074 A 
ATOM     52  C   UNL A   1      48.106  30.521  27.618  1.00  0.00     0.029 A 
ATOM     53  N   UNL A   1      46.586  28.898  27.529  1.00  0.00    -0.354 N 
ATOM     54  N   UNL A   1      45.669  26.122  27.161  1.00  0.00    -0.248 NA
ATOM     55  C   UNL A   1      46.104  23.900  26.590  1.00  0.00     0.031 C 
ATOM     56  C   UNL A   1      48.745  29.334  27.244  1.00  0.00     0.029 A 
ATOM     57  C   UNL A   1      47.801  28.318  27.210  1.00  0.00     0.049 A 
ATOM     58  H   UNL A   1      45.726  28.420  27.577  1.00  0.00     0.167 HD
ATOM     59  C   UNL A   1      47.024  25.982  26.881  1.00  0.00     0.074 A 
ATOM     60  C   UNL A   1      47.238  24.587  26.551  1.00  0.00     0.031 C 
ATOM     61  C   UNL A   1      48.000  26.922  26.902  1.00  0.00     0.037 A 
BRANCH  48  62
ATOM     62  C   UNL A   1      46.016  32.632  28.228  1.00  0.00     0.058 A 
ATOM     63  C   UNL A   1      46.407  33.211  29.445  1.00  0.00     0.135 A 
ATOM     64  C   UNL A   1      45.920  33.468  27.105  1.00  0.00     0.135 A 
ATOM     65  F   UNL A   1      46.502  32.459  30.553  1.00  0.00    -0.206 F 
ATOM     66  C   UNL A   1      46.640  34.578  29.557  1.00  0.00     0.059 A 
ATOM     67  C   UNL A   1      46.178  34.833  27.187  1.00  0.00     0.059 A 
ATOM     68  F   UNL A   1      45.552  32.966  25.915  1.00  0.00    -0.206 F 
ATOM     69  C   UNL A   1      46.514  35.382  28.424  1.00  0.00     0.060 A 
BRANCH  69  70
ATOM     70  S   UNL A   1      46.783  37.158  28.591  1.00  0.00     0.124 S 
ATOM     71  O   UNL A   1      48.078  37.192  29.265  1.00  0.00    -0.237 OA
ATOM     72  O   UNL A   1      46.780  37.610  27.203  1.00  0.00    -0.237 OA
ATOM     73  O   UNL A   1      45.646  37.600  29.392  1.00  0.00    -0.744 OA
ENDBRANCH  69  70
ENDBRANCH  48  62
BRANCH  49  74
ATOM     74  C   UNL A   1      43.285  23.103  26.937  1.00  0.00     0.058 A 
ATOM     75  C   UNL A   1      43.222  22.611  25.626  1.00  0.00     0.135 A 
ATOM     76  C   UNL A   1      42.995  22.215  27.985  1.00  0.00     0.135 A 
ATOM     77  F   UNL A   1      43.484  23.424  24.591  1.00  0.00    -0.206 F 
ATOM     78  C   UNL A   1      42.893  21.285  25.361  1.00  0.00     0.059 A 
ATOM     79  C   UNL A   1      42.683  20.881  27.747  1.00  0.00     0.059 A 
ATOM     80  F   UNL A   1      43.058  22.635  29.258  1.00  0.00    -0.206 F 
ATOM     81  C   UNL A   1      42.634  20.424  26.429  1.00  0.00     0.060 A 
BRANCH  81  82
ATOM     82  S   UNL A   1      42.304  18.684  26.078  1.00  0.00     0.124 S 
ATOM     83  O   UNL A   1      40.890  18.719  25.719  1.00  0.00    -0.237 OA
ATOM     84  O   UNL A   1      43.233  18.411  24.986  1.00  0.00    -0.237 OA
ATOM     85  O   UNL A   1      42.620  18.021  27.339  1.00  0.00    -0.744 OA
ENDBRANCH  81  82
ENDBRANCH  49  74
BRANCH  61  86
ATOM     86  C   UNL A   1      49.406  26.485  26.604  1.00  0.00     0.058 A 
ATOM     87  C   UNL A   1      49.933  26.538  25.306  1.00  0.00     0.135 A 
ATOM     88  C   UNL A   1      50.268  26.128  27.654  1.00  0.00     0.135 A 
ATOM     89  F   UNL A   1      49.147  26.866  24.269  1.00  0.00    -0.206 F 
ATOM     90  C   UNL A   1      51.273  26.256  25.058  1.00  0.00     0.059 A 
ATOM     91  C   UNL A   1      51.615  25.864  27.431  1.00  0.00     0.059 A 
ATOM     92  F   UNL A   1      49.812  26.071  28.914  1.00  0.00    -0.206 F 
ATOM     93  C   UNL A   1      52.110  25.931  26.129  1.00  0.00     0.060 A 
BRANCH  93  94
ATOM     94  S   UNL A   1      53.865  25.658  25.807  1.00  0.00     0.124 S 
ATOM     95  O   UNL A   1      54.213  26.848  25.039  1.00  0.00    -0.237 OA
ATOM     96  O   UNL A   1      54.423  25.588  27.155  1.00  0.00    -0.237 OA
ATOM     97  O   UNL A   1      53.882  24.402  25.063  1.00  0.00    -0.744 OA
ENDBRANCH  93  94
ENDBRANCH  61  86
ENDBRANCH  35  36
ENDBRANCH  27  30
ENDBRANCH  25  26
ENDBRANCH  24  25
ENDBRANCH  23  24
ENDBRANCH   1  23
TORSDOF 19
ENDMDL
MODEL 3
REMARK VINA RESULT:     -10.1      2.924      9.063
REMARK SMILES CN(CC(C)(C)O)C(=O)N[C@H]1CC[C@H](C(=O)NCCCCNC(=O)c2ccc(-c3c4nc(c(-c5c(F)cc(S(=O)(=O)[O-])cc5F)c5ccc([nH]5)c(-c5c(F)cc(S(=O)(=O)[O-])cc5F)c5nc(c(-c6c(F)cc(S(=O)(=O)[O-])cc6F)c6ccc3[nH]6)C=C5)C=C4)cc2)C1
REMARK SMILES IDX 18 1 17 2 15 3 16 4 14 6 11 7 12 8 91 9 13 10 10 11 8 12
REMARK SMILES IDX 9 13 2 15 1 16 3 17 4 18 5 19 6 20 7 21 19 23 20 24 21 25
REMARK SMILES IDX 22 26 23 27 24 29 25 30 26 31 90 32 27 33 89 34 28 35 29 36
REMARK SMILES IDX 30 37 83 38 31 39 88 40 82 41 84 42 32 43 87 44 81 45 80 46
REMARK SMILES IDX 33 48 67 49 46 50 66 51 47 52 50 53 65 54 85 55 48 56 49 57
REMARK SMILES IDX 64 59 86 60 51 61 34 62 35 63 44 64 36 65 37 66 43 67 45 68
REMARK SMILES IDX 38 69 39 70 40 71 41 72 42 73 68 74 69 75 78 76 70 77 71 78
REMARK SMILES IDX 77 79 79 80 72 81 73 82 74 83 75 84 76 85 52 86 53 87 62 88
REMARK SMILES IDX 54 89 55 90 61 91 63 92 56 93 57 94 58 95 59 96 60 97
REMARK H PARENT 17 5 10 14 7 22 22 28 84 47 50 58
REMARK Flexibility Score: inf
ROOT
ATOM      1  C   UNL A   1      37.468  23.278  24.949  1.00  0.00     0.116 C 
ENDROOT
BRANCH   1   2
ATOM      2  N   UNL A   1      37.487  21.831  24.833  1.00  0.00    -0.356 N 
ATOM      3  C   UNL A   1      36.512  20.899  25.009  1.00  0.00     0.223 C 
ATOM      4  O   UNL A   1      36.833  19.711  24.933  1.00  0.00    -0.275 OA
ATOM      5  H   UNL A   1      38.363  21.457  24.583  1.00  0.00     0.163 HD
BRANCH   3   6
ATOM      6  C   UNL A   1      35.054  21.289  25.150  1.00  0.00     0.080 C 
ATOM      7  C   UNL A   1      33.353  21.065  26.909  1.00  0.00     0.084 C 
ATOM      8  C   UNL A   1      32.866  20.330  25.646  1.00  0.00     0.026 C 
ATOM      9  C   UNL A   1      34.765  21.512  26.617  1.00  0.00     0.038 C 
ATOM     10  C   UNL A   1      34.000  20.338  24.622  1.00  0.00     0.015 C 
BRANCH   7  11
ATOM     11  N   UNL A   1      32.462  22.143  27.297  1.00  0.00    -0.335 N 
ATOM     12  C   UNL A   1      32.086  23.332  26.796  1.00  0.00     0.317 C 
ATOM     13  O   UNL A   1      31.147  23.861  27.405  1.00  0.00    -0.249 OA
ATOM     14  H   UNL A   1      32.015  21.952  28.154  1.00  0.00     0.165 HD
BRANCH  12  15
ATOM     15  N   UNL A   1      32.601  23.891  25.661  1.00  0.00    -0.325 N 
ATOM     16  C   UNL A   1      33.671  24.855  25.907  1.00  0.00     0.148 C 
BRANCH  15  17
ATOM     17  C   UNL A   1      32.236  23.754  24.236  1.00  0.00     0.155 C 
BRANCH  17  18
ATOM     18  C   UNL A   1      31.167  24.656  23.560  1.00  0.00     0.077 C 
ATOM     19  C   UNL A   1      30.472  25.708  24.416  1.00  0.00     0.043 C 
ATOM     20  C   UNL A   1      31.857  25.356  22.370  1.00  0.00     0.043 C 
BRANCH  18  21
ATOM     21  O   UNL A   1      30.146  23.802  23.019  1.00  0.00    -0.389 OA
ATOM     22  H   UNL A   1      30.507  23.301  22.271  1.00  0.00     0.211 HD
ENDBRANCH  18  21
ENDBRANCH  17  18
ENDBRANCH  15  17
ENDBRANCH  12  15
ENDBRANCH   7  11
ENDBRANCH   3   6
ENDBRANCH   1   2
BRANCH   1  23
ATOM     23  C   UNL A   1      38.196  23.723  26.214  1.00  0.00     0.023 C 
BRANCH  23  24
ATOM     24  C   UNL A   1      39.369  22.819  26.596  1.00  0.00     0.023 C 
BRANCH  24  25
ATOM     25  C   UNL A   1      40.643  23.565  26.977  1.00  0.00     0.116 C 
BRANCH  25  26
ATOM     26  N   UNL A   1      41.074  24.488  25.938  1.00  0.00    -0.352 N 
ATOM     27  C   UNL A   1      41.285  25.847  26.028  1.00  0.00     0.251 C 
ATOM     28  H   UNL A   1      41.237  24.089  25.052  1.00  0.00     0.163 HD
ATOM     29  O   UNL A   1      41.475  26.517  25.028  1.00  0.00    -0.269 OA
BRANCH  27  30
ATOM     30  C   UNL A   1      41.247  26.471  27.367  1.00  0.00     0.039 A 
ATOM     31  C   UNL A   1      42.193  27.445  27.695  1.00  0.00     0.014 A 
ATOM     32  C   UNL A   1      40.220  26.141  28.254  1.00  0.00     0.014 A 
ATOM     33  C   UNL A   1      42.059  28.151  28.891  1.00  0.00     0.010 A 
ATOM     34  C   UNL A   1      40.045  26.899  29.404  1.00  0.00     0.010 A 
ATOM     35  C   UNL A   1      40.960  27.914  29.733  1.00  0.00    -0.014 A 
BRANCH  35  36
ATOM     36  C   UNL A   1      40.726  28.701  30.969  1.00  0.00     0.031 A 
ATOM     37  C   UNL A   1      39.645  29.745  30.984  1.00  0.00     0.074 A 
ATOM     38  C   UNL A   1      41.559  28.571  32.020  1.00  0.00     0.049 A 
ATOM     39  N   UNL A   1      39.394  30.663  31.878  1.00  0.00    -0.248 NA
ATOM     40  C   UNL A   1      38.756  29.785  29.811  1.00  0.00     0.031 C 
ATOM     41  C   UNL A   1      42.677  27.629  32.104  1.00  0.00     0.029 A 
ATOM     42  N   UNL A   1      41.616  29.258  33.207  1.00  0.00    -0.354 N 
ATOM     43  C   UNL A   1      38.349  31.417  31.359  1.00  0.00     0.074 A 
ATOM     44  C   UNL A   1      38.039  30.871  30.056  1.00  0.00     0.031 C 
ATOM     45  C   UNL A   1      43.310  27.800  33.276  1.00  0.00     0.029 A 
ATOM     46  C   UNL A   1      42.671  28.890  34.008  1.00  0.00     0.049 A 
ATOM     47  H   UNL A   1      40.963  29.950  33.460  1.00  0.00     0.167 HD
ATOM     48  C   UNL A   1      37.698  32.461  31.924  1.00  0.00     0.037 A 
ATOM     49  C   UNL A   1      43.092  29.389  35.188  1.00  0.00     0.037 A 
ATOM     50  C   UNL A   1      37.986  32.966  33.239  1.00  0.00     0.049 A 
ATOM     51  C   UNL A   1      42.333  30.523  35.819  1.00  0.00     0.074 A 
ATOM     52  C   UNL A   1      37.328  33.961  33.940  1.00  0.00     0.029 A 
ATOM     53  N   UNL A   1      39.019  32.518  34.051  1.00  0.00    -0.354 N 
ATOM     54  N   UNL A   1      41.300  31.180  35.349  1.00  0.00    -0.248 NA
ATOM     55  C   UNL A   1      42.789  30.983  37.138  1.00  0.00     0.031 C 
ATOM     56  C   UNL A   1      37.988  34.142  35.161  1.00  0.00     0.029 A 
ATOM     57  C   UNL A   1      39.028  33.227  35.239  1.00  0.00     0.049 A 
ATOM     58  H   UNL A   1      39.651  31.801  33.815  1.00  0.00     0.167 HD
ATOM     59  C   UNL A   1      40.963  32.111  36.324  1.00  0.00     0.074 A 
ATOM     60  C   UNL A   1      41.905  31.935  37.412  1.00  0.00     0.031 C 
ATOM     61  C   UNL A   1      39.962  33.025  36.320  1.00  0.00     0.037 A 
BRANCH  48  62
ATOM     62  C   UNL A   1      36.622  33.127  31.112  1.00  0.00     0.058 A 
ATOM     63  C   UNL A   1      36.925  34.011  30.064  1.00  0.00     0.135 A 
ATOM     64  C   UNL A   1      35.268  32.881  31.391  1.00  0.00     0.135 A 
ATOM     65  F   UNL A   1      38.202  34.292  29.763  1.00  0.00    -0.206 F 
ATOM     66  C   UNL A   1      35.924  34.669  29.357  1.00  0.00     0.059 A 
ATOM     67  C   UNL A   1      34.250  33.505  30.677  1.00  0.00     0.059 A 
ATOM     68  F   UNL A   1      34.922  32.043  32.381  1.00  0.00    -0.206 F 
ATOM     69  C   UNL A   1      34.589  34.416  29.677  1.00  0.00     0.060 A 
BRANCH  69  70
ATOM     70  S   UNL A   1      33.302  35.304  28.777  1.00  0.00     0.124 S 
ATOM     71  O   UNL A   1      34.098  36.206  27.949  1.00  0.00    -0.237 OA
ATOM     72  O   UNL A   1      32.617  34.230  28.064  1.00  0.00    -0.237 OA
ATOM     73  O   UNL A   1      32.527  35.943  29.835  1.00  0.00    -0.744 OA
ENDBRANCH  69  70
ENDBRANCH  48  62
BRANCH  49  74
ATOM     74  C   UNL A   1      44.284  28.793  35.847  1.00  0.00     0.058 A 
ATOM     75  C   UNL A   1      45.564  29.325  35.634  1.00  0.00     0.135 A 
ATOM     76  C   UNL A   1      44.159  27.729  36.754  1.00  0.00     0.135 A 
ATOM     77  F   UNL A   1      45.735  30.338  34.770  1.00  0.00    -0.206 F 
ATOM     78  C   UNL A   1      46.679  28.827  36.301  1.00  0.00     0.059 A 
ATOM     79  C   UNL A   1      45.256  27.228  37.448  1.00  0.00     0.059 A 
ATOM     80  F   UNL A   1      42.953  27.198  37.004  1.00  0.00    -0.206 F 
ATOM     81  C   UNL A   1      46.514  27.785  37.214  1.00  0.00     0.060 A 
BRANCH  81  82
ATOM     82  S   UNL A   1      47.952  27.213  38.145  1.00  0.00     0.124 S 
ATOM     83  O   UNL A   1      47.881  25.771  37.941  1.00  0.00    -0.237 OA
ATOM     84  O   UNL A   1      49.047  27.901  37.468  1.00  0.00    -0.237 OA
ATOM     85  O   UNL A   1      47.678  27.674  39.503  1.00  0.00    -0.744 OA
ENDBRANCH  81  82
ENDBRANCH  49  74
BRANCH  61  86
ATOM     86  C   UNL A   1      39.787  33.885  37.540  1.00  0.00     0.058 A 
ATOM     87  C   UNL A   1      39.019  33.463  38.634  1.00  0.00     0.135 A 
ATOM     88  C   UNL A   1      40.498  35.090  37.657  1.00  0.00     0.135 A 
ATOM     89  F   UNL A   1      38.315  32.323  38.567  1.00  0.00    -0.206 F 
ATOM     90  C   UNL A   1      38.967  34.205  39.810  1.00  0.00     0.059 A 
ATOM     91  C   UNL A   1      40.478  35.836  38.830  1.00  0.00     0.059 A 
ATOM     92  F   UNL A   1      41.253  35.532  36.639  1.00  0.00    -0.206 F 
ATOM     93  C   UNL A   1      39.710  35.385  39.903  1.00  0.00     0.060 A 
BRANCH  93  94
ATOM     94  S   UNL A   1      39.708  36.291  41.465  1.00  0.00     0.124 S 
ATOM     95  O   UNL A   1      39.936  37.658  41.013  1.00  0.00    -0.237 OA
ATOM     96  O   UNL A   1      38.373  36.009  41.987  1.00  0.00    -0.237 OA
ATOM     97  O   UNL A   1      40.806  35.683  42.212  1.00  0.00    -0.744 OA
ENDBRANCH  93  94
ENDBRANCH  61  86
ENDBRANCH  35  36
ENDBRANCH  27  30
ENDBRANCH  25  26
ENDBRANCH  24  25
ENDBRANCH  23  24
ENDBRANCH   1  23
TORSDOF 19
ENDMDL
