MODEL 1
REMARK VINA RESULT:     -11.0      0.000      0.000
REMARK SMILES O=C(NC[C@@H]1CCOC1)NC[C@@H]1CC[C@H](C(=O)NCCCCNC(=O)c2ccc(-c3c4nc(c(-c5c(F)cc(S(=O)(=O)[O-])cc5F)c5ccc([nH]5)c(-c5c(F)cc(S(=O)(=O)[O-])cc5F)c5nc(c(-c6c(F)cc(S(=O)(=O)[O-])cc6F)c6ccc3[nH]6)C=C5)C=C4)cc2)O1
REMARK SMILES IDX 20 1 19 2 18 3 16 4 17 5 15 7 12 8 13 9 92 10 14 11 11 12
REMARK SMILES IDX 10 13 1 14 2 15 3 16 4 19 5 20 6 21 9 22 7 23 8 24 21 25
REMARK SMILES IDX 22 26 23 27 24 28 25 30 26 31 27 32 91 33 28 34 90 35 29 36
REMARK SMILES IDX 30 37 31 38 84 39 32 40 89 41 83 42 85 43 33 44 88 45 82 46
REMARK SMILES IDX 81 47 34 49 68 50 47 51 67 52 48 53 51 54 66 55 86 56 49 57
REMARK SMILES IDX 50 58 65 60 87 61 52 62 35 63 36 64 45 65 37 66 38 67 44 68
REMARK SMILES IDX 46 69 39 70 40 71 41 72 42 73 43 74 69 75 70 76 79 77 71 78
REMARK SMILES IDX 72 79 78 80 80 81 73 82 74 83 75 84 76 85 77 86 53 87 54 88
REMARK SMILES IDX 63 89 55 90 56 91 62 92 64 93 57 94 58 95 59 96 60 97 61 98
REMARK H PARENT 18 6 3 17 10 18 23 29 85 48 51 59
REMARK Flexibility Score: inf
ROOT
ATOM      1  C   UNL A   1      41.438  21.915  26.767  1.00  0.00     0.023 C 
ENDROOT
BRANCH   1   2
ATOM      2  C   UNL A   1      39.989  22.392  26.697  1.00  0.00     0.116 C 
BRANCH   2   3
ATOM      3  N   UNL A   1      39.131  21.396  26.091  1.00  0.00    -0.354 N 
ATOM      4  C   UNL A   1      38.010  21.557  25.335  1.00  0.00     0.249 C 
ATOM      5  O   UNL A   1      37.439  20.538  24.932  1.00  0.00    -0.272 OA
ATOM      6  H   UNL A   1      39.399  20.461  26.249  1.00  0.00     0.163 HD
BRANCH   4   7
ATOM      7  C   UNL A   1      37.403  22.952  25.047  1.00  0.00     0.207 C 
ATOM      8  C   UNL A   1      35.315  23.991  25.228  1.00  0.00     0.138 C 
ATOM      9  C   UNL A   1      35.343  23.289  23.883  1.00  0.00     0.037 C 
ATOM     10  O   UNL A   1      36.431  23.455  25.966  1.00  0.00    -0.363 OA
ATOM     11  C   UNL A   1      36.810  23.038  23.647  1.00  0.00     0.045 C 
BRANCH   8  12
ATOM     12  C   UNL A   1      34.016  23.850  26.052  1.00  0.00     0.149 C 
BRANCH  12  13
ATOM     13  N   UNL A   1      33.298  22.603  25.840  1.00  0.00    -0.336 N 
ATOM     14  O   UNL A   1      34.179  21.488  27.630  1.00  0.00    -0.249 OA
ATOM     15  C   UNL A   1      33.475  21.506  26.625  1.00  0.00     0.314 C 
ATOM     16  N   UNL A   1      32.871  20.362  26.218  1.00  0.00    -0.338 N 
ATOM     17  H   UNL A   1      32.893  19.624  26.871  1.00  0.00     0.165 HD
ATOM     18  H   UNL A   1      32.656  22.550  25.095  1.00  0.00     0.165 HD
BRANCH  16  19
ATOM     19  C   UNL A   1      32.199  20.055  24.967  1.00  0.00     0.123 C 
BRANCH  19  20
ATOM     20  C   UNL A   1      33.157  19.459  23.924  1.00  0.00     0.036 C 
ATOM     21  C   UNL A   1      32.583  18.268  23.177  1.00  0.00     0.036 C 
ATOM     22  C   UNL A   1      34.343  18.801  24.613  1.00  0.00     0.165 C 
ATOM     23  C   UNL A   1      32.792  17.126  24.148  1.00  0.00     0.160 C 
ATOM     24  O   UNL A   1      33.922  17.472  24.965  1.00  0.00    -0.381 OA
ENDBRANCH  19  20
ENDBRANCH  16  19
ENDBRANCH  12  13
ENDBRANCH   8  12
ENDBRANCH   4   7
ENDBRANCH   2   3
ENDBRANCH   1   2
BRANCH   1  25
ATOM     25  C   UNL A   1      42.319  22.691  27.740  1.00  0.00     0.023 C 
BRANCH  25  26
ATOM     26  C   UNL A   1      43.344  23.616  27.089  1.00  0.00     0.116 C 
BRANCH  26  27
ATOM     27  N   UNL A   1      42.833  24.381  25.959  1.00  0.00    -0.352 N 
ATOM     28  C   UNL A   1      42.166  25.587  26.001  1.00  0.00     0.251 C 
ATOM     29  H   UNL A   1      42.980  23.993  25.066  1.00  0.00     0.163 HD
ATOM     30  O   UNL A   1      41.628  26.052  25.001  1.00  0.00    -0.269 OA
BRANCH  28  31
ATOM     31  C   UNL A   1      42.090  26.303  27.297  1.00  0.00     0.039 A 
ATOM     32  C   UNL A   1      43.023  27.298  27.597  1.00  0.00     0.014 A 
ATOM     33  C   UNL A   1      41.042  26.032  28.182  1.00  0.00     0.014 A 
ATOM     34  C   UNL A   1      42.846  28.086  28.739  1.00  0.00     0.010 A 
ATOM     35  C   UNL A   1      40.824  26.866  29.273  1.00  0.00     0.010 A 
ATOM     36  C   UNL A   1      41.717  27.909  29.559  1.00  0.00    -0.014 A 
BRANCH  36  37
ATOM     37  C   UNL A   1      41.433  28.809  30.706  1.00  0.00     0.031 A 
ATOM     38  C   UNL A   1      42.245  28.702  31.969  1.00  0.00     0.074 A 
ATOM     39  C   UNL A   1      40.384  29.654  30.651  1.00  0.00     0.049 A 
ATOM     40  N   UNL A   1      42.083  29.319  33.110  1.00  0.00    -0.248 NA
ATOM     41  C   UNL A   1      43.365  27.749  31.952  1.00  0.00     0.031 C 
ATOM     42  C   UNL A   1      39.484  29.815  29.506  1.00  0.00     0.029 A 
ATOM     43  N   UNL A   1      39.890  30.531  31.584  1.00  0.00    -0.354 N 
ATOM     44  C   UNL A   1      43.067  28.817  33.953  1.00  0.00     0.074 A 
ATOM     45  C   UNL A   1      43.786  27.806  33.207  1.00  0.00     0.031 C 
ATOM     46  C   UNL A   1      38.568  30.753  29.795  1.00  0.00     0.029 A 
ATOM     47  C   UNL A   1      38.789  31.235  31.155  1.00  0.00     0.049 A 
ATOM     48  H   UNL A   1      40.286  30.645  32.479  1.00  0.00     0.167 HD
ATOM     49  C   UNL A   1      43.362  29.178  35.226  1.00  0.00     0.037 A 
ATOM     50  C   UNL A   1      38.043  32.163  31.785  1.00  0.00     0.037 A 
ATOM     51  C   UNL A   1      42.665  30.204  35.956  1.00  0.00     0.049 A 
ATOM     52  C   UNL A   1      38.395  32.558  33.193  1.00  0.00     0.074 A 
ATOM     53  C   UNL A   1      42.921  30.681  37.229  1.00  0.00     0.029 A 
ATOM     54  N   UNL A   1      41.573  30.913  35.475  1.00  0.00    -0.354 N 
ATOM     55  N   UNL A   1      39.360  32.109  33.958  1.00  0.00    -0.248 NA
ATOM     56  C   UNL A   1      37.556  33.589  33.822  1.00  0.00     0.031 C 
ATOM     57  C   UNL A   1      41.968  31.662  37.528  1.00  0.00     0.029 A 
ATOM     58  C   UNL A   1      41.139  31.818  36.428  1.00  0.00     0.049 A 
ATOM     59  H   UNL A   1      41.168  30.790  34.586  1.00  0.00     0.167 HD
ATOM     60  C   UNL A   1      39.262  32.820  35.149  1.00  0.00     0.074 A 
ATOM     61  C   UNL A   1      38.146  33.732  35.001  1.00  0.00     0.031 C 
ATOM     62  C   UNL A   1      40.031  32.726  36.262  1.00  0.00     0.037 A 
BRANCH  49  63
ATOM     63  C   UNL A   1      44.498  28.456  35.897  1.00  0.00     0.058 A 
ATOM     64  C   UNL A   1      45.826  28.892  35.761  1.00  0.00     0.135 A 
ATOM     65  C   UNL A   1      44.261  27.307  36.668  1.00  0.00     0.135 A 
ATOM     66  F   UNL A   1      46.108  29.977  35.022  1.00  0.00    -0.206 F 
ATOM     67  C   UNL A   1      46.884  28.189  36.326  1.00  0.00     0.059 A 
ATOM     68  C   UNL A   1      45.303  26.603  37.266  1.00  0.00     0.059 A 
ATOM     69  F   UNL A   1      43.011  26.848  36.833  1.00  0.00    -0.206 F 
ATOM     70  C   UNL A   1      46.612  27.038  37.067  1.00  0.00     0.060 A 
BRANCH  70  71
ATOM     71  S   UNL A   1      47.996  26.113  37.765  1.00  0.00     0.124 S 
ATOM     72  O   UNL A   1      48.627  27.126  38.606  1.00  0.00    -0.237 OA
ATOM     73  O   UNL A   1      47.326  25.029  38.477  1.00  0.00    -0.237 OA
ATOM     74  O   UNL A   1      48.759  25.707  36.589  1.00  0.00    -0.744 OA
ENDBRANCH  70  71
ENDBRANCH  49  63
BRANCH  50  75
ATOM     75  C   UNL A   1      36.918  32.816  31.067  1.00  0.00     0.058 A 
ATOM     76  C   UNL A   1      37.162  33.852  30.154  1.00  0.00     0.135 A 
ATOM     77  C   UNL A   1      35.591  32.400  31.246  1.00  0.00     0.135 A 
ATOM     78  F   UNL A   1      38.416  34.288  29.955  1.00  0.00    -0.206 F 
ATOM     79  C   UNL A   1      36.130  34.459  29.447  1.00  0.00     0.059 A 
ATOM     80  C   UNL A   1      34.543  32.977  30.536  1.00  0.00     0.059 A 
ATOM     81  F   UNL A   1      35.307  31.401  32.097  1.00  0.00    -0.206 F 
ATOM     82  C   UNL A   1      34.823  34.010  29.640  1.00  0.00     0.060 A 
BRANCH  82  83
ATOM     83  S   UNL A   1      33.499  34.754  28.662  1.00  0.00     0.124 S 
ATOM     84  O   UNL A   1      33.133  33.655  27.777  1.00  0.00    -0.237 OA
ATOM     85  O   UNL A   1      32.518  35.103  29.687  1.00  0.00    -0.237 OA
ATOM     86  O   UNL A   1      34.154  35.891  28.023  1.00  0.00    -0.744 OA
ENDBRANCH  82  83
ENDBRANCH  50  75
BRANCH  62  87
ATOM     87  C   UNL A   1      39.716  33.656  37.398  1.00  0.00     0.058 A 
ATOM     88  C   UNL A   1      38.816  33.298  38.413  1.00  0.00     0.135 A 
ATOM     89  C   UNL A   1      40.368  34.896  37.502  1.00  0.00     0.135 A 
ATOM     90  F   UNL A   1      38.162  32.128  38.354  1.00  0.00    -0.206 F 
ATOM     91  C   UNL A   1      38.562  34.145  39.488  1.00  0.00     0.059 A 
ATOM     92  C   UNL A   1      40.145  35.748  38.577  1.00  0.00     0.059 A 
ATOM     93  F   UNL A   1      41.243  35.279  36.559  1.00  0.00    -0.206 F 
ATOM     94  C   UNL A   1      39.234  35.368  39.562  1.00  0.00     0.060 A 
BRANCH  94  95
ATOM     95  S   UNL A   1      38.933  36.439  40.984  1.00  0.00     0.124 S 
ATOM     96  O   UNL A   1      38.518  37.678  40.335  1.00  0.00    -0.237 OA
ATOM     97  O   UNL A   1      37.886  35.719  41.704  1.00  0.00    -0.237 OA
ATOM     98  O   UNL A   1      40.228  36.483  41.655  1.00  0.00    -0.744 OA
ENDBRANCH  94  95
ENDBRANCH  62  87
ENDBRANCH  36  37
ENDBRANCH  28  31
ENDBRANCH  26  27
ENDBRANCH  25  26
ENDBRANCH   1  25
TORSDOF 18
ENDMDL
MODEL 2
REMARK VINA RESULT:     -10.8      6.594     12.142
REMARK SMILES O=C(NC[C@@H]1CCOC1)NC[C@@H]1CC[C@H](C(=O)NCCCCNC(=O)c2ccc(-c3c4nc(c(-c5c(F)cc(S(=O)(=O)[O-])cc5F)c5ccc([nH]5)c(-c5c(F)cc(S(=O)(=O)[O-])cc5F)c5nc(c(-c6c(F)cc(S(=O)(=O)[O-])cc6F)c6ccc3[nH]6)C=C5)C=C4)cc2)O1
REMARK SMILES IDX 20 1 19 2 18 3 16 4 17 5 15 7 12 8 13 9 92 10 14 11 11 12
REMARK SMILES IDX 10 13 1 14 2 15 3 16 4 19 5 20 6 21 9 22 7 23 8 24 21 25
REMARK SMILES IDX 22 26 23 27 24 28 25 30 26 31 27 32 91 33 28 34 90 35 29 36
REMARK SMILES IDX 30 37 31 38 84 39 32 40 89 41 83 42 85 43 33 44 88 45 82 46
REMARK SMILES IDX 81 47 34 49 68 50 47 51 67 52 48 53 51 54 66 55 86 56 49 57
REMARK SMILES IDX 50 58 65 60 87 61 52 62 35 63 36 64 45 65 37 66 38 67 44 68
REMARK SMILES IDX 46 69 39 70 40 71 41 72 42 73 43 74 69 75 70 76 79 77 71 78
REMARK SMILES IDX 72 79 78 80 80 81 73 82 74 83 75 84 76 85 77 86 53 87 54 88
REMARK SMILES IDX 63 89 55 90 56 91 62 92 64 93 57 94 58 95 59 96 60 97 61 98
REMARK H PARENT 18 6 3 17 10 18 23 29 85 48 51 59
REMARK Flexibility Score: inf
ROOT
ATOM      1  C   UNL A   1      34.438  30.198  27.598  1.00  0.00     0.023 C 
ENDROOT
BRANCH   1   2
ATOM      2  C   UNL A   1      33.229  30.001  26.685  1.00  0.00     0.116 C 
BRANCH   2   3
ATOM      3  N   UNL A   1      33.628  29.842  25.303  1.00  0.00    -0.354 N 
ATOM      4  C   UNL A   1      33.105  29.042  24.333  1.00  0.00     0.249 C 
ATOM      5  O   UNL A   1      33.632  29.078  23.216  1.00  0.00    -0.272 OA
ATOM      6  H   UNL A   1      34.393  30.396  25.022  1.00  0.00     0.163 HD
BRANCH   4   7
ATOM      7  C   UNL A   1      31.948  28.053  24.615  1.00  0.00     0.207 C 
ATOM      8  C   UNL A   1      31.076  26.107  23.655  1.00  0.00     0.138 C 
ATOM      9  C   UNL A   1      30.425  27.279  22.943  1.00  0.00     0.037 C 
ATOM     10  O   UNL A   1      32.190  26.665  24.378  1.00  0.00    -0.363 OA
ATOM     11  C   UNL A   1      30.675  28.438  23.874  1.00  0.00     0.045 C 
BRANCH   8  12
ATOM     12  C   UNL A   1      31.551  24.938  22.763  1.00  0.00     0.149 C 
BRANCH  12  13
ATOM     13  N   UNL A   1      32.898  24.470  23.049  1.00  0.00    -0.336 N 
ATOM     14  O   UNL A   1      32.421  22.236  22.965  1.00  0.00    -0.249 OA
ATOM     15  C   UNL A   1      33.211  23.151  23.170  1.00  0.00     0.314 C 
ATOM     16  N   UNL A   1      34.464  22.860  23.602  1.00  0.00    -0.338 N 
ATOM     17  H   UNL A   1      34.714  21.909  23.544  1.00  0.00     0.165 HD
ATOM     18  H   UNL A   1      33.615  25.136  23.158  1.00  0.00     0.165 HD
BRANCH  16  19
ATOM     19  C   UNL A   1      35.494  23.734  24.137  1.00  0.00     0.123 C 
BRANCH  19  20
ATOM     20  C   UNL A   1      36.073  23.208  25.459  1.00  0.00     0.036 C 
ATOM     21  C   UNL A   1      37.523  22.766  25.358  1.00  0.00     0.036 C 
ATOM     22  C   UNL A   1      35.414  21.890  25.835  1.00  0.00     0.165 C 
ATOM     23  C   UNL A   1      37.415  21.383  24.754  1.00  0.00     0.160 C 
ATOM     24  O   UNL A   1      36.130  20.862  25.128  1.00  0.00    -0.381 OA
ENDBRANCH  19  20
ENDBRANCH  16  19
ENDBRANCH  12  13
ENDBRANCH   8  12
ENDBRANCH   4   7
ENDBRANCH   2   3
ENDBRANCH   1   2
BRANCH   1  25
ATOM     25  C   UNL A   1      34.963  31.628  27.663  1.00  0.00     0.023 C 
BRANCH  25  26
ATOM     26  C   UNL A   1      35.955  31.902  28.790  1.00  0.00     0.116 C 
BRANCH  26  27
ATOM     27  N   UNL A   1      35.683  31.174  30.023  1.00  0.00    -0.352 N 
ATOM     28  C   UNL A   1      36.517  30.285  30.667  1.00  0.00     0.251 C 
ATOM     29  H   UNL A   1      34.807  31.335  30.442  1.00  0.00     0.163 HD
ATOM     30  O   UNL A   1      36.115  29.599  31.602  1.00  0.00    -0.269 OA
BRANCH  28  31
ATOM     31  C   UNL A   1      37.914  30.156  30.187  1.00  0.00     0.039 A 
ATOM     32  C   UNL A   1      38.972  30.248  31.093  1.00  0.00     0.014 A 
ATOM     33  C   UNL A   1      38.163  29.868  28.841  1.00  0.00     0.014 A 
ATOM     34  C   UNL A   1      40.271  29.955  30.666  1.00  0.00     0.010 A 
ATOM     35  C   UNL A   1      39.441  29.502  28.436  1.00  0.00     0.010 A 
ATOM     36  C   UNL A   1      40.509  29.531  29.346  1.00  0.00    -0.014 A 
BRANCH  36  37
ATOM     37  C   UNL A   1      41.855  29.092  28.894  1.00  0.00     0.031 A 
ATOM     38  C   UNL A   1      42.983  30.085  28.809  1.00  0.00     0.074 A 
ATOM     39  C   UNL A   1      42.039  27.827  28.469  1.00  0.00     0.049 A 
ATOM     40  N   UNL A   1      44.193  29.922  28.340  1.00  0.00    -0.248 NA
ATOM     41  C   UNL A   1      42.698  31.448  29.284  1.00  0.00     0.031 C 
ATOM     42  C   UNL A   1      41.013  26.782  28.447  1.00  0.00     0.029 A 
ATOM     43  N   UNL A   1      43.152  27.206  27.960  1.00  0.00    -0.354 N 
ATOM     44  C   UNL A   1      44.808  31.164  28.444  1.00  0.00     0.074 A 
ATOM     45  C   UNL A   1      43.820  32.081  28.972  1.00  0.00     0.031 C 
ATOM     46  C   UNL A   1      41.552  25.644  27.980  1.00  0.00     0.029 A 
ATOM     47  C   UNL A   1      42.949  25.885  27.633  1.00  0.00     0.049 A 
ATOM     48  H   UNL A   1      44.016  27.663  27.839  1.00  0.00     0.167 HD
ATOM     49  C   UNL A   1      46.085  31.508  28.151  1.00  0.00     0.037 A 
ATOM     50  C   UNL A   1      43.792  24.973  27.112  1.00  0.00     0.037 A 
ATOM     51  C   UNL A   1      47.074  30.588  27.654  1.00  0.00     0.049 A 
ATOM     52  C   UNL A   1      45.209  25.372  26.804  1.00  0.00     0.074 A 
ATOM     53  C   UNL A   1      48.409  30.825  27.376  1.00  0.00     0.029 A 
ATOM     54  N   UNL A   1      46.836  29.253  27.362  1.00  0.00    -0.354 N 
ATOM     55  N   UNL A   1      45.789  26.538  26.956  1.00  0.00    -0.248 NA
ATOM     56  C   UNL A   1      46.088  24.328  26.255  1.00  0.00     0.031 C 
ATOM     57  C   UNL A   1      48.972  29.638  26.892  1.00  0.00     0.029 A 
ATOM     58  C   UNL A   1      47.996  28.654  26.900  1.00  0.00     0.049 A 
ATOM     59  H   UNL A   1      45.969  28.798  27.469  1.00  0.00     0.167 HD
ATOM     60  C   UNL A   1      47.106  26.363  26.547  1.00  0.00     0.074 A 
ATOM     61  C   UNL A   1      47.239  24.978  26.144  1.00  0.00     0.031 C 
ATOM     62  C   UNL A   1      48.114  27.271  26.512  1.00  0.00     0.037 A 
BRANCH  49  63
ATOM     63  C   UNL A   1      46.476  32.943  28.371  1.00  0.00     0.058 A 
ATOM     64  C   UNL A   1      46.359  33.900  27.350  1.00  0.00     0.135 A 
ATOM     65  C   UNL A   1      46.989  33.364  29.609  1.00  0.00     0.135 A 
ATOM     66  F   UNL A   1      45.889  33.546  26.143  1.00  0.00    -0.206 F 
ATOM     67  C   UNL A   1      46.782  35.212  27.531  1.00  0.00     0.059 A 
ATOM     68  C   UNL A   1      47.392  34.680  29.820  1.00  0.00     0.059 A 
ATOM     69  F   UNL A   1      47.119  32.492  30.620  1.00  0.00    -0.206 F 
ATOM     70  C   UNL A   1      47.307  35.590  28.767  1.00  0.00     0.060 A 
BRANCH  70  71
ATOM     71  S   UNL A   1      47.886  37.286  28.980  1.00  0.00     0.124 S 
ATOM     72  O   UNL A   1      47.397  37.914  27.755  1.00  0.00    -0.237 OA
ATOM     73  O   UNL A   1      47.217  37.698  30.210  1.00  0.00    -0.237 OA
ATOM     74  O   UNL A   1      49.335  37.140  29.076  1.00  0.00    -0.744 OA
ENDBRANCH  70  71
ENDBRANCH  49  63
BRANCH  50  75
ATOM     75  C   UNL A   1      43.327  23.578  26.896  1.00  0.00     0.058 A 
ATOM     76  C   UNL A   1      43.087  23.102  25.599  1.00  0.00     0.135 A 
ATOM     77  C   UNL A   1      43.148  22.688  27.964  1.00  0.00     0.135 A 
ATOM     78  F   UNL A   1      43.239  23.920  24.546  1.00  0.00    -0.206 F 
ATOM     79  C   UNL A   1      42.681  21.793  25.367  1.00  0.00     0.059 A 
ATOM     80  C   UNL A   1      42.761  21.368  27.757  1.00  0.00     0.059 A 
ATOM     81  F   UNL A   1      43.380  23.093  29.224  1.00  0.00    -0.206 F 
ATOM     82  C   UNL A   1      42.526  20.930  26.454  1.00  0.00     0.060 A 
BRANCH  82  83
ATOM     83  S   UNL A   1      42.069  19.211  26.136  1.00  0.00     0.124 S 
ATOM     84  O   UNL A   1      42.868  18.909  24.955  1.00  0.00    -0.237 OA
ATOM     85  O   UNL A   1      42.481  18.550  27.371  1.00  0.00    -0.237 OA
ATOM     86  O   UNL A   1      40.626  19.283  25.925  1.00  0.00    -0.744 OA
ENDBRANCH  82  83
ENDBRANCH  50  75
BRANCH  62  87
ATOM     87  C   UNL A   1      49.460  26.788  26.054  1.00  0.00     0.058 A 
ATOM     88  C   UNL A   1      49.891  26.957  24.730  1.00  0.00     0.135 A 
ATOM     89  C   UNL A   1      50.352  26.201  26.968  1.00  0.00     0.135 A 
ATOM     90  F   UNL A   1      49.073  27.504  23.818  1.00  0.00    -0.206 F 
ATOM     91  C   UNL A   1      51.157  26.549  24.323  1.00  0.00     0.059 A 
ATOM     92  C   UNL A   1      51.629  25.805  26.588  1.00  0.00     0.059 A 
ATOM     93  F   UNL A   1      49.988  26.025  28.248  1.00  0.00    -0.206 F 
ATOM     94  C   UNL A   1      52.021  25.976  25.260  1.00  0.00     0.060 A 
BRANCH  94  95
ATOM     95  S   UNL A   1      53.678  25.492  24.733  1.00  0.00     0.124 S 
ATOM     96  O   UNL A   1      54.508  26.127  25.750  1.00  0.00    -0.237 OA
ATOM     97  O   UNL A   1      53.613  24.034  24.788  1.00  0.00    -0.237 OA
ATOM     98  O   UNL A   1      53.785  26.056  23.391  1.00  0.00    -0.744 OA
ENDBRANCH  94  95
ENDBRANCH  62  87
ENDBRANCH  36  37
ENDBRANCH  28  31
ENDBRANCH  26  27
ENDBRANCH  25  26
ENDBRANCH   1  25
TORSDOF 18
ENDMDL
MODEL 3
REMARK VINA RESULT:     -10.8      1.730      3.376
REMARK SMILES O=C(NC[C@@H]1CCOC1)NC[C@@H]1CC[C@H](C(=O)NCCCCNC(=O)c2ccc(-c3c4nc(c(-c5c(F)cc(S(=O)(=O)[O-])cc5F)c5ccc([nH]5)c(-c5c(F)cc(S(=O)(=O)[O-])cc5F)c5nc(c(-c6c(F)cc(S(=O)(=O)[O-])cc6F)c6ccc3[nH]6)C=C5)C=C4)cc2)O1
REMARK SMILES IDX 20 1 19 2 18 3 16 4 17 5 15 7 12 8 13 9 92 10 14 11 11 12
REMARK SMILES IDX 10 13 1 14 2 15 3 16 4 19 5 20 6 21 9 22 7 23 8 24 21 25
REMARK SMILES IDX 22 26 23 27 24 28 25 30 26 31 27 32 91 33 28 34 90 35 29 36
REMARK SMILES IDX 30 37 31 38 84 39 32 40 89 41 83 42 85 43 33 44 88 45 82 46
REMARK SMILES IDX 81 47 34 49 68 50 47 51 67 52 48 53 51 54 66 55 86 56 49 57
REMARK SMILES IDX 50 58 65 60 87 61 52 62 35 63 36 64 45 65 37 66 38 67 44 68
REMARK SMILES IDX 46 69 39 70 40 71 41 72 42 73 43 74 69 75 70 76 79 77 71 78
REMARK SMILES IDX 72 79 78 80 80 81 73 82 74 83 75 84 76 85 77 86 53 87 54 88
REMARK SMILES IDX 63 89 55 90 56 91 62 92 64 93 57 94 58 95 59 96 60 97 61 98
REMARK H PARENT 18 6 3 17 10 18 23 29 85 48 51 59
REMARK Flexibility Score: inf
ROOT
ATOM      1  C   UNL A   1      40.581  21.118  26.660  1.00  0.00     0.023 C 
ENDROOT
BRANCH   1   2
ATOM      2  C   UNL A   1      39.268  21.237  25.890  1.00  0.00     0.116 C 
BRANCH   2   3
ATOM      3  N   UNL A   1      38.660  22.537  26.076  1.00  0.00    -0.354 N 
ATOM      4  C   UNL A   1      37.402  22.961  25.773  1.00  0.00     0.249 C 
ATOM      5  O   UNL A   1      37.118  24.137  26.024  1.00  0.00    -0.272 OA
ATOM      6  H   UNL A   1      39.245  23.218  26.484  1.00  0.00     0.163 HD
BRANCH   4   7
ATOM      7  C   UNL A   1      36.373  22.048  25.063  1.00  0.00     0.207 C 
ATOM      8  C   UNL A   1      34.452  22.313  23.754  1.00  0.00     0.138 C 
ATOM      9  C   UNL A   1      34.007  22.353  25.205  1.00  0.00     0.037 C 
ATOM     10  O   UNL A   1      35.885  22.467  23.787  1.00  0.00    -0.363 OA
ATOM     11  C   UNL A   1      35.171  21.747  25.947  1.00  0.00     0.045 C 
BRANCH   8  12
ATOM     12  C   UNL A   1      33.825  23.365  22.813  1.00  0.00     0.149 C 
BRANCH  12  13
ATOM     13  N   UNL A   1      33.245  24.514  23.490  1.00  0.00    -0.336 N 
ATOM     14  O   UNL A   1      33.839  26.068  21.923  1.00  0.00    -0.249 OA
ATOM     15  C   UNL A   1      33.341  25.782  23.007  1.00  0.00     0.314 C 
ATOM     16  N   UNL A   1      32.903  26.778  23.818  1.00  0.00    -0.338 N 
ATOM     17  H   UNL A   1      32.848  27.665  23.395  1.00  0.00     0.165 HD
ATOM     18  H   UNL A   1      32.762  24.367  24.335  1.00  0.00     0.165 HD
BRANCH  16  19
ATOM     19  C   UNL A   1      32.504  26.737  25.215  1.00  0.00     0.123 C 
BRANCH  19  20
ATOM     20  C   UNL A   1      31.392  27.748  25.531  1.00  0.00     0.036 C 
ATOM     21  C   UNL A   1      31.476  29.024  24.713  1.00  0.00     0.036 C 
ATOM     22  C   UNL A   1      31.576  28.312  26.931  1.00  0.00     0.165 C 
ATOM     23  C   UNL A   1      32.531  29.826  25.442  1.00  0.00     0.160 C 
ATOM     24  O   UNL A   1      32.510  29.398  26.812  1.00  0.00    -0.381 OA
ENDBRANCH  19  20
ENDBRANCH  16  19
ENDBRANCH  12  13
ENDBRANCH   8  12
ENDBRANCH   4   7
ENDBRANCH   2   3
ENDBRANCH   1   2
BRANCH   1  25
ATOM     25  C   UNL A   1      40.804  22.197  27.714  1.00  0.00     0.023 C 
BRANCH  25  26
ATOM     26  C   UNL A   1      41.982  23.130  27.446  1.00  0.00     0.116 C 
BRANCH  26  27
ATOM     27  N   UNL A   1      41.846  23.944  26.245  1.00  0.00    -0.352 N 
ATOM     28  C   UNL A   1      41.538  25.286  26.178  1.00  0.00     0.251 C 
ATOM     29  H   UNL A   1      41.988  23.484  25.386  1.00  0.00     0.163 HD
ATOM     30  O   UNL A   1      41.275  25.826  25.107  1.00  0.00    -0.269 OA
BRANCH  28  31
ATOM     31  C   UNL A   1      41.504  26.064  27.440  1.00  0.00     0.039 A 
ATOM     32  C   UNL A   1      42.553  26.932  27.748  1.00  0.00     0.014 A 
ATOM     33  C   UNL A   1      40.389  25.980  28.279  1.00  0.00     0.014 A 
ATOM     34  C   UNL A   1      42.436  27.788  28.849  1.00  0.00     0.010 A 
ATOM     35  C   UNL A   1      40.241  26.884  29.325  1.00  0.00     0.010 A 
ATOM     36  C   UNL A   1      41.257  27.806  29.616  1.00  0.00    -0.014 A 
BRANCH  36  37
ATOM     37  C   UNL A   1      41.051  28.787  30.712  1.00  0.00     0.031 A 
ATOM     38  C   UNL A   1      41.891  28.716  31.958  1.00  0.00     0.074 A 
ATOM     39  C   UNL A   1      40.045  29.681  30.630  1.00  0.00     0.049 A 
ATOM     40  N   UNL A   1      41.793  29.408  33.063  1.00  0.00    -0.248 NA
ATOM     41  C   UNL A   1      42.962  27.707  31.973  1.00  0.00     0.031 C 
ATOM     42  C   UNL A   1      39.122  29.817  29.501  1.00  0.00     0.029 A 
ATOM     43  N   UNL A   1      39.621  30.636  31.520  1.00  0.00    -0.354 N 
ATOM     44  C   UNL A   1      42.773  28.908  33.911  1.00  0.00     0.074 A 
ATOM     45  C   UNL A   1      43.420  27.818  33.212  1.00  0.00     0.031 C 
ATOM     46  C   UNL A   1      38.262  30.818  29.753  1.00  0.00     0.029 A 
ATOM     47  C   UNL A   1      38.545  31.369  31.074  1.00  0.00     0.049 A 
ATOM     48  H   UNL A   1      40.047  30.784  32.395  1.00  0.00     0.167 HD
ATOM     49  C   UNL A   1      43.122  29.330  35.151  1.00  0.00     0.037 A 
ATOM     50  C   UNL A   1      37.864  32.371  31.664  1.00  0.00     0.037 A 
ATOM     51  C   UNL A   1      42.497  30.432  35.833  1.00  0.00     0.049 A 
ATOM     52  C   UNL A   1      38.274  32.832  33.036  1.00  0.00     0.074 A 
ATOM     53  C   UNL A   1      42.811  30.972  37.067  1.00  0.00     0.029 A 
ATOM     54  N   UNL A   1      41.429  31.166  35.336  1.00  0.00    -0.354 N 
ATOM     55  N   UNL A   1      39.236  32.381  33.803  1.00  0.00    -0.248 NA
ATOM     56  C   UNL A   1      37.506  33.941  33.620  1.00  0.00     0.031 C 
ATOM     57  C   UNL A   1      41.917  32.018  37.329  1.00  0.00     0.029 A 
ATOM     58  C   UNL A   1      41.067  32.149  36.242  1.00  0.00     0.049 A 
ATOM     59  H   UNL A   1      40.994  31.011  34.468  1.00  0.00     0.167 HD
ATOM     60  C   UNL A   1      39.207  33.166  34.950  1.00  0.00     0.074 A 
ATOM     61  C   UNL A   1      38.135  34.124  34.774  1.00  0.00     0.031 C 
ATOM     62  C   UNL A   1      40.001  33.101  36.047  1.00  0.00     0.037 A 
BRANCH  49  63
ATOM     63  C   UNL A   1      44.237  28.592  35.837  1.00  0.00     0.058 A 
ATOM     64  C   UNL A   1      43.981  27.521  36.708  1.00  0.00     0.135 A 
ATOM     65  C   UNL A   1      45.575  28.969  35.637  1.00  0.00     0.135 A 
ATOM     66  F   UNL A   1      42.718  27.130  36.945  1.00  0.00    -0.206 F 
ATOM     67  C   UNL A   1      45.006  26.880  37.394  1.00  0.00     0.059 A 
ATOM     68  C   UNL A   1      46.619  28.322  36.293  1.00  0.00     0.059 A 
ATOM     69  F   UNL A   1      45.877  29.984  34.813  1.00  0.00    -0.206 F 
ATOM     70  C   UNL A   1      46.323  27.296  37.188  1.00  0.00     0.060 A 
BRANCH  70  71
ATOM     71  S   UNL A   1      47.642  26.481  38.112  1.00  0.00     0.124 S 
ATOM     72  O   UNL A   1      47.573  27.180  39.392  1.00  0.00    -0.237 OA
ATOM     73  O   UNL A   1      47.205  25.089  38.128  1.00  0.00    -0.237 OA
ATOM     74  O   UNL A   1      48.832  26.752  37.311  1.00  0.00    -0.744 OA
ENDBRANCH  70  71
ENDBRANCH  49  63
BRANCH  50  75
ATOM     75  C   UNL A   1      36.753  33.036  30.935  1.00  0.00     0.058 A 
ATOM     76  C   UNL A   1      35.422  32.824  31.321  1.00  0.00     0.135 A 
ATOM     77  C   UNL A   1      36.995  33.916  29.870  1.00  0.00     0.135 A 
ATOM     78  F   UNL A   1      35.143  31.985  32.330  1.00  0.00    -0.206 F 
ATOM     79  C   UNL A   1      34.367  33.458  30.675  1.00  0.00     0.059 A 
ATOM     80  C   UNL A   1      35.957  34.578  29.221  1.00  0.00     0.059 A 
ATOM     81  F   UNL A   1      38.253  34.163  29.473  1.00  0.00    -0.206 F 
ATOM     82  C   UNL A   1      34.644  34.339  29.629  1.00  0.00     0.060 A 
BRANCH  82  83
ATOM     83  S   UNL A   1      33.272  35.213  28.845  1.00  0.00     0.124 S 
ATOM     84  O   UNL A   1      32.508  35.660  30.004  1.00  0.00    -0.237 OA
ATOM     85  O   UNL A   1      33.961  36.257  28.093  1.00  0.00    -0.237 OA
ATOM     86  O   UNL A   1      32.640  34.180  28.030  1.00  0.00    -0.744 OA
ENDBRANCH  82  83
ENDBRANCH  50  75
BRANCH  62  87
ATOM     87  C   UNL A   1      39.765  34.113  37.131  1.00  0.00     0.058 A 
ATOM     88  C   UNL A   1      38.935  33.836  38.227  1.00  0.00     0.135 A 
ATOM     89  C   UNL A   1      40.424  35.353  37.100  1.00  0.00     0.135 A 
ATOM     90  F   UNL A   1      38.277  32.669  38.298  1.00  0.00    -0.206 F 
ATOM     91  C   UNL A   1      38.755  34.760  39.252  1.00  0.00     0.059 A 
ATOM     92  C   UNL A   1      40.275  36.283  38.123  1.00  0.00     0.059 A 
ATOM     93  F   UNL A   1      41.235  35.661  36.076  1.00  0.00    -0.206 F 
ATOM     94  C   UNL A   1      39.432  35.981  39.192  1.00  0.00     0.060 A 
BRANCH  94  95
ATOM     95  S   UNL A   1      39.229  37.155  40.548  1.00  0.00     0.124 S 
ATOM     96  O   UNL A   1      40.585  37.672  40.696  1.00  0.00    -0.237 OA
ATOM     97  O   UNL A   1      38.248  38.093  40.009  1.00  0.00    -0.237 OA
ATOM     98  O   UNL A   1      38.749  36.322  41.647  1.00  0.00    -0.744 OA
ENDBRANCH  94  95
ENDBRANCH  62  87
ENDBRANCH  36  37
ENDBRANCH  28  31
ENDBRANCH  26  27
ENDBRANCH  25  26
ENDBRANCH   1  25
TORSDOF 18
ENDMDL
