MODEL 1
REMARK VINA RESULT:     -13.3      0.000      0.000
REMARK SMILES Cc1c(Cl)cccc1NC(=O)NCc1cn([C@@H]2C[NH2+][C@H](C(=O)NCCCCNC(=O)c3ccc(-c4c5nc(c(-c6c(F)cc(S(=O)(=O)[O-])cc6F)c6ccc([nH]6)c(-c6c(F)cc(S(=O)(=O)[O-])cc6F)c6nc(c(-c7c(F)cc(S(=O)(=O)[O-])cc7F)c7ccc4[nH]7)C=C6)C=C5)cc3)C2)nn1
REMARK SMILES IDX 25 1 24 2 23 3 21 4 22 5 20 7 17 8 18 9 97 10 19 11 16 14
REMARK SMILES IDX 14 15 15 16 99 17 98 18 13 19 12 20 9 21 10 22 11 24 8 26
REMARK SMILES IDX 1 27 2 28 3 29 4 30 5 31 7 32 6 33 26 34 27 35 28 36 29 37
REMARK SMILES IDX 30 39 31 40 32 41 96 42 33 43 95 44 34 45 35 46 36 47 89 48
REMARK SMILES IDX 37 49 94 50 88 51 90 52 38 53 93 54 87 55 86 56 39 58 73 59
REMARK SMILES IDX 52 60 72 61 53 62 56 63 71 64 91 65 54 66 55 67 70 69 92 70
REMARK SMILES IDX 57 71 40 72 41 73 50 74 42 75 43 76 49 77 51 78 44 79 45 80
REMARK SMILES IDX 46 81 47 82 48 83 74 84 75 85 84 86 76 87 77 88 83 89 85 90
REMARK SMILES IDX 78 91 79 92 80 93 81 94 82 95 58 96 59 97 68 98 60 99 61 100
REMARK SMILES IDX 67 101 69 102 62 103 63 104 64 105 65 106 66 107
REMARK H PARENT 23 6 19 12 19 13 9 23 12 25 28 38 90 57 56 68
REMARK Flexibility Score: inf
ROOT
ATOM      1  C   UNL A   1      38.545  23.008  26.299  1.00  0.00     0.023 C 
ENDROOT
BRANCH   1   2
ATOM      2  C   UNL A   1      37.215  22.764  25.578  1.00  0.00     0.116 C 
BRANCH   2   3
ATOM      3  N   UNL A   1      36.139  22.433  26.493  1.00  0.00    -0.351 N 
ATOM      4  C   UNL A   1      34.827  22.132  26.315  1.00  0.00     0.278 C 
ATOM      5  O   UNL A   1      34.164  22.010  27.354  1.00  0.00    -0.268 OA
ATOM      6  H   UNL A   1      36.418  22.425  27.437  1.00  0.00     0.163 HD
BRANCH   4   7
ATOM      7  C   UNL A   1      34.130  21.846  24.968  1.00  0.00     0.274 C 
ATOM      8  C   UNL A   1      33.422  23.175  23.064  1.00  0.00     0.170 C 
ATOM      9  C   UNL A   1      32.311  23.084  24.100  1.00  0.00     0.288 C 
ATOM     10  C   UNL A   1      34.654  22.777  23.873  1.00  0.00     0.109 C 
ATOM     11  N   UNL A   1      32.650  21.931  24.957  1.00  0.00    -0.334 N 
ATOM     12  H   UNL A   1      32.250  21.074  24.574  1.00  0.00     0.347 HD
ATOM     13  H   UNL A   1      32.277  22.045  25.900  1.00  0.00     0.347 HD
BRANCH   8  14
ATOM     14  N   UNL A   1      33.496  24.475  22.442  1.00  0.00    -0.243 N 
ATOM     15  C   UNL A   1      33.374  26.603  22.073  1.00  0.00     0.102 A 
ATOM     16  C   UNL A   1      33.599  25.673  23.066  1.00  0.00     0.137 A 
ATOM     17  N   UNL A   1      33.192  25.952  20.886  1.00  0.00    -0.134 NA
ATOM     18  N   UNL A   1      33.278  24.641  21.122  1.00  0.00    -0.067 NA
BRANCH  15  19
ATOM     19  C   UNL A   1      33.085  28.014  22.381  1.00  0.00     0.178 C 
BRANCH  19  20
ATOM     20  N   UNL A   1      31.879  28.606  21.902  1.00  0.00    -0.332 N 
ATOM     21  N   UNL A   1      30.683  29.390  23.850  1.00  0.00    -0.308 N 
ATOM     22  C   UNL A   1      30.932  29.322  22.524  1.00  0.00     0.319 C 
ATOM     23  H   UNL A   1      29.904  29.967  24.023  1.00  0.00     0.171 HD
ATOM     24  O   UNL A   1      30.128  29.914  21.791  1.00  0.00    -0.248 OA
ATOM     25  H   UNL A   1      31.713  28.462  20.943  1.00  0.00     0.165 HD
BRANCH  21  26
ATOM     26  C   UNL A   1      31.200  28.885  25.066  1.00  0.00     0.047 A 
ATOM     27  C   UNL A   1      30.245  26.553  24.565  1.00  0.00     0.048 C 
ATOM     28  C   UNL A   1      31.114  27.501  25.355  1.00  0.00    -0.009 A 
ATOM     29  C   UNL A   1      31.826  26.992  26.469  1.00  0.00     0.046 A 
ATOM     30  Cl  UNL A   1      31.809  25.309  26.882  1.00  0.00    -0.084 Cl
ATOM     31  C   UNL A   1      32.586  27.825  27.288  1.00  0.00     0.021 A 
ATOM     32  C   UNL A   1      31.771  29.706  26.038  1.00  0.00     0.026 A 
ATOM     33  C   UNL A   1      32.541  29.191  27.082  1.00  0.00     0.004 A 
ENDBRANCH  21  26
ENDBRANCH  19  20
ENDBRANCH  15  19
ENDBRANCH   8  14
ENDBRANCH   4   7
ENDBRANCH   2   3
ENDBRANCH   1   2
BRANCH   1  34
ATOM     34  C   UNL A   1      39.522  21.822  26.345  1.00  0.00     0.023 C 
BRANCH  34  35
ATOM     35  C   UNL A   1      40.857  22.102  27.026  1.00  0.00     0.116 C 
BRANCH  35  36
ATOM     36  N   UNL A   1      42.001  22.078  26.109  1.00  0.00    -0.352 N 
ATOM     37  C   UNL A   1      42.628  23.155  25.491  1.00  0.00     0.251 C 
ATOM     38  H   UNL A   1      42.373  21.189  25.905  1.00  0.00     0.163 HD
ATOM     39  O   UNL A   1      43.285  23.007  24.478  1.00  0.00    -0.269 OA
BRANCH  37  40
ATOM     40  C   UNL A   1      42.498  24.482  26.121  1.00  0.00     0.039 A 
ATOM     41  C   UNL A   1      41.537  25.421  25.735  1.00  0.00     0.014 A 
ATOM     42  C   UNL A   1      43.366  24.745  27.172  1.00  0.00     0.014 A 
ATOM     43  C   UNL A   1      41.414  26.595  26.479  1.00  0.00     0.010 A 
ATOM     44  C   UNL A   1      43.101  25.776  28.022  1.00  0.00     0.010 A 
ATOM     45  C   UNL A   1      42.194  26.753  27.632  1.00  0.00    -0.014 A 
BRANCH  45  46
ATOM     46  C   UNL A   1      42.058  27.888  28.530  1.00  0.00     0.031 A 
ATOM     47  C   UNL A   1      43.110  28.922  28.393  1.00  0.00     0.074 A 
ATOM     48  C   UNL A   1      40.904  28.110  29.198  1.00  0.00     0.049 A 
ATOM     49  N   UNL A   1      44.030  29.207  29.251  1.00  0.00    -0.248 NA
ATOM     50  C   UNL A   1      43.276  29.603  27.099  1.00  0.00     0.031 C 
ATOM     51  C   UNL A   1      39.677  27.311  29.167  1.00  0.00     0.029 A 
ATOM     52  N   UNL A   1      40.528  29.187  29.934  1.00  0.00    -0.354 N 
ATOM     53  C   UNL A   1      44.719  30.290  28.717  1.00  0.00     0.074 A 
ATOM     54  C   UNL A   1      44.381  30.320  27.318  1.00  0.00     0.031 C 
ATOM     55  C   UNL A   1      38.639  28.046  29.616  1.00  0.00     0.029 A 
ATOM     56  C   UNL A   1      39.151  29.298  30.126  1.00  0.00     0.049 A 
ATOM     57  H   UNL A   1      41.173  29.833  30.300  1.00  0.00     0.167 HD
ATOM     58  C   UNL A   1      45.287  31.229  29.526  1.00  0.00     0.037 A 
ATOM     59  C   UNL A   1      38.496  30.377  30.626  1.00  0.00     0.037 A 
ATOM     60  C   UNL A   1      45.304  30.778  30.900  1.00  0.00     0.049 A 
ATOM     61  C   UNL A   1      39.512  31.150  31.401  1.00  0.00     0.074 A 
ATOM     62  C   UNL A   1      45.807  29.661  31.543  1.00  0.00     0.029 A 
ATOM     63  N   UNL A   1      44.368  31.310  31.758  1.00  0.00    -0.354 N 
ATOM     64  N   UNL A   1      40.088  30.687  32.482  1.00  0.00    -0.248 NA
ATOM     65  C   UNL A   1      40.264  32.174  30.689  1.00  0.00     0.031 C 
ATOM     66  C   UNL A   1      44.797  29.295  32.479  1.00  0.00     0.029 A 
ATOM     67  C   UNL A   1      43.792  30.262  32.433  1.00  0.00     0.049 A 
ATOM     68  H   UNL A   1      44.151  32.264  31.866  1.00  0.00     0.167 HD
ATOM     69  C   UNL A   1      41.429  31.025  32.345  1.00  0.00     0.074 A 
ATOM     70  C   UNL A   1      41.464  31.999  31.253  1.00  0.00     0.031 C 
ATOM     71  C   UNL A   1      42.421  30.263  32.900  1.00  0.00     0.037 A 
BRANCH  58  72
ATOM     72  C   UNL A   1      45.479  32.685  29.173  1.00  0.00     0.058 A 
ATOM     73  C   UNL A   1      44.379  33.414  28.676  1.00  0.00     0.135 A 
ATOM     74  C   UNL A   1      46.735  33.316  29.040  1.00  0.00     0.135 A 
ATOM     75  F   UNL A   1      43.135  32.912  28.750  1.00  0.00    -0.206 F 
ATOM     76  C   UNL A   1      44.526  34.634  28.017  1.00  0.00     0.059 A 
ATOM     77  C   UNL A   1      46.898  34.559  28.440  1.00  0.00     0.059 A 
ATOM     78  F   UNL A   1      47.881  32.721  29.393  1.00  0.00    -0.206 F 
ATOM     79  C   UNL A   1      45.794  35.190  27.891  1.00  0.00     0.060 A 
BRANCH  79  80
ATOM     80  S   UNL A   1      46.002  36.711  26.952  1.00  0.00     0.124 S 
ATOM     81  O   UNL A   1      44.661  37.280  27.022  1.00  0.00    -0.237 OA
ATOM     82  O   UNL A   1      47.031  37.401  27.723  1.00  0.00    -0.237 OA
ATOM     83  O   UNL A   1      46.422  36.238  25.637  1.00  0.00    -0.744 OA
ENDBRANCH  79  80
ENDBRANCH  58  72
BRANCH  59  84
ATOM     84  C   UNL A   1      37.208  30.952  30.134  1.00  0.00     0.058 A 
ATOM     85  C   UNL A   1      36.260  31.487  31.027  1.00  0.00     0.135 A 
ATOM     86  C   UNL A   1      36.989  31.240  28.769  1.00  0.00     0.135 A 
ATOM     87  F   UNL A   1      36.381  31.270  32.345  1.00  0.00    -0.206 F 
ATOM     88  C   UNL A   1      35.209  32.312  30.602  1.00  0.00     0.059 A 
ATOM     89  C   UNL A   1      35.945  32.050  28.322  1.00  0.00     0.059 A 
ATOM     90  F   UNL A   1      37.834  30.815  27.817  1.00  0.00    -0.206 F 
ATOM     91  C   UNL A   1      35.077  32.611  29.248  1.00  0.00     0.060 A 
BRANCH  91  92
ATOM     92  S   UNL A   1      33.863  33.839  28.704  1.00  0.00     0.124 S 
ATOM     93  O   UNL A   1      32.981  33.038  27.864  1.00  0.00    -0.237 OA
ATOM     94  O   UNL A   1      33.302  34.298  29.970  1.00  0.00    -0.237 OA
ATOM     95  O   UNL A   1      34.677  34.823  27.994  1.00  0.00    -0.744 OA
ENDBRANCH  91  92
ENDBRANCH  59  84
BRANCH  71  96
ATOM     96  C   UNL A   1      42.061  29.191  33.901  1.00  0.00     0.058 A 
ATOM     97  C   UNL A   1      41.739  27.859  33.577  1.00  0.00     0.135 A 
ATOM     98  C   UNL A   1      42.233  29.487  35.262  1.00  0.00     0.135 A 
ATOM     99  F   UNL A   1      41.666  27.457  32.301  1.00  0.00    -0.206 F 
ATOM    100  C   UNL A   1      41.553  26.884  34.560  1.00  0.00     0.059 A 
ATOM    101  C   UNL A   1      42.088  28.525  36.256  1.00  0.00     0.059 A 
ATOM    102  F   UNL A   1      42.608  30.721  35.639  1.00  0.00    -0.206 F 
ATOM    103  C   UNL A   1      41.731  27.228  35.900  1.00  0.00     0.060 A 
BRANCH 103 104
ATOM    104  S   UNL A   1      41.544  25.957  37.169  1.00  0.00     0.124 S 
ATOM    105  O   UNL A   1      42.608  26.303  38.106  1.00  0.00    -0.237 OA
ATOM    106  O   UNL A   1      40.182  26.181  37.645  1.00  0.00    -0.237 OA
ATOM    107  O   UNL A   1      41.741  24.709  36.435  1.00  0.00    -0.744 OA
ENDBRANCH 103 104
ENDBRANCH  71  96
ENDBRANCH  45  46
ENDBRANCH  37  40
ENDBRANCH  35  36
ENDBRANCH  34  35
ENDBRANCH   1  34
TORSDOF 18
ENDMDL
MODEL 2
REMARK VINA RESULT:     -13.1      1.542      2.174
REMARK SMILES Cc1c(Cl)cccc1NC(=O)NCc1cn([C@@H]2C[NH2+][C@H](C(=O)NCCCCNC(=O)c3ccc(-c4c5nc(c(-c6c(F)cc(S(=O)(=O)[O-])cc6F)c6ccc([nH]6)c(-c6c(F)cc(S(=O)(=O)[O-])cc6F)c6nc(c(-c7c(F)cc(S(=O)(=O)[O-])cc7F)c7ccc4[nH]7)C=C6)C=C5)cc3)C2)nn1
REMARK SMILES IDX 25 1 24 2 23 3 21 4 22 5 20 7 17 8 18 9 97 10 19 11 16 14
REMARK SMILES IDX 14 15 15 16 99 17 98 18 13 19 12 20 9 21 10 22 11 24 8 26
REMARK SMILES IDX 1 27 2 28 3 29 4 30 5 31 7 32 6 33 26 34 27 35 28 36 29 37
REMARK SMILES IDX 30 39 31 40 32 41 96 42 33 43 95 44 34 45 35 46 36 47 89 48
REMARK SMILES IDX 37 49 94 50 88 51 90 52 38 53 93 54 87 55 86 56 39 58 73 59
REMARK SMILES IDX 52 60 72 61 53 62 56 63 71 64 91 65 54 66 55 67 70 69 92 70
REMARK SMILES IDX 57 71 40 72 41 73 50 74 42 75 43 76 49 77 51 78 44 79 45 80
REMARK SMILES IDX 46 81 47 82 48 83 74 84 75 85 84 86 76 87 77 88 83 89 85 90
REMARK SMILES IDX 78 91 79 92 80 93 81 94 82 95 58 96 59 97 68 98 60 99 61 100
REMARK SMILES IDX 67 101 69 102 62 103 63 104 64 105 65 106 66 107
REMARK H PARENT 23 6 19 12 19 13 9 23 12 25 28 38 90 57 56 68
REMARK Flexibility Score: inf
ROOT
ATOM      1  C   UNL A   1      38.950  23.629  26.550  1.00  0.00     0.023 C 
ENDROOT
BRANCH   1   2
ATOM      2  C   UNL A   1      37.499  23.733  26.067  1.00  0.00     0.116 C 
BRANCH   2   3
ATOM      3  N   UNL A   1      37.380  23.599  24.628  1.00  0.00    -0.351 N 
ATOM      4  C   UNL A   1      36.521  22.920  23.825  1.00  0.00     0.278 C 
ATOM      5  O   UNL A   1      36.792  22.943  22.616  1.00  0.00    -0.268 OA
ATOM      6  H   UNL A   1      38.064  24.105  24.131  1.00  0.00     0.163 HD
BRANCH   4   7
ATOM      7  C   UNL A   1      35.219  22.218  24.266  1.00  0.00     0.274 C 
ATOM      8  C   UNL A   1      33.151  22.907  25.334  1.00  0.00     0.170 C 
ATOM      9  C   UNL A   1      34.184  22.495  26.374  1.00  0.00     0.288 C 
ATOM     10  C   UNL A   1      34.014  23.144  24.097  1.00  0.00     0.109 C 
ATOM     11  N   UNL A   1      35.188  21.691  25.651  1.00  0.00    -0.334 N 
ATOM     12  H   UNL A   1      34.919  20.706  25.648  1.00  0.00     0.347 HD
ATOM     13  H   UNL A   1      36.105  21.754  26.093  1.00  0.00     0.347 HD
BRANCH   8  14
ATOM     14  N   UNL A   1      32.363  24.041  25.754  1.00  0.00    -0.243 N 
ATOM     15  C   UNL A   1      31.757  25.974  26.512  1.00  0.00     0.102 A 
ATOM     16  C   UNL A   1      32.764  25.333  25.822  1.00  0.00     0.137 A 
ATOM     17  N   UNL A   1      30.769  25.075  26.795  1.00  0.00    -0.134 NA
ATOM     18  N   UNL A   1      31.147  23.888  26.316  1.00  0.00    -0.067 NA
BRANCH  15  19
ATOM     19  C   UNL A   1      31.939  27.322  27.079  1.00  0.00     0.178 C 
BRANCH  19  20
ATOM     20  N   UNL A   1      33.230  27.927  27.053  1.00  0.00    -0.332 N 
ATOM     21  N   UNL A   1      33.359  29.171  24.986  1.00  0.00    -0.308 N 
ATOM     22  C   UNL A   1      33.770  28.835  26.228  1.00  0.00     0.319 C 
ATOM     23  H   UNL A   1      33.964  29.843  24.595  1.00  0.00     0.171 HD
ATOM     24  O   UNL A   1      34.828  29.355  26.607  1.00  0.00    -0.248 OA
ATOM     25  H   UNL A   1      33.832  27.624  27.770  1.00  0.00     0.165 HD
BRANCH  21  26
ATOM     26  C   UNL A   1      32.324  28.853  24.075  1.00  0.00     0.047 A 
ATOM     27  C   UNL A   1      33.866  27.237  22.806  1.00  0.00     0.048 C 
ATOM     28  C   UNL A   1      32.514  27.831  23.113  1.00  0.00    -0.009 A 
ATOM     29  C   UNL A   1      31.396  27.387  22.363  1.00  0.00     0.046 A 
ATOM     30  Cl  UNL A   1      31.522  26.119  21.188  1.00  0.00    -0.084 Cl
ATOM     31  C   UNL A   1      30.133  27.946  22.540  1.00  0.00     0.021 A 
ATOM     32  C   UNL A   1      31.110  29.538  24.049  1.00  0.00     0.026 A 
ATOM     33  C   UNL A   1      29.994  29.040  23.373  1.00  0.00     0.004 A 
ENDBRANCH  21  26
ENDBRANCH  19  20
ENDBRANCH  15  19
ENDBRANCH   8  14
ENDBRANCH   4   7
ENDBRANCH   2   3
ENDBRANCH   1   2
BRANCH   1  34
ATOM     34  C   UNL A   1      39.595  22.236  26.470  1.00  0.00     0.023 C 
BRANCH  34  35
ATOM     35  C   UNL A   1      40.980  22.123  27.097  1.00  0.00     0.116 C 
BRANCH  35  36
ATOM     36  N   UNL A   1      42.069  22.085  26.115  1.00  0.00    -0.352 N 
ATOM     37  C   UNL A   1      42.676  23.155  25.467  1.00  0.00     0.251 C 
ATOM     38  H   UNL A   1      42.413  21.192  25.886  1.00  0.00     0.163 HD
ATOM     39  O   UNL A   1      43.271  23.003  24.417  1.00  0.00    -0.269 OA
BRANCH  37  40
ATOM     40  C   UNL A   1      42.605  24.481  26.110  1.00  0.00     0.039 A 
ATOM     41  C   UNL A   1      41.809  25.523  25.627  1.00  0.00     0.014 A 
ATOM     42  C   UNL A   1      43.347  24.634  27.273  1.00  0.00     0.014 A 
ATOM     43  C   UNL A   1      41.713  26.694  26.380  1.00  0.00     0.010 A 
ATOM     44  C   UNL A   1      43.082  25.677  28.109  1.00  0.00     0.010 A 
ATOM     45  C   UNL A   1      42.345  26.752  27.629  1.00  0.00    -0.014 A 
BRANCH  45  46
ATOM     46  C   UNL A   1      42.211  27.884  28.532  1.00  0.00     0.031 A 
ATOM     47  C   UNL A   1      43.263  28.917  28.396  1.00  0.00     0.074 A 
ATOM     48  C   UNL A   1      41.058  28.105  29.203  1.00  0.00     0.049 A 
ATOM     49  N   UNL A   1      44.185  29.199  29.254  1.00  0.00    -0.248 NA
ATOM     50  C   UNL A   1      43.427  29.603  27.104  1.00  0.00     0.031 C 
ATOM     51  C   UNL A   1      39.831  27.306  29.171  1.00  0.00     0.029 A 
ATOM     52  N   UNL A   1      40.685  29.178  29.943  1.00  0.00    -0.354 N 
ATOM     53  C   UNL A   1      44.874  30.283  28.723  1.00  0.00     0.074 A 
ATOM     54  C   UNL A   1      44.533  30.318  27.324  1.00  0.00     0.031 C 
ATOM     55  C   UNL A   1      38.794  28.040  29.625  1.00  0.00     0.029 A 
ATOM     56  C   UNL A   1      39.308  29.290  30.138  1.00  0.00     0.049 A 
ATOM     57  H   UNL A   1      41.331  29.823  30.311  1.00  0.00     0.167 HD
ATOM     58  C   UNL A   1      45.444  31.218  29.534  1.00  0.00     0.037 A 
ATOM     59  C   UNL A   1      38.655  30.368  30.644  1.00  0.00     0.037 A 
ATOM     60  C   UNL A   1      45.463  30.762  30.906  1.00  0.00     0.049 A 
ATOM     61  C   UNL A   1      39.673  31.137  31.420  1.00  0.00     0.074 A 
ATOM     62  C   UNL A   1      45.967  29.643  31.544  1.00  0.00     0.029 A 
ATOM     63  N   UNL A   1      44.529  31.292  31.768  1.00  0.00    -0.354 N 
ATOM     64  N   UNL A   1      40.251  30.670  32.498  1.00  0.00    -0.248 NA
ATOM     65  C   UNL A   1      40.425  32.163  30.711  1.00  0.00     0.031 C 
ATOM     66  C   UNL A   1      44.959  29.274  32.481  1.00  0.00     0.029 A 
ATOM     67  C   UNL A   1      43.954  30.242  32.440  1.00  0.00     0.049 A 
ATOM     68  H   UNL A   1      44.313  32.246  31.880  1.00  0.00     0.167 HD
ATOM     69  C   UNL A   1      41.592  31.007  32.360  1.00  0.00     0.074 A 
ATOM     70  C   UNL A   1      41.625  31.985  31.271  1.00  0.00     0.031 C 
ATOM     71  C   UNL A   1      42.584  30.242  32.909  1.00  0.00     0.037 A 
BRANCH  58  72
ATOM     72  C   UNL A   1      45.637  32.676  29.186  1.00  0.00     0.058 A 
ATOM     73  C   UNL A   1      44.541  33.403  28.678  1.00  0.00     0.135 A 
ATOM     74  C   UNL A   1      46.893  33.310  29.068  1.00  0.00     0.135 A 
ATOM     75  F   UNL A   1      43.298  32.898  28.737  1.00  0.00    -0.206 F 
ATOM     76  C   UNL A   1      44.692  34.625  28.024  1.00  0.00     0.059 A 
ATOM     77  C   UNL A   1      47.059  34.554  28.473  1.00  0.00     0.059 A 
ATOM     78  F   UNL A   1      48.036  32.717  29.433  1.00  0.00    -0.206 F 
ATOM     79  C   UNL A   1      45.960  35.184  27.913  1.00  0.00     0.060 A 
BRANCH  79  80
ATOM     80  S   UNL A   1      46.175  36.708  26.980  1.00  0.00     0.124 S 
ATOM     81  O   UNL A   1      44.865  37.329  27.134  1.00  0.00    -0.237 OA
ATOM     82  O   UNL A   1      47.275  37.345  27.696  1.00  0.00    -0.237 OA
ATOM     83  O   UNL A   1      46.499  36.235  25.637  1.00  0.00    -0.744 OA
ENDBRANCH  79  80
ENDBRANCH  58  72
BRANCH  59  84
ATOM     84  C   UNL A   1      37.366  30.946  30.156  1.00  0.00     0.058 A 
ATOM     85  C   UNL A   1      36.417  31.470  31.054  1.00  0.00     0.135 A 
ATOM     86  C   UNL A   1      37.148  31.246  28.794  1.00  0.00     0.135 A 
ATOM     87  F   UNL A   1      36.537  31.240  32.370  1.00  0.00    -0.206 F 
ATOM     88  C   UNL A   1      35.365  32.298  30.636  1.00  0.00     0.059 A 
ATOM     89  C   UNL A   1      36.103  32.059  28.355  1.00  0.00     0.059 A 
ATOM     90  F   UNL A   1      37.994  30.832  27.839  1.00  0.00    -0.206 F 
ATOM     91  C   UNL A   1      35.233  32.610  29.285  1.00  0.00     0.060 A 
BRANCH  91  92
ATOM     92  S   UNL A   1      34.018  33.842  28.752  1.00  0.00     0.124 S 
ATOM     93  O   UNL A   1      33.164  33.058  27.868  1.00  0.00    -0.237 OA
ATOM     94  O   UNL A   1      33.424  34.254  30.019  1.00  0.00    -0.237 OA
ATOM     95  O   UNL A   1      34.836  34.855  28.091  1.00  0.00    -0.744 OA
ENDBRANCH  91  92
ENDBRANCH  59  84
BRANCH  71  96
ATOM     96  C   UNL A   1      42.225  29.167  33.907  1.00  0.00     0.058 A 
ATOM     97  C   UNL A   1      42.016  27.810  33.592  1.00  0.00     0.135 A 
ATOM     98  C   UNL A   1      42.279  29.499  35.270  1.00  0.00     0.135 A 
ATOM     99  F   UNL A   1      42.062  27.381  32.324  1.00  0.00    -0.206 F 
ATOM    100  C   UNL A   1      41.826  26.843  34.582  1.00  0.00     0.059 A 
ATOM    101  C   UNL A   1      42.127  28.547  36.273  1.00  0.00     0.059 A 
ATOM    102  F   UNL A   1      42.543  30.762  35.644  1.00  0.00    -0.206 F 
ATOM    103  C   UNL A   1      41.884  27.222  35.923  1.00  0.00     0.060 A 
BRANCH 103 104
ATOM    104  S   UNL A   1      41.691  25.966  37.205  1.00  0.00     0.124 S 
ATOM    105  O   UNL A   1      41.886  24.730  36.453  1.00  0.00    -0.237 OA
ATOM    106  O   UNL A   1      42.751  26.308  38.148  1.00  0.00    -0.237 OA
ATOM    107  O   UNL A   1      40.334  26.186  37.699  1.00  0.00    -0.744 OA
ENDBRANCH 103 104
ENDBRANCH  71  96
ENDBRANCH  45  46
ENDBRANCH  37  40
ENDBRANCH  35  36
ENDBRANCH  34  35
ENDBRANCH   1  34
TORSDOF 18
ENDMDL
MODEL 3
REMARK VINA RESULT:     -13.1      2.221      3.328
REMARK SMILES Cc1c(Cl)cccc1NC(=O)NCc1cn([C@@H]2C[NH2+][C@H](C(=O)NCCCCNC(=O)c3ccc(-c4c5nc(c(-c6c(F)cc(S(=O)(=O)[O-])cc6F)c6ccc([nH]6)c(-c6c(F)cc(S(=O)(=O)[O-])cc6F)c6nc(c(-c7c(F)cc(S(=O)(=O)[O-])cc7F)c7ccc4[nH]7)C=C6)C=C5)cc3)C2)nn1
REMARK SMILES IDX 25 1 24 2 23 3 21 4 22 5 20 7 17 8 18 9 97 10 19 11 16 14
REMARK SMILES IDX 14 15 15 16 99 17 98 18 13 19 12 20 9 21 10 22 11 24 8 26
REMARK SMILES IDX 1 27 2 28 3 29 4 30 5 31 7 32 6 33 26 34 27 35 28 36 29 37
REMARK SMILES IDX 30 39 31 40 32 41 96 42 33 43 95 44 34 45 35 46 36 47 89 48
REMARK SMILES IDX 37 49 94 50 88 51 90 52 38 53 93 54 87 55 86 56 39 58 73 59
REMARK SMILES IDX 52 60 72 61 53 62 56 63 71 64 91 65 54 66 55 67 70 69 92 70
REMARK SMILES IDX 57 71 40 72 41 73 50 74 42 75 43 76 49 77 51 78 44 79 45 80
REMARK SMILES IDX 46 81 47 82 48 83 74 84 75 85 84 86 76 87 77 88 83 89 85 90
REMARK SMILES IDX 78 91 79 92 80 93 81 94 82 95 58 96 59 97 68 98 60 99 61 100
REMARK SMILES IDX 67 101 69 102 62 103 63 104 64 105 65 106 66 107
REMARK H PARENT 23 6 19 12 19 13 9 23 12 25 28 38 90 57 56 68
REMARK Flexibility Score: inf
ROOT
ATOM      1  C   UNL A   1      40.185  20.853  26.325  1.00  0.00     0.023 C 
ENDROOT
BRANCH   1   2
ATOM      2  C   UNL A   1      38.924  20.854  25.453  1.00  0.00     0.116 C 
BRANCH   2   3
ATOM      3  N   UNL A   1      38.199  22.109  25.527  1.00  0.00    -0.351 N 
ATOM      4  C   UNL A   1      36.879  22.416  25.602  1.00  0.00     0.278 C 
ATOM      5  O   UNL A   1      36.609  23.624  25.535  1.00  0.00    -0.268 OA
ATOM      6  H   UNL A   1      38.786  22.899  25.522  1.00  0.00     0.163 HD
BRANCH   4   7
ATOM      7  C   UNL A   1      35.722  21.425  25.848  1.00  0.00     0.274 C 
ATOM      8  C   UNL A   1      33.302  21.501  25.665  1.00  0.00     0.170 C 
ATOM      9  C   UNL A   1      33.751  21.924  27.057  1.00  0.00     0.288 C 
ATOM     10  C   UNL A   1      34.585  21.654  24.851  1.00  0.00     0.109 C 
ATOM     11  N   UNL A   1      35.130  21.421  27.208  1.00  0.00    -0.334 N 
ATOM     12  H   UNL A   1      35.123  20.474  27.587  1.00  0.00     0.347 HD
ATOM     13  H   UNL A   1      35.671  22.002  27.849  1.00  0.00     0.347 HD
BRANCH   8  14
ATOM     14  N   UNL A   1      32.181  22.273  25.185  1.00  0.00    -0.243 N 
ATOM     15  C   UNL A   1      30.949  23.672  24.089  1.00  0.00     0.102 A 
ATOM     16  C   UNL A   1      32.050  22.852  23.968  1.00  0.00     0.137 A 
ATOM     17  N   UNL A   1      30.424  23.531  25.343  1.00  0.00    -0.134 NA
ATOM     18  N   UNL A   1      31.185  22.659  26.008  1.00  0.00    -0.067 NA
BRANCH  15  19
ATOM     19  C   UNL A   1      30.646  24.720  23.098  1.00  0.00     0.178 C 
BRANCH  19  20
ATOM     20  N   UNL A   1      31.522  24.914  21.990  1.00  0.00    -0.332 N 
ATOM     21  N   UNL A   1      32.754  26.943  22.441  1.00  0.00    -0.308 N 
ATOM     22  C   UNL A   1      32.522  25.783  21.788  1.00  0.00     0.319 C 
ATOM     23  H   UNL A   1      33.540  27.398  22.061  1.00  0.00     0.171 HD
ATOM     24  O   UNL A   1      33.266  25.544  20.827  1.00  0.00    -0.248 OA
ATOM     25  H   UNL A   1      31.363  24.299  21.238  1.00  0.00     0.165 HD
BRANCH  21  26
ATOM     26  C   UNL A   1      32.210  27.705  23.502  1.00  0.00     0.047 A 
ATOM     27  C   UNL A   1      33.413  26.243  25.238  1.00  0.00     0.048 C 
ATOM     28  C   UNL A   1      32.625  27.464  24.834  1.00  0.00    -0.009 A 
ATOM     29  C   UNL A   1      32.233  28.378  25.844  1.00  0.00     0.046 A 
ATOM     30  Cl  UNL A   1      32.719  28.187  27.497  1.00  0.00    -0.084 Cl
ATOM     31  C   UNL A   1      31.440  29.486  25.555  1.00  0.00     0.021 A 
ATOM     32  C   UNL A   1      31.234  28.680  23.302  1.00  0.00     0.026 A 
ATOM     33  C   UNL A   1      30.922  29.625  24.281  1.00  0.00     0.004 A 
ENDBRANCH  21  26
ENDBRANCH  19  20
ENDBRANCH  15  19
ENDBRANCH   8  14
ENDBRANCH   4   7
ENDBRANCH   2   3
ENDBRANCH   1   2
BRANCH   1  34
ATOM     34  C   UNL A   1      41.087  19.613  26.214  1.00  0.00     0.023 C 
BRANCH  34  35
ATOM     35  C   UNL A   1      42.497  19.782  26.769  1.00  0.00     0.116 C 
BRANCH  35  36
ATOM     36  N   UNL A   1      43.548  19.643  25.757  1.00  0.00    -0.352 N 
ATOM     37  C   UNL A   1      44.096  20.633  24.948  1.00  0.00     0.251 C 
ATOM     38  H   UNL A   1      43.912  18.736  25.633  1.00  0.00     0.163 HD
ATOM     39  O   UNL A   1      44.656  20.358  23.904  1.00  0.00    -0.269 OA
BRANCH  37  40
ATOM     40  C   UNL A   1      44.008  22.030  25.413  1.00  0.00     0.039 A 
ATOM     41  C   UNL A   1      43.014  22.915  24.988  1.00  0.00     0.014 A 
ATOM     42  C   UNL A   1      44.953  22.420  26.352  1.00  0.00     0.014 A 
ATOM     43  C   UNL A   1      42.941  24.175  25.584  1.00  0.00     0.010 A 
ATOM     44  C   UNL A   1      44.748  23.552  27.083  1.00  0.00     0.010 A 
ATOM     45  C   UNL A   1      43.808  24.475  26.644  1.00  0.00    -0.014 A 
BRANCH  45  46
ATOM     46  C   UNL A   1      43.734  25.715  27.399  1.00  0.00     0.031 A 
ATOM     47  C   UNL A   1      44.729  26.742  27.010  1.00  0.00     0.074 A 
ATOM     48  C   UNL A   1      42.655  26.001  28.161  1.00  0.00     0.049 A 
ATOM     49  N   UNL A   1      45.729  27.155  27.713  1.00  0.00    -0.248 NA
ATOM     50  C   UNL A   1      44.726  27.250  25.629  1.00  0.00     0.031 C 
ATOM     51  C   UNL A   1      41.461  25.182  28.374  1.00  0.00     0.029 A 
ATOM     52  N   UNL A   1      42.328  27.157  28.791  1.00  0.00    -0.354 N 
ATOM     53  C   UNL A   1      46.317  28.171  26.969  1.00  0.00     0.074 A 
ATOM     54  C   UNL A   1      45.824  28.011  25.626  1.00  0.00     0.031 C 
ATOM     55  C   UNL A   1      40.455  25.949  28.843  1.00  0.00     0.029 A 
ATOM     56  C   UNL A   1      40.978  27.267  29.125  1.00  0.00     0.049 A 
ATOM     57  H   UNL A   1      42.988  27.858  28.996  1.00  0.00     0.167 HD
ATOM     58  C   UNL A   1      46.940  29.218  27.580  1.00  0.00     0.037 A 
ATOM     59  C   UNL A   1      40.347  28.390  29.556  1.00  0.00     0.037 A 
ATOM     60  C   UNL A   1      47.125  28.952  28.989  1.00  0.00     0.049 A 
ATOM     61  C   UNL A   1      41.417  29.276  30.102  1.00  0.00     0.074 A 
ATOM     62  C   UNL A   1      47.734  27.939  29.708  1.00  0.00     0.029 A 
ATOM     63  N   UNL A   1      46.274  29.574  29.874  1.00  0.00    -0.354 N 
ATOM     64  N   UNL A   1      42.126  28.971  31.160  1.00  0.00    -0.248 NA
ATOM     65  C   UNL A   1      42.050  30.213  29.184  1.00  0.00     0.031 C 
ATOM     66  C   UNL A   1      46.849  27.680  30.793  1.00  0.00     0.029 A 
ATOM     67  C   UNL A   1      45.813  28.613  30.739  1.00  0.00     0.049 A 
ATOM     68  H   UNL A   1      46.038  30.530  29.883  1.00  0.00     0.167 HD
ATOM     69  C   UNL A   1      43.431  29.313  30.828  1.00  0.00     0.074 A 
ATOM     70  C   UNL A   1      43.310  30.136  29.623  1.00  0.00     0.031 C 
ATOM     71  C   UNL A   1      44.504  28.649  31.357  1.00  0.00     0.037 A 
BRANCH  58  72
ATOM     72  C   UNL A   1      47.042  30.619  27.023  1.00  0.00     0.058 A 
ATOM     73  C   UNL A   1      48.301  31.256  27.015  1.00  0.00     0.135 A 
ATOM     74  C   UNL A   1      45.937  31.455  26.755  1.00  0.00     0.135 A 
ATOM     75  F   UNL A   1      49.423  30.558  27.255  1.00  0.00    -0.206 F 
ATOM     76  C   UNL A   1      48.442  32.632  26.843  1.00  0.00     0.059 A 
ATOM     77  C   UNL A   1      46.060  32.820  26.522  1.00  0.00     0.059 A 
ATOM     78  F   UNL A   1      44.674  31.016  26.803  1.00  0.00    -0.206 F 
ATOM     79  C   UNL A   1      47.311  33.408  26.613  1.00  0.00     0.060 A 
BRANCH  79  80
ATOM     80  S   UNL A   1      47.476  35.196  26.495  1.00  0.00     0.124 S 
ATOM     81  O   UNL A   1      46.083  35.607  26.369  1.00  0.00    -0.237 OA
ATOM     82  O   UNL A   1      48.128  35.520  27.760  1.00  0.00    -0.237 OA
ATOM     83  O   UNL A   1      48.301  35.379  25.305  1.00  0.00    -0.744 OA
ENDBRANCH  79  80
ENDBRANCH  58  72
BRANCH  59  84
ATOM     84  C   UNL A   1      38.993  28.871  29.145  1.00  0.00     0.058 A 
ATOM     85  C   UNL A   1      37.994  29.136  30.101  1.00  0.00     0.135 A 
ATOM     86  C   UNL A   1      38.728  29.339  27.840  1.00  0.00     0.135 A 
ATOM     87  F   UNL A   1      38.153  28.732  31.370  1.00  0.00    -0.206 F 
ATOM     88  C   UNL A   1      36.845  29.882  29.799  1.00  0.00     0.059 A 
ATOM     89  C   UNL A   1      37.588  30.074  27.515  1.00  0.00     0.059 A 
ATOM     90  F   UNL A   1      39.611  29.177  26.843  1.00  0.00    -0.206 F 
ATOM     91  C   UNL A   1      36.665  30.371  28.507  1.00  0.00     0.060 A 
BRANCH  91  92
ATOM     92  S   UNL A   1      35.303  31.509  28.149  1.00  0.00     0.124 S 
ATOM     93  O   UNL A   1      34.713  31.696  29.469  1.00  0.00    -0.237 OA
ATOM     94  O   UNL A   1      36.004  32.660  27.591  1.00  0.00    -0.237 OA
ATOM     95  O   UNL A   1      34.484  30.762  27.199  1.00  0.00    -0.744 OA
ENDBRANCH  91  92
ENDBRANCH  59  84
BRANCH  71  96
ATOM     96  C   UNL A   1      44.294  27.711  32.522  1.00  0.00     0.058 A 
ATOM     97  C   UNL A   1      44.096  28.114  33.857  1.00  0.00     0.135 A 
ATOM     98  C   UNL A   1      44.102  26.350  32.237  1.00  0.00     0.135 A 
ATOM     99  F   UNL A   1      44.145  29.407  34.202  1.00  0.00    -0.206 F 
ATOM    100  C   UNL A   1      43.767  27.202  34.863  1.00  0.00     0.059 A 
ATOM    101  C   UNL A   1      43.741  25.430  33.216  1.00  0.00     0.059 A 
ATOM    102  F   UNL A   1      44.208  25.908  30.973  1.00  0.00    -0.206 F 
ATOM    103  C   UNL A   1      43.591  25.859  34.531  1.00  0.00     0.060 A 
BRANCH 103 104
ATOM    104  S   UNL A   1      43.115  24.687  35.819  1.00  0.00     0.124 S 
ATOM    105  O   UNL A   1      42.131  25.452  36.579  1.00  0.00    -0.237 OA
ATOM    106  O   UNL A   1      42.589  23.564  35.049  1.00  0.00    -0.237 OA
ATOM    107  O   UNL A   1      44.370  24.419  36.518  1.00  0.00    -0.744 OA
ENDBRANCH 103 104
ENDBRANCH  71  96
ENDBRANCH  45  46
ENDBRANCH  37  40
ENDBRANCH  35  36
ENDBRANCH  34  35
ENDBRANCH   1  34
TORSDOF 18
ENDMDL
