MODEL 1
REMARK VINA RESULT:     -12.5      0.000      0.000
REMARK SMILES O=C(NCCCCNC(=O)c1c(C(=O)N2CCc3ccccc32)cccc1[N+](=O)[O-])c1ccc(-c2c3nc(c(-c4c(F)cc(S(=O)(=O)[O-])cc4F)c4ccc([nH]4)c(-c4c(F)cc(S(=O)(=O)[O-])cc4F)c4nc(c(-c5c(F)cc(S(=O)(=O)[O-])cc5F)c5ccc2[nH]5)C=C4)C=C3)cc1
REMARK SMILES IDX 5 1 4 2 3 3 1 4 2 5 31 7 32 8 96 9 33 10 95 11 34 12 35 13
REMARK SMILES IDX 36 14 89 15 37 16 94 17 88 18 90 19 38 20 93 21 87 22 86 23
REMARK SMILES IDX 39 25 73 26 52 27 72 28 53 29 56 30 71 31 91 32 54 33 55 34
REMARK SMILES IDX 70 36 92 37 57 38 40 39 41 40 50 41 42 42 43 43 49 44 51 45
REMARK SMILES IDX 44 46 45 47 46 48 47 49 48 50 74 51 75 52 84 53 76 54 77 55
REMARK SMILES IDX 83 56 85 57 78 58 79 59 80 60 81 61 82 62 58 63 59 64 68 65
REMARK SMILES IDX 60 66 61 67 67 68 69 69 62 70 63 71 64 72 65 73 66 74 6 75
REMARK SMILES IDX 7 76 8 77 9 78 10 80 11 81 12 82 27 83 24 84 26 85 25 86
REMARK SMILES IDX 13 87 14 88 15 89 16 90 23 91 17 92 18 93 22 94 19 95 21 96
REMARK SMILES IDX 20 97 28 98 29 99 30 100
REMARK H PARENT 3 6 90 24 56 35 8 79
REMARK Flexibility Score: inf
ROOT
ATOM      1  C   UNL A   1      37.478  23.036  25.743  1.00  0.00     0.023 C 
ENDROOT
BRANCH   1   2
ATOM      2  C   UNL A   1      38.371  24.090  26.396  1.00  0.00     0.116 C 
BRANCH   2   3
ATOM      3  N   UNL A   1      39.785  23.874  26.139  1.00  0.00    -0.352 N 
ATOM      4  O   UNL A   1      41.990  24.315  26.109  1.00  0.00    -0.269 OA
ATOM      5  C   UNL A   1      40.884  24.577  26.576  1.00  0.00     0.251 C 
ATOM      6  H   UNL A   1      39.989  23.104  25.560  1.00  0.00     0.163 HD
BRANCH   5   7
ATOM      7  C   UNL A   1      40.745  25.661  27.575  1.00  0.00     0.039 A 
ATOM      8  C   UNL A   1      41.599  26.766  27.575  1.00  0.00     0.014 A 
ATOM      9  C   UNL A   1      39.710  25.581  28.514  1.00  0.00     0.014 A 
ATOM     10  C   UNL A   1      41.510  27.716  28.593  1.00  0.00     0.010 A 
ATOM     11  C   UNL A   1      39.581  26.569  29.494  1.00  0.00     0.010 A 
ATOM     12  C   UNL A   1      40.502  27.626  29.566  1.00  0.00    -0.014 A 
BRANCH  12  13
ATOM     13  C   UNL A   1      40.404  28.646  30.642  1.00  0.00     0.031 A 
ATOM     14  C   UNL A   1      41.301  28.576  31.848  1.00  0.00     0.074 A 
ATOM     15  C   UNL A   1      39.497  29.635  30.537  1.00  0.00     0.049 A 
ATOM     16  N   UNL A   1      41.322  29.343  32.908  1.00  0.00    -0.248 NA
ATOM     17  C   UNL A   1      42.302  27.498  31.870  1.00  0.00     0.031 C 
ATOM     18  C   UNL A   1      38.567  29.810  29.420  1.00  0.00     0.029 A 
ATOM     19  N   UNL A   1      39.203  30.677  31.380  1.00  0.00    -0.354 N 
ATOM     20  C   UNL A   1      42.315  28.831  33.734  1.00  0.00     0.074 A 
ATOM     21  C   UNL A   1      42.863  27.673  33.059  1.00  0.00     0.031 C 
ATOM     22  C   UNL A   1      37.818  30.900  29.639  1.00  0.00     0.029 A 
ATOM     23  C   UNL A   1      38.178  31.475  30.931  1.00  0.00     0.049 A 
ATOM     24  H   UNL A   1      39.682  30.839  32.226  1.00  0.00     0.167 HD
ATOM     25  C   UNL A   1      42.734  29.284  34.940  1.00  0.00     0.037 A 
ATOM     26  C   UNL A   1      37.578  32.536  31.503  1.00  0.00     0.037 A 
ATOM     27  C   UNL A   1      42.197  30.447  35.600  1.00  0.00     0.049 A 
ATOM     28  C   UNL A   1      38.051  33.018  32.844  1.00  0.00     0.074 A 
ATOM     29  C   UNL A   1      42.577  31.003  36.810  1.00  0.00     0.029 A 
ATOM     30  N   UNL A   1      41.163  31.230  35.109  1.00  0.00    -0.354 N 
ATOM     31  N   UNL A   1      39.006  32.532  33.600  1.00  0.00    -0.248 NA
ATOM     32  C   UNL A   1      37.369  34.189  33.410  1.00  0.00     0.031 C 
ATOM     33  C   UNL A   1      41.751  32.104  37.065  1.00  0.00     0.029 A 
ATOM     34  C   UNL A   1      40.881  32.256  35.997  1.00  0.00     0.049 A 
ATOM     35  H   UNL A   1      40.698  31.080  34.254  1.00  0.00     0.167 HD
ATOM     36  C   UNL A   1      39.051  33.348  34.723  1.00  0.00     0.074 A 
ATOM     37  C   UNL A   1      38.032  34.362  34.546  1.00  0.00     0.031 C 
ATOM     38  C   UNL A   1      39.868  33.263  35.803  1.00  0.00     0.037 A 
BRANCH  25  39
ATOM     39  C   UNL A   1      43.815  28.503  35.635  1.00  0.00     0.058 A 
ATOM     40  C   UNL A   1      43.518  27.467  36.534  1.00  0.00     0.135 A 
ATOM     41  C   UNL A   1      45.169  28.790  35.391  1.00  0.00     0.135 A 
ATOM     42  F   UNL A   1      42.241  27.161  36.814  1.00  0.00    -0.206 F 
ATOM     43  C   UNL A   1      44.523  26.770  37.197  1.00  0.00     0.059 A 
ATOM     44  C   UNL A   1      46.190  28.090  36.025  1.00  0.00     0.059 A 
ATOM     45  F   UNL A   1      45.508  29.767  34.536  1.00  0.00    -0.206 F 
ATOM     46  C   UNL A   1      45.856  27.096  36.945  1.00  0.00     0.060 A 
BRANCH  46  47
ATOM     47  S   UNL A   1      47.151  26.209  37.838  1.00  0.00     0.124 S 
ATOM     48  O   UNL A   1      48.339  26.599  37.084  1.00  0.00    -0.237 OA
ATOM     49  O   UNL A   1      47.045  26.764  39.183  1.00  0.00    -0.237 OA
ATOM     50  O   UNL A   1      46.756  24.811  37.707  1.00  0.00    -0.744 OA
ENDBRANCH  46  47
ENDBRANCH  25  39
BRANCH  26  51
ATOM     51  C   UNL A   1      36.461  33.206  30.789  1.00  0.00     0.058 A 
ATOM     52  C   UNL A   1      35.134  33.040  31.208  1.00  0.00     0.135 A 
ATOM     53  C   UNL A   1      36.709  34.082  29.721  1.00  0.00     0.135 A 
ATOM     54  F   UNL A   1      34.850  32.207  32.220  1.00  0.00    -0.206 F 
ATOM     55  C   UNL A   1      34.089  33.725  30.598  1.00  0.00     0.059 A 
ATOM     56  C   UNL A   1      35.685  34.795  29.108  1.00  0.00     0.059 A 
ATOM     57  F   UNL A   1      37.966  34.284  29.296  1.00  0.00    -0.206 F 
ATOM     58  C   UNL A   1      34.376  34.609  29.555  1.00  0.00     0.060 A 
BRANCH  58  59
ATOM     59  S   UNL A   1      33.026  35.568  28.832  1.00  0.00     0.124 S 
ATOM     60  O   UNL A   1      32.336  34.553  28.044  1.00  0.00    -0.237 OA
ATOM     61  O   UNL A   1      32.320  36.047  30.015  1.00  0.00    -0.237 OA
ATOM     62  O   UNL A   1      33.721  36.598  28.067  1.00  0.00    -0.744 OA
ENDBRANCH  58  59
ENDBRANCH  26  51
BRANCH  38  63
ATOM     63  C   UNL A   1      39.717  34.312  36.868  1.00  0.00     0.058 A 
ATOM     64  C   UNL A   1      38.981  34.072  38.038  1.00  0.00     0.135 A 
ATOM     65  C   UNL A   1      40.371  35.548  36.743  1.00  0.00     0.135 A 
ATOM     66  F   UNL A   1      38.330  32.909  38.200  1.00  0.00    -0.206 F 
ATOM     67  C   UNL A   1      38.893  35.026  39.046  1.00  0.00     0.059 A 
ATOM     68  C   UNL A   1      40.312  36.509  37.747  1.00  0.00     0.059 A 
ATOM     69  F   UNL A   1      41.093  35.822  35.644  1.00  0.00    -0.206 F 
ATOM     70  C   UNL A   1      39.563  36.241  38.893  1.00  0.00     0.060 A 
BRANCH  70  71
ATOM     71  S   UNL A   1      39.486  37.452  40.230  1.00  0.00     0.124 S 
ATOM     72  O   UNL A   1      38.885  36.668  41.302  1.00  0.00    -0.237 OA
ATOM     73  O   UNL A   1      40.890  37.809  40.415  1.00  0.00    -0.237 OA
ATOM     74  O   UNL A   1      38.647  38.512  39.678  1.00  0.00    -0.744 OA
ENDBRANCH  70  71
ENDBRANCH  38  63
ENDBRANCH  12  13
ENDBRANCH   5   7
ENDBRANCH   2   3
ENDBRANCH   1   2
BRANCH   1  75
ATOM     75  C   UNL A   1      36.413  23.560  24.776  1.00  0.00     0.023 C 
BRANCH  75  76
ATOM     76  C   UNL A   1      35.302  24.401  25.399  1.00  0.00     0.116 C 
BRANCH  76  77
ATOM     77  N   UNL A   1      34.634  23.756  26.521  1.00  0.00    -0.352 N 
ATOM     78  C   UNL A   1      33.500  22.979  26.559  1.00  0.00     0.259 C 
ATOM     79  H   UNL A   1      35.066  23.899  27.394  1.00  0.00     0.163 HD
ATOM     80  O   UNL A   1      33.094  22.551  27.633  1.00  0.00    -0.269 OA
BRANCH  78  81
ATOM     81  C   UNL A   1      32.744  22.702  25.324  1.00  0.00     0.130 A 
ATOM     82  C   UNL A   1      31.744  23.587  24.897  1.00  0.00     0.060 A 
ATOM     83  C   UNL A   1      32.988  21.566  24.541  1.00  0.00     0.282 A 
ATOM     84  C   UNL A   1      31.102  23.382  23.662  1.00  0.00     0.015 A 
ATOM     85  C   UNL A   1      32.375  21.378  23.291  1.00  0.00     0.086 A 
ATOM     86  C   UNL A   1      31.446  22.309  22.842  1.00  0.00     0.008 A 
BRANCH  82  87
ATOM     87  C   UNL A   1      31.226  24.684  25.747  1.00  0.00     0.259 C 
ATOM     88  O   UNL A   1      30.343  24.439  26.560  1.00  0.00    -0.269 OA
BRANCH  87  89
ATOM     89  N   UNL A   1      31.708  25.937  25.450  1.00  0.00    -0.308 N 
ATOM     90  C   UNL A   1      32.524  26.707  26.404  1.00  0.00     0.131 C 
ATOM     91  C   UNL A   1      30.973  26.887  24.708  1.00  0.00     0.047 A 
ATOM     92  C   UNL A   1      32.727  28.092  25.769  1.00  0.00     0.059 C 
ATOM     93  C   UNL A   1      31.556  28.148  24.838  1.00  0.00    -0.022 A 
ATOM     94  C   UNL A   1      29.822  26.708  23.962  1.00  0.00     0.026 A 
ATOM     95  C   UNL A   1      31.051  29.244  24.153  1.00  0.00     0.006 A 
ATOM     96  C   UNL A   1      29.295  27.807  23.279  1.00  0.00     0.002 A 
ATOM     97  C   UNL A   1      29.916  29.063  23.361  1.00  0.00     0.000 A 
ENDBRANCH  87  89
ENDBRANCH  82  87
BRANCH  83  98
ATOM     98  N   UNL A   1      33.827  20.486  25.028  1.00  0.00     0.063 N 
ATOM     99  O   UNL A   1      33.272  19.623  25.723  1.00  0.00    -0.258 OA
ATOM    100  O   UNL A   1      35.029  20.520  24.751  1.00  0.00    -0.258 OA
ENDBRANCH  83  98
ENDBRANCH  78  81
ENDBRANCH  76  77
ENDBRANCH  75  76
ENDBRANCH   1  75
TORSDOF 17
ENDMDL
MODEL 2
REMARK VINA RESULT:     -12.4      6.470     11.844
REMARK SMILES O=C(NCCCCNC(=O)c1c(C(=O)N2CCc3ccccc32)cccc1[N+](=O)[O-])c1ccc(-c2c3nc(c(-c4c(F)cc(S(=O)(=O)[O-])cc4F)c4ccc([nH]4)c(-c4c(F)cc(S(=O)(=O)[O-])cc4F)c4nc(c(-c5c(F)cc(S(=O)(=O)[O-])cc5F)c5ccc2[nH]5)C=C4)C=C3)cc1
REMARK SMILES IDX 5 1 4 2 3 3 1 4 2 5 31 7 32 8 96 9 33 10 95 11 34 12 35 13
REMARK SMILES IDX 36 14 89 15 37 16 94 17 88 18 90 19 38 20 93 21 87 22 86 23
REMARK SMILES IDX 39 25 73 26 52 27 72 28 53 29 56 30 71 31 91 32 54 33 55 34
REMARK SMILES IDX 70 36 92 37 57 38 40 39 41 40 50 41 42 42 43 43 49 44 51 45
REMARK SMILES IDX 44 46 45 47 46 48 47 49 48 50 74 51 75 52 84 53 76 54 77 55
REMARK SMILES IDX 83 56 85 57 78 58 79 59 80 60 81 61 82 62 58 63 59 64 68 65
REMARK SMILES IDX 60 66 61 67 67 68 69 69 62 70 63 71 64 72 65 73 66 74 6 75
REMARK SMILES IDX 7 76 8 77 9 78 10 80 11 81 12 82 27 83 24 84 26 85 25 86
REMARK SMILES IDX 13 87 14 88 15 89 16 90 23 91 17 92 18 93 22 94 19 95 21 96
REMARK SMILES IDX 20 97 28 98 29 99 30 100
REMARK H PARENT 3 6 90 24 56 35 8 79
REMARK Flexibility Score: inf
ROOT
ATOM      1  C   UNL A   1      34.490  28.982  27.359  1.00  0.00     0.023 C 
ENDROOT
BRANCH   1   2
ATOM      2  C   UNL A   1      35.260  30.274  27.627  1.00  0.00     0.116 C 
BRANCH   2   3
ATOM      3  N   UNL A   1      35.228  30.674  29.024  1.00  0.00    -0.352 N 
ATOM      4  O   UNL A   1      35.886  30.805  31.171  1.00  0.00    -0.269 OA
ATOM      5  C   UNL A   1      36.179  30.536  30.008  1.00  0.00     0.251 C 
ATOM      6  H   UNL A   1      34.395  31.113  29.312  1.00  0.00     0.163 HD
BRANCH   5   7
ATOM      7  C   UNL A   1      37.537  30.038  29.688  1.00  0.00     0.039 A 
ATOM      8  C   UNL A   1      38.365  29.495  30.674  1.00  0.00     0.014 A 
ATOM      9  C   UNL A   1      37.976  30.088  28.361  1.00  0.00     0.014 A 
ATOM     10  C   UNL A   1      39.676  29.135  30.361  1.00  0.00     0.010 A 
ATOM     11  C   UNL A   1      39.268  29.664  28.037  1.00  0.00     0.010 A 
ATOM     12  C   UNL A   1      40.143  29.218  29.040  1.00  0.00    -0.014 A 
BRANCH  12  13
ATOM     13  C   UNL A   1      41.536  28.822  28.710  1.00  0.00     0.031 A 
ATOM     14  C   UNL A   1      42.650  29.834  28.745  1.00  0.00     0.074 A 
ATOM     15  C   UNL A   1      41.800  27.547  28.368  1.00  0.00     0.049 A 
ATOM     16  N   UNL A   1      43.912  29.684  28.437  1.00  0.00    -0.248 NA
ATOM     17  C   UNL A   1      42.296  31.195  29.177  1.00  0.00     0.031 C 
ATOM     18  C   UNL A   1      40.808  26.473  28.292  1.00  0.00     0.029 A 
ATOM     19  N   UNL A   1      42.978  26.937  28.016  1.00  0.00    -0.354 N 
ATOM     20  C   UNL A   1      44.501  30.931  28.611  1.00  0.00     0.074 A 
ATOM     21  C   UNL A   1      43.451  31.833  29.036  1.00  0.00     0.031 C 
ATOM     22  C   UNL A   1      41.419  25.335  27.933  1.00  0.00     0.029 A 
ATOM     23  C   UNL A   1      42.835  25.606  27.705  1.00  0.00     0.049 A 
ATOM     24  H   UNL A   1      43.842  27.407  27.990  1.00  0.00     0.167 HD
ATOM     25  C   UNL A   1      45.796  31.291  28.438  1.00  0.00     0.037 A 
ATOM     26  C   UNL A   1      43.735  24.707  27.265  1.00  0.00     0.037 A 
ATOM     27  C   UNL A   1      46.841  30.386  28.031  1.00  0.00     0.049 A 
ATOM     28  C   UNL A   1      45.163  25.127  27.070  1.00  0.00     0.074 A 
ATOM     29  C   UNL A   1      48.189  30.650  27.857  1.00  0.00     0.029 A 
ATOM     30  N   UNL A   1      46.656  29.045  27.731  1.00  0.00    -0.354 N 
ATOM     31  N   UNL A   1      45.705  26.306  27.260  1.00  0.00    -0.248 NA
ATOM     32  C   UNL A   1      46.103  24.099  26.602  1.00  0.00     0.031 C 
ATOM     33  C   UNL A   1      48.813  29.475  27.421  1.00  0.00     0.029 A 
ATOM     34  C   UNL A   1      47.860  28.471  27.359  1.00  0.00     0.049 A 
ATOM     35  H   UNL A   1      45.794  28.570  27.777  1.00  0.00     0.167 HD
ATOM     36  C   UNL A   1      47.052  26.159  26.952  1.00  0.00     0.074 A 
ATOM     37  C   UNL A   1      47.245  24.775  26.569  1.00  0.00     0.031 C 
ATOM     38  C   UNL A   1      48.038  27.089  26.987  1.00  0.00     0.037 A 
BRANCH  25  39
ATOM     39  C   UNL A   1      46.149  32.735  28.666  1.00  0.00     0.058 A 
ATOM     40  C   UNL A   1      46.083  33.685  27.635  1.00  0.00     0.135 A 
ATOM     41  C   UNL A   1      46.551  33.176  29.938  1.00  0.00     0.135 A 
ATOM     42  F   UNL A   1      45.718  33.314  26.398  1.00  0.00    -0.206 F 
ATOM     43  C   UNL A   1      46.441  35.013  27.846  1.00  0.00     0.059 A 
ATOM     44  C   UNL A   1      46.891  34.504  30.177  1.00  0.00     0.059 A 
ATOM     45  F   UNL A   1      46.626  32.310  30.961  1.00  0.00    -0.206 F 
ATOM     46  C   UNL A   1      46.855  35.410  29.118  1.00  0.00     0.060 A 
BRANCH  46  47
ATOM     47  S   UNL A   1      47.353  37.128  29.371  1.00  0.00     0.124 S 
ATOM     48  O   UNL A   1      46.056  37.790  29.478  1.00  0.00    -0.237 OA
ATOM     49  O   UNL A   1      48.128  37.054  30.605  1.00  0.00    -0.237 OA
ATOM     50  O   UNL A   1      48.120  37.439  28.169  1.00  0.00    -0.744 OA
ENDBRANCH  46  47
ENDBRANCH  25  39
BRANCH  26  51
ATOM     51  C   UNL A   1      43.292  23.318  26.983  1.00  0.00     0.058 A 
ATOM     52  C   UNL A   1      43.184  22.847  25.668  1.00  0.00     0.135 A 
ATOM     53  C   UNL A   1      43.039  22.415  28.028  1.00  0.00     0.135 A 
ATOM     54  F   UNL A   1      43.409  23.677  24.637  1.00  0.00    -0.206 F 
ATOM     55  C   UNL A   1      42.847  21.526  25.394  1.00  0.00     0.059 A 
ATOM     56  C   UNL A   1      42.722  21.084  27.781  1.00  0.00     0.059 A 
ATOM     57  F   UNL A   1      43.146  22.817  29.304  1.00  0.00    -0.206 F 
ATOM     58  C   UNL A   1      42.628  20.648  26.459  1.00  0.00     0.060 A 
BRANCH  58  59
ATOM     59  S   UNL A   1      42.287  18.912  26.098  1.00  0.00     0.124 S 
ATOM     60  O   UNL A   1      43.219  18.650  25.007  1.00  0.00    -0.237 OA
ATOM     61  O   UNL A   1      42.595  18.266  27.370  1.00  0.00    -0.237 OA
ATOM     62  O   UNL A   1      40.874  18.918  25.735  1.00  0.00    -0.744 OA
ENDBRANCH  58  59
ENDBRANCH  26  51
BRANCH  38  63
ATOM     63  C   UNL A   1      49.426  26.638  26.631  1.00  0.00     0.058 A 
ATOM     64  C   UNL A   1      50.281  26.066  27.585  1.00  0.00     0.135 A 
ATOM     65  C   UNL A   1      49.880  26.721  25.305  1.00  0.00     0.135 A 
ATOM     66  F   UNL A   1      49.896  25.972  28.868  1.00  0.00    -0.206 F 
ATOM     67  C   UNL A   1      51.543  25.597  27.237  1.00  0.00     0.059 A 
ATOM     68  C   UNL A   1      51.132  26.242  24.932  1.00  0.00     0.059 A 
ATOM     69  F   UNL A   1      49.096  27.256  24.356  1.00  0.00    -0.206 F 
ATOM     70  C   UNL A   1      51.959  25.688  25.907  1.00  0.00     0.060 A 
BRANCH  70  71
ATOM     71  S   UNL A   1      53.579  25.030  25.456  1.00  0.00     0.124 S 
ATOM     72  O   UNL A   1      54.337  25.245  26.683  1.00  0.00    -0.237 OA
ATOM     73  O   UNL A   1      53.276  23.638  25.133  1.00  0.00    -0.237 OA
ATOM     74  O   UNL A   1      53.975  25.855  24.318  1.00  0.00    -0.744 OA
ENDBRANCH  70  71
ENDBRANCH  38  63
ENDBRANCH  12  13
ENDBRANCH   5   7
ENDBRANCH   2   3
ENDBRANCH   1   2
BRANCH   1  75
ATOM     75  C   UNL A   1      33.718  28.919  26.037  1.00  0.00     0.023 C 
BRANCH  75  76
ATOM     76  C   UNL A   1      33.790  27.593  25.285  1.00  0.00     0.116 C 
BRANCH  76  77
ATOM     77  N   UNL A   1      34.030  27.740  23.856  1.00  0.00    -0.352 N 
ATOM     78  C   UNL A   1      33.260  27.371  22.778  1.00  0.00     0.259 C 
ATOM     79  H   UNL A   1      34.882  28.175  23.624  1.00  0.00     0.163 HD
ATOM     80  O   UNL A   1      33.671  27.571  21.641  1.00  0.00    -0.269 OA
BRANCH  78  81
ATOM     81  C   UNL A   1      31.967  26.692  22.983  1.00  0.00     0.130 A 
ATOM     82  C   UNL A   1      31.896  25.292  22.965  1.00  0.00     0.060 A 
ATOM     83  C   UNL A   1      30.779  27.403  23.199  1.00  0.00     0.282 A 
ATOM     84  C   UNL A   1      30.686  24.643  23.273  1.00  0.00     0.015 A 
ATOM     85  C   UNL A   1      29.579  26.759  23.542  1.00  0.00     0.086 A 
ATOM     86  C   UNL A   1      29.544  25.371  23.603  1.00  0.00     0.008 A 
BRANCH  82  87
ATOM     87  C   UNL A   1      33.018  24.437  22.512  1.00  0.00     0.259 C 
ATOM     88  O   UNL A   1      33.198  24.281  21.311  1.00  0.00    -0.269 OA
BRANCH  87  89
ATOM     89  N   UNL A   1      33.696  23.777  23.511  1.00  0.00    -0.308 N 
ATOM     90  C   UNL A   1      35.103  24.072  23.826  1.00  0.00     0.131 C 
ATOM     91  C   UNL A   1      33.512  22.404  23.787  1.00  0.00     0.047 A 
ATOM     92  C   UNL A   1      35.531  23.033  24.874  1.00  0.00     0.059 C 
ATOM     93  C   UNL A   1      34.541  21.942  24.609  1.00  0.00    -0.022 A 
ATOM     94  C   UNL A   1      32.522  21.550  23.336  1.00  0.00     0.026 A 
ATOM     95  C   UNL A   1      34.554  20.635  25.071  1.00  0.00     0.006 A 
ATOM     96  C   UNL A   1      32.532  20.227  23.783  1.00  0.00     0.002 A 
ATOM     97  C   UNL A   1      33.532  19.777  24.658  1.00  0.00     0.000 A 
ENDBRANCH  87  89
ENDBRANCH  82  87
BRANCH  83  98
ATOM     98  N   UNL A   1      30.717  28.839  22.996  1.00  0.00     0.063 N 
ATOM     99  O   UNL A   1      30.756  29.546  24.013  1.00  0.00    -0.258 OA
ATOM    100  O   UNL A   1      30.592  29.252  21.839  1.00  0.00    -0.258 OA
ENDBRANCH  83  98
ENDBRANCH  78  81
ENDBRANCH  76  77
ENDBRANCH  75  76
ENDBRANCH   1  75
TORSDOF 17
ENDMDL
MODEL 3
REMARK VINA RESULT:     -12.4      1.508      3.159
REMARK SMILES O=C(NCCCCNC(=O)c1c(C(=O)N2CCc3ccccc32)cccc1[N+](=O)[O-])c1ccc(-c2c3nc(c(-c4c(F)cc(S(=O)(=O)[O-])cc4F)c4ccc([nH]4)c(-c4c(F)cc(S(=O)(=O)[O-])cc4F)c4nc(c(-c5c(F)cc(S(=O)(=O)[O-])cc5F)c5ccc2[nH]5)C=C4)C=C3)cc1
REMARK SMILES IDX 5 1 4 2 3 3 1 4 2 5 31 7 32 8 96 9 33 10 95 11 34 12 35 13
REMARK SMILES IDX 36 14 89 15 37 16 94 17 88 18 90 19 38 20 93 21 87 22 86 23
REMARK SMILES IDX 39 25 73 26 52 27 72 28 53 29 56 30 71 31 91 32 54 33 55 34
REMARK SMILES IDX 70 36 92 37 57 38 40 39 41 40 50 41 42 42 43 43 49 44 51 45
REMARK SMILES IDX 44 46 45 47 46 48 47 49 48 50 74 51 75 52 84 53 76 54 77 55
REMARK SMILES IDX 83 56 85 57 78 58 79 59 80 60 81 61 82 62 58 63 59 64 68 65
REMARK SMILES IDX 60 66 61 67 67 68 69 69 62 70 63 71 64 72 65 73 66 74 6 75
REMARK SMILES IDX 7 76 8 77 9 78 10 80 11 81 12 82 27 83 24 84 26 85 25 86
REMARK SMILES IDX 13 87 14 88 15 89 16 90 23 91 17 92 18 93 22 94 19 95 21 96
REMARK SMILES IDX 20 97 28 98 29 99 30 100
REMARK H PARENT 3 6 90 24 56 35 8 79
REMARK Flexibility Score: inf
ROOT
ATOM      1  C   UNL A   1      37.209  23.712  25.334  1.00  0.00     0.023 C 
ENDROOT
BRANCH   1   2
ATOM      2  C   UNL A   1      38.147  24.097  26.478  1.00  0.00     0.116 C 
BRANCH   2   3
ATOM      3  N   UNL A   1      39.549  23.903  26.151  1.00  0.00    -0.352 N 
ATOM      4  O   UNL A   1      41.744  24.377  26.019  1.00  0.00    -0.269 OA
ATOM      5  C   UNL A   1      40.658  24.620  26.539  1.00  0.00     0.251 C 
ATOM      6  H   UNL A   1      39.737  23.139  25.559  1.00  0.00     0.163 HD
BRANCH   5   7
ATOM      7  C   UNL A   1      40.551  25.696  27.551  1.00  0.00     0.039 A 
ATOM      8  C   UNL A   1      41.398  26.807  27.526  1.00  0.00     0.014 A 
ATOM      9  C   UNL A   1      39.554  25.603  28.529  1.00  0.00     0.014 A 
ATOM     10  C   UNL A   1      41.343  27.749  28.553  1.00  0.00     0.010 A 
ATOM     11  C   UNL A   1      39.457  26.584  29.521  1.00  0.00     0.010 A 
ATOM     12  C   UNL A   1      40.374  27.646  29.564  1.00  0.00    -0.014 A 
BRANCH  12  13
ATOM     13  C   UNL A   1      40.311  28.658  30.650  1.00  0.00     0.031 A 
ATOM     14  C   UNL A   1      41.230  28.564  31.839  1.00  0.00     0.074 A 
ATOM     15  C   UNL A   1      39.418  29.662  30.571  1.00  0.00     0.049 A 
ATOM     16  N   UNL A   1      41.282  29.321  32.905  1.00  0.00    -0.248 NA
ATOM     17  C   UNL A   1      42.214  27.470  31.833  1.00  0.00     0.031 C 
ATOM     18  C   UNL A   1      38.471  29.861  29.472  1.00  0.00     0.029 A 
ATOM     19  N   UNL A   1      39.157  30.701  31.428  1.00  0.00    -0.354 N 
ATOM     20  C   UNL A   1      42.282  28.786  33.708  1.00  0.00     0.074 A 
ATOM     21  C   UNL A   1      42.800  27.625  33.013  1.00  0.00     0.031 C 
ATOM     22  C   UNL A   1      37.744  30.961  29.714  1.00  0.00     0.029 A 
ATOM     23  C   UNL A   1      38.136  31.518  31.005  1.00  0.00     0.049 A 
ATOM     24  H   UNL A   1      39.653  30.847  32.265  1.00  0.00     0.167 HD
ATOM     25  C   UNL A   1      42.730  29.222  34.910  1.00  0.00     0.037 A 
ATOM     26  C   UNL A   1      37.564  32.583  31.596  1.00  0.00     0.037 A 
ATOM     27  C   UNL A   1      42.224  30.387  35.590  1.00  0.00     0.049 A 
ATOM     28  C   UNL A   1      38.068  33.046  32.932  1.00  0.00     0.074 A 
ATOM     29  C   UNL A   1      42.635  30.927  36.797  1.00  0.00     0.029 A 
ATOM     30  N   UNL A   1      41.194  31.191  35.124  1.00  0.00    -0.354 N 
ATOM     31  N   UNL A   1      39.030  32.539  33.666  1.00  0.00    -0.248 NA
ATOM     32  C   UNL A   1      37.415  34.223  33.521  1.00  0.00     0.031 C 
ATOM     33  C   UNL A   1      41.831  32.038  37.077  1.00  0.00     0.029 A 
ATOM     34  C   UNL A   1      40.944  32.213  36.026  1.00  0.00     0.049 A 
ATOM     35  H   UNL A   1      40.710  31.055  34.277  1.00  0.00     0.167 HD
ATOM     36  C   UNL A   1      39.109  33.344  34.796  1.00  0.00     0.074 A 
ATOM     37  C   UNL A   1      38.102  34.376  34.646  1.00  0.00     0.031 C 
ATOM     38  C   UNL A   1      39.943  33.237  35.859  1.00  0.00     0.037 A 
BRANCH  25  39
ATOM     39  C   UNL A   1      43.812  28.418  35.577  1.00  0.00     0.058 A 
ATOM     40  C   UNL A   1      43.515  27.392  36.488  1.00  0.00     0.135 A 
ATOM     41  C   UNL A   1      45.164  28.674  35.296  1.00  0.00     0.135 A 
ATOM     42  F   UNL A   1      42.240  27.115  36.802  1.00  0.00    -0.206 F 
ATOM     43  C   UNL A   1      44.521  26.673  37.125  1.00  0.00     0.059 A 
ATOM     44  C   UNL A   1      46.186  27.952  35.905  1.00  0.00     0.059 A 
ATOM     45  F   UNL A   1      45.503  29.641  34.430  1.00  0.00    -0.206 F 
ATOM     46  C   UNL A   1      45.855  26.968  36.837  1.00  0.00     0.060 A 
BRANCH  46  47
ATOM     47  S   UNL A   1      47.153  26.054  37.698  1.00  0.00     0.124 S 
ATOM     48  O   UNL A   1      48.349  26.548  37.022  1.00  0.00    -0.237 OA
ATOM     49  O   UNL A   1      46.983  26.489  39.079  1.00  0.00    -0.237 OA
ATOM     50  O   UNL A   1      46.815  24.659  37.436  1.00  0.00    -0.744 OA
ENDBRANCH  46  47
ENDBRANCH  25  39
BRANCH  26  51
ATOM     51  C   UNL A   1      36.444  33.276  30.909  1.00  0.00     0.058 A 
ATOM     52  C   UNL A   1      35.132  33.181  31.390  1.00  0.00     0.135 A 
ATOM     53  C   UNL A   1      36.680  34.106  29.801  1.00  0.00     0.135 A 
ATOM     54  F   UNL A   1      34.859  32.394  32.442  1.00  0.00    -0.206 F 
ATOM     55  C   UNL A   1      34.090  33.890  30.803  1.00  0.00     0.059 A 
ATOM     56  C   UNL A   1      35.659  34.842  29.210  1.00  0.00     0.059 A 
ATOM     57  F   UNL A   1      37.924  34.241  29.316  1.00  0.00    -0.206 F 
ATOM     58  C   UNL A   1      34.365  34.727  29.719  1.00  0.00     0.060 A 
BRANCH  58  59
ATOM     59  S   UNL A   1      33.026  35.718  29.023  1.00  0.00     0.124 S 
ATOM     60  O   UNL A   1      33.765  36.786  28.360  1.00  0.00    -0.237 OA
ATOM     61  O   UNL A   1      32.359  34.763  28.144  1.00  0.00    -0.237 OA
ATOM     62  O   UNL A   1      32.258  36.115  30.199  1.00  0.00    -0.744 OA
ENDBRANCH  58  59
ENDBRANCH  26  51
BRANCH  38  63
ATOM     63  C   UNL A   1      39.829  34.279  36.936  1.00  0.00     0.058 A 
ATOM     64  C   UNL A   1      40.411  35.547  36.797  1.00  0.00     0.135 A 
ATOM     65  C   UNL A   1      39.072  34.025  38.090  1.00  0.00     0.135 A 
ATOM     66  F   UNL A   1      41.152  35.836  35.714  1.00  0.00    -0.206 F 
ATOM     67  C   UNL A   1      40.254  36.528  37.770  1.00  0.00     0.059 A 
ATOM     68  C   UNL A   1      38.886  34.996  39.068  1.00  0.00     0.059 A 
ATOM     69  F   UNL A   1      38.490  32.828  38.266  1.00  0.00    -0.206 F 
ATOM     70  C   UNL A   1      39.487  36.244  38.902  1.00  0.00     0.060 A 
BRANCH  70  71
ATOM     71  S   UNL A   1      39.244  37.539  40.136  1.00  0.00     0.124 S 
ATOM     72  O   UNL A   1      40.573  38.137  40.200  1.00  0.00    -0.237 OA
ATOM     73  O   UNL A   1      38.206  38.366  39.527  1.00  0.00    -0.237 OA
ATOM     74  O   UNL A   1      38.828  36.801  41.325  1.00  0.00    -0.744 OA
ENDBRANCH  70  71
ENDBRANCH  38  63
ENDBRANCH  12  13
ENDBRANCH   5   7
ENDBRANCH   2   3
ENDBRANCH   1   2
BRANCH   1  75
ATOM     75  C   UNL A   1      35.714  23.687  25.667  1.00  0.00     0.023 C 
BRANCH  75  76
ATOM     76  C   UNL A   1      34.874  24.798  25.044  1.00  0.00     0.116 C 
BRANCH  76  77
ATOM     77  N   UNL A   1      34.532  24.565  23.647  1.00  0.00    -0.352 N 
ATOM     78  C   UNL A   1      33.548  25.120  22.864  1.00  0.00     0.259 C 
ATOM     79  H   UNL A   1      35.099  23.903  23.190  1.00  0.00     0.163 HD
ATOM     80  O   UNL A   1      33.420  24.755  21.700  1.00  0.00    -0.269 OA
BRANCH  78  81
ATOM     81  C   UNL A   1      32.615  26.112  23.429  1.00  0.00     0.130 A 
ATOM     82  C   UNL A   1      31.448  25.690  24.081  1.00  0.00     0.060 A 
ATOM     83  C   UNL A   1      32.850  27.491  23.341  1.00  0.00     0.282 A 
ATOM     84  C   UNL A   1      30.617  26.629  24.719  1.00  0.00     0.015 A 
ATOM     85  C   UNL A   1      32.043  28.427  24.007  1.00  0.00     0.086 A 
ATOM     86  C   UNL A   1      30.935  27.986  24.719  1.00  0.00     0.008 A 
BRANCH  82  87
ATOM     87  C   UNL A   1      30.963  24.290  24.033  1.00  0.00     0.259 C 
ATOM     88  O   UNL A   1      30.195  23.959  23.139  1.00  0.00    -0.269 OA
BRANCH  87  89
ATOM     89  N   UNL A   1      31.330  23.504  25.100  1.00  0.00    -0.308 N 
ATOM     90  C   UNL A   1      31.692  24.078  26.406  1.00  0.00     0.131 C 
ATOM     91  C   UNL A   1      32.105  22.331  24.960  1.00  0.00     0.047 A 
ATOM     92  C   UNL A   1      32.184  22.904  27.266  1.00  0.00     0.059 C 
ATOM     93  C   UNL A   1      32.589  21.929  26.205  1.00  0.00    -0.022 A 
ATOM     94  C   UNL A   1      32.424  21.631  23.811  1.00  0.00     0.026 A 
ATOM     95  C   UNL A   1      33.332  20.766  26.342  1.00  0.00     0.006 A 
ATOM     96  C   UNL A   1      33.184  20.465  23.934  1.00  0.00     0.002 A 
ATOM     97  C   UNL A   1      33.621  20.027  25.193  1.00  0.00     0.000 A 
ENDBRANCH  87  89
ENDBRANCH  82  87
BRANCH  83  98
ATOM     98  N   UNL A   1      33.896  28.019  22.484  1.00  0.00     0.063 N 
ATOM     99  O   UNL A   1      33.777  27.809  21.269  1.00  0.00    -0.258 OA
ATOM    100  O   UNL A   1      34.842  28.602  23.023  1.00  0.00    -0.258 OA
ENDBRANCH  83  98
ENDBRANCH  78  81
ENDBRANCH  76  77
ENDBRANCH  75  76
ENDBRANCH   1  75
TORSDOF 17
ENDMDL
