MODEL 1
REMARK VINA RESULT:     -10.6      0.000      0.000
REMARK SMILES C#CC[N@@H+](CC(=O)NCCCCNC(=O)c1ccc(-c2c3nc(c(-c4c(F)cc(S(=O)(=O)[O-])cc4F)c4ccc([nH]4)c(-c4c(F)cc(S(=O)(=O)[O-])cc4F)c4nc(c(-c5c(F)cc(S(=O)(=O)[O-])cc5F)c5ccc2[nH]5)C=C4)C=C3)cc1)Cc1cn(CC)c2ccccc12
REMARK SMILES IDX 10 1 9 2 8 3 6 4 7 5 5 7 4 8 3 10 2 11 1 12 82 13 83 14
REMARK SMILES IDX 84 15 93 16 85 17 88 18 92 19 89 20 91 21 90 22 86 23 87 24
REMARK SMILES IDX 11 25 12 26 13 27 14 28 15 30 16 31 17 32 81 33 18 34 80 35
REMARK SMILES IDX 19 36 20 37 21 38 74 39 22 40 79 41 73 42 75 43 23 44 78 45
REMARK SMILES IDX 72 46 71 47 24 49 58 50 37 51 57 52 38 53 41 54 56 55 76 56
REMARK SMILES IDX 39 57 40 58 55 60 77 61 42 62 25 63 26 64 35 65 27 66 28 67
REMARK SMILES IDX 34 68 36 69 29 70 30 71 31 72 32 73 33 74 59 75 60 76 69 77
REMARK SMILES IDX 61 78 62 79 68 80 70 81 63 82 64 83 65 84 66 85 67 86 43 87
REMARK SMILES IDX 44 88 53 89 45 90 46 91 52 92 54 93 47 94 48 95 49 96 50 97
REMARK SMILES IDX 51 98
REMARK H PARENT 8 6 4 9 13 29 75 48 41 59
REMARK Flexibility Score: inf
ROOT
ATOM      1  C   UNL A   1      32.680  29.211  24.222  1.00  0.00     0.023 C 
ENDROOT
BRANCH   1   2
ATOM      2  C   UNL A   1      31.372  28.865  24.966  1.00  0.00     0.116 C 
BRANCH   2   3
ATOM      3  N   UNL A   1      30.558  27.874  24.278  1.00  0.00    -0.351 N 
ATOM      4  C   UNL A   1      30.150  26.610  24.613  1.00  0.00     0.275 C 
ATOM      5  O   UNL A   1      29.358  26.083  23.824  1.00  0.00    -0.269 OA
ATOM      6  H   UNL A   1      30.237  28.171  23.396  1.00  0.00     0.163 HD
BRANCH   4   7
ATOM      7  C   UNL A   1      30.596  25.887  25.914  1.00  0.00     0.364 C 
BRANCH   7   8
ATOM      8  N   UNL A   1      31.700  24.855  25.783  1.00  0.00    -0.313 N 
ATOM      9  H   UNL A   1      31.694  24.456  24.844  1.00  0.00     0.349 HD
BRANCH   8  10
ATOM     10  C   UNL A   1      31.419  23.917  26.837  1.00  0.00     0.354 C 
BRANCH  10  11
ATOM     11  C   UNL A   1      32.414  22.917  27.401  1.00  0.00    -0.047 C 
ATOM     12  C   UNL A   1      33.268  22.059  27.886  1.00  0.00     0.010 C 
ENDBRANCH  10  11
ENDBRANCH   8  10
BRANCH   8  13
ATOM     13  C   UNL A   1      33.080  25.387  25.928  1.00  0.00     0.302 C 
BRANCH  13  14
ATOM     14  C   UNL A   1      33.894  24.981  24.749  1.00  0.00     0.032 A 
ATOM     15  C   UNL A   1      33.460  24.993  23.438  1.00  0.00     0.096 A 
ATOM     16  C   UNL A   1      35.136  24.285  24.772  1.00  0.00     0.008 A 
ATOM     17  N   UNL A   1      34.114  23.954  22.814  1.00  0.00    -0.347 N 
ATOM     18  C   UNL A   1      35.224  23.591  23.559  1.00  0.00     0.048 A 
ATOM     19  C   UNL A   1      36.076  24.032  25.790  1.00  0.00     0.011 A 
ATOM     20  C   UNL A   1      36.227  22.635  23.345  1.00  0.00     0.027 A 
ATOM     21  C   UNL A   1      37.090  23.100  25.573  1.00  0.00     0.001 A 
ATOM     22  C   UNL A   1      37.158  22.408  24.368  1.00  0.00     0.002 A 
BRANCH  17  23
ATOM     23  C   UNL A   1      33.431  23.124  21.831  1.00  0.00     0.119 C 
ATOM     24  C   UNL A   1      32.444  22.124  22.390  1.00  0.00     0.027 C 
ENDBRANCH  17  23
ENDBRANCH  13  14
ENDBRANCH   8  13
ENDBRANCH   7   8
ENDBRANCH   4   7
ENDBRANCH   2   3
ENDBRANCH   1   2
BRANCH   1  25
ATOM     25  C   UNL A   1      33.928  28.568  24.785  1.00  0.00     0.023 C 
BRANCH  25  26
ATOM     26  C   UNL A   1      34.050  28.766  26.271  1.00  0.00     0.116 C 
BRANCH  26  27
ATOM     27  N   UNL A   1      33.892  30.166  26.665  1.00  0.00    -0.352 N 
ATOM     28  C   UNL A   1      34.699  30.878  27.519  1.00  0.00     0.251 C 
ATOM     29  H   UNL A   1      33.128  30.649  26.277  1.00  0.00     0.163 HD
ATOM     30  O   UNL A   1      34.420  32.007  27.884  1.00  0.00    -0.269 OA
BRANCH  28  31
ATOM     31  C   UNL A   1      35.901  30.176  27.984  1.00  0.00     0.039 A 
ATOM     32  C   UNL A   1      37.099  30.363  27.297  1.00  0.00     0.014 A 
ATOM     33  C   UNL A   1      35.853  29.574  29.244  1.00  0.00     0.014 A 
ATOM     34  C   UNL A   1      38.284  29.978  27.913  1.00  0.00     0.010 A 
ATOM     35  C   UNL A   1      37.039  29.318  29.902  1.00  0.00     0.010 A 
ATOM     36  C   UNL A   1      38.260  29.487  29.230  1.00  0.00    -0.014 A 
BRANCH  36  37
ATOM     37  C   UNL A   1      39.493  29.050  29.915  1.00  0.00     0.031 A 
ATOM     38  C   UNL A   1      39.879  29.748  31.189  1.00  0.00     0.074 A 
ATOM     39  C   UNL A   1      40.279  28.107  29.365  1.00  0.00     0.049 A 
ATOM     40  N   UNL A   1      40.967  29.629  31.899  1.00  0.00    -0.248 NA
ATOM     41  C   UNL A   1      38.936  30.760  31.701  1.00  0.00     0.031 C 
ATOM     42  C   UNL A   1      40.023  27.415  28.098  1.00  0.00     0.029 A 
ATOM     43  N   UNL A   1      41.460  27.569  29.804  1.00  0.00    -0.354 N 
ATOM     44  C   UNL A   1      40.851  30.571  32.913  1.00  0.00     0.074 A 
ATOM     45  C   UNL A   1      39.633  31.310  32.681  1.00  0.00     0.031 C 
ATOM     46  C   UNL A   1      41.000  26.516  27.883  1.00  0.00     0.029 A 
ATOM     47  C   UNL A   1      41.962  26.592  28.977  1.00  0.00     0.049 A 
ATOM     48  H   UNL A   1      41.907  27.855  30.632  1.00  0.00     0.167 HD
ATOM     49  C   UNL A   1      41.666  30.772  33.972  1.00  0.00     0.037 A 
ATOM     50  C   UNL A   1      43.073  25.841  29.106  1.00  0.00     0.037 A 
ATOM     51  C   UNL A   1      42.836  29.980  34.225  1.00  0.00     0.049 A 
ATOM     52  C   UNL A   1      43.942  26.049  30.317  1.00  0.00     0.074 A 
ATOM     53  C   UNL A   1      43.704  30.039  35.298  1.00  0.00     0.029 A 
ATOM     54  N   UNL A   1      43.287  28.965  33.392  1.00  0.00    -0.354 N 
ATOM     55  N   UNL A   1      43.794  26.908  31.299  1.00  0.00    -0.248 NA
ATOM     56  C   UNL A   1      45.121  25.183  30.444  1.00  0.00     0.031 C 
ATOM     57  C   UNL A   1      44.695  29.071  35.103  1.00  0.00     0.029 A 
ATOM     58  C   UNL A   1      44.425  28.389  33.925  1.00  0.00     0.049 A 
ATOM     59  H   UNL A   1      42.860  28.694  32.547  1.00  0.00     0.167 HD
ATOM     60  C   UNL A   1      44.849  26.671  32.173  1.00  0.00     0.074 A 
ATOM     61  C   UNL A   1      45.619  25.581  31.608  1.00  0.00     0.031 C 
ATOM     62  C   UNL A   1      45.156  27.295  33.337  1.00  0.00     0.037 A 
BRANCH  49  63
ATOM     63  C   UNL A   1      41.291  31.867  34.929  1.00  0.00     0.058 A 
ATOM     64  C   UNL A   1      40.399  31.642  35.992  1.00  0.00     0.135 A 
ATOM     65  C   UNL A   1      41.802  33.164  34.768  1.00  0.00     0.135 A 
ATOM     66  F   UNL A   1      39.859  30.426  36.174  1.00  0.00    -0.206 F 
ATOM     67  C   UNL A   1      39.994  32.670  36.833  1.00  0.00     0.059 A 
ATOM     68  C   UNL A   1      41.434  34.203  35.618  1.00  0.00     0.059 A 
ATOM     69  F   UNL A   1      42.651  33.437  33.764  1.00  0.00    -0.206 F 
ATOM     70  C   UNL A   1      40.513  33.950  36.634  1.00  0.00     0.060 A 
BRANCH  70  71
ATOM     71  S   UNL A   1      39.966  35.281  37.724  1.00  0.00     0.124 S 
ATOM     72  O   UNL A   1      39.972  36.421  36.814  1.00  0.00    -0.237 OA
ATOM     73  O   UNL A   1      38.649  34.818  38.150  1.00  0.00    -0.237 OA
ATOM     74  O   UNL A   1      40.986  35.304  38.767  1.00  0.00    -0.744 OA
ENDBRANCH  70  71
ENDBRANCH  49  63
BRANCH  50  75
ATOM     75  C   UNL A   1      43.390  24.798  28.097  1.00  0.00     0.058 A 
ATOM     76  C   UNL A   1      44.200  25.096  26.990  1.00  0.00     0.135 A 
ATOM     77  C   UNL A   1      42.915  23.483  28.223  1.00  0.00     0.135 A 
ATOM     78  F   UNL A   1      44.678  26.338  26.826  1.00  0.00    -0.206 F 
ATOM     79  C   UNL A   1      44.518  24.133  26.038  1.00  0.00     0.059 A 
ATOM     80  C   UNL A   1      43.235  22.498  27.294  1.00  0.00     0.059 A 
ATOM     81  F   UNL A   1      42.153  23.142  29.274  1.00  0.00    -0.206 F 
ATOM     82  C   UNL A   1      44.030  22.835  26.198  1.00  0.00     0.060 A 
BRANCH  82  83
ATOM     83  S   UNL A   1      44.490  21.581  24.982  1.00  0.00     0.124 S 
ATOM     84  O   UNL A   1      45.882  21.328  25.334  1.00  0.00    -0.237 OA
ATOM     85  O   UNL A   1      43.550  20.505  25.279  1.00  0.00    -0.237 OA
ATOM     86  O   UNL A   1      44.272  22.257  23.707  1.00  0.00    -0.744 OA
ENDBRANCH  82  83
ENDBRANCH  50  75
BRANCH  62  87
ATOM     87  C   UNL A   1      46.355  26.797  34.086  1.00  0.00     0.058 A 
ATOM     88  C   UNL A   1      46.255  25.746  35.008  1.00  0.00     0.135 A 
ATOM     89  C   UNL A   1      47.627  27.328  33.820  1.00  0.00     0.135 A 
ATOM     90  F   UNL A   1      45.059  25.211  35.299  1.00  0.00    -0.206 F 
ATOM     91  C   UNL A   1      47.379  25.244  35.654  1.00  0.00     0.059 A 
ATOM     92  C   UNL A   1      48.766  26.827  34.437  1.00  0.00     0.059 A 
ATOM     93  F   UNL A   1      47.771  28.327  32.934  1.00  0.00    -0.206 F 
ATOM     94  C   UNL A   1      48.630  25.789  35.360  1.00  0.00     0.060 A 
BRANCH  94  95
ATOM     95  S   UNL A   1      50.088  25.095  36.165  1.00  0.00     0.124 S 
ATOM     96  O   UNL A   1      50.222  23.816  35.477  1.00  0.00    -0.237 OA
ATOM     97  O   UNL A   1      51.115  26.089  35.865  1.00  0.00    -0.237 OA
ATOM     98  O   UNL A   1      49.694  25.017  37.569  1.00  0.00    -0.744 OA
ENDBRANCH  94  95
ENDBRANCH  62  87
ENDBRANCH  36  37
ENDBRANCH  28  31
ENDBRANCH  26  27
ENDBRANCH  25  26
ENDBRANCH   1  25
TORSDOF 20
ENDMDL
MODEL 2
REMARK VINA RESULT:     -10.6      2.883      3.998
REMARK SMILES C#CC[N@@H+](CC(=O)NCCCCNC(=O)c1ccc(-c2c3nc(c(-c4c(F)cc(S(=O)(=O)[O-])cc4F)c4ccc([nH]4)c(-c4c(F)cc(S(=O)(=O)[O-])cc4F)c4nc(c(-c5c(F)cc(S(=O)(=O)[O-])cc5F)c5ccc2[nH]5)C=C4)C=C3)cc1)Cc1cn(CC)c2ccccc12
REMARK SMILES IDX 10 1 9 2 8 3 6 4 7 5 5 7 4 8 3 10 2 11 1 12 82 13 83 14
REMARK SMILES IDX 84 15 93 16 85 17 88 18 92 19 89 20 91 21 90 22 86 23 87 24
REMARK SMILES IDX 11 25 12 26 13 27 14 28 15 30 16 31 17 32 81 33 18 34 80 35
REMARK SMILES IDX 19 36 20 37 21 38 74 39 22 40 79 41 73 42 75 43 23 44 78 45
REMARK SMILES IDX 72 46 71 47 24 49 58 50 37 51 57 52 38 53 41 54 56 55 76 56
REMARK SMILES IDX 39 57 40 58 55 60 77 61 42 62 25 63 26 64 35 65 27 66 28 67
REMARK SMILES IDX 34 68 36 69 29 70 30 71 31 72 32 73 33 74 59 75 60 76 69 77
REMARK SMILES IDX 61 78 62 79 68 80 70 81 63 82 64 83 65 84 66 85 67 86 43 87
REMARK SMILES IDX 44 88 53 89 45 90 46 91 52 92 54 93 47 94 48 95 49 96 50 97
REMARK SMILES IDX 51 98
REMARK H PARENT 8 6 4 9 13 29 75 48 41 59
REMARK Flexibility Score: inf
ROOT
ATOM      1  C   UNL A   1      32.965  29.345  24.984  1.00  0.00     0.023 C 
ENDROOT
BRANCH   1   2
ATOM      2  C   UNL A   1      32.087  28.704  23.886  1.00  0.00     0.116 C 
BRANCH   2   3
ATOM      3  N   UNL A   1      32.853  28.157  22.777  1.00  0.00    -0.351 N 
ATOM      4  C   UNL A   1      33.213  26.880  22.435  1.00  0.00     0.275 C 
ATOM      5  O   UNL A   1      33.782  26.765  21.345  1.00  0.00    -0.269 OA
ATOM      6  H   UNL A   1      33.177  28.840  22.146  1.00  0.00     0.163 HD
BRANCH   4   7
ATOM      7  C   UNL A   1      32.893  25.640  23.315  1.00  0.00     0.364 C 
BRANCH   7   8
ATOM      8  N   UNL A   1      32.425  24.389  22.596  1.00  0.00    -0.313 N 
ATOM      9  H   UNL A   1      32.521  24.510  21.588  1.00  0.00     0.349 HD
BRANCH   8  10
ATOM     10  C   UNL A   1      31.073  24.217  23.055  1.00  0.00     0.354 C 
BRANCH  10  11
ATOM     11  C   UNL A   1      30.206  25.318  23.644  1.00  0.00    -0.047 C 
ATOM     12  C   UNL A   1      29.463  26.262  24.149  1.00  0.00     0.010 C 
ENDBRANCH  10  11
ENDBRANCH   8  10
BRANCH   8  13
ATOM     13  C   UNL A   1      33.221  23.166  22.880  1.00  0.00     0.302 C 
BRANCH  13  14
ATOM     14  C   UNL A   1      34.005  23.365  24.130  1.00  0.00     0.032 A 
ATOM     15  C   UNL A   1      35.380  23.472  24.200  1.00  0.00     0.096 A 
ATOM     16  C   UNL A   1      33.529  23.226  25.465  1.00  0.00     0.008 A 
ATOM     17  N   UNL A   1      35.741  22.926  25.412  1.00  0.00    -0.347 N 
ATOM     18  C   UNL A   1      34.638  22.887  26.249  1.00  0.00     0.048 A 
ATOM     19  C   UNL A   1      32.236  23.162  26.021  1.00  0.00     0.011 A 
ATOM     20  C   UNL A   1      34.482  22.470  27.579  1.00  0.00     0.027 A 
ATOM     21  C   UNL A   1      32.078  22.771  27.350  1.00  0.00     0.001 A 
ATOM     22  C   UNL A   1      33.187  22.425  28.113  1.00  0.00     0.002 A 
BRANCH  17  23
ATOM     23  C   UNL A   1      36.943  22.114  25.537  1.00  0.00     0.119 C 
ATOM     24  C   UNL A   1      36.913  20.783  24.822  1.00  0.00     0.027 C 
ENDBRANCH  17  23
ENDBRANCH  13  14
ENDBRANCH   8  13
ENDBRANCH   7   8
ENDBRANCH   4   7
ENDBRANCH   2   3
ENDBRANCH   1   2
BRANCH   1  25
ATOM     25  C   UNL A   1      33.822  28.375  25.767  1.00  0.00     0.023 C 
BRANCH  25  26
ATOM     26  C   UNL A   1      33.625  28.511  27.251  1.00  0.00     0.116 C 
BRANCH  26  27
ATOM     27  N   UNL A   1      33.564  29.907  27.683  1.00  0.00    -0.352 N 
ATOM     28  C   UNL A   1      34.578  30.641  28.249  1.00  0.00     0.251 C 
ATOM     29  H   UNL A   1      32.705  30.370  27.555  1.00  0.00     0.163 HD
ATOM     30  O   UNL A   1      34.399  31.763  28.689  1.00  0.00    -0.269 OA
BRANCH  28  31
ATOM     31  C   UNL A   1      35.882  29.969  28.313  1.00  0.00     0.039 A 
ATOM     32  C   UNL A   1      36.766  30.111  27.246  1.00  0.00     0.014 A 
ATOM     33  C   UNL A   1      36.284  29.451  29.547  1.00  0.00     0.014 A 
ATOM     34  C   UNL A   1      38.099  29.765  27.438  1.00  0.00     0.010 A 
ATOM     35  C   UNL A   1      37.629  29.238  29.770  1.00  0.00     0.010 A 
ATOM     36  C   UNL A   1      38.540  29.362  28.709  1.00  0.00    -0.014 A 
BRANCH  36  37
ATOM     37  C   UNL A   1      39.943  28.970  28.953  1.00  0.00     0.031 A 
ATOM     38  C   UNL A   1      40.868  29.991  29.552  1.00  0.00     0.074 A 
ATOM     39  C   UNL A   1      40.385  27.757  28.575  1.00  0.00     0.049 A 
ATOM     40  N   UNL A   1      42.158  29.927  29.744  1.00  0.00    -0.248 NA
ATOM     41  C   UNL A   1      40.270  31.283  29.934  1.00  0.00     0.031 C 
ATOM     42  C   UNL A   1      39.580  26.718  27.926  1.00  0.00     0.029 A 
ATOM     43  N   UNL A   1      41.630  27.194  28.679  1.00  0.00    -0.354 N 
ATOM     44  C   UNL A   1      42.522  31.175  30.232  1.00  0.00     0.074 A 
ATOM     45  C   UNL A   1      41.339  32.003  30.229  1.00  0.00     0.031 C 
ATOM     46  C   UNL A   1      40.344  25.630  27.727  1.00  0.00     0.029 A 
ATOM     47  C   UNL A   1      41.694  25.906  28.203  1.00  0.00     0.049 A 
ATOM     48  H   UNL A   1      42.404  27.667  29.059  1.00  0.00     0.167 HD
ATOM     49  C   UNL A   1      43.728  31.582  30.687  1.00  0.00     0.037 A 
ATOM     50  C   UNL A   1      42.734  25.051  28.170  1.00  0.00     0.037 A 
ATOM     51  C   UNL A   1      44.874  30.722  30.748  1.00  0.00     0.049 A 
ATOM     52  C   UNL A   1      44.056  25.507  28.725  1.00  0.00     0.074 A 
ATOM     53  C   UNL A   1      46.132  30.993  31.251  1.00  0.00     0.029 A 
ATOM     54  N   UNL A   1      44.890  29.406  30.304  1.00  0.00    -0.354 N 
ATOM     55  N   UNL A   1      44.377  26.675  29.234  1.00  0.00    -0.248 NA
ATOM     56  C   UNL A   1      45.155  24.533  28.710  1.00  0.00     0.031 C 
ATOM     57  C   UNL A   1      46.917  29.846  31.092  1.00  0.00     0.029 A 
ATOM     58  C   UNL A   1      46.138  28.851  30.517  1.00  0.00     0.049 A 
ATOM     59  H   UNL A   1      44.127  28.938  29.896  1.00  0.00     0.167 HD
ATOM     60  C   UNL A   1      45.707  26.569  29.621  1.00  0.00     0.074 A 
ATOM     61  C   UNL A   1      46.127  25.219  29.297  1.00  0.00     0.031 C 
ATOM     62  C   UNL A   1      46.512  27.498  30.193  1.00  0.00     0.037 A 
BRANCH  49  63
ATOM     63  C   UNL A   1      43.837  32.999  31.170  1.00  0.00     0.058 A 
ATOM     64  C   UNL A   1      44.238  34.039  30.314  1.00  0.00     0.135 A 
ATOM     65  C   UNL A   1      43.568  33.322  32.509  1.00  0.00     0.135 A 
ATOM     66  F   UNL A   1      44.535  33.781  29.030  1.00  0.00    -0.206 F 
ATOM     67  C   UNL A   1      44.411  35.338  30.777  1.00  0.00     0.059 A 
ATOM     68  C   UNL A   1      43.704  34.621  32.987  1.00  0.00     0.059 A 
ATOM     69  F   UNL A   1      43.189  32.365  33.372  1.00  0.00    -0.206 F 
ATOM     70  C   UNL A   1      44.147  35.618  32.118  1.00  0.00     0.060 A 
BRANCH  70  71
ATOM     71  S   UNL A   1      44.390  37.305  32.710  1.00  0.00     0.124 S 
ATOM     72  O   UNL A   1      43.320  37.423  33.695  1.00  0.00    -0.237 OA
ATOM     73  O   UNL A   1      45.745  37.257  33.249  1.00  0.00    -0.237 OA
ATOM     74  O   UNL A   1      44.227  38.113  31.505  1.00  0.00    -0.744 OA
ENDBRANCH  70  71
ENDBRANCH  49  63
BRANCH  50  75
ATOM     75  C   UNL A   1      42.551  23.672  27.646  1.00  0.00     0.058 A 
ATOM     76  C   UNL A   1      42.617  23.416  26.268  1.00  0.00     0.135 A 
ATOM     77  C   UNL A   1      42.329  22.583  28.503  1.00  0.00     0.135 A 
ATOM     78  F   UNL A   1      42.827  24.425  25.409  1.00  0.00    -0.206 F 
ATOM     79  C   UNL A   1      42.458  22.132  25.756  1.00  0.00     0.059 A 
ATOM     80  C   UNL A   1      42.186  21.287  28.015  1.00  0.00     0.059 A 
ATOM     81  F   UNL A   1      42.277  22.772  29.831  1.00  0.00    -0.206 F 
ATOM     82  C   UNL A   1      42.242  21.073  26.638  1.00  0.00     0.060 A 
BRANCH  82  83
ATOM     83  S   UNL A   1      42.086  19.404  25.966  1.00  0.00     0.124 S 
ATOM     84  O   UNL A   1      40.650  19.313  25.735  1.00  0.00    -0.237 OA
ATOM     85  O   UNL A   1      42.923  19.474  24.772  1.00  0.00    -0.237 OA
ATOM     86  O   UNL A   1      42.610  18.562  27.038  1.00  0.00    -0.744 OA
ENDBRANCH  82  83
ENDBRANCH  50  75
BRANCH  62  87
ATOM     87  C   UNL A   1      47.912  27.080  30.527  1.00  0.00     0.058 A 
ATOM     88  C   UNL A   1      48.971  27.293  29.633  1.00  0.00     0.135 A 
ATOM     89  C   UNL A   1      48.206  26.532  31.786  1.00  0.00     0.135 A 
ATOM     90  F   UNL A   1      48.737  27.810  28.417  1.00  0.00    -0.206 F 
ATOM     91  C   UNL A   1      50.278  26.962  29.971  1.00  0.00     0.059 A 
ATOM     92  C   UNL A   1      49.508  26.214  32.152  1.00  0.00     0.059 A 
ATOM     93  F   UNL A   1      47.225  26.322  32.678  1.00  0.00    -0.206 F 
ATOM     94  C   UNL A   1      50.537  26.427  31.234  1.00  0.00     0.060 A 
BRANCH  94  95
ATOM     95  S   UNL A   1      52.243  26.049  31.681  1.00  0.00     0.124 S 
ATOM     96  O   UNL A   1      52.501  27.042  32.718  1.00  0.00    -0.237 OA
ATOM     97  O   UNL A   1      52.149  24.665  32.137  1.00  0.00    -0.237 OA
ATOM     98  O   UNL A   1      52.971  26.240  30.430  1.00  0.00    -0.744 OA
ENDBRANCH  94  95
ENDBRANCH  62  87
ENDBRANCH  36  37
ENDBRANCH  28  31
ENDBRANCH  26  27
ENDBRANCH  25  26
ENDBRANCH   1  25
TORSDOF 20
ENDMDL
MODEL 3
REMARK VINA RESULT:     -10.4      3.263      9.514
REMARK SMILES C#CC[N@@H+](CC(=O)NCCCCNC(=O)c1ccc(-c2c3nc(c(-c4c(F)cc(S(=O)(=O)[O-])cc4F)c4ccc([nH]4)c(-c4c(F)cc(S(=O)(=O)[O-])cc4F)c4nc(c(-c5c(F)cc(S(=O)(=O)[O-])cc5F)c5ccc2[nH]5)C=C4)C=C3)cc1)Cc1cn(CC)c2ccccc12
REMARK SMILES IDX 10 1 9 2 8 3 6 4 7 5 5 7 4 8 3 10 2 11 1 12 82 13 83 14
REMARK SMILES IDX 84 15 93 16 85 17 88 18 92 19 89 20 91 21 90 22 86 23 87 24
REMARK SMILES IDX 11 25 12 26 13 27 14 28 15 30 16 31 17 32 81 33 18 34 80 35
REMARK SMILES IDX 19 36 20 37 21 38 74 39 22 40 79 41 73 42 75 43 23 44 78 45
REMARK SMILES IDX 72 46 71 47 24 49 58 50 37 51 57 52 38 53 41 54 56 55 76 56
REMARK SMILES IDX 39 57 40 58 55 60 77 61 42 62 25 63 26 64 35 65 27 66 28 67
REMARK SMILES IDX 34 68 36 69 29 70 30 71 31 72 32 73 33 74 59 75 60 76 69 77
REMARK SMILES IDX 61 78 62 79 68 80 70 81 63 82 64 83 65 84 66 85 67 86 43 87
REMARK SMILES IDX 44 88 53 89 45 90 46 91 52 92 54 93 47 94 48 95 49 96 50 97
REMARK SMILES IDX 51 98
REMARK H PARENT 8 6 4 9 13 29 75 48 41 59
REMARK Flexibility Score: inf
ROOT
ATOM      1  C   UNL A   1      40.162  21.574  26.576  1.00  0.00     0.023 C 
ENDROOT
BRANCH   1   2
ATOM      2  C   UNL A   1      38.919  22.280  25.991  1.00  0.00     0.116 C 
BRANCH   2   3
ATOM      3  N   UNL A   1      37.767  21.403  25.847  1.00  0.00    -0.351 N 
ATOM      4  C   UNL A   1      36.721  21.376  24.963  1.00  0.00     0.275 C 
ATOM      5  O   UNL A   1      35.965  20.405  25.067  1.00  0.00    -0.269 OA
ATOM      6  H   UNL A   1      37.734  20.684  26.520  1.00  0.00     0.163 HD
BRANCH   4   7
ATOM      7  C   UNL A   1      36.508  22.454  23.865  1.00  0.00     0.364 C 
BRANCH   7   8
ATOM      8  N   UNL A   1      35.216  23.248  23.923  1.00  0.00    -0.313 N 
ATOM      9  H   UNL A   1      35.110  23.804  23.075  1.00  0.00     0.349 HD
BRANCH   8  10
ATOM     10  C   UNL A   1      35.340  24.014  25.134  1.00  0.00     0.354 C 
BRANCH  10  11
ATOM     11  C   UNL A   1      34.597  25.307  25.426  1.00  0.00    -0.047 C 
ATOM     12  C   UNL A   1      33.959  26.416  25.677  1.00  0.00     0.010 C 
ENDBRANCH  10  11
ENDBRANCH   8  10
BRANCH   8  13
ATOM     13  C   UNL A   1      33.977  22.429  23.962  1.00  0.00     0.302 C 
BRANCH  13  14
ATOM     14  C   UNL A   1      32.846  23.215  23.396  1.00  0.00     0.032 A 
ATOM     15  C   UNL A   1      32.779  23.698  22.104  1.00  0.00     0.096 A 
ATOM     16  C   UNL A   1      31.779  23.816  24.122  1.00  0.00     0.008 A 
ATOM     17  N   UNL A   1      32.066  24.874  22.177  1.00  0.00    -0.347 N 
ATOM     18  C   UNL A   1      31.341  24.904  23.357  1.00  0.00     0.048 A 
ATOM     19  C   UNL A   1      31.299  23.650  25.436  1.00  0.00     0.011 A 
ATOM     20  C   UNL A   1      30.441  25.842  23.883  1.00  0.00     0.027 A 
ATOM     21  C   UNL A   1      30.384  24.565  25.955  1.00  0.00     0.001 A 
ATOM     22  C   UNL A   1      29.968  25.649  25.189  1.00  0.00     0.002 A 
BRANCH  17  23
ATOM     23  C   UNL A   1      32.440  26.027  21.369  1.00  0.00     0.119 C 
ATOM     24  C   UNL A   1      33.076  27.175  22.121  1.00  0.00     0.027 C 
ENDBRANCH  17  23
ENDBRANCH  13  14
ENDBRANCH   8  13
ENDBRANCH   7   8
ENDBRANCH   4   7
ENDBRANCH   2   3
ENDBRANCH   1   2
BRANCH   1  25
ATOM     25  C   UNL A   1      40.774  22.250  27.783  1.00  0.00     0.023 C 
BRANCH  25  26
ATOM     26  C   UNL A   1      41.997  23.050  27.430  1.00  0.00     0.116 C 
BRANCH  26  27
ATOM     27  N   UNL A   1      41.822  23.831  26.206  1.00  0.00    -0.352 N 
ATOM     28  C   UNL A   1      41.544  25.173  26.117  1.00  0.00     0.251 C 
ATOM     29  H   UNL A   1      41.912  23.344  25.356  1.00  0.00     0.163 HD
ATOM     30  O   UNL A   1      41.295  25.715  25.054  1.00  0.00    -0.269 OA
BRANCH  28  31
ATOM     31  C   UNL A   1      41.538  25.902  27.392  1.00  0.00     0.039 A 
ATOM     32  C   UNL A   1      42.548  26.829  27.642  1.00  0.00     0.014 A 
ATOM     33  C   UNL A   1      40.380  25.835  28.171  1.00  0.00     0.014 A 
ATOM     34  C   UNL A   1      42.368  27.743  28.674  1.00  0.00     0.010 A 
ATOM     35  C   UNL A   1      40.151  26.827  29.103  1.00  0.00     0.010 A 
ATOM     36  C   UNL A   1      41.155  27.767  29.383  1.00  0.00    -0.014 A 
BRANCH  36  37
ATOM     37  C   UNL A   1      40.929  28.709  30.498  1.00  0.00     0.031 A 
ATOM     38  C   UNL A   1      41.800  28.584  31.716  1.00  0.00     0.074 A 
ATOM     39  C   UNL A   1      39.920  29.597  30.444  1.00  0.00     0.049 A 
ATOM     40  N   UNL A   1      41.716  29.206  32.860  1.00  0.00    -0.248 NA
ATOM     41  C   UNL A   1      42.878  27.580  31.658  1.00  0.00     0.031 C 
ATOM     42  C   UNL A   1      38.979  29.753  29.331  1.00  0.00     0.029 A 
ATOM     43  N   UNL A   1      39.517  30.538  31.354  1.00  0.00    -0.354 N 
ATOM     44  C   UNL A   1      42.701  28.644  33.661  1.00  0.00     0.074 A 
ATOM     45  C   UNL A   1      43.315  27.577  32.906  1.00  0.00     0.031 C 
ATOM     46  C   UNL A   1      38.131  30.759  29.610  1.00  0.00     0.029 A 
ATOM     47  C   UNL A   1      38.450  31.294  30.929  1.00  0.00     0.049 A 
ATOM     48  H   UNL A   1      39.949  30.661  32.229  1.00  0.00     0.167 HD
ATOM     49  C   UNL A   1      43.093  29.015  34.900  1.00  0.00     0.037 A 
ATOM     50  C   UNL A   1      37.815  32.311  31.544  1.00  0.00     0.037 A 
ATOM     51  C   UNL A   1      42.517  30.124  35.605  1.00  0.00     0.049 A 
ATOM     52  C   UNL A   1      38.296  32.739  32.904  1.00  0.00     0.074 A 
ATOM     53  C   UNL A   1      42.872  30.643  36.835  1.00  0.00     0.029 A 
ATOM     54  N   UNL A   1      41.472  30.900  35.123  1.00  0.00    -0.354 N 
ATOM     55  N   UNL A   1      39.266  32.233  33.631  1.00  0.00    -0.248 NA
ATOM     56  C   UNL A   1      37.608  33.877  33.524  1.00  0.00     0.031 C 
ATOM     57  C   UNL A   1      42.025  31.722  37.108  1.00  0.00     0.029 A 
ATOM     58  C   UNL A   1      41.164  31.894  36.034  1.00  0.00     0.049 A 
ATOM     59  H   UNL A   1      41.016  30.763  34.262  1.00  0.00     0.167 HD
ATOM     60  C   UNL A   1      39.319  33.006  34.785  1.00  0.00     0.074 A 
ATOM     61  C   UNL A   1      38.290  34.020  34.653  1.00  0.00     0.031 C 
ATOM     62  C   UNL A   1      40.141  32.893  35.858  1.00  0.00     0.037 A 
BRANCH  49  63
ATOM     63  C   UNL A   1      44.202  28.227  35.534  1.00  0.00     0.058 A 
ATOM     64  C   UNL A   1      43.943  27.076  36.299  1.00  0.00     0.135 A 
ATOM     65  C   UNL A   1      45.537  28.639  35.405  1.00  0.00     0.135 A 
ATOM     66  F   UNL A   1      42.681  26.654  36.478  1.00  0.00    -0.206 F 
ATOM     67  C   UNL A   1      44.961  26.388  36.948  1.00  0.00     0.059 A 
ATOM     68  C   UNL A   1      46.576  27.947  36.020  1.00  0.00     0.059 A 
ATOM     69  F   UNL A   1      45.840  29.737  34.693  1.00  0.00    -0.206 F 
ATOM     70  C   UNL A   1      46.276  26.836  36.807  1.00  0.00     0.060 A 
BRANCH  70  71
ATOM     71  S   UNL A   1      47.587  25.943  37.667  1.00  0.00     0.124 S 
ATOM     72  O   UNL A   1      46.817  25.108  38.581  1.00  0.00    -0.237 OA
ATOM     73  O   UNL A   1      48.256  25.239  36.577  1.00  0.00    -0.237 OA
ATOM     74  O   UNL A   1      48.366  27.008  38.292  1.00  0.00    -0.744 OA
ENDBRANCH  70  71
ENDBRANCH  49  63
BRANCH  50  75
ATOM     75  C   UNL A   1      36.703  33.020  30.859  1.00  0.00     0.058 A 
ATOM     76  C   UNL A   1      35.369  32.769  31.214  1.00  0.00     0.135 A 
ATOM     77  C   UNL A   1      36.944  33.974  29.858  1.00  0.00     0.135 A 
ATOM     78  F   UNL A   1      35.088  31.866  32.166  1.00  0.00    -0.206 F 
ATOM     79  C   UNL A   1      34.312  33.428  30.594  1.00  0.00     0.059 A 
ATOM     80  C   UNL A   1      35.905  34.659  29.237  1.00  0.00     0.059 A 
ATOM     81  F   UNL A   1      38.204  34.264  29.497  1.00  0.00    -0.206 F 
ATOM     82  C   UNL A   1      34.591  34.372  29.604  1.00  0.00     0.060 A 
BRANCH  82  83
ATOM     83  S   UNL A   1      33.213  35.257  28.841  1.00  0.00     0.124 S 
ATOM     84  O   UNL A   1      32.575  34.197  28.070  1.00  0.00    -0.237 OA
ATOM     85  O   UNL A   1      32.474  35.737  30.004  1.00  0.00    -0.237 OA
ATOM     86  O   UNL A   1      33.877  36.297  28.059  1.00  0.00    -0.744 OA
ENDBRANCH  82  83
ENDBRANCH  50  75
BRANCH  62  87
ATOM     87  C   UNL A   1      39.979  33.901  36.955  1.00  0.00     0.058 A 
ATOM     88  C   UNL A   1      40.591  35.161  36.885  1.00  0.00     0.135 A 
ATOM     89  C   UNL A   1      39.141  33.630  38.049  1.00  0.00     0.135 A 
ATOM     90  F   UNL A   1      41.404  35.462  35.861  1.00  0.00    -0.206 F 
ATOM     91  C   UNL A   1      40.388  36.117  37.873  1.00  0.00     0.059 A 
ATOM     92  C   UNL A   1      38.907  34.580  39.035  1.00  0.00     0.059 A 
ATOM     93  F   UNL A   1      38.525  32.442  38.150  1.00  0.00    -0.206 F 
ATOM     94  C   UNL A   1      39.541  35.818  38.942  1.00  0.00     0.060 A 
BRANCH  94  95
ATOM     95  S   UNL A   1      39.245  37.085  40.192  1.00  0.00     0.124 S 
ATOM     96  O   UNL A   1      38.437  36.356  41.163  1.00  0.00    -0.237 OA
ATOM     97  O   UNL A   1      40.599  37.426  40.620  1.00  0.00    -0.237 OA
ATOM     98  O   UNL A   1      38.547  38.133  39.452  1.00  0.00    -0.744 OA
ENDBRANCH  94  95
ENDBRANCH  62  87
ENDBRANCH  36  37
ENDBRANCH  28  31
ENDBRANCH  26  27
ENDBRANCH  25  26
ENDBRANCH   1  25
TORSDOF 20
ENDMDL
