MODEL 1
REMARK VINA RESULT:     -11.9      0.000      0.000
REMARK SMILES CC(C)C(=O)Nc1ccc2c([C@H](C(=O)NCCCCNC(=O)c3ccc(-c4c5nc(c(-c6c(F)cc(S(=O)(=O)[O-])cc6F)c6ccc([nH]6)c(-c6c(F)cc(S(=O)(=O)[O-])cc6F)c6nc(c(-c7c(F)cc(S(=O)(=O)[O-])cc7F)c7ccc4[nH]7)C=C6)C=C5)cc3)[NH+]3CC[NH+](CC(=O)N(C)C)CC3)c[nH]c2c1
REMARK SMILES IDX 17 1 16 2 15 3 13 4 14 5 12 7 11 8 7 9 8 10 104 11 9 12
REMARK SMILES IDX 103 13 10 14 102 15 101 16 6 18 4 19 5 20 2 22 1 23 3 24
REMARK SMILES IDX 89 25 90 26 100 27 91 29 99 30 92 31 93 33 94 34 95 35 96 36
REMARK SMILES IDX 97 37 98 38 18 39 19 40 20 41 21 42 22 44 23 45 24 46 88 47
REMARK SMILES IDX 25 48 87 49 26 50 27 51 28 52 81 53 29 54 86 55 80 56 82 57
REMARK SMILES IDX 30 58 85 59 79 60 78 61 31 63 65 64 44 65 64 66 45 67 48 68
REMARK SMILES IDX 63 69 83 70 46 71 47 72 62 74 84 75 49 76 32 77 33 78 42 79
REMARK SMILES IDX 34 80 35 81 41 82 43 83 36 84 37 85 38 86 39 87 40 88 66 89
REMARK SMILES IDX 67 90 76 91 68 92 69 93 75 94 77 95 70 96 71 97 72 98 73 99
REMARK SMILES IDX 74 100 50 101 51 102 60 103 52 104 53 105 59 106 61 107
REMARK SMILES IDX 54 108 55 109 56 110 57 111 58 112
REMARK H PARENT 15 6 102 17 6 21 89 28 92 32 20 43 82 62 48 73
REMARK Flexibility Score: inf
ROOT
ATOM      1  C   UNL A   1      32.202  28.071  27.450  1.00  0.00     0.023 C 
ENDROOT
BRANCH   1   2
ATOM      2  C   UNL A   1      31.078  27.681  26.474  1.00  0.00     0.116 C 
BRANCH   2   3
ATOM      3  N   UNL A   1      30.560  26.358  26.778  1.00  0.00    -0.351 N 
ATOM      4  C   UNL A   1      30.313  25.248  26.004  1.00  0.00     0.283 C 
ATOM      5  O   UNL A   1      29.663  24.361  26.570  1.00  0.00    -0.268 OA
ATOM      6  H   UNL A   1      30.341  26.229  27.729  1.00  0.00     0.163 HD
BRANCH   4   7
ATOM      7  C   UNL A   1      30.845  25.114  24.538  1.00  0.00     0.308 C 
BRANCH   7   8
ATOM      8  C   UNL A   1      31.244  26.436  23.864  1.00  0.00     0.044 A 
ATOM      9  C   UNL A   1      29.019  29.532  22.054  1.00  0.00     0.043 A 
ATOM     10  C   UNL A   1      28.275  28.568  22.721  1.00  0.00     0.027 A 
ATOM     11  C   UNL A   1      30.404  29.398  21.911  1.00  0.00     0.052 A 
ATOM     12  C   UNL A   1      28.905  27.520  23.389  1.00  0.00     0.013 A 
ATOM     13  C   UNL A   1      31.024  28.353  22.612  1.00  0.00     0.048 A 
ATOM     14  C   UNL A   1      30.310  27.415  23.356  1.00  0.00     0.009 A 
ATOM     15  N   UNL A   1      32.351  28.020  22.729  1.00  0.00    -0.361 N 
ATOM     16  C   UNL A   1      32.497  26.903  23.509  1.00  0.00     0.094 A 
ATOM     17  H   UNL A   1      33.093  28.514  22.310  1.00  0.00     0.166 HD
BRANCH   9  18
ATOM     18  N   UNL A   1      28.396  30.649  21.496  1.00  0.00    -0.326 N 
ATOM     19  C   UNL A   1      28.332  31.926  21.979  1.00  0.00     0.226 C 
ATOM     20  O   UNL A   1      27.554  32.713  21.427  1.00  0.00    -0.274 OA
ATOM     21  H   UNL A   1      27.941  30.497  20.636  1.00  0.00     0.169 HD
BRANCH  19  22
ATOM     22  C   UNL A   1      29.265  32.440  23.092  1.00  0.00     0.072 C 
ATOM     23  C   UNL A   1      29.231  33.945  23.323  1.00  0.00     0.018 C 
ATOM     24  C   UNL A   1      29.186  31.643  24.394  1.00  0.00     0.018 C 
ENDBRANCH  19  22
ENDBRANCH   9  18
ENDBRANCH   7   8
BRANCH   7  25
ATOM     25  N   UNL A   1      32.030  24.254  24.453  1.00  0.00    -0.312 N 
ATOM     26  C   UNL A   1      32.908  24.056  25.607  1.00  0.00     0.325 C 
ATOM     27  C   UNL A   1      32.124  23.242  23.435  1.00  0.00     0.325 C 
ATOM     28  H   UNL A   1      32.482  25.058  24.015  1.00  0.00     0.349 HD
ATOM     29  C   UNL A   1      33.041  22.596  26.114  1.00  0.00     0.325 C 
ATOM     30  C   UNL A   1      32.017  21.854  24.071  1.00  0.00     0.325 C 
ATOM     31  N   UNL A   1      32.972  21.520  25.113  1.00  0.00    -0.318 N 
ATOM     32  H   UNL A   1      32.608  20.706  25.609  1.00  0.00     0.348 HD
BRANCH  31  33
ATOM     33  C   UNL A   1      34.242  20.949  24.659  1.00  0.00     0.364 C 
BRANCH  33  34
ATOM     34  C   UNL A   1      35.487  21.642  25.218  1.00  0.00     0.277 C 
ATOM     35  O   UNL A   1      35.938  21.286  26.311  1.00  0.00    -0.268 OA
ATOM     36  N   UNL A   1      36.061  22.698  24.501  1.00  0.00    -0.344 N 
ATOM     37  C   UNL A   1      35.698  23.144  23.163  1.00  0.00     0.146 C 
ATOM     38  C   UNL A   1      37.108  23.470  25.150  1.00  0.00     0.146 C 
ENDBRANCH  33  34
ENDBRANCH  31  33
ENDBRANCH   7  25
ENDBRANCH   4   7
ENDBRANCH   2   3
ENDBRANCH   1   2
BRANCH   1  39
ATOM     39  C   UNL A   1      33.601  28.128  26.873  1.00  0.00     0.023 C 
BRANCH  39  40
ATOM     40  C   UNL A   1      33.961  29.473  26.287  1.00  0.00     0.116 C 
BRANCH  40  41
ATOM     41  N   UNL A   1      33.847  30.568  27.250  1.00  0.00    -0.352 N 
ATOM     42  C   UNL A   1      34.708  30.953  28.254  1.00  0.00     0.251 C 
ATOM     43  H   UNL A   1      33.031  31.114  27.167  1.00  0.00     0.163 HD
ATOM     44  O   UNL A   1      34.374  31.825  29.054  1.00  0.00    -0.269 OA
BRANCH  42  45
ATOM     45  C   UNL A   1      36.014  30.275  28.383  1.00  0.00     0.039 A 
ATOM     46  C   UNL A   1      36.946  30.353  27.347  1.00  0.00     0.014 A 
ATOM     47  C   UNL A   1      36.346  29.649  29.582  1.00  0.00     0.014 A 
ATOM     48  C   UNL A   1      38.251  29.903  27.567  1.00  0.00     0.010 A 
ATOM     49  C   UNL A   1      37.673  29.358  29.850  1.00  0.00     0.010 A 
ATOM     50  C   UNL A   1      38.641  29.462  28.842  1.00  0.00    -0.014 A 
BRANCH  50  51
ATOM     51  C   UNL A   1      40.037  29.059  29.160  1.00  0.00     0.031 A 
ATOM     52  C   UNL A   1      40.961  30.062  29.804  1.00  0.00     0.074 A 
ATOM     53  C   UNL A   1      40.504  27.854  28.773  1.00  0.00     0.049 A 
ATOM     54  N   UNL A   1      42.251  29.994  30.001  1.00  0.00    -0.248 NA
ATOM     55  C   UNL A   1      40.363  31.344  30.220  1.00  0.00     0.031 C 
ATOM     56  C   UNL A   1      39.736  26.824  28.067  1.00  0.00     0.029 A 
ATOM     57  N   UNL A   1      41.751  27.295  28.910  1.00  0.00    -0.354 N 
ATOM     58  C   UNL A   1      42.620  31.234  30.510  1.00  0.00     0.074 A 
ATOM     59  C   UNL A   1      41.435  32.059  30.522  1.00  0.00     0.031 C 
ATOM     60  C   UNL A   1      40.514  25.748  27.870  1.00  0.00     0.029 A 
ATOM     61  C   UNL A   1      41.847  26.022  28.396  1.00  0.00     0.049 A 
ATOM     62  H   UNL A   1      42.505  27.762  29.337  1.00  0.00     0.167 HD
ATOM     63  C   UNL A   1      43.827  31.638  30.968  1.00  0.00     0.037 A 
ATOM     64  C   UNL A   1      42.894  25.176  28.357  1.00  0.00     0.037 A 
ATOM     65  C   UNL A   1      44.976  30.779  31.042  1.00  0.00     0.049 A 
ATOM     66  C   UNL A   1      44.205  25.614  28.950  1.00  0.00     0.074 A 
ATOM     67  C   UNL A   1      46.222  31.050  31.577  1.00  0.00     0.029 A 
ATOM     68  N   UNL A   1      45.009  29.470  30.586  1.00  0.00    -0.354 N 
ATOM     69  N   UNL A   1      44.521  26.771  29.484  1.00  0.00    -0.248 NA
ATOM     70  C   UNL A   1      45.300  24.634  28.947  1.00  0.00     0.031 C 
ATOM     71  C   UNL A   1      47.016  29.909  31.426  1.00  0.00     0.029 A 
ATOM     72  C   UNL A   1      46.254  28.918  30.827  1.00  0.00     0.049 A 
ATOM     73  H   UNL A   1      44.258  29.002  30.154  1.00  0.00     0.167 HD
ATOM     74  C   UNL A   1      45.842  26.649  29.901  1.00  0.00     0.074 A 
ATOM     75  C   UNL A   1      46.261  25.303  29.568  1.00  0.00     0.031 C 
ATOM     76  C   UNL A   1      46.638  27.568  30.501  1.00  0.00     0.037 A 
BRANCH  63  77
ATOM     77  C   UNL A   1      43.946  33.057  31.455  1.00  0.00     0.058 A 
ATOM     78  C   UNL A   1      44.362  34.094  30.606  1.00  0.00     0.135 A 
ATOM     79  C   UNL A   1      43.642  33.383  32.787  1.00  0.00     0.135 A 
ATOM     80  F   UNL A   1      44.685  33.835  29.328  1.00  0.00    -0.206 F 
ATOM     81  C   UNL A   1      44.514  35.397  31.067  1.00  0.00     0.059 A 
ATOM     82  C   UNL A   1      43.757  34.687  33.262  1.00  0.00     0.059 A 
ATOM     83  F   UNL A   1      43.243  32.430  33.643  1.00  0.00    -0.206 F 
ATOM     84  C   UNL A   1      44.213  35.683  32.399  1.00  0.00     0.060 A 
BRANCH  84  85
ATOM     85  S   UNL A   1      44.422  37.377  32.986  1.00  0.00     0.124 S 
ATOM     86  O   UNL A   1      45.810  37.358  33.436  1.00  0.00    -0.237 OA
ATOM     87  O   UNL A   1      44.157  38.160  31.783  1.00  0.00    -0.237 OA
ATOM     88  O   UNL A   1      43.419  37.496  34.039  1.00  0.00    -0.744 OA
ENDBRANCH  84  85
ENDBRANCH  63  77
BRANCH  64  89
ATOM     89  C   UNL A   1      42.732  23.814  27.780  1.00  0.00     0.058 A 
ATOM     90  C   UNL A   1      42.759  23.617  26.391  1.00  0.00     0.135 A 
ATOM     91  C   UNL A   1      42.565  22.685  28.596  1.00  0.00     0.135 A 
ATOM     92  F   UNL A   1      42.912  24.666  25.569  1.00  0.00    -0.206 F 
ATOM     93  C   UNL A   1      42.611  22.353  25.828  1.00  0.00     0.059 A 
ATOM     94  C   UNL A   1      42.437  21.407  28.058  1.00  0.00     0.059 A 
ATOM     95  F   UNL A   1      42.552  22.817  29.931  1.00  0.00    -0.206 F 
ATOM     96  C   UNL A   1      42.451  21.253  26.672  1.00  0.00     0.060 A 
BRANCH  96  97
ATOM     97  S   UNL A   1      42.309  19.610  25.933  1.00  0.00     0.124 S 
ATOM     98  O   UNL A   1      43.354  19.653  24.918  1.00  0.00    -0.237 OA
ATOM     99  O   UNL A   1      42.564  18.736  27.075  1.00  0.00    -0.237 OA
ATOM    100  O   UNL A   1      40.938  19.587  25.431  1.00  0.00    -0.744 OA
ENDBRANCH  96  97
ENDBRANCH  64  89
BRANCH  76 101
ATOM    101  C   UNL A   1      48.027  27.140  30.872  1.00  0.00     0.058 A 
ATOM    102  C   UNL A   1      48.281  26.394  32.032  1.00  0.00     0.135 A 
ATOM    103  C   UNL A   1      49.106  27.420  30.018  1.00  0.00     0.135 A 
ATOM    104  F   UNL A   1      47.281  26.105  32.881  1.00  0.00    -0.206 F 
ATOM    105  C   UNL A   1      49.562  25.954  32.344  1.00  0.00     0.059 A 
ATOM    106  C   UNL A   1      50.391  26.970  30.297  1.00  0.00     0.059 A 
ATOM    107  F   UNL A   1      48.911  28.120  28.889  1.00  0.00    -0.206 F 
ATOM    108  C   UNL A   1      50.610  26.245  31.468  1.00  0.00     0.060 A 
BRANCH 108 109
ATOM    109  S   UNL A   1      52.261  25.629  31.860  1.00  0.00     0.124 S 
ATOM    110  O   UNL A   1      51.978  24.246  32.227  1.00  0.00    -0.237 OA
ATOM    111  O   UNL A   1      52.973  25.818  30.600  1.00  0.00    -0.237 OA
ATOM    112  O   UNL A   1      52.695  26.495  32.952  1.00  0.00    -0.744 OA
ENDBRANCH 108 109
ENDBRANCH  76 101
ENDBRANCH  50  51
ENDBRANCH  42  45
ENDBRANCH  40  41
ENDBRANCH  39  40
ENDBRANCH   1  39
TORSDOF 20
ENDMDL
MODEL 2
REMARK VINA RESULT:     -11.9      2.186      2.779
REMARK SMILES CC(C)C(=O)Nc1ccc2c([C@H](C(=O)NCCCCNC(=O)c3ccc(-c4c5nc(c(-c6c(F)cc(S(=O)(=O)[O-])cc6F)c6ccc([nH]6)c(-c6c(F)cc(S(=O)(=O)[O-])cc6F)c6nc(c(-c7c(F)cc(S(=O)(=O)[O-])cc7F)c7ccc4[nH]7)C=C6)C=C5)cc3)[NH+]3CC[NH+](CC(=O)N(C)C)CC3)c[nH]c2c1
REMARK SMILES IDX 17 1 16 2 15 3 13 4 14 5 12 7 11 8 7 9 8 10 104 11 9 12
REMARK SMILES IDX 103 13 10 14 102 15 101 16 6 18 4 19 5 20 2 22 1 23 3 24
REMARK SMILES IDX 89 25 90 26 100 27 91 29 99 30 92 31 93 33 94 34 95 35 96 36
REMARK SMILES IDX 97 37 98 38 18 39 19 40 20 41 21 42 22 44 23 45 24 46 88 47
REMARK SMILES IDX 25 48 87 49 26 50 27 51 28 52 81 53 29 54 86 55 80 56 82 57
REMARK SMILES IDX 30 58 85 59 79 60 78 61 31 63 65 64 44 65 64 66 45 67 48 68
REMARK SMILES IDX 63 69 83 70 46 71 47 72 62 74 84 75 49 76 32 77 33 78 42 79
REMARK SMILES IDX 34 80 35 81 41 82 43 83 36 84 37 85 38 86 39 87 40 88 66 89
REMARK SMILES IDX 67 90 76 91 68 92 69 93 75 94 77 95 70 96 71 97 72 98 73 99
REMARK SMILES IDX 74 100 50 101 51 102 60 103 52 104 53 105 59 106 61 107
REMARK SMILES IDX 54 108 55 109 56 110 57 111 58 112
REMARK H PARENT 15 6 102 17 6 21 89 28 92 32 20 43 82 62 48 73
REMARK Flexibility Score: inf
ROOT
ATOM      1  C   UNL A   1      32.198  28.159  27.308  1.00  0.00     0.023 C 
ENDROOT
BRANCH   1   2
ATOM      2  C   UNL A   1      31.007  27.739  26.430  1.00  0.00     0.116 C 
BRANCH   2   3
ATOM      3  N   UNL A   1      30.545  26.406  26.780  1.00  0.00    -0.351 N 
ATOM      4  C   UNL A   1      30.316  25.270  26.039  1.00  0.00     0.283 C 
ATOM      5  O   UNL A   1      29.715  24.375  26.645  1.00  0.00    -0.268 OA
ATOM      6  H   UNL A   1      30.360  26.293  27.740  1.00  0.00     0.163 HD
BRANCH   4   7
ATOM      7  C   UNL A   1      30.808  25.120  24.561  1.00  0.00     0.308 C 
BRANCH   7   8
ATOM      8  C   UNL A   1      31.202  26.433  23.866  1.00  0.00     0.044 A 
ATOM      9  C   UNL A   1      28.962  29.524  22.066  1.00  0.00     0.043 A 
ATOM     10  C   UNL A   1      28.225  28.571  22.757  1.00  0.00     0.027 A 
ATOM     11  C   UNL A   1      30.344  29.381  21.900  1.00  0.00     0.052 A 
ATOM     12  C   UNL A   1      28.861  27.527  23.423  1.00  0.00     0.013 A 
ATOM     13  C   UNL A   1      30.970  28.339  22.600  1.00  0.00     0.048 A 
ATOM     14  C   UNL A   1      30.265  27.413  23.366  1.00  0.00     0.009 A 
ATOM     15  N   UNL A   1      32.298  27.999  22.696  1.00  0.00    -0.361 N 
ATOM     16  C   UNL A   1      32.451  26.889  23.484  1.00  0.00     0.094 A 
ATOM     17  H   UNL A   1      33.034  28.485  22.259  1.00  0.00     0.166 HD
BRANCH   9  18
ATOM     18  N   UNL A   1      28.336  30.640  21.509  1.00  0.00    -0.326 N 
ATOM     19  C   UNL A   1      28.290  31.922  21.980  1.00  0.00     0.226 C 
ATOM     20  O   UNL A   1      27.505  32.709  21.435  1.00  0.00    -0.274 OA
ATOM     21  H   UNL A   1      27.864  30.482  20.660  1.00  0.00     0.169 HD
BRANCH  19  22
ATOM     22  C   UNL A   1      29.246  32.441  23.069  1.00  0.00     0.072 C 
ATOM     23  C   UNL A   1      29.228  33.950  23.283  1.00  0.00     0.018 C 
ATOM     24  C   UNL A   1      29.185  31.661  24.382  1.00  0.00     0.018 C 
ENDBRANCH  19  22
ENDBRANCH   9  18
ENDBRANCH   7   8
BRANCH   7  25
ATOM     25  N   UNL A   1      31.981  24.248  24.451  1.00  0.00    -0.312 N 
ATOM     26  C   UNL A   1      32.953  24.144  25.540  1.00  0.00     0.325 C 
ATOM     27  C   UNL A   1      31.989  23.151  23.520  1.00  0.00     0.325 C 
ATOM     28  H   UNL A   1      32.395  25.007  23.909  1.00  0.00     0.349 HD
ATOM     29  C   UNL A   1      33.130  22.733  26.159  1.00  0.00     0.325 C 
ATOM     30  C   UNL A   1      31.937  21.824  24.282  1.00  0.00     0.325 C 
ATOM     31  N   UNL A   1      32.977  21.575  25.265  1.00  0.00    -0.318 N 
ATOM     32  H   UNL A   1      32.656  20.809  25.858  1.00  0.00     0.348 HD
BRANCH  31  33
ATOM     33  C   UNL A   1      34.204  20.957  24.757  1.00  0.00     0.364 C 
BRANCH  33  34
ATOM     34  C   UNL A   1      35.495  21.645  25.207  1.00  0.00     0.277 C 
ATOM     35  O   UNL A   1      36.008  21.321  26.283  1.00  0.00    -0.268 OA
ATOM     36  N   UNL A   1      36.042  22.659  24.414  1.00  0.00    -0.344 N 
ATOM     37  C   UNL A   1      35.603  23.061  23.084  1.00  0.00     0.146 C 
ATOM     38  C   UNL A   1      37.143  23.433  24.964  1.00  0.00     0.146 C 
ENDBRANCH  33  34
ENDBRANCH  31  33
ENDBRANCH   7  25
ENDBRANCH   4   7
ENDBRANCH   2   3
ENDBRANCH   1   2
BRANCH   1  39
ATOM     39  C   UNL A   1      33.576  27.884  26.744  1.00  0.00     0.023 C 
BRANCH  39  40
ATOM     40  C   UNL A   1      34.157  29.044  25.971  1.00  0.00     0.116 C 
BRANCH  40  41
ATOM     41  N   UNL A   1      33.976  30.331  26.642  1.00  0.00    -0.352 N 
ATOM     42  C   UNL A   1      34.726  30.922  27.635  1.00  0.00     0.251 C 
ATOM     43  H   UNL A   1      33.199  30.855  26.338  1.00  0.00     0.163 HD
ATOM     44  O   UNL A   1      34.337  31.957  28.171  1.00  0.00    -0.269 OA
BRANCH  42  45
ATOM     45  C   UNL A   1      35.978  30.272  28.074  1.00  0.00     0.039 A 
ATOM     46  C   UNL A   1      37.177  30.548  27.414  1.00  0.00     0.014 A 
ATOM     47  C   UNL A   1      35.971  29.469  29.212  1.00  0.00     0.014 A 
ATOM     48  C   UNL A   1      38.381  30.108  27.972  1.00  0.00     0.010 A 
ATOM     49  C   UNL A   1      37.168  29.180  29.845  1.00  0.00     0.010 A 
ATOM     50  C   UNL A   1      38.390  29.477  29.226  1.00  0.00    -0.014 A 
BRANCH  50  51
ATOM     51  C   UNL A   1      39.645  29.070  29.911  1.00  0.00     0.031 A 
ATOM     52  C   UNL A   1      40.099  29.840  31.127  1.00  0.00     0.074 A 
ATOM     53  C   UNL A   1      40.427  28.105  29.387  1.00  0.00     0.049 A 
ATOM     54  N   UNL A   1      41.237  29.782  31.768  1.00  0.00    -0.248 NA
ATOM     55  C   UNL A   1      39.173  30.860  31.651  1.00  0.00     0.031 C 
ATOM     56  C   UNL A   1      40.143  27.341  28.168  1.00  0.00     0.029 A 
ATOM     57  N   UNL A   1      41.634  27.607  29.810  1.00  0.00    -0.354 N 
ATOM     58  C   UNL A   1      41.180  30.787  32.726  1.00  0.00     0.074 A 
ATOM     59  C   UNL A   1      39.931  31.487  32.536  1.00  0.00     0.031 C 
ATOM     60  C   UNL A   1      41.125  26.447  27.966  1.00  0.00     0.029 A 
ATOM     61  C   UNL A   1      42.129  26.599  29.014  1.00  0.00     0.049 A 
ATOM     62  H   UNL A   1      42.102  27.939  30.610  1.00  0.00     0.167 HD
ATOM     63  C   UNL A   1      42.067  31.077  33.706  1.00  0.00     0.037 A 
ATOM     64  C   UNL A   1      43.263  25.882  29.120  1.00  0.00     0.037 A 
ATOM     65  C   UNL A   1      43.261  30.315  33.947  1.00  0.00     0.049 A 
ATOM     66  C   UNL A   1      44.195  26.162  30.268  1.00  0.00     0.074 A 
ATOM     67  C   UNL A   1      44.182  30.455  34.969  1.00  0.00     0.029 A 
ATOM     68  N   UNL A   1      43.683  29.250  33.166  1.00  0.00    -0.354 N 
ATOM     69  N   UNL A   1      44.096  27.078  31.204  1.00  0.00    -0.248 NA
ATOM     70  C   UNL A   1      45.386  25.309  30.385  1.00  0.00     0.031 C 
ATOM     71  C   UNL A   1      45.174  29.485  34.794  1.00  0.00     0.029 A 
ATOM     72  C   UNL A   1      44.853  28.722  33.682  1.00  0.00     0.049 A 
ATOM     73  H   UNL A   1      43.220  28.918  32.363  1.00  0.00     0.167 HD
ATOM     74  C   UNL A   1      45.198  26.896  32.032  1.00  0.00     0.074 A 
ATOM     75  C   UNL A   1      45.943  25.776  31.494  1.00  0.00     0.031 C 
ATOM     76  C   UNL A   1      45.563  27.593  33.136  1.00  0.00     0.037 A 
BRANCH  63  77
ATOM     77  C   UNL A   1      41.754  32.243  34.605  1.00  0.00     0.058 A 
ATOM     78  C   UNL A   1      40.983  32.089  35.768  1.00  0.00     0.135 A 
ATOM     79  C   UNL A   1      42.230  33.528  34.301  1.00  0.00     0.135 A 
ATOM     80  F   UNL A   1      40.485  30.885  36.096  1.00  0.00    -0.206 F 
ATOM     81  C   UNL A   1      40.659  33.173  36.576  1.00  0.00     0.059 A 
ATOM     82  C   UNL A   1      41.944  34.622  35.112  1.00  0.00     0.059 A 
ATOM     83  F   UNL A   1      42.970  33.733  33.199  1.00  0.00    -0.206 F 
ATOM     84  C   UNL A   1      41.140  34.438  36.236  1.00  0.00     0.060 A 
BRANCH  84  85
ATOM     85  S   UNL A   1      40.705  35.837  37.290  1.00  0.00     0.124 S 
ATOM     86  O   UNL A   1      40.060  35.163  38.413  1.00  0.00    -0.237 OA
ATOM     87  O   UNL A   1      42.007  36.433  37.573  1.00  0.00    -0.237 OA
ATOM     88  O   UNL A   1      39.824  36.636  36.445  1.00  0.00    -0.744 OA
ENDBRANCH  84  85
ENDBRANCH  63  77
BRANCH  64  89
ATOM     89  C   UNL A   1      43.556  24.798  28.145  1.00  0.00     0.058 A 
ATOM     90  C   UNL A   1      44.414  25.026  27.058  1.00  0.00     0.135 A 
ATOM     91  C   UNL A   1      43.006  23.515  28.283  1.00  0.00     0.135 A 
ATOM     92  F   UNL A   1      44.962  26.238  26.881  1.00  0.00    -0.206 F 
ATOM     93  C   UNL A   1      44.704  24.028  26.133  1.00  0.00     0.059 A 
ATOM     94  C   UNL A   1      43.298  22.493  27.383  1.00  0.00     0.059 A 
ATOM     95  F   UNL A   1      42.196  23.239  29.316  1.00  0.00    -0.206 F 
ATOM     96  C   UNL A   1      44.141  22.763  26.305  1.00  0.00     0.060 A 
BRANCH  96  97
ATOM     97  S   UNL A   1      44.564  21.460  25.126  1.00  0.00     0.124 S 
ATOM     98  O   UNL A   1      43.550  20.455  25.423  1.00  0.00    -0.237 OA
ATOM     99  O   UNL A   1      44.425  22.148  23.845  1.00  0.00    -0.237 OA
ATOM    100  O   UNL A   1      45.932  21.108  25.494  1.00  0.00    -0.744 OA
ENDBRANCH  96  97
ENDBRANCH  64  89
BRANCH  76 101
ATOM    101  C   UNL A   1      46.800  27.145  33.856  1.00  0.00     0.058 A 
ATOM    102  C   UNL A   1      46.752  26.160  34.854  1.00  0.00     0.135 A 
ATOM    103  C   UNL A   1      48.056  27.658  33.495  1.00  0.00     0.135 A 
ATOM    104  F   UNL A   1      45.572  25.643  35.236  1.00  0.00    -0.206 F 
ATOM    105  C   UNL A   1      47.907  25.710  35.483  1.00  0.00     0.059 A 
ATOM    106  C   UNL A   1      49.226  27.205  34.093  1.00  0.00     0.059 A 
ATOM    107  F   UNL A   1      48.154  28.593  32.537  1.00  0.00    -0.206 F 
ATOM    108  C   UNL A   1      49.140  26.236  35.093  1.00  0.00     0.060 A 
BRANCH 108 109
ATOM    109  S   UNL A   1      50.637  25.611  35.883  1.00  0.00     0.124 S 
ATOM    110  O   UNL A   1      51.361  26.848  36.157  1.00  0.00    -0.237 OA
ATOM    111  O   UNL A   1      50.108  24.914  37.051  1.00  0.00    -0.237 OA
ATOM    112  O   UNL A   1      51.225  24.750  34.861  1.00  0.00    -0.744 OA
ENDBRANCH 108 109
ENDBRANCH  76 101
ENDBRANCH  50  51
ENDBRANCH  42  45
ENDBRANCH  40  41
ENDBRANCH  39  40
ENDBRANCH   1  39
TORSDOF 20
ENDMDL
MODEL 3
REMARK VINA RESULT:     -11.5      1.902      8.012
REMARK SMILES CC(C)C(=O)Nc1ccc2c([C@H](C(=O)NCCCCNC(=O)c3ccc(-c4c5nc(c(-c6c(F)cc(S(=O)(=O)[O-])cc6F)c6ccc([nH]6)c(-c6c(F)cc(S(=O)(=O)[O-])cc6F)c6nc(c(-c7c(F)cc(S(=O)(=O)[O-])cc7F)c7ccc4[nH]7)C=C6)C=C5)cc3)[NH+]3CC[NH+](CC(=O)N(C)C)CC3)c[nH]c2c1
REMARK SMILES IDX 17 1 16 2 15 3 13 4 14 5 12 7 11 8 7 9 8 10 104 11 9 12
REMARK SMILES IDX 103 13 10 14 102 15 101 16 6 18 4 19 5 20 2 22 1 23 3 24
REMARK SMILES IDX 89 25 90 26 100 27 91 29 99 30 92 31 93 33 94 34 95 35 96 36
REMARK SMILES IDX 97 37 98 38 18 39 19 40 20 41 21 42 22 44 23 45 24 46 88 47
REMARK SMILES IDX 25 48 87 49 26 50 27 51 28 52 81 53 29 54 86 55 80 56 82 57
REMARK SMILES IDX 30 58 85 59 79 60 78 61 31 63 65 64 44 65 64 66 45 67 48 68
REMARK SMILES IDX 63 69 83 70 46 71 47 72 62 74 84 75 49 76 32 77 33 78 42 79
REMARK SMILES IDX 34 80 35 81 41 82 43 83 36 84 37 85 38 86 39 87 40 88 66 89
REMARK SMILES IDX 67 90 76 91 68 92 69 93 75 94 77 95 70 96 71 97 72 98 73 99
REMARK SMILES IDX 74 100 50 101 51 102 60 103 52 104 53 105 59 106 61 107
REMARK SMILES IDX 54 108 55 109 56 110 57 111 58 112
REMARK H PARENT 15 6 102 17 6 21 89 28 92 32 20 43 82 62 48 73
REMARK Flexibility Score: inf
ROOT
ATOM      1  C   UNL A   1      32.792  28.063  27.455  1.00  0.00     0.023 C 
ENDROOT
BRANCH   1   2
ATOM      2  C   UNL A   1      31.684  27.805  26.419  1.00  0.00     0.116 C 
BRANCH   2   3
ATOM      3  N   UNL A   1      30.893  26.640  26.780  1.00  0.00    -0.351 N 
ATOM      4  C   UNL A   1      30.370  25.601  26.048  1.00  0.00     0.283 C 
ATOM      5  O   UNL A   1      29.560  24.896  26.663  1.00  0.00    -0.268 OA
ATOM      6  H   UNL A   1      30.692  26.584  27.742  1.00  0.00     0.163 HD
BRANCH   4   7
ATOM      7  C   UNL A   1      30.795  25.321  24.568  1.00  0.00     0.308 C 
BRANCH   7   8
ATOM      8  C   UNL A   1      31.184  26.565  23.753  1.00  0.00     0.044 A 
ATOM      9  C   UNL A   1      28.935  29.667  21.982  1.00  0.00     0.043 A 
ATOM     10  C   UNL A   1      28.224  28.802  22.803  1.00  0.00     0.027 A 
ATOM     11  C   UNL A   1      30.284  29.433  21.690  1.00  0.00     0.052 A 
ATOM     12  C   UNL A   1      28.869  27.764  23.471  1.00  0.00     0.013 A 
ATOM     13  C   UNL A   1      30.923  28.401  22.393  1.00  0.00     0.048 A 
ATOM     14  C   UNL A   1      30.252  27.565  23.284  1.00  0.00     0.009 A 
ATOM     15  N   UNL A   1      32.234  27.991  22.379  1.00  0.00    -0.361 N 
ATOM     16  C   UNL A   1      32.409  26.923  23.220  1.00  0.00     0.094 A 
ATOM     17  H   UNL A   1      32.947  28.406  21.841  1.00  0.00     0.166 HD
BRANCH   9  18
ATOM     18  N   UNL A   1      28.315  30.781  21.417  1.00  0.00    -0.326 N 
ATOM     19  C   UNL A   1      28.264  32.064  21.885  1.00  0.00     0.226 C 
ATOM     20  O   UNL A   1      27.485  32.850  21.331  1.00  0.00    -0.274 OA
ATOM     21  H   UNL A   1      27.850  30.622  20.564  1.00  0.00     0.169 HD
BRANCH  19  22
ATOM     22  C   UNL A   1      29.211  32.586  22.981  1.00  0.00     0.072 C 
ATOM     23  C   UNL A   1      29.144  34.086  23.236  1.00  0.00     0.018 C 
ATOM     24  C   UNL A   1      29.187  31.768  24.273  1.00  0.00     0.018 C 
ENDBRANCH  19  22
ENDBRANCH   9  18
ENDBRANCH   7   8
BRANCH   7  25
ATOM     25  N   UNL A   1      31.946  24.417  24.481  1.00  0.00    -0.312 N 
ATOM     26  C   UNL A   1      32.933  24.341  25.558  1.00  0.00     0.325 C 
ATOM     27  C   UNL A   1      31.913  23.277  23.603  1.00  0.00     0.325 C 
ATOM     28  H   UNL A   1      32.368  25.140  23.897  1.00  0.00     0.349 HD
ATOM     29  C   UNL A   1      33.087  22.956  26.240  1.00  0.00     0.325 C 
ATOM     30  C   UNL A   1      31.842  21.990  24.427  1.00  0.00     0.325 C 
ATOM     31  N   UNL A   1      32.892  21.761  25.405  1.00  0.00    -0.318 N 
ATOM     32  H   UNL A   1      32.564  21.033  26.038  1.00  0.00     0.348 HD
BRANCH  31  33
ATOM     33  C   UNL A   1      34.096  21.092  24.907  1.00  0.00     0.364 C 
BRANCH  33  34
ATOM     34  C   UNL A   1      35.411  21.753  25.327  1.00  0.00     0.277 C 
ATOM     35  O   UNL A   1      35.925  21.444  26.407  1.00  0.00    -0.268 OA
ATOM     36  N   UNL A   1      35.979  22.729  24.502  1.00  0.00    -0.344 N 
ATOM     37  C   UNL A   1      35.539  23.107  23.165  1.00  0.00     0.146 C 
ATOM     38  C   UNL A   1      37.107  23.486  25.020  1.00  0.00     0.146 C 
ENDBRANCH  33  34
ENDBRANCH  31  33
ENDBRANCH   7  25
ENDBRANCH   4   7
ENDBRANCH   2   3
ENDBRANCH   1   2
BRANCH   1  39
ATOM     39  C   UNL A   1      34.211  28.091  26.927  1.00  0.00     0.023 C 
BRANCH  39  40
ATOM     40  C   UNL A   1      34.870  29.446  27.033  1.00  0.00     0.116 C 
BRANCH  40  41
ATOM     41  N   UNL A   1      34.843  29.994  28.388  1.00  0.00    -0.352 N 
ATOM     42  C   UNL A   1      35.830  30.020  29.349  1.00  0.00     0.251 C 
ATOM     43  H   UNL A   1      33.990  30.409  28.655  1.00  0.00     0.163 HD
ATOM     44  O   UNL A   1      35.575  30.410  30.487  1.00  0.00    -0.269 OA
BRANCH  42  45
ATOM     45  C   UNL A   1      37.182  29.533  29.007  1.00  0.00     0.039 A 
ATOM     46  C   UNL A   1      37.732  29.820  27.757  1.00  0.00     0.014 A 
ATOM     47  C   UNL A   1      37.941  28.878  29.974  1.00  0.00     0.014 A 
ATOM     48  C   UNL A   1      39.084  29.551  27.526  1.00  0.00     0.010 A 
ATOM     49  C   UNL A   1      39.310  28.767  29.801  1.00  0.00     0.010 A 
ATOM     50  C   UNL A   1      39.899  29.083  28.570  1.00  0.00    -0.014 A 
BRANCH  50  51
ATOM     51  C   UNL A   1      41.362  28.867  28.411  1.00  0.00     0.031 A 
ATOM     52  C   UNL A   1      41.860  27.512  27.974  1.00  0.00     0.074 A 
ATOM     53  C   UNL A   1      42.236  29.831  28.762  1.00  0.00     0.049 A 
ATOM     54  N   UNL A   1      43.081  27.047  27.945  1.00  0.00    -0.248 NA
ATOM     55  C   UNL A   1      40.838  26.524  27.581  1.00  0.00     0.031 C 
ATOM     56  C   UNL A   1      41.885  31.158  29.279  1.00  0.00     0.029 A 
ATOM     57  N   UNL A   1      43.609  29.839  28.750  1.00  0.00    -0.354 N 
ATOM     58  C   UNL A   1      42.965  25.708  27.586  1.00  0.00     0.074 A 
ATOM     59  C   UNL A   1      41.555  25.416  27.481  1.00  0.00     0.031 C 
ATOM     60  C   UNL A   1      43.009  31.861  29.495  1.00  0.00     0.029 A 
ATOM     61  C   UNL A   1      44.161  31.026  29.173  1.00  0.00     0.049 A 
ATOM     62  H   UNL A   1      44.148  29.066  28.465  1.00  0.00     0.167 HD
ATOM     63  C   UNL A   1      43.944  24.812  27.326  1.00  0.00     0.037 A 
ATOM     64  C   UNL A   1      45.451  31.395  29.287  1.00  0.00     0.037 A 
ATOM     65  C   UNL A   1      45.343  25.139  27.340  1.00  0.00     0.049 A 
ATOM     66  C   UNL A   1      46.525  30.411  28.908  1.00  0.00     0.074 A 
ATOM     67  C   UNL A   1      46.419  24.339  26.997  1.00  0.00     0.029 A 
ATOM     68  N   UNL A   1      45.857  26.377  27.695  1.00  0.00    -0.354 N 
ATOM     69  N   UNL A   1      46.397  29.166  28.511  1.00  0.00    -0.248 NA
ATOM     70  C   UNL A   1      47.915  30.879  28.982  1.00  0.00     0.031 C 
ATOM     71  C   UNL A   1      47.587  25.090  27.165  1.00  0.00     0.029 A 
ATOM     72  C   UNL A   1      47.236  26.365  27.580  1.00  0.00     0.049 A 
ATOM     73  H   UNL A   1      45.321  27.150  27.985  1.00  0.00     0.167 HD
ATOM     74  C   UNL A   1      47.687  28.710  28.266  1.00  0.00     0.074 A 
ATOM     75  C   UNL A   1      48.580  29.816  28.547  1.00  0.00     0.031 C 
ATOM     76  C   UNL A   1      48.098  27.488  27.849  1.00  0.00     0.037 A 
BRANCH  63  77
ATOM     77  C   UNL A   1      43.528  23.411  26.969  1.00  0.00     0.058 A 
ATOM     78  C   UNL A   1      43.057  22.513  27.940  1.00  0.00     0.135 A 
ATOM     79  C   UNL A   1      43.600  22.960  25.641  1.00  0.00     0.135 A 
ATOM     80  F   UNL A   1      42.987  22.885  29.229  1.00  0.00    -0.206 F 
ATOM     81  C   UNL A   1      42.713  21.205  27.617  1.00  0.00     0.059 A 
ATOM     82  C   UNL A   1      43.231  21.665  25.290  1.00  0.00     0.059 A 
ATOM     83  F   UNL A   1      44.045  23.776  24.673  1.00  0.00    -0.206 F 
ATOM     84  C   UNL A   1      42.808  20.788  26.289  1.00  0.00     0.060 A 
BRANCH  84  85
ATOM     85  S   UNL A   1      42.365  19.086  25.886  1.00  0.00     0.124 S 
ATOM     86  O   UNL A   1      40.910  19.176  25.813  1.00  0.00    -0.237 OA
ATOM     87  O   UNL A   1      43.050  18.875  24.615  1.00  0.00    -0.237 OA
ATOM     88  O   UNL A   1      42.893  18.323  27.013  1.00  0.00    -0.744 OA
ENDBRANCH  84  85
ENDBRANCH  63  77
BRANCH  64  89
ATOM     89  C   UNL A   1      45.798  32.772  29.730  1.00  0.00     0.058 A 
ATOM     90  C   UNL A   1      45.878  33.823  28.804  1.00  0.00     0.135 A 
ATOM     91  C   UNL A   1      46.038  33.072  31.080  1.00  0.00     0.135 A 
ATOM     92  F   UNL A   1      45.660  33.586  27.502  1.00  0.00    -0.206 F 
ATOM     93  C   UNL A   1      46.199  35.119  29.194  1.00  0.00     0.059 A 
ATOM     94  C   UNL A   1      46.340  34.365  31.498  1.00  0.00     0.059 A 
ATOM     95  F   UNL A   1      45.954  32.106  32.008  1.00  0.00    -0.206 F 
ATOM     96  C   UNL A   1      46.428  35.380  30.546  1.00  0.00     0.060 A 
BRANCH  96  97
ATOM     97  S   UNL A   1      46.796  37.077  31.050  1.00  0.00     0.124 S 
ATOM     98  O   UNL A   1      46.329  37.081  32.431  1.00  0.00    -0.237 OA
ATOM     99  O   UNL A   1      48.243  37.145  30.864  1.00  0.00    -0.237 OA
ATOM    100  O   UNL A   1      46.013  37.879  30.114  1.00  0.00    -0.744 OA
ENDBRANCH  96  97
ENDBRANCH  64  89
BRANCH  76 101
ATOM    101  C   UNL A   1      49.569  27.291  27.635  1.00  0.00     0.058 A 
ATOM    102  C   UNL A   1      50.378  26.681  28.606  1.00  0.00     0.135 A 
ATOM    103  C   UNL A   1      50.163  27.655  26.415  1.00  0.00     0.135 A 
ATOM    104  F   UNL A   1      49.855  26.321  29.789  1.00  0.00    -0.206 F 
ATOM    105  C   UNL A   1      51.730  26.453  28.382  1.00  0.00     0.059 A 
ATOM    106  C   UNL A   1      51.508  27.414  26.161  1.00  0.00     0.059 A 
ATOM    107  F   UNL A   1      49.428  28.230  25.450  1.00  0.00    -0.206 F 
ATOM    108  C   UNL A   1      52.286  26.821  27.155  1.00  0.00     0.060 A 
BRANCH 108 109
ATOM    109  S   UNL A   1      54.033  26.478  26.858  1.00  0.00     0.124 S 
ATOM    110  O   UNL A   1      54.664  27.213  27.949  1.00  0.00    -0.237 OA
ATOM    111  O   UNL A   1      54.088  25.023  26.957  1.00  0.00    -0.237 OA
ATOM    112  O   UNL A   1      54.261  27.017  25.521  1.00  0.00    -0.744 OA
ENDBRANCH 108 109
ENDBRANCH  76 101
ENDBRANCH  50  51
ENDBRANCH  42  45
ENDBRANCH  40  41
ENDBRANCH  39  40
ENDBRANCH   1  39
TORSDOF 20
ENDMDL
