MODEL 1
REMARK VINA RESULT:     -12.2      0.000      0.000
REMARK SMILES O=C(NCCCCNC(=O)[C@@]1(Cc2cn3ccccc3n2)CCC[NH2+]C1)c1ccc(-c2c3nc(c(-c4c(F)cc(S(=O)(=O)[O-])cc4F)c4ccc([nH]4)c(-c4c(F)cc(S(=O)(=O)[O-])cc4F)c4nc(c(-c5c(F)cc(S(=O)(=O)[O-])cc5F)c5ccc2[nH]5)C=C4)C=C3)cc1
REMARK SMILES IDX 5 1 4 2 3 3 1 4 2 5 27 7 28 8 92 9 29 10 91 11 30 12 31 13
REMARK SMILES IDX 32 14 85 15 33 16 90 17 84 18 86 19 34 20 89 21 83 22 82 23
REMARK SMILES IDX 35 25 69 26 48 27 68 28 49 29 52 30 67 31 87 32 50 33 51 34
REMARK SMILES IDX 66 36 88 37 53 38 36 39 37 40 46 41 38 42 39 43 45 44 47 45
REMARK SMILES IDX 40 46 41 47 42 48 43 49 44 50 70 51 71 52 80 53 72 54 73 55
REMARK SMILES IDX 79 56 81 57 74 58 75 59 76 60 77 61 78 62 54 63 55 64 64 65
REMARK SMILES IDX 56 66 57 67 63 68 65 69 58 70 59 71 60 72 61 73 62 74 6 75
REMARK SMILES IDX 7 76 8 77 9 78 10 80 11 81 22 82 26 83 23 84 25 85 24 86
REMARK SMILES IDX 12 89 13 90 14 91 21 92 15 93 20 94 16 95 19 96 17 97 18 98
REMARK H PARENT 3 6 86 24 52 35 8 79 25 87 25 88
REMARK Flexibility Score: inf
ROOT
ATOM      1  C   UNL A   1      32.900  27.788  25.839  1.00  0.00     0.023 C 
ENDROOT
BRANCH   1   2
ATOM      2  C   UNL A   1      33.851  28.241  26.938  1.00  0.00     0.116 C 
BRANCH   2   3
ATOM      3  N   UNL A   1      33.609  29.605  27.380  1.00  0.00    -0.352 N 
ATOM      4  O   UNL A   1      34.086  31.548  28.426  1.00  0.00    -0.269 OA
ATOM      5  C   UNL A   1      34.471  30.452  28.031  1.00  0.00     0.251 C 
ATOM      6  H   UNL A   1      32.714  29.968  27.188  1.00  0.00     0.163 HD
BRANCH   5   7
ATOM      7  C   UNL A   1      35.853  30.005  28.279  1.00  0.00     0.039 A 
ATOM      8  C   UNL A   1      36.228  29.533  29.541  1.00  0.00     0.014 A 
ATOM      9  C   UNL A   1      36.788  30.108  27.248  1.00  0.00     0.014 A 
ATOM     10  C   UNL A   1      37.566  29.271  29.807  1.00  0.00     0.010 A 
ATOM     11  C   UNL A   1      38.120  29.784  27.500  1.00  0.00     0.010 A 
ATOM     12  C   UNL A   1      38.521  29.390  28.786  1.00  0.00    -0.014 A 
BRANCH  12  13
ATOM     13  C   UNL A   1      39.938  29.054  29.052  1.00  0.00     0.031 A 
ATOM     14  C   UNL A   1      40.881  30.090  29.591  1.00  0.00     0.074 A 
ATOM     15  C   UNL A   1      40.373  27.813  28.764  1.00  0.00     0.049 A 
ATOM     16  N   UNL A   1      42.172  30.009  29.779  1.00  0.00    -0.248 NA
ATOM     17  C   UNL A   1      40.298  31.390  29.955  1.00  0.00     0.031 C 
ATOM     18  C   UNL A   1      39.538  26.731  28.238  1.00  0.00     0.029 A 
ATOM     19  N   UNL A   1      41.622  27.259  28.856  1.00  0.00    -0.354 N 
ATOM     20  C   UNL A   1      42.565  31.253  30.254  1.00  0.00     0.074 A 
ATOM     21  C   UNL A   1      41.374  32.075  30.316  1.00  0.00     0.031 C 
ATOM     22  C   UNL A   1      40.297  25.644  28.051  1.00  0.00     0.029 A 
ATOM     23  C   UNL A   1      41.679  25.968  28.388  1.00  0.00     0.049 A 
ATOM     24  H   UNL A   1      42.401  27.737  29.220  1.00  0.00     0.167 HD
ATOM     25  C   UNL A   1      43.807  31.667  30.604  1.00  0.00     0.037 A 
ATOM     26  C   UNL A   1      42.733  25.150  28.210  1.00  0.00     0.037 A 
ATOM     27  C   UNL A   1      44.978  30.831  30.544  1.00  0.00     0.049 A 
ATOM     28  C   UNL A   1      44.102  25.631  28.585  1.00  0.00     0.074 A 
ATOM     29  C   UNL A   1      46.277  31.140  30.908  1.00  0.00     0.029 A 
ATOM     30  N   UNL A   1      44.994  29.522  30.081  1.00  0.00    -0.354 N 
ATOM     31  N   UNL A   1      44.456  26.802  29.059  1.00  0.00    -0.248 NA
ATOM     32  C   UNL A   1      45.213  24.689  28.406  1.00  0.00     0.031 C 
ATOM     33  C   UNL A   1      47.084  30.030  30.628  1.00  0.00     0.029 A 
ATOM     34  C   UNL A   1      46.281  29.015  30.131  1.00  0.00     0.049 A 
ATOM     35  H   UNL A   1      44.204  29.027  29.762  1.00  0.00     0.167 HD
ATOM     36  C   UNL A   1      45.830  26.733  29.253  1.00  0.00     0.074 A 
ATOM     37  C   UNL A   1      46.241  25.403  28.847  1.00  0.00     0.031 C 
ATOM     38  C   UNL A   1      46.669  27.684  29.729  1.00  0.00     0.037 A 
BRANCH  25  39
ATOM     39  C   UNL A   1      43.962  33.096  31.043  1.00  0.00     0.058 A 
ATOM     40  C   UNL A   1      43.848  33.476  32.389  1.00  0.00     0.135 A 
ATOM     41  C   UNL A   1      44.228  34.104  30.099  1.00  0.00     0.135 A 
ATOM     42  F   UNL A   1      43.584  32.557  33.331  1.00  0.00    -0.206 F 
ATOM     43  C   UNL A   1      43.946  34.809  32.780  1.00  0.00     0.059 A 
ATOM     44  C   UNL A   1      44.354  35.439  30.471  1.00  0.00     0.059 A 
ATOM     45  F   UNL A   1      44.351  33.795  28.800  1.00  0.00    -0.206 F 
ATOM     46  C   UNL A   1      44.188  35.785  31.811  1.00  0.00     0.060 A 
BRANCH  46  47
ATOM     47  S   UNL A   1      44.268  37.515  32.322  1.00  0.00     0.124 S 
ATOM     48  O   UNL A   1      43.847  38.195  31.101  1.00  0.00    -0.237 OA
ATOM     49  O   UNL A   1      43.321  37.561  33.431  1.00  0.00    -0.237 OA
ATOM     50  O   UNL A   1      45.669  37.694  32.691  1.00  0.00    -0.744 OA
ENDBRANCH  46  47
ENDBRANCH  25  39
BRANCH  26  51
ATOM     51  C   UNL A   1      42.499  23.799  27.638  1.00  0.00     0.058 A 
ATOM     52  C   UNL A   1      42.544  23.586  26.254  1.00  0.00     0.135 A 
ATOM     53  C   UNL A   1      42.342  22.681  28.472  1.00  0.00     0.135 A 
ATOM     54  F   UNL A   1      42.691  24.626  25.419  1.00  0.00    -0.206 F 
ATOM     55  C   UNL A   1      42.454  22.307  25.715  1.00  0.00     0.059 A 
ATOM     56  C   UNL A   1      42.273  21.391  27.958  1.00  0.00     0.059 A 
ATOM     57  F   UNL A   1      42.317  22.835  29.806  1.00  0.00    -0.206 F 
ATOM     58  C   UNL A   1      42.333  21.215  26.576  1.00  0.00     0.060 A 
BRANCH  58  59
ATOM     59  S   UNL A   1      42.335  19.551  25.873  1.00  0.00     0.124 S 
ATOM     60  O   UNL A   1      42.691  18.743  27.033  1.00  0.00    -0.237 OA
ATOM     61  O   UNL A   1      40.962  19.417  25.396  1.00  0.00    -0.237 OA
ATOM     62  O   UNL A   1      43.347  19.633  24.823  1.00  0.00    -0.744 OA
ENDBRANCH  58  59
ENDBRANCH  26  51
BRANCH  38  63
ATOM     63  C   UNL A   1      48.118  27.318  29.874  1.00  0.00     0.058 A 
ATOM     64  C   UNL A   1      49.060  27.642  28.887  1.00  0.00     0.135 A 
ATOM     65  C   UNL A   1      48.580  26.718  31.057  1.00  0.00     0.135 A 
ATOM     66  F   UNL A   1      48.665  28.206  27.734  1.00  0.00    -0.206 F 
ATOM     67  C   UNL A   1      50.415  27.385  29.067  1.00  0.00     0.059 A 
ATOM     68  C   UNL A   1      49.932  26.471  31.267  1.00  0.00     0.059 A 
ATOM     69  F   UNL A   1      47.717  26.394  32.032  1.00  0.00    -0.206 F 
ATOM     70  C   UNL A   1      50.842  26.806  30.265  1.00  0.00     0.060 A 
BRANCH  70  71
ATOM     71  S   UNL A   1      52.611  26.546  30.520  1.00  0.00     0.124 S 
ATOM     72  O   UNL A   1      53.053  26.190  29.176  1.00  0.00    -0.237 OA
ATOM     73  O   UNL A   1      53.052  27.849  31.009  1.00  0.00    -0.237 OA
ATOM     74  O   UNL A   1      52.657  25.467  31.503  1.00  0.00    -0.744 OA
ENDBRANCH  70  71
ENDBRANCH  38  63
ENDBRANCH  12  13
ENDBRANCH   5   7
ENDBRANCH   2   3
ENDBRANCH   1   2
BRANCH   1  75
ATOM     75  C   UNL A   1      31.645  27.071  26.328  1.00  0.00     0.023 C 
BRANCH  75  76
ATOM     76  C   UNL A   1      31.414  25.686  25.714  1.00  0.00     0.116 C 
BRANCH  76  77
ATOM     77  N   UNL A   1      31.448  24.661  26.737  1.00  0.00    -0.355 N 
ATOM     78  C   UNL A   1      32.199  23.539  26.894  1.00  0.00     0.232 C 
ATOM     79  H   UNL A   1      30.798  24.806  27.463  1.00  0.00     0.163 HD
ATOM     80  O   UNL A   1      31.881  22.850  27.872  1.00  0.00    -0.274 OA
BRANCH  78  81
ATOM     81  C   UNL A   1      33.452  23.184  26.040  1.00  0.00     0.104 C 
ATOM     82  C   UNL A   1      34.162  24.404  25.398  1.00  0.00     0.029 C 
ATOM     83  C   UNL A   1      34.400  22.435  27.012  1.00  0.00     0.277 C 
ATOM     84  C   UNL A   1      35.649  24.217  25.082  1.00  0.00     0.063 C 
ATOM     85  N   UNL A   1      35.762  22.212  26.518  1.00  0.00    -0.345 N 
ATOM     86  C   UNL A   1      36.406  23.474  26.175  1.00  0.00     0.260 C 
ATOM     87  H   UNL A   1      36.307  21.743  27.242  1.00  0.00     0.346 HD
ATOM     88  H   UNL A   1      35.712  21.633  25.679  1.00  0.00     0.346 HD
BRANCH  81  89
ATOM     89  C   UNL A   1      32.900  22.231  24.916  1.00  0.00     0.080 C 
BRANCH  89  90
ATOM     90  C   UNL A   1      33.252  20.789  25.028  1.00  0.00     0.061 A 
ATOM     91  C   UNL A   1      34.420  20.155  24.661  1.00  0.00     0.116 A 
ATOM     92  N   UNL A   1      32.332  19.877  25.499  1.00  0.00    -0.234 NA
ATOM     93  N   UNL A   1      34.135  18.818  24.713  1.00  0.00    -0.307 N 
ATOM     94  C   UNL A   1      32.873  18.696  25.280  1.00  0.00     0.136 A 
ATOM     95  C   UNL A   1      34.878  17.739  24.243  1.00  0.00     0.093 A 
ATOM     96  C   UNL A   1      32.353  17.380  25.427  1.00  0.00     0.048 A 
ATOM     97  C   UNL A   1      34.364  16.500  24.343  1.00  0.00     0.018 A 
ATOM     98  C   UNL A   1      33.060  16.328  24.970  1.00  0.00     0.005 A 
ENDBRANCH  89  90
ENDBRANCH  81  89
ENDBRANCH  78  81
ENDBRANCH  76  77
ENDBRANCH  75  76
ENDBRANCH   1  75
TORSDOF 16
ENDMDL
MODEL 2
REMARK VINA RESULT:     -11.8      5.277     10.970
REMARK SMILES O=C(NCCCCNC(=O)[C@@]1(Cc2cn3ccccc3n2)CCC[NH2+]C1)c1ccc(-c2c3nc(c(-c4c(F)cc(S(=O)(=O)[O-])cc4F)c4ccc([nH]4)c(-c4c(F)cc(S(=O)(=O)[O-])cc4F)c4nc(c(-c5c(F)cc(S(=O)(=O)[O-])cc5F)c5ccc2[nH]5)C=C4)C=C3)cc1
REMARK SMILES IDX 5 1 4 2 3 3 1 4 2 5 27 7 28 8 92 9 29 10 91 11 30 12 31 13
REMARK SMILES IDX 32 14 85 15 33 16 90 17 84 18 86 19 34 20 89 21 83 22 82 23
REMARK SMILES IDX 35 25 69 26 48 27 68 28 49 29 52 30 67 31 87 32 50 33 51 34
REMARK SMILES IDX 66 36 88 37 53 38 36 39 37 40 46 41 38 42 39 43 45 44 47 45
REMARK SMILES IDX 40 46 41 47 42 48 43 49 44 50 70 51 71 52 80 53 72 54 73 55
REMARK SMILES IDX 79 56 81 57 74 58 75 59 76 60 77 61 78 62 54 63 55 64 64 65
REMARK SMILES IDX 56 66 57 67 63 68 65 69 58 70 59 71 60 72 61 73 62 74 6 75
REMARK SMILES IDX 7 76 8 77 9 78 10 80 11 81 22 82 26 83 23 84 25 85 24 86
REMARK SMILES IDX 12 89 13 90 14 91 21 92 15 93 20 94 16 95 19 96 17 97 18 98
REMARK H PARENT 3 6 86 24 52 35 8 79 25 87 25 88
REMARK Flexibility Score: inf
ROOT
ATOM      1  C   UNL A   1      37.165  23.296  25.915  1.00  0.00     0.023 C 
ENDROOT
BRANCH   1   2
ATOM      2  C   UNL A   1      38.170  24.331  26.400  1.00  0.00     0.116 C 
BRANCH   2   3
ATOM      3  N   UNL A   1      39.550  23.965  26.122  1.00  0.00    -0.352 N 
ATOM      4  O   UNL A   1      41.796  24.190  26.186  1.00  0.00    -0.269 OA
ATOM      5  C   UNL A   1      40.696  24.556  26.592  1.00  0.00     0.251 C 
ATOM      6  H   UNL A   1      39.679  23.196  25.520  1.00  0.00     0.163 HD
BRANCH   5   7
ATOM      7  C   UNL A   1      40.580  25.661  27.560  1.00  0.00     0.039 A 
ATOM      8  C   UNL A   1      41.430  26.769  27.474  1.00  0.00     0.014 A 
ATOM      9  C   UNL A   1      39.642  25.556  28.588  1.00  0.00     0.014 A 
ATOM     10  C   UNL A   1      41.420  27.721  28.485  1.00  0.00     0.010 A 
ATOM     11  C   UNL A   1      39.592  26.547  29.568  1.00  0.00     0.010 A 
ATOM     12  C   UNL A   1      40.497  27.620  29.537  1.00  0.00    -0.014 A 
BRANCH  12  13
ATOM     13  C   UNL A   1      40.445  28.665  30.584  1.00  0.00     0.031 A 
ATOM     14  C   UNL A   1      41.330  28.580  31.793  1.00  0.00     0.074 A 
ATOM     15  C   UNL A   1      39.562  29.672  30.449  1.00  0.00     0.049 A 
ATOM     16  N   UNL A   1      41.344  29.339  32.858  1.00  0.00    -0.248 NA
ATOM     17  C   UNL A   1      42.322  27.495  31.813  1.00  0.00     0.031 C 
ATOM     18  C   UNL A   1      38.657  29.848  29.312  1.00  0.00     0.029 A 
ATOM     19  N   UNL A   1      39.269  30.722  31.278  1.00  0.00    -0.354 N 
ATOM     20  C   UNL A   1      42.321  28.808  33.690  1.00  0.00     0.074 A 
ATOM     21  C   UNL A   1      42.872  27.654  33.009  1.00  0.00     0.031 C 
ATOM     22  C   UNL A   1      37.908  30.939  29.514  1.00  0.00     0.029 A 
ATOM     23  C   UNL A   1      38.237  31.504  30.818  1.00  0.00     0.049 A 
ATOM     24  H   UNL A   1      39.748  30.898  32.118  1.00  0.00     0.167 HD
ATOM     25  C   UNL A   1      42.717  29.246  34.909  1.00  0.00     0.037 A 
ATOM     26  C   UNL A   1      37.599  32.537  31.399  1.00  0.00     0.037 A 
ATOM     27  C   UNL A   1      42.163  30.401  35.566  1.00  0.00     0.049 A 
ATOM     28  C   UNL A   1      38.038  32.996  32.756  1.00  0.00     0.074 A 
ATOM     29  C   UNL A   1      42.516  30.951  36.786  1.00  0.00     0.029 A 
ATOM     30  N   UNL A   1      41.130  31.180  35.061  1.00  0.00    -0.354 N 
ATOM     31  N   UNL A   1      38.982  32.501  33.521  1.00  0.00    -0.248 NA
ATOM     32  C   UNL A   1      37.334  34.148  33.331  1.00  0.00     0.031 C 
ATOM     33  C   UNL A   1      41.671  32.039  37.035  1.00  0.00     0.029 A 
ATOM     34  C   UNL A   1      40.820  32.194  35.952  1.00  0.00     0.049 A 
ATOM     35  H   UNL A   1      40.683  31.032  34.196  1.00  0.00     0.167 HD
ATOM     36  C   UNL A   1      38.999  33.292  34.662  1.00  0.00     0.074 A 
ATOM     37  C   UNL A   1      37.972  34.301  34.486  1.00  0.00     0.031 C 
ATOM     38  C   UNL A   1      39.798  33.194  35.752  1.00  0.00     0.037 A 
BRANCH  25  39
ATOM     39  C   UNL A   1      43.771  28.446  35.623  1.00  0.00     0.058 A 
ATOM     40  C   UNL A   1      45.141  28.668  35.412  1.00  0.00     0.135 A 
ATOM     41  C   UNL A   1      43.405  27.439  36.532  1.00  0.00     0.135 A 
ATOM     42  F   UNL A   1      45.548  29.609  34.545  1.00  0.00    -0.206 F 
ATOM     43  C   UNL A   1      46.110  27.890  36.041  1.00  0.00     0.059 A 
ATOM     44  C   UNL A   1      44.356  26.666  37.191  1.00  0.00     0.059 A 
ATOM     45  F   UNL A   1      42.109  27.188  36.775  1.00  0.00    -0.206 F 
ATOM     46  C   UNL A   1      45.706  26.884  36.921  1.00  0.00     0.060 A 
BRANCH  46  47
ATOM     47  S   UNL A   1      46.969  25.852  37.696  1.00  0.00     0.124 S 
ATOM     48  O   UNL A   1      48.172  26.643  37.459  1.00  0.00    -0.237 OA
ATOM     49  O   UNL A   1      46.517  25.787  39.082  1.00  0.00    -0.237 OA
ATOM     50  O   UNL A   1      46.884  24.598  36.954  1.00  0.00    -0.744 OA
ENDBRANCH  46  47
ENDBRANCH  25  39
BRANCH  26  51
ATOM     51  C   UNL A   1      36.472  33.179  30.674  1.00  0.00     0.058 A 
ATOM     52  C   UNL A   1      35.151  33.018  31.110  1.00  0.00     0.135 A 
ATOM     53  C   UNL A   1      36.712  34.055  29.603  1.00  0.00     0.135 A 
ATOM     54  F   UNL A   1      34.876  32.189  32.128  1.00  0.00    -0.206 F 
ATOM     55  C   UNL A   1      34.103  33.715  30.518  1.00  0.00     0.059 A 
ATOM     56  C   UNL A   1      35.684  34.780  29.010  1.00  0.00     0.059 A 
ATOM     57  F   UNL A   1      37.965  34.258  29.167  1.00  0.00    -0.206 F 
ATOM     58  C   UNL A   1      34.381  34.605  29.478  1.00  0.00     0.060 A 
BRANCH  58  59
ATOM     59  S   UNL A   1      33.031  35.591  28.796  1.00  0.00     0.124 S 
ATOM     60  O   UNL A   1      32.339  36.019  30.006  1.00  0.00    -0.237 OA
ATOM     61  O   UNL A   1      33.749  36.634  28.068  1.00  0.00    -0.237 OA
ATOM     62  O   UNL A   1      32.311  34.638  27.957  1.00  0.00    -0.744 OA
ENDBRANCH  58  59
ENDBRANCH  26  51
BRANCH  38  63
ATOM     63  C   UNL A   1      39.623  34.221  36.833  1.00  0.00     0.058 A 
ATOM     64  C   UNL A   1      38.976  33.917  38.040  1.00  0.00     0.135 A 
ATOM     65  C   UNL A   1      40.193  35.497  36.692  1.00  0.00     0.135 A 
ATOM     66  F   UNL A   1      38.406  32.714  38.217  1.00  0.00    -0.206 F 
ATOM     67  C   UNL A   1      38.900  34.844  39.074  1.00  0.00     0.059 A 
ATOM     68  C   UNL A   1      40.146  36.432  37.721  1.00  0.00     0.059 A 
ATOM     69  F   UNL A   1      40.827  35.833  35.558  1.00  0.00    -0.206 F 
ATOM     70  C   UNL A   1      39.495  36.097  38.907  1.00  0.00     0.060 A 
BRANCH  70  71
ATOM     71  S   UNL A   1      39.457  37.264  40.284  1.00  0.00     0.124 S 
ATOM     72  O   UNL A   1      38.817  38.423  39.669  1.00  0.00    -0.237 OA
ATOM     73  O   UNL A   1      38.660  36.552  41.278  1.00  0.00    -0.237 OA
ATOM     74  O   UNL A   1      40.866  37.434  40.624  1.00  0.00    -0.744 OA
ENDBRANCH  70  71
ENDBRANCH  38  63
ENDBRANCH  12  13
ENDBRANCH   5   7
ENDBRANCH   2   3
ENDBRANCH   1   2
BRANCH   1  75
ATOM     75  C   UNL A   1      36.313  23.733  24.727  1.00  0.00     0.023 C 
BRANCH  75  76
ATOM     76  C   UNL A   1      34.928  24.279  25.092  1.00  0.00     0.116 C 
BRANCH  76  77
ATOM     77  N   UNL A   1      33.968  23.975  24.051  1.00  0.00    -0.355 N 
ATOM     78  C   UNL A   1      32.898  24.652  23.557  1.00  0.00     0.232 C 
ATOM     79  H   UNL A   1      34.121  23.105  23.615  1.00  0.00     0.163 HD
ATOM     80  O   UNL A   1      32.251  24.026  22.708  1.00  0.00    -0.274 OA
BRANCH  78  81
ATOM     81  C   UNL A   1      32.560  26.137  23.884  1.00  0.00     0.104 C 
ATOM     82  C   UNL A   1      33.694  27.143  23.558  1.00  0.00     0.029 C 
ATOM     83  C   UNL A   1      31.285  26.447  23.058  1.00  0.00     0.277 C 
ATOM     84  C   UNL A   1      33.247  28.583  23.285  1.00  0.00     0.063 C 
ATOM     85  N   UNL A   1      30.904  27.862  22.996  1.00  0.00    -0.345 N 
ATOM     86  C   UNL A   1      31.984  28.669  22.440  1.00  0.00     0.260 C 
ATOM     87  H   UNL A   1      30.076  27.959  22.407  1.00  0.00     0.346 HD
ATOM     88  H   UNL A   1      30.708  28.188  23.942  1.00  0.00     0.346 HD
BRANCH  81  89
ATOM     89  C   UNL A   1      32.268  26.138  25.429  1.00  0.00     0.080 C 
BRANCH  89  90
ATOM     90  C   UNL A   1      32.685  27.349  26.189  1.00  0.00     0.061 A 
ATOM     91  C   UNL A   1      31.933  28.451  26.538  1.00  0.00     0.116 A 
ATOM     92  N   UNL A   1      33.994  27.508  26.593  1.00  0.00    -0.234 NA
ATOM     93  N   UNL A   1      32.837  29.380  26.974  1.00  0.00    -0.307 N 
ATOM     94  C   UNL A   1      34.070  28.743  27.041  1.00  0.00     0.136 A 
ATOM     95  C   UNL A   1      32.651  30.733  27.246  1.00  0.00     0.093 A 
ATOM     96  C   UNL A   1      35.181  29.525  27.465  1.00  0.00     0.048 A 
ATOM     97  C   UNL A   1      33.712  31.479  27.602  1.00  0.00     0.018 A 
ATOM     98  C   UNL A   1      35.014  30.837  27.724  1.00  0.00     0.005 A 
ENDBRANCH  89  90
ENDBRANCH  81  89
ENDBRANCH  78  81
ENDBRANCH  76  77
ENDBRANCH  75  76
ENDBRANCH   1  75
TORSDOF 16
ENDMDL
MODEL 3
REMARK VINA RESULT:     -11.8      2.308      2.990
REMARK SMILES O=C(NCCCCNC(=O)[C@@]1(Cc2cn3ccccc3n2)CCC[NH2+]C1)c1ccc(-c2c3nc(c(-c4c(F)cc(S(=O)(=O)[O-])cc4F)c4ccc([nH]4)c(-c4c(F)cc(S(=O)(=O)[O-])cc4F)c4nc(c(-c5c(F)cc(S(=O)(=O)[O-])cc5F)c5ccc2[nH]5)C=C4)C=C3)cc1
REMARK SMILES IDX 5 1 4 2 3 3 1 4 2 5 27 7 28 8 92 9 29 10 91 11 30 12 31 13
REMARK SMILES IDX 32 14 85 15 33 16 90 17 84 18 86 19 34 20 89 21 83 22 82 23
REMARK SMILES IDX 35 25 69 26 48 27 68 28 49 29 52 30 67 31 87 32 50 33 51 34
REMARK SMILES IDX 66 36 88 37 53 38 36 39 37 40 46 41 38 42 39 43 45 44 47 45
REMARK SMILES IDX 40 46 41 47 42 48 43 49 44 50 70 51 71 52 80 53 72 54 73 55
REMARK SMILES IDX 79 56 81 57 74 58 75 59 76 60 77 61 78 62 54 63 55 64 64 65
REMARK SMILES IDX 56 66 57 67 63 68 65 69 58 70 59 71 60 72 61 73 62 74 6 75
REMARK SMILES IDX 7 76 8 77 9 78 10 80 11 81 22 82 26 83 23 84 25 85 24 86
REMARK SMILES IDX 12 89 13 90 14 91 21 92 15 93 20 94 16 95 19 96 17 97 18 98
REMARK H PARENT 3 6 86 24 52 35 8 79 25 87 25 88
REMARK Flexibility Score: inf
ROOT
ATOM      1  C   UNL A   1      34.081  28.586  27.032  1.00  0.00     0.023 C 
ENDROOT
BRANCH   1   2
ATOM      2  C   UNL A   1      35.334  29.304  27.512  1.00  0.00     0.116 C 
BRANCH   2   3
ATOM      3  N   UNL A   1      35.129  30.060  28.738  1.00  0.00    -0.352 N 
ATOM      4  O   UNL A   1      35.723  31.011  30.698  1.00  0.00    -0.269 OA
ATOM      5  C   UNL A   1      36.067  30.457  29.657  1.00  0.00     0.251 C 
ATOM      6  H   UNL A   1      34.199  30.321  28.932  1.00  0.00     0.163 HD
BRANCH   5   7
ATOM      7  C   UNL A   1      37.487  30.173  29.390  1.00  0.00     0.039 A 
ATOM      8  C   UNL A   1      37.963  30.120  28.075  1.00  0.00     0.014 A 
ATOM      9  C   UNL A   1      38.334  29.908  30.467  1.00  0.00     0.014 A 
ATOM     10  C   UNL A   1      39.261  29.690  27.832  1.00  0.00     0.010 A 
ATOM     11  C   UNL A   1      39.655  29.538  30.222  1.00  0.00     0.010 A 
ATOM     12  C   UNL A   1      40.119  29.401  28.903  1.00  0.00    -0.014 A 
BRANCH  12  13
ATOM     13  C   UNL A   1      41.521  29.000  28.647  1.00  0.00     0.031 A 
ATOM     14  C   UNL A   1      42.624  30.018  28.676  1.00  0.00     0.074 A 
ATOM     15  C   UNL A   1      41.781  27.714  28.349  1.00  0.00     0.049 A 
ATOM     16  N   UNL A   1      43.886  29.872  28.369  1.00  0.00    -0.248 NA
ATOM     17  C   UNL A   1      42.258  31.379  29.094  1.00  0.00     0.031 C 
ATOM     18  C   UNL A   1      40.781  26.645  28.296  1.00  0.00     0.029 A 
ATOM     19  N   UNL A   1      42.956  27.092  28.020  1.00  0.00    -0.354 N 
ATOM     20  C   UNL A   1      44.462  31.126  28.525  1.00  0.00     0.074 A 
ATOM     21  C   UNL A   1      43.407  32.024  28.945  1.00  0.00     0.031 C 
ATOM     22  C   UNL A   1      41.384  25.499  27.953  1.00  0.00     0.029 A 
ATOM     23  C   UNL A   1      42.797  25.764  27.705  1.00  0.00     0.049 A 
ATOM     24  H   UNL A   1      43.826  27.550  28.009  1.00  0.00     0.167 HD
ATOM     25  C   UNL A   1      45.753  31.489  28.333  1.00  0.00     0.037 A 
ATOM     26  C   UNL A   1      43.681  24.867  27.230  1.00  0.00     0.037 A 
ATOM     27  C   UNL A   1      46.791  30.577  27.923  1.00  0.00     0.049 A 
ATOM     28  C   UNL A   1      45.101  25.291  27.006  1.00  0.00     0.074 A 
ATOM     29  C   UNL A   1      48.138  30.834  27.734  1.00  0.00     0.029 A 
ATOM     30  N   UNL A   1      46.595  29.235  27.631  1.00  0.00    -0.354 N 
ATOM     31  N   UNL A   1      45.639  26.474  27.183  1.00  0.00    -0.248 NA
ATOM     32  C   UNL A   1      46.034  24.269  26.520  1.00  0.00     0.031 C 
ATOM     33  C   UNL A   1      48.747  29.655  27.289  1.00  0.00     0.029 A 
ATOM     34  C   UNL A   1      47.791  28.653  27.243  1.00  0.00     0.049 A 
ATOM     35  H   UNL A   1      45.731  28.765  27.689  1.00  0.00     0.167 HD
ATOM     36  C   UNL A   1      46.980  26.336  26.849  1.00  0.00     0.074 A 
ATOM     37  C   UNL A   1      47.171  24.952  26.461  1.00  0.00     0.031 C 
ATOM     38  C   UNL A   1      47.961  27.269  26.868  1.00  0.00     0.037 A 
BRANCH  25  39
ATOM     39  C   UNL A   1      46.101  32.939  28.526  1.00  0.00     0.058 A 
ATOM     40  C   UNL A   1      46.509  33.445  29.770  1.00  0.00     0.135 A 
ATOM     41  C   UNL A   1      46.021  33.837  27.449  1.00  0.00     0.135 A 
ATOM     42  F   UNL A   1      46.592  32.633  30.836  1.00  0.00    -0.206 F 
ATOM     43  C   UNL A   1      46.783  34.798  29.951  1.00  0.00     0.059 A 
ATOM     44  C   UNL A   1      46.314  35.189  27.601  1.00  0.00     0.059 A 
ATOM     45  F   UNL A   1      45.641  33.405  26.237  1.00  0.00    -0.206 F 
ATOM     46  C   UNL A   1      46.671  35.665  28.861  1.00  0.00     0.060 A 
BRANCH  46  47
ATOM     47  S   UNL A   1      46.984  37.425  29.116  1.00  0.00     0.124 S 
ATOM     48  O   UNL A   1      48.262  37.592  28.432  1.00  0.00    -0.237 OA
ATOM     49  O   UNL A   1      45.834  38.047  28.470  1.00  0.00    -0.237 OA
ATOM     50  O   UNL A   1      47.027  37.553  30.570  1.00  0.00    -0.744 OA
ENDBRANCH  46  47
ENDBRANCH  25  39
BRANCH  26  51
ATOM     51  C   UNL A   1      43.212  23.489  26.935  1.00  0.00     0.058 A 
ATOM     52  C   UNL A   1      43.103  23.032  25.615  1.00  0.00     0.135 A 
ATOM     53  C   UNL A   1      42.976  22.572  27.972  1.00  0.00     0.135 A 
ATOM     54  F   UNL A   1      43.318  23.875  24.593  1.00  0.00    -0.206 F 
ATOM     55  C   UNL A   1      42.789  21.708  25.331  1.00  0.00     0.059 A 
ATOM     56  C   UNL A   1      42.683  21.238  27.713  1.00  0.00     0.059 A 
ATOM     57  F   UNL A   1      43.092  22.959  29.252  1.00  0.00    -0.206 F 
ATOM     58  C   UNL A   1      42.595  20.815  26.387  1.00  0.00     0.060 A 
BRANCH  58  59
ATOM     59  S   UNL A   1      42.303  19.073  26.007  1.00  0.00     0.124 S 
ATOM     60  O   UNL A   1      42.660  18.434  27.268  1.00  0.00    -0.237 OA
ATOM     61  O   UNL A   1      40.884  19.066  25.666  1.00  0.00    -0.237 OA
ATOM     62  O   UNL A   1      43.207  18.818  24.889  1.00  0.00    -0.744 OA
ENDBRANCH  58  59
ENDBRANCH  26  51
BRANCH  38  63
ATOM     63  C   UNL A   1      49.346  26.827  26.492  1.00  0.00     0.058 A 
ATOM     64  C   UNL A   1      50.215  26.253  27.430  1.00  0.00     0.135 A 
ATOM     65  C   UNL A   1      49.768  26.895  25.154  1.00  0.00     0.135 A 
ATOM     66  F   UNL A   1      49.860  26.175  28.723  1.00  0.00    -0.206 F 
ATOM     67  C   UNL A   1      51.461  25.759  27.056  1.00  0.00     0.059 A 
ATOM     68  C   UNL A   1      51.001  26.390  24.755  1.00  0.00     0.059 A 
ATOM     69  F   UNL A   1      48.969  27.432  24.219  1.00  0.00    -0.206 F 
ATOM     70  C   UNL A   1      51.841  25.826  25.713  1.00  0.00     0.060 A 
BRANCH  70  71
ATOM     71  S   UNL A   1      53.427  25.113  25.226  1.00  0.00     0.124 S 
ATOM     72  O   UNL A   1      53.158  23.684  25.351  1.00  0.00    -0.237 OA
ATOM     73  O   UNL A   1      53.590  25.611  23.864  1.00  0.00    -0.237 OA
ATOM     74  O   UNL A   1      54.361  25.664  26.204  1.00  0.00    -0.744 OA
ENDBRANCH  70  71
ENDBRANCH  38  63
ENDBRANCH  12  13
ENDBRANCH   5   7
ENDBRANCH   2   3
ENDBRANCH   1   2
BRANCH   1  75
ATOM     75  C   UNL A   1      33.935  28.489  25.516  1.00  0.00     0.023 C 
BRANCH  75  76
ATOM     76  C   UNL A   1      33.667  27.077  24.984  1.00  0.00     0.116 C 
BRANCH  76  77
ATOM     77  N   UNL A   1      32.773  26.358  25.868  1.00  0.00    -0.355 N 
ATOM     78  C   UNL A   1      32.533  25.034  26.060  1.00  0.00     0.232 C 
ATOM     79  H   UNL A   1      32.233  26.945  26.445  1.00  0.00     0.163 HD
ATOM     80  O   UNL A   1      31.619  24.796  26.860  1.00  0.00    -0.274 OA
BRANCH  78  81
ATOM     81  C   UNL A   1      33.396  23.880  25.467  1.00  0.00     0.104 C 
ATOM     82  C   UNL A   1      33.653  23.986  23.942  1.00  0.00     0.029 C 
ATOM     83  C   UNL A   1      34.726  23.928  26.262  1.00  0.00     0.277 C 
ATOM     84  C   UNL A   1      34.917  23.288  23.431  1.00  0.00     0.063 C 
ATOM     85  N   UNL A   1      35.811  23.101  25.724  1.00  0.00    -0.345 N 
ATOM     86  C   UNL A   1      36.118  23.473  24.348  1.00  0.00     0.260 C 
ATOM     87  H   UNL A   1      36.645  23.228  26.299  1.00  0.00     0.346 HD
ATOM     88  H   UNL A   1      35.514  22.125  25.739  1.00  0.00     0.346 HD
BRANCH  81  89
ATOM     89  C   UNL A   1      32.575  22.577  25.784  1.00  0.00     0.080 C 
BRANCH  89  90
ATOM     90  C   UNL A   1      32.920  21.360  24.999  1.00  0.00     0.061 A 
ATOM     91  C   UNL A   1      32.235  20.786  23.949  1.00  0.00     0.116 A 
ATOM     92  N   UNL A   1      34.028  20.606  25.325  1.00  0.00    -0.234 NA
ATOM     93  N   UNL A   1      32.813  19.560  23.770  1.00  0.00    -0.307 N 
ATOM     94  C   UNL A   1      33.933  19.517  24.591  1.00  0.00     0.136 A 
ATOM     95  C   UNL A   1      32.384  18.486  22.993  1.00  0.00     0.093 A 
ATOM     96  C   UNL A   1      34.698  18.318  24.583  1.00  0.00     0.048 A 
ATOM     97  C   UNL A   1      33.084  17.339  23.022  1.00  0.00     0.018 A 
ATOM     98  C   UNL A   1      34.288  17.270  23.840  1.00  0.00     0.005 A 
ENDBRANCH  89  90
ENDBRANCH  81  89
ENDBRANCH  78  81
ENDBRANCH  76  77
ENDBRANCH  75  76
ENDBRANCH   1  75
TORSDOF 16
ENDMDL
