MODEL 1
REMARK VINA RESULT:     -11.9      0.000      0.000
REMARK SMILES Cc1cc(NC(=O)c2ccc(Br)nc2)sc1C(=O)NCCCCNC(=O)c1ccc(-c2c3nc(c(-c4c(F)cc(S(=O)(=O)[O-])cc4F)c4ccc([nH]4)c(-c4c(F)cc(S(=O)(=O)[O-])cc4F)c4nc(c(-c5c(F)cc(S(=O)(=O)[O-])cc5F)c5ccc2[nH]5)C=C4)C=C3)cc1
REMARK SMILES IDX 22 1 21 2 20 3 19 4 17 5 18 6 16 8 1 9 2 10 3 11 4 12 15 13
REMARK SMILES IDX 5 14 6 15 7 17 8 18 9 19 14 20 10 21 13 22 11 23 12 24 23 25
REMARK SMILES IDX 24 26 25 27 26 29 27 30 28 31 92 32 29 33 91 34 30 35 31 36
REMARK SMILES IDX 32 37 85 38 33 39 90 40 84 41 86 42 34 43 89 44 83 45 82 46
REMARK SMILES IDX 35 48 69 49 48 50 68 51 49 52 52 53 67 54 87 55 50 56 51 57
REMARK SMILES IDX 66 59 88 60 53 61 36 62 37 63 46 64 38 65 39 66 45 67 47 68
REMARK SMILES IDX 40 69 41 70 42 71 43 72 44 73 70 74 71 75 80 76 72 77 73 78
REMARK SMILES IDX 79 79 81 80 74 81 75 82 76 83 77 84 78 85 54 86 55 87 64 88
REMARK SMILES IDX 56 89 57 90 63 91 65 92 58 93 59 94 60 95 61 96 62 97
REMARK H PARENT 19 7 5 16 24 28 86 47 52 58
REMARK Flexibility Score: inf
ROOT
ATOM      1  C   UNL A   1      33.497  28.407  25.709  1.00  0.00     0.023 C 
ENDROOT
BRANCH   1   2
ATOM      2  C   UNL A   1      32.888  29.617  25.006  1.00  0.00     0.023 C 
BRANCH   2   3
ATOM      3  C   UNL A   1      31.362  29.687  25.015  1.00  0.00     0.116 C 
BRANCH   3   4
ATOM      4  N   UNL A   1      30.815  29.630  23.683  1.00  0.00    -0.351 N 
ATOM      5  C   UNL A   1      30.533  28.618  22.805  1.00  0.00     0.261 C 
ATOM      6  O   UNL A   1      29.911  29.020  21.811  1.00  0.00    -0.268 OA
ATOM      7  H   UNL A   1      30.597  30.520  23.323  1.00  0.00     0.163 HD
BRANCH   5   8
ATOM      8  C   UNL A   1      30.909  27.203  22.964  1.00  0.00     0.097 A 
ATOM      9  C   UNL A   1      33.095  26.513  21.643  1.00  0.00     0.046 C 
ATOM     10  C   UNL A   1      31.872  26.318  22.467  1.00  0.00    -0.025 A 
ATOM     11  C   UNL A   1      31.547  24.963  22.805  1.00  0.00     0.042 A 
ATOM     12  C   UNL A   1      30.666  24.873  23.839  1.00  0.00     0.096 A 
ATOM     13  S   UNL A   1      29.846  26.322  24.067  1.00  0.00    -0.112 S 
BRANCH  12  14
ATOM     14  N   UNL A   1      30.337  23.839  24.683  1.00  0.00    -0.313 N 
ATOM     15  C   UNL A   1      31.220  22.925  25.229  1.00  0.00     0.257 C 
ATOM     16  H   UNL A   1      29.387  23.740  24.919  1.00  0.00     0.171 HD
ATOM     17  O   UNL A   1      30.826  21.918  25.810  1.00  0.00    -0.269 OA
BRANCH  15  18
ATOM     18  C   UNL A   1      32.674  23.177  25.177  1.00  0.00     0.058 A 
ATOM     19  C   UNL A   1      33.522  22.434  24.349  1.00  0.00     0.018 A 
ATOM     20  C   UNL A   1      33.237  24.086  26.059  1.00  0.00     0.126 A 
ATOM     21  C   UNL A   1      34.901  22.568  24.499  1.00  0.00     0.037 A 
ATOM     22  N   UNL A   1      34.575  24.234  26.220  1.00  0.00    -0.249 NA
ATOM     23  C   UNL A   1      35.378  23.462  25.449  1.00  0.00     0.106 A 
ATOM     24  Br  UNL A   1      37.249  23.572  25.741  1.00  0.00    -0.029 Br
ENDBRANCH  15  18
ENDBRANCH  12  14
ENDBRANCH   5   8
ENDBRANCH   3   4
ENDBRANCH   2   3
ENDBRANCH   1   2
BRANCH   1  25
ATOM     25  C   UNL A   1      33.599  28.541  27.223  1.00  0.00     0.116 C 
BRANCH  25  26
ATOM     26  N   UNL A   1      33.564  29.915  27.710  1.00  0.00    -0.352 N 
ATOM     27  C   UNL A   1      34.601  30.639  28.258  1.00  0.00     0.251 C 
ATOM     28  H   UNL A   1      32.699  30.379  27.638  1.00  0.00     0.163 HD
ATOM     29  O   UNL A   1      34.420  31.774  28.676  1.00  0.00    -0.269 OA
BRANCH  27  30
ATOM     30  C   UNL A   1      35.918  29.983  28.381  1.00  0.00     0.039 A 
ATOM     31  C   UNL A   1      36.814  30.071  27.314  1.00  0.00     0.014 A 
ATOM     32  C   UNL A   1      36.299  29.399  29.591  1.00  0.00     0.014 A 
ATOM     33  C   UNL A   1      38.133  29.652  27.496  1.00  0.00     0.010 A 
ATOM     34  C   UNL A   1      37.630  29.059  29.793  1.00  0.00     0.010 A 
ATOM     35  C   UNL A   1      38.561  29.193  28.753  1.00  0.00    -0.014 A 
BRANCH  35  36
ATOM     36  C   UNL A   1      39.983  28.861  29.012  1.00  0.00     0.031 A 
ATOM     37  C   UNL A   1      40.904  29.908  29.573  1.00  0.00     0.074 A 
ATOM     38  C   UNL A   1      40.462  27.652  28.657  1.00  0.00     0.049 A 
ATOM     39  N   UNL A   1      42.195  29.851  29.772  1.00  0.00    -0.248 NA
ATOM     40  C   UNL A   1      40.299  31.205  29.921  1.00  0.00     0.031 C 
ATOM     41  C   UNL A   1      39.680  26.576  28.043  1.00  0.00     0.029 A 
ATOM     42  N   UNL A   1      41.727  27.129  28.747  1.00  0.00    -0.354 N 
ATOM     43  C   UNL A   1      42.560  31.105  30.245  1.00  0.00     0.074 A 
ATOM     44  C   UNL A   1      41.364  31.919  30.254  1.00  0.00     0.031 C 
ATOM     45  C   UNL A   1      40.477  25.516  27.833  1.00  0.00     0.029 A 
ATOM     46  C   UNL A   1      41.830  25.845  28.266  1.00  0.00     0.049 A 
ATOM     47  H   UNL A   1      42.490  27.626  29.121  1.00  0.00     0.167 HD
ATOM     48  C   UNL A   1      43.776  31.532  30.657  1.00  0.00     0.037 A 
ATOM     49  C   UNL A   1      42.897  25.027  28.183  1.00  0.00     0.037 A 
ATOM     50  C   UNL A   1      44.952  30.704  30.686  1.00  0.00     0.049 A 
ATOM     51  C   UNL A   1      44.230  25.510  28.686  1.00  0.00     0.074 A 
ATOM     52  C   UNL A   1      46.217  31.021  31.146  1.00  0.00     0.029 A 
ATOM     53  N   UNL A   1      45.003  29.391  30.243  1.00  0.00    -0.354 N 
ATOM     54  N   UNL A   1      44.545  26.681  29.188  1.00  0.00    -0.248 NA
ATOM     55  C   UNL A   1      45.351  24.561  28.622  1.00  0.00     0.031 C 
ATOM     56  C   UNL A   1      47.042  29.907  30.959  1.00  0.00     0.029 A 
ATOM     57  C   UNL A   1      46.281  28.885  30.413  1.00  0.00     0.049 A 
ATOM     58  H   UNL A   1      44.244  28.893  29.862  1.00  0.00     0.167 HD
ATOM     59  C   UNL A   1      45.891  26.600  29.524  1.00  0.00     0.074 A 
ATOM     60  C   UNL A   1      46.330  25.264  29.174  1.00  0.00     0.031 C 
ATOM     61  C   UNL A   1      46.691  27.545  30.075  1.00  0.00     0.037 A 
BRANCH  48  62
ATOM     62  C   UNL A   1      43.886  32.955  31.124  1.00  0.00     0.058 A 
ATOM     63  C   UNL A   1      43.685  33.304  32.469  1.00  0.00     0.135 A 
ATOM     64  C   UNL A   1      44.211  33.981  30.222  1.00  0.00     0.135 A 
ATOM     65  F   UNL A   1      43.354  32.363  33.369  1.00  0.00    -0.206 F 
ATOM     66  C   UNL A   1      43.767  34.623  32.899  1.00  0.00     0.059 A 
ATOM     67  C   UNL A   1      44.324  35.306  30.635  1.00  0.00     0.059 A 
ATOM     68  F   UNL A   1      44.411  33.703  28.924  1.00  0.00    -0.206 F 
ATOM     69  C   UNL A   1      44.083  35.618  31.973  1.00  0.00     0.060 A 
BRANCH  69  70
ATOM     70  S   UNL A   1      44.180  37.328  32.542  1.00  0.00     0.124 S 
ATOM     71  O   UNL A   1      43.915  38.060  31.307  1.00  0.00    -0.237 OA
ATOM     72  O   UNL A   1      43.127  37.385  33.550  1.00  0.00    -0.237 OA
ATOM     73  O   UNL A   1      45.542  37.438  33.056  1.00  0.00    -0.744 OA
ENDBRANCH  69  70
ENDBRANCH  48  62
BRANCH  49  74
ATOM     74  C   UNL A   1      42.740  23.654  27.635  1.00  0.00     0.058 A 
ATOM     75  C   UNL A   1      42.440  22.576  28.480  1.00  0.00     0.135 A 
ATOM     76  C   UNL A   1      42.870  23.396  26.262  1.00  0.00     0.135 A 
ATOM     77  F   UNL A   1      42.311  22.775  29.800  1.00  0.00    -0.206 F 
ATOM     78  C   UNL A   1      42.286  21.285  27.987  1.00  0.00     0.059 A 
ATOM     79  C   UNL A   1      42.701  22.116  25.743  1.00  0.00     0.059 A 
ATOM     80  F   UNL A   1      43.138  24.398  25.411  1.00  0.00    -0.206 F 
ATOM     81  C   UNL A   1      42.418  21.065  26.615  1.00  0.00     0.060 A 
BRANCH  81  82
ATOM     82  S   UNL A   1      42.166  19.395  25.975  1.00  0.00     0.124 S 
ATOM     83  O   UNL A   1      42.631  18.580  27.091  1.00  0.00    -0.237 OA
ATOM     84  O   UNL A   1      40.727  19.375  25.725  1.00  0.00    -0.237 OA
ATOM     85  O   UNL A   1      43.001  19.366  24.779  1.00  0.00    -0.744 OA
ENDBRANCH  81  82
ENDBRANCH  49  74
BRANCH  61  86
ATOM     86  C   UNL A   1      48.112  27.162  30.370  1.00  0.00     0.058 A 
ATOM     87  C   UNL A   1      49.150  27.431  29.466  1.00  0.00     0.135 A 
ATOM     88  C   UNL A   1      48.445  26.580  31.604  1.00  0.00     0.135 A 
ATOM     89  F   UNL A   1      48.881  27.981  28.272  1.00  0.00    -0.206 F 
ATOM     90  C   UNL A   1      50.472  27.123  29.770  1.00  0.00     0.059 A 
ATOM     91  C   UNL A   1      49.762  26.283  31.937  1.00  0.00     0.059 A 
ATOM     92  F   UNL A   1      47.487  26.311  32.505  1.00  0.00    -0.206 F 
ATOM     93  C   UNL A   1      50.768  26.551  31.009  1.00  0.00     0.060 A 
BRANCH  93  94
ATOM     94  S   UNL A   1      52.492  26.201  31.413  1.00  0.00     0.124 S 
ATOM     95  O   UNL A   1      52.391  24.873  32.008  1.00  0.00    -0.237 OA
ATOM     96  O   UNL A   1      53.141  26.263  30.108  1.00  0.00    -0.237 OA
ATOM     97  O   UNL A   1      52.849  27.277  32.334  1.00  0.00    -0.744 OA
ENDBRANCH  93  94
ENDBRANCH  61  86
ENDBRANCH  35  36
ENDBRANCH  27  30
ENDBRANCH  25  26
ENDBRANCH   1  25
TORSDOF 16
ENDMDL
MODEL 2
REMARK VINA RESULT:     -11.9      3.056      9.331
REMARK SMILES Cc1cc(NC(=O)c2ccc(Br)nc2)sc1C(=O)NCCCCNC(=O)c1ccc(-c2c3nc(c(-c4c(F)cc(S(=O)(=O)[O-])cc4F)c4ccc([nH]4)c(-c4c(F)cc(S(=O)(=O)[O-])cc4F)c4nc(c(-c5c(F)cc(S(=O)(=O)[O-])cc5F)c5ccc2[nH]5)C=C4)C=C3)cc1
REMARK SMILES IDX 22 1 21 2 20 3 19 4 17 5 18 6 16 8 1 9 2 10 3 11 4 12 15 13
REMARK SMILES IDX 5 14 6 15 7 17 8 18 9 19 14 20 10 21 13 22 11 23 12 24 23 25
REMARK SMILES IDX 24 26 25 27 26 29 27 30 28 31 92 32 29 33 91 34 30 35 31 36
REMARK SMILES IDX 32 37 85 38 33 39 90 40 84 41 86 42 34 43 89 44 83 45 82 46
REMARK SMILES IDX 35 48 69 49 48 50 68 51 49 52 52 53 67 54 87 55 50 56 51 57
REMARK SMILES IDX 66 59 88 60 53 61 36 62 37 63 46 64 38 65 39 66 45 67 47 68
REMARK SMILES IDX 40 69 41 70 42 71 43 72 44 73 70 74 71 75 80 76 72 77 73 78
REMARK SMILES IDX 79 79 81 80 74 81 75 82 76 83 77 84 78 85 54 86 55 87 64 88
REMARK SMILES IDX 56 89 57 90 63 91 65 92 58 93 59 94 60 95 61 96 62 97
REMARK H PARENT 19 7 5 16 24 28 86 47 52 58
REMARK Flexibility Score: inf
ROOT
ATOM      1  C   UNL A   1      35.748  23.336  25.986  1.00  0.00     0.023 C 
ENDROOT
BRANCH   1   2
ATOM      2  C   UNL A   1      35.569  21.873  26.381  1.00  0.00     0.023 C 
BRANCH   2   3
ATOM      3  C   UNL A   1      34.355  21.569  27.257  1.00  0.00     0.116 C 
BRANCH   3   4
ATOM      4  N   UNL A   1      33.476  20.609  26.640  1.00  0.00    -0.351 N 
ATOM      5  C   UNL A   1      32.615  20.643  25.576  1.00  0.00     0.261 C 
ATOM      6  O   UNL A   1      32.173  19.519  25.295  1.00  0.00    -0.268 OA
ATOM      7  H   UNL A   1      33.499  19.731  27.084  1.00  0.00     0.163 HD
BRANCH   5   8
ATOM      8  C   UNL A   1      32.215  21.843  24.823  1.00  0.00     0.097 A 
ATOM      9  C   UNL A   1      30.355  23.296  26.018  1.00  0.00     0.046 C 
ATOM     10  C   UNL A   1      31.279  22.877  24.930  1.00  0.00    -0.025 A 
ATOM     11  C   UNL A   1      31.196  23.623  23.707  1.00  0.00     0.042 A 
ATOM     12  C   UNL A   1      32.284  23.451  22.909  1.00  0.00     0.096 A 
ATOM     13  S   UNL A   1      33.136  22.066  23.330  1.00  0.00    -0.112 S 
BRANCH  12  14
ATOM     14  N   UNL A   1      32.777  24.180  21.852  1.00  0.00    -0.313 N 
ATOM     15  C   UNL A   1      33.002  25.545  21.842  1.00  0.00     0.257 C 
ATOM     16  H   UNL A   1      32.987  23.686  21.028  1.00  0.00     0.171 HD
ATOM     17  O   UNL A   1      33.253  26.148  20.802  1.00  0.00    -0.269 OA
BRANCH  15  18
ATOM     18  C   UNL A   1      33.005  26.304  23.108  1.00  0.00     0.058 A 
ATOM     19  C   UNL A   1      33.930  26.042  24.124  1.00  0.00     0.018 A 
ATOM     20  C   UNL A   1      31.990  27.216  23.354  1.00  0.00     0.126 A 
ATOM     21  C   UNL A   1      33.751  26.637  25.372  1.00  0.00     0.037 A 
ATOM     22  N   UNL A   1      31.798  27.808  24.560  1.00  0.00    -0.249 NA
ATOM     23  C   UNL A   1      32.672  27.494  25.546  1.00  0.00     0.106 A 
ATOM     24  Br  UNL A   1      32.353  28.221  27.268  1.00  0.00    -0.029 Br
ENDBRANCH  15  18
ENDBRANCH  12  14
ENDBRANCH   5   8
ENDBRANCH   3   4
ENDBRANCH   2   3
ENDBRANCH   1   2
BRANCH   1  25
ATOM     25  C   UNL A   1      36.964  23.611  25.110  1.00  0.00     0.116 C 
BRANCH  25  26
ATOM     26  N   UNL A   1      38.089  22.713  25.344  1.00  0.00    -0.352 N 
ATOM     27  C   UNL A   1      39.220  22.960  26.091  1.00  0.00     0.251 C 
ATOM     28  H   UNL A   1      38.034  21.827  24.919  1.00  0.00     0.163 HD
ATOM     29  O   UNL A   1      40.118  22.133  26.162  1.00  0.00    -0.269 OA
BRANCH  27  30
ATOM     30  C   UNL A   1      39.345  24.276  26.751  1.00  0.00     0.039 A 
ATOM     31  C   UNL A   1      38.808  24.439  28.029  1.00  0.00     0.014 A 
ATOM     32  C   UNL A   1      40.095  25.291  26.154  1.00  0.00     0.014 A 
ATOM     33  C   UNL A   1      39.107  25.595  28.750  1.00  0.00     0.010 A 
ATOM     34  C   UNL A   1      40.456  26.401  26.904  1.00  0.00     0.010 A 
ATOM     35  C   UNL A   1      39.976  26.559  28.213  1.00  0.00    -0.014 A 
BRANCH  35  36
ATOM     36  C   UNL A   1      40.412  27.735  29.004  1.00  0.00     0.031 A 
ATOM     37  C   UNL A   1      41.734  27.706  29.718  1.00  0.00     0.074 A 
ATOM     38  C   UNL A   1      39.580  28.785  29.153  1.00  0.00     0.049 A 
ATOM     39  N   UNL A   1      42.248  28.582  30.540  1.00  0.00    -0.248 NA
ATOM     40  C   UNL A   1      42.574  26.513  29.509  1.00  0.00     0.031 C 
ATOM     41  C   UNL A   1      38.244  28.901  28.562  1.00  0.00     0.029 A 
ATOM     42  N   UNL A   1      39.730  29.951  29.860  1.00  0.00    -0.354 N 
ATOM     43  C   UNL A   1      43.455  28.041  30.963  1.00  0.00     0.074 A 
ATOM     44  C   UNL A   1      43.574  26.738  30.348  1.00  0.00     0.031 C 
ATOM     45  C   UNL A   1      37.708  30.081  28.914  1.00  0.00     0.029 A 
ATOM     46  C   UNL A   1      38.644  30.791  29.778  1.00  0.00     0.049 A 
ATOM     47  H   UNL A   1      40.539  30.167  30.378  1.00  0.00     0.167 HD
ATOM     48  C   UNL A   1      44.391  28.592  31.771  1.00  0.00     0.037 A 
ATOM     49  C   UNL A   1      38.428  31.997  30.339  1.00  0.00     0.037 A 
ATOM     50  C   UNL A   1      44.287  29.906  32.344  1.00  0.00     0.049 A 
ATOM     51  C   UNL A   1      39.501  32.605  31.200  1.00  0.00     0.074 A 
ATOM     52  C   UNL A   1      45.209  30.582  33.123  1.00  0.00     0.029 A 
ATOM     53  N   UNL A   1      43.196  30.749  32.192  1.00  0.00    -0.354 N 
ATOM     54  N   UNL A   1      40.665  32.105  31.541  1.00  0.00    -0.248 NA
ATOM     55  C   UNL A   1      39.238  33.945  31.745  1.00  0.00     0.031 C 
ATOM     56  C   UNL A   1      44.665  31.825  33.464  1.00  0.00     0.029 A 
ATOM     57  C   UNL A   1      43.418  31.936  32.868  1.00  0.00     0.049 A 
ATOM     58  H   UNL A   1      42.383  30.534  31.680  1.00  0.00     0.167 HD
ATOM     59  C   UNL A   1      41.284  33.078  32.316  1.00  0.00     0.074 A 
ATOM     60  C   UNL A   1      40.368  34.198  32.390  1.00  0.00     0.031 C 
ATOM     61  C   UNL A   1      42.501  33.047  32.913  1.00  0.00     0.037 A 
BRANCH  48  62
ATOM     62  C   UNL A   1      45.616  27.773  32.066  1.00  0.00     0.058 A 
ATOM     63  C   UNL A   1      45.638  26.835  33.111  1.00  0.00     0.135 A 
ATOM     64  C   UNL A   1      46.775  27.914  31.287  1.00  0.00     0.135 A 
ATOM     65  F   UNL A   1      44.561  26.675  33.897  1.00  0.00    -0.206 F 
ATOM     66  C   UNL A   1      46.777  26.092  33.396  1.00  0.00     0.059 A 
ATOM     67  C   UNL A   1      47.919  27.161  31.538  1.00  0.00     0.059 A 
ATOM     68  F   UNL A   1      46.809  28.798  30.277  1.00  0.00    -0.206 F 
ATOM     69  C   UNL A   1      47.914  26.265  32.606  1.00  0.00     0.060 A 
BRANCH  69  70
ATOM     70  S   UNL A   1      49.388  25.297  32.992  1.00  0.00     0.124 S 
ATOM     71  O   UNL A   1      50.204  26.281  33.698  1.00  0.00    -0.237 OA
ATOM     72  O   UNL A   1      48.851  24.216  33.810  1.00  0.00    -0.237 OA
ATOM     73  O   UNL A   1      49.885  24.898  31.679  1.00  0.00    -0.744 OA
ENDBRANCH  69  70
ENDBRANCH  48  62
BRANCH  49  74
ATOM     74  C   UNL A   1      37.159  32.723  30.073  1.00  0.00     0.058 A 
ATOM     75  C   UNL A   1      36.019  32.484  30.853  1.00  0.00     0.135 A 
ATOM     76  C   UNL A   1      37.065  33.680  29.051  1.00  0.00     0.135 A 
ATOM     77  F   UNL A   1      36.062  31.575  31.840  1.00  0.00    -0.206 F 
ATOM     78  C   UNL A   1      34.823  33.155  30.623  1.00  0.00     0.059 A 
ATOM     79  C   UNL A   1      35.886  34.378  28.813  1.00  0.00     0.059 A 
ATOM     80  F   UNL A   1      38.134  33.958  28.289  1.00  0.00    -0.206 F 
ATOM     81  C   UNL A   1      34.767  34.102  29.599  1.00  0.00     0.060 A 
BRANCH  81  82
ATOM     82  S   UNL A   1      33.226  35.008  29.338  1.00  0.00     0.124 S 
ATOM     83  O   UNL A   1      32.646  34.990  30.676  1.00  0.00    -0.237 OA
ATOM     84  O   UNL A   1      33.707  36.305  28.868  1.00  0.00    -0.237 OA
ATOM     85  O   UNL A   1      32.532  34.206  28.336  1.00  0.00    -0.744 OA
ENDBRANCH  81  82
ENDBRANCH  49  74
BRANCH  61  86
ATOM     86  C   UNL A   1      42.934  34.272  33.664  1.00  0.00     0.058 A 
ATOM     87  C   UNL A   1      42.708  34.409  35.042  1.00  0.00     0.135 A 
ATOM     88  C   UNL A   1      43.643  35.291  33.007  1.00  0.00     0.135 A 
ATOM     89  F   UNL A   1      42.030  33.464  35.712  1.00  0.00    -0.206 F 
ATOM     90  C   UNL A   1      43.161  35.521  35.742  1.00  0.00     0.059 A 
ATOM     91  C   UNL A   1      44.123  36.402  33.692  1.00  0.00     0.059 A 
ATOM     92  F   UNL A   1      43.891  35.201  31.690  1.00  0.00    -0.206 F 
ATOM     93  C   UNL A   1      43.869  36.512  35.058  1.00  0.00     0.060 A 
BRANCH  93  94
ATOM     94  S   UNL A   1      44.495  37.928  35.986  1.00  0.00     0.124 S 
ATOM     95  O   UNL A   1      44.117  39.038  35.119  1.00  0.00    -0.237 OA
ATOM     96  O   UNL A   1      43.763  37.829  37.244  1.00  0.00    -0.237 OA
ATOM     97  O   UNL A   1      45.928  37.664  36.082  1.00  0.00    -0.744 OA
ENDBRANCH  93  94
ENDBRANCH  61  86
ENDBRANCH  35  36
ENDBRANCH  27  30
ENDBRANCH  25  26
ENDBRANCH   1  25
TORSDOF 16
ENDMDL
MODEL 3
REMARK VINA RESULT:     -11.2      2.528      3.386
REMARK SMILES Cc1cc(NC(=O)c2ccc(Br)nc2)sc1C(=O)NCCCCNC(=O)c1ccc(-c2c3nc(c(-c4c(F)cc(S(=O)(=O)[O-])cc4F)c4ccc([nH]4)c(-c4c(F)cc(S(=O)(=O)[O-])cc4F)c4nc(c(-c5c(F)cc(S(=O)(=O)[O-])cc5F)c5ccc2[nH]5)C=C4)C=C3)cc1
REMARK SMILES IDX 22 1 21 2 20 3 19 4 17 5 18 6 16 8 1 9 2 10 3 11 4 12 15 13
REMARK SMILES IDX 5 14 6 15 7 17 8 18 9 19 14 20 10 21 13 22 11 23 12 24 23 25
REMARK SMILES IDX 24 26 25 27 26 29 27 30 28 31 92 32 29 33 91 34 30 35 31 36
REMARK SMILES IDX 32 37 85 38 33 39 90 40 84 41 86 42 34 43 89 44 83 45 82 46
REMARK SMILES IDX 35 48 69 49 48 50 68 51 49 52 52 53 67 54 87 55 50 56 51 57
REMARK SMILES IDX 66 59 88 60 53 61 36 62 37 63 46 64 38 65 39 66 45 67 47 68
REMARK SMILES IDX 40 69 41 70 42 71 43 72 44 73 70 74 71 75 80 76 72 77 73 78
REMARK SMILES IDX 79 79 81 80 74 81 75 82 76 83 77 84 78 85 54 86 55 87 64 88
REMARK SMILES IDX 56 89 57 90 63 91 65 92 58 93 59 94 60 95 61 96 62 97
REMARK H PARENT 19 7 5 16 24 28 86 47 52 58
REMARK Flexibility Score: inf
ROOT
ATOM      1  C   UNL A   1      33.936  29.346  27.570  1.00  0.00     0.023 C 
ENDROOT
BRANCH   1   2
ATOM      2  C   UNL A   1      32.817  30.302  27.169  1.00  0.00     0.023 C 
BRANCH   2   3
ATOM      3  C   UNL A   1      32.264  30.116  25.757  1.00  0.00     0.116 C 
BRANCH   3   4
ATOM      4  N   UNL A   1      33.195  29.420  24.904  1.00  0.00    -0.351 N 
ATOM      5  C   UNL A   1      33.153  28.250  24.193  1.00  0.00     0.261 C 
ATOM      6  O   UNL A   1      34.140  28.115  23.456  1.00  0.00    -0.268 OA
ATOM      7  H   UNL A   1      34.054  29.892  24.813  1.00  0.00     0.163 HD
BRANCH   5   8
ATOM      8  C   UNL A   1      32.093  27.231  24.264  1.00  0.00     0.097 A 
ATOM      9  C   UNL A   1      31.441  26.188  21.922  1.00  0.00     0.046 C 
ATOM     10  C   UNL A   1      31.342  26.445  23.384  1.00  0.00    -0.025 A 
ATOM     11  C   UNL A   1      30.242  25.821  24.062  1.00  0.00     0.042 A 
ATOM     12  C   UNL A   1      30.410  25.781  25.412  1.00  0.00     0.096 A 
ATOM     13  S   UNL A   1      31.563  26.893  25.916  1.00  0.00    -0.112 S 
BRANCH  12  14
ATOM     14  N   UNL A   1      29.811  25.026  26.392  1.00  0.00    -0.313 N 
ATOM     15  C   UNL A   1      30.182  23.749  26.775  1.00  0.00     0.257 C 
ATOM     16  H   UNL A   1      29.048  25.430  26.865  1.00  0.00     0.171 HD
ATOM     17  O   UNL A   1      29.478  23.069  27.515  1.00  0.00    -0.269 OA
BRANCH  15  18
ATOM     18  C   UNL A   1      31.480  23.195  26.343  1.00  0.00     0.058 A 
ATOM     19  C   UNL A   1      32.665  23.461  27.037  1.00  0.00     0.018 A 
ATOM     20  C   UNL A   1      31.555  22.495  25.148  1.00  0.00     0.126 A 
ATOM     21  C   UNL A   1      33.882  23.093  26.467  1.00  0.00     0.037 A 
ATOM     22  N   UNL A   1      32.728  22.125  24.575  1.00  0.00    -0.249 NA
ATOM     23  C   UNL A   1      33.865  22.445  25.238  1.00  0.00     0.106 A 
ATOM     24  Br  UNL A   1      35.517  22.040  24.398  1.00  0.00    -0.029 Br
ENDBRANCH  15  18
ENDBRANCH  12  14
ENDBRANCH   5   8
ENDBRANCH   3   4
ENDBRANCH   2   3
ENDBRANCH   1   2
BRANCH   1  25
ATOM     25  C   UNL A   1      35.263  30.023  27.888  1.00  0.00     0.116 C 
BRANCH  25  26
ATOM     26  N   UNL A   1      35.323  30.637  29.209  1.00  0.00    -0.352 N 
ATOM     27  C   UNL A   1      36.380  30.627  30.094  1.00  0.00     0.251 C 
ATOM     28  H   UNL A   1      34.514  31.115  29.503  1.00  0.00     0.163 HD
ATOM     29  O   UNL A   1      36.277  31.141  31.199  1.00  0.00    -0.269 OA
BRANCH  27  30
ATOM     30  C   UNL A   1      37.615  29.924  29.694  1.00  0.00     0.039 A 
ATOM     31  C   UNL A   1      38.018  29.984  28.358  1.00  0.00     0.014 A 
ATOM     32  C   UNL A   1      38.424  29.322  30.660  1.00  0.00     0.014 A 
ATOM     33  C   UNL A   1      39.286  29.518  28.008  1.00  0.00     0.010 A 
ATOM     34  C   UNL A   1      39.713  28.935  30.323  1.00  0.00     0.010 A 
ATOM     35  C   UNL A   1      40.161  29.039  28.998  1.00  0.00    -0.014 A 
BRANCH  35  36
ATOM     36  C   UNL A   1      41.557  28.656  28.676  1.00  0.00     0.031 A 
ATOM     37  C   UNL A   1      42.636  29.703  28.668  1.00  0.00     0.074 A 
ATOM     38  C   UNL A   1      41.834  27.390  28.304  1.00  0.00     0.049 A 
ATOM     39  N   UNL A   1      43.889  29.593  28.314  1.00  0.00    -0.248 NA
ATOM     40  C   UNL A   1      42.243  31.062  29.076  1.00  0.00     0.031 C 
ATOM     41  C   UNL A   1      40.858  26.301  28.211  1.00  0.00     0.029 A 
ATOM     42  N   UNL A   1      43.015  26.808  27.920  1.00  0.00    -0.354 N 
ATOM     43  C   UNL A   1      44.428  30.868  28.434  1.00  0.00     0.074 A 
ATOM     44  C   UNL A   1      43.354  31.745  28.843  1.00  0.00     0.031 C 
ATOM     45  C   UNL A   1      41.485  25.180  27.818  1.00  0.00     0.029 A 
ATOM     46  C   UNL A   1      42.897  25.475  27.601  1.00  0.00     0.049 A 
ATOM     47  H   UNL A   1      43.867  27.298  27.877  1.00  0.00     0.167 HD
ATOM     48  C   UNL A   1      45.708  31.266  28.244  1.00  0.00     0.037 A 
ATOM     49  C   UNL A   1      43.824  24.594  27.179  1.00  0.00     0.037 A 
ATOM     50  C   UNL A   1      46.780  30.380  27.879  1.00  0.00     0.049 A 
ATOM     51  C   UNL A   1      45.247  25.051  27.015  1.00  0.00     0.074 A 
ATOM     52  C   UNL A   1      48.123  30.672  27.725  1.00  0.00     0.029 A 
ATOM     53  N   UNL A   1      46.631  29.026  27.619  1.00  0.00    -0.354 N 
ATOM     54  N   UNL A   1      45.753  26.249  27.192  1.00  0.00    -0.248 NA
ATOM     55  C   UNL A   1      46.230  24.037  26.605  1.00  0.00     0.031 C 
ATOM     56  C   UNL A   1      48.784  29.498  27.348  1.00  0.00     0.029 A 
ATOM     57  C   UNL A   1      47.857  28.469  27.299  1.00  0.00     0.049 A 
ATOM     58  H   UNL A   1      45.779  28.534  27.655  1.00  0.00     0.167 HD
ATOM     59  C   UNL A   1      47.114  26.127  26.942  1.00  0.00     0.074 A 
ATOM     60  C   UNL A   1      47.355  24.738  26.606  1.00  0.00     0.031 C 
ATOM     61  C   UNL A   1      48.078  27.079  26.987  1.00  0.00     0.037 A 
BRANCH  48  62
ATOM     62  C   UNL A   1      46.014  32.723  28.445  1.00  0.00     0.058 A 
ATOM     63  C   UNL A   1      45.939  33.642  27.386  1.00  0.00     0.135 A 
ATOM     64  C   UNL A   1      46.371  33.210  29.712  1.00  0.00     0.135 A 
ATOM     65  F   UNL A   1      45.620  33.224  26.150  1.00  0.00    -0.206 F 
ATOM     66  C   UNL A   1      46.241  34.986  27.567  1.00  0.00     0.059 A 
ATOM     67  C   UNL A   1      46.653  34.557  29.923  1.00  0.00     0.059 A 
ATOM     68  F   UNL A   1      46.460  32.374  30.759  1.00  0.00    -0.206 F 
ATOM     69  C   UNL A   1      46.601  35.434  28.839  1.00  0.00     0.060 A 
BRANCH  69  70
ATOM     70  S   UNL A   1      46.997  37.181  29.060  1.00  0.00     0.124 S 
ATOM     71  O   UNL A   1      47.575  37.513  27.761  1.00  0.00    -0.237 OA
ATOM     72  O   UNL A   1      45.691  37.767  29.340  1.00  0.00    -0.237 OA
ATOM     73  O   UNL A   1      47.933  37.178  30.180  1.00  0.00    -0.744 OA
ENDBRANCH  69  70
ENDBRANCH  48  62
BRANCH  49  74
ATOM     74  C   UNL A   1      43.441  23.181  26.920  1.00  0.00     0.058 A 
ATOM     75  C   UNL A   1      43.391  22.682  25.611  1.00  0.00     0.135 A 
ATOM     76  C   UNL A   1      43.136  22.301  27.969  1.00  0.00     0.135 A 
ATOM     77  F   UNL A   1      43.671  23.488  24.575  1.00  0.00    -0.206 F 
ATOM     78  C   UNL A   1      43.039  21.362  25.346  1.00  0.00     0.059 A 
ATOM     79  C   UNL A   1      42.799  20.973  27.732  1.00  0.00     0.059 A 
ATOM     80  F   UNL A   1      43.188  22.727  29.241  1.00  0.00    -0.206 F 
ATOM     81  C   UNL A   1      42.744  20.515  26.415  1.00  0.00     0.060 A 
BRANCH  81  82
ATOM     82  S   UNL A   1      42.337  18.789  26.068  1.00  0.00     0.124 S 
ATOM     83  O   UNL A   1      43.270  18.480  24.990  1.00  0.00    -0.237 OA
ATOM     84  O   UNL A   1      42.607  18.146  27.351  1.00  0.00    -0.237 OA
ATOM     85  O   UNL A   1      40.930  18.848  25.690  1.00  0.00    -0.744 OA
ENDBRANCH  81  82
ENDBRANCH  49  74
BRANCH  61  86
ATOM     86  C   UNL A   1      49.488  26.649  26.706  1.00  0.00     0.058 A 
ATOM     87  C   UNL A   1      50.320  26.147  27.717  1.00  0.00     0.135 A 
ATOM     88  C   UNL A   1      49.987  26.676  25.393  1.00  0.00     0.135 A 
ATOM     89  F   UNL A   1      49.889  26.107  28.988  1.00  0.00    -0.206 F 
ATOM     90  C   UNL A   1      51.606  25.698  27.440  1.00  0.00     0.059 A 
ATOM     91  C   UNL A   1      51.263  26.213  25.090  1.00  0.00     0.059 A 
ATOM     92  F   UNL A   1      49.225  27.140  24.390  1.00  0.00    -0.206 F 
ATOM     93  C   UNL A   1      52.068  25.733  26.123  1.00  0.00     0.060 A 
BRANCH  93  94
ATOM     94  S   UNL A   1      53.722  25.102  25.766  1.00  0.00     0.124 S 
ATOM     95  O   UNL A   1      53.430  23.737  25.343  1.00  0.00    -0.237 OA
ATOM     96  O   UNL A   1      54.184  26.006  24.717  1.00  0.00    -0.237 OA
ATOM     97  O   UNL A   1      54.416  25.231  27.044  1.00  0.00    -0.744 OA
ENDBRANCH  93  94
ENDBRANCH  61  86
ENDBRANCH  35  36
ENDBRANCH  27  30
ENDBRANCH  25  26
ENDBRANCH   1  25
TORSDOF 16
ENDMDL
