MODEL 1
REMARK VINA RESULT:     -13.8      0.000      0.000
REMARK SMILES Cc1cccc(-n2ncc(C(=O)Nc3cccc(C(=O)NCCCCNC(=O)c4ccc(-c5c6nc(c(-c7c(F)cc(S(=O)(=O)[O-])cc7F)c7ccc([nH]7)c(-c7c(F)cc(S(=O)(=O)[O-])cc7F)c7nc(c(-c8c(F)cc(S(=O)(=O)[O-])cc8F)c8ccc5[nH]8)C=C7)C=C6)cc4)c3C)c2C)c1
REMARK SMILES IDX 23 1 22 2 21 3 19 4 20 5 18 7 14 8 15 9 95 10 16 11 96 12
REMARK SMILES IDX 17 13 13 14 11 15 12 16 10 18 7 19 8 20 97 21 9 22 98 23
REMARK SMILES IDX 6 24 1 25 2 26 3 27 99 28 4 29 5 30 24 31 25 32 26 33 27 34
REMARK SMILES IDX 28 36 29 37 30 38 94 39 31 40 93 41 32 42 33 43 34 44 87 45
REMARK SMILES IDX 35 46 92 47 86 48 88 49 36 50 91 51 85 52 84 53 37 55 71 56
REMARK SMILES IDX 50 57 70 58 51 59 54 60 69 61 89 62 52 63 53 64 68 66 90 67
REMARK SMILES IDX 55 68 38 69 39 70 48 71 40 72 41 73 47 74 49 75 42 76 43 77
REMARK SMILES IDX 44 78 45 79 46 80 72 81 73 82 82 83 74 84 75 85 81 86 83 87
REMARK SMILES IDX 76 88 77 89 78 90 79 91 80 92 56 93 57 94 66 95 58 96 59 97
REMARK SMILES IDX 65 98 67 99 60 100 61 101 62 102 63 103 64 104
REMARK H PARENT 21 6 13 17 26 35 88 54 54 65
REMARK Flexibility Score: inf
ROOT
ATOM      1  C   UNL A   1      33.884  28.524  24.528  1.00  0.00     0.023 C 
ENDROOT
BRANCH   1   2
ATOM      2  C   UNL A   1      33.778  28.709  23.015  1.00  0.00     0.116 C 
BRANCH   2   3
ATOM      3  N   UNL A   1      32.408  28.699  22.505  1.00  0.00    -0.352 N 
ATOM      4  C   UNL A   1      31.277  27.933  22.655  1.00  0.00     0.251 C 
ATOM      5  O   UNL A   1      30.275  28.369  22.083  1.00  0.00    -0.269 OA
ATOM      6  H   UNL A   1      32.253  29.447  21.884  1.00  0.00     0.163 HD
BRANCH   4   7
ATOM      7  C   UNL A   1      31.169  26.654  23.445  1.00  0.00     0.044 A 
ATOM      8  C   UNL A   1      31.190  24.217  23.570  1.00  0.00     0.045 A 
ATOM      9  C   UNL A   1      30.730  24.268  24.888  1.00  0.00     0.026 A 
ATOM     10  C   UNL A   1      31.557  25.399  22.881  1.00  0.00    -0.015 A 
ATOM     11  C   UNL A   1      30.400  25.483  25.452  1.00  0.00     0.003 A 
ATOM     12  C   UNL A   1      32.186  25.288  21.511  1.00  0.00     0.047 C 
ATOM     13  C   UNL A   1      30.536  26.642  24.694  1.00  0.00     0.014 A 
BRANCH   8  14
ATOM     14  N   UNL A   1      31.167  22.974  22.908  1.00  0.00    -0.322 N 
ATOM     15  C   UNL A   1      32.170  22.018  22.875  1.00  0.00     0.259 C 
ATOM     16  O   UNL A   1      32.121  21.151  22.002  1.00  0.00    -0.269 OA
ATOM     17  H   UNL A   1      30.343  22.760  22.411  1.00  0.00     0.170 HD
BRANCH  15  18
ATOM     18  C   UNL A   1      33.194  21.994  23.930  1.00  0.00     0.081 A 
ATOM     19  N   UNL A   1      35.089  22.249  25.093  1.00  0.00    -0.237 N 
ATOM     20  N   UNL A   1      34.286  21.500  25.883  1.00  0.00    -0.175 NA
ATOM     21  C   UNL A   1      34.510  22.447  23.840  1.00  0.00     0.054 A 
ATOM     22  C   UNL A   1      33.156  21.374  25.199  1.00  0.00     0.149 A 
ATOM     23  C   UNL A   1      35.246  22.918  22.635  1.00  0.00     0.068 C 
BRANCH  19  24
ATOM     24  C   UNL A   1      36.355  22.661  25.599  1.00  0.00     0.065 A 
ATOM     25  C   UNL A   1      39.811  21.109  26.038  1.00  0.00     0.044 C 
ATOM     26  C   UNL A   1      38.679  22.093  26.072  1.00  0.00    -0.049 A 
ATOM     27  C   UNL A   1      38.900  23.410  26.490  1.00  0.00     0.003 A 
ATOM     28  C   UNL A   1      37.396  21.719  25.652  1.00  0.00     0.031 A 
ATOM     29  C   UNL A   1      37.854  24.335  26.496  1.00  0.00     0.002 A 
ATOM     30  C   UNL A   1      36.582  23.966  26.049  1.00  0.00     0.028 A 
ENDBRANCH  19  24
ENDBRANCH  15  18
ENDBRANCH   8  14
ENDBRANCH   4   7
ENDBRANCH   2   3
ENDBRANCH   1   2
BRANCH   1  31
ATOM     31  C   UNL A   1      32.939  29.394  25.354  1.00  0.00     0.023 C 
BRANCH  31  32
ATOM     32  C   UNL A   1      33.312  29.521  26.828  1.00  0.00     0.116 C 
BRANCH  32  33
ATOM     33  N   UNL A   1      33.582  30.872  27.284  1.00  0.00    -0.352 N 
ATOM     34  C   UNL A   1      34.591  31.290  28.146  1.00  0.00     0.251 C 
ATOM     35  H   UNL A   1      32.982  31.574  26.942  1.00  0.00     0.163 HD
ATOM     36  O   UNL A   1      34.588  32.393  28.644  1.00  0.00    -0.269 OA
BRANCH  34  37
ATOM     37  C   UNL A   1      35.732  30.363  28.357  1.00  0.00     0.039 A 
ATOM     38  C   UNL A   1      35.865  29.787  29.626  1.00  0.00     0.014 A 
ATOM     39  C   UNL A   1      36.760  30.271  27.423  1.00  0.00     0.014 A 
ATOM     40  C   UNL A   1      37.106  29.296  30.030  1.00  0.00     0.010 A 
ATOM     41  C   UNL A   1      38.009  29.857  27.851  1.00  0.00     0.010 A 
ATOM     42  C   UNL A   1      38.196  29.424  29.174  1.00  0.00    -0.014 A 
BRANCH  42  43
ATOM     43  C   UNL A   1      39.584  29.244  29.591  1.00  0.00     0.031 A 
ATOM     44  C   UNL A   1      40.295  27.974  29.320  1.00  0.00     0.074 A 
ATOM     45  C   UNL A   1      40.272  30.293  30.098  1.00  0.00     0.049 A 
ATOM     46  N   UNL A   1      41.469  27.696  29.779  1.00  0.00    -0.248 NA
ATOM     47  C   UNL A   1      39.709  26.873  28.556  1.00  0.00     0.031 C 
ATOM     48  C   UNL A   1      41.723  30.446  30.175  1.00  0.00     0.029 A 
ATOM     49  N   UNL A   1      39.774  31.346  30.873  1.00  0.00    -0.354 N 
ATOM     50  C   UNL A   1      41.913  26.578  29.121  1.00  0.00     0.074 A 
ATOM     51  C   UNL A   1      40.740  26.024  28.493  1.00  0.00     0.031 C 
ATOM     52  C   UNL A   1      42.018  31.331  31.137  1.00  0.00     0.029 A 
ATOM     53  C   UNL A   1      40.781  31.658  31.818  1.00  0.00     0.049 A 
ATOM     54  H   UNL A   1      38.897  31.784  30.780  1.00  0.00     0.167 HD
ATOM     55  C   UNL A   1      43.251  26.335  29.063  1.00  0.00     0.037 A 
ATOM     56  C   UNL A   1      40.559  31.482  33.156  1.00  0.00     0.037 A 
ATOM     57  C   UNL A   1      43.976  27.087  30.089  1.00  0.00     0.049 A 
ATOM     58  C   UNL A   1      41.431  30.433  33.817  1.00  0.00     0.074 A 
ATOM     59  C   UNL A   1      44.875  28.136  30.114  1.00  0.00     0.029 A 
ATOM     60  N   UNL A   1      43.614  26.869  31.408  1.00  0.00    -0.354 N 
ATOM     61  N   UNL A   1      42.390  29.778  33.219  1.00  0.00    -0.248 NA
ATOM     62  C   UNL A   1      41.234  29.981  35.197  1.00  0.00     0.031 C 
ATOM     63  C   UNL A   1      44.954  28.614  31.463  1.00  0.00     0.029 A 
ATOM     64  C   UNL A   1      44.137  27.824  32.254  1.00  0.00     0.049 A 
ATOM     65  H   UNL A   1      43.048  26.121  31.708  1.00  0.00     0.167 HD
ATOM     66  C   UNL A   1      42.838  28.781  34.044  1.00  0.00     0.074 A 
ATOM     67  C   UNL A   1      42.120  28.975  35.289  1.00  0.00     0.031 C 
ATOM     68  C   UNL A   1      43.713  27.814  33.646  1.00  0.00     0.037 A 
BRANCH  55  69
ATOM     69  C   UNL A   1      43.916  25.499  27.993  1.00  0.00     0.058 A 
ATOM     70  C   UNL A   1      43.927  25.929  26.649  1.00  0.00     0.135 A 
ATOM     71  C   UNL A   1      44.435  24.200  28.202  1.00  0.00     0.135 A 
ATOM     72  F   UNL A   1      43.432  27.127  26.304  1.00  0.00    -0.206 F 
ATOM     73  C   UNL A   1      44.412  25.135  25.602  1.00  0.00     0.059 A 
ATOM     74  C   UNL A   1      44.975  23.415  27.185  1.00  0.00     0.059 A 
ATOM     75  F   UNL A   1      44.375  23.589  29.391  1.00  0.00    -0.206 F 
ATOM     76  C   UNL A   1      44.934  23.876  25.880  1.00  0.00     0.060 A 
BRANCH  76  77
ATOM     77  S   UNL A   1      45.523  22.825  24.539  1.00  0.00     0.124 S 
ATOM     78  O   UNL A   1      46.444  23.720  23.845  1.00  0.00    -0.237 OA
ATOM     79  O   UNL A   1      46.132  21.709  25.253  1.00  0.00    -0.237 OA
ATOM     80  O   UNL A   1      44.301  22.498  23.807  1.00  0.00    -0.744 OA
ENDBRANCH  76  77
ENDBRANCH  55  69
BRANCH  56  81
ATOM     81  C   UNL A   1      39.163  31.831  33.541  1.00  0.00     0.058 A 
ATOM     82  C   UNL A   1      38.859  33.200  33.683  1.00  0.00     0.135 A 
ATOM     83  C   UNL A   1      38.101  30.947  33.310  1.00  0.00     0.135 A 
ATOM     84  F   UNL A   1      39.840  34.086  33.923  1.00  0.00    -0.206 F 
ATOM     85  C   UNL A   1      37.589  33.693  33.420  1.00  0.00     0.059 A 
ATOM     86  C   UNL A   1      36.813  31.422  33.057  1.00  0.00     0.059 A 
ATOM     87  F   UNL A   1      38.330  29.633  33.171  1.00  0.00    -0.206 F 
ATOM     88  C   UNL A   1      36.592  32.800  33.035  1.00  0.00     0.060 A 
BRANCH  88  89
ATOM     89  S   UNL A   1      35.089  33.491  32.304  1.00  0.00     0.124 S 
ATOM     90  O   UNL A   1      34.541  34.264  33.413  1.00  0.00    -0.237 OA
ATOM     91  O   UNL A   1      35.639  34.274  31.199  1.00  0.00    -0.237 OA
ATOM     92  O   UNL A   1      34.329  32.306  31.923  1.00  0.00    -0.744 OA
ENDBRANCH  88  89
ENDBRANCH  56  81
BRANCH  68  93
ATOM     93  C   UNL A   1      44.195  26.738  34.571  1.00  0.00     0.058 A 
ATOM     94  C   UNL A   1      45.530  26.687  35.000  1.00  0.00     0.135 A 
ATOM     95  C   UNL A   1      43.369  25.660  34.944  1.00  0.00     0.135 A 
ATOM     96  F   UNL A   1      46.386  27.672  34.682  1.00  0.00    -0.206 F 
ATOM     97  C   UNL A   1      46.023  25.622  35.754  1.00  0.00     0.059 A 
ATOM     98  C   UNL A   1      43.848  24.567  35.661  1.00  0.00     0.059 A 
ATOM     99  F   UNL A   1      42.062  25.652  34.636  1.00  0.00    -0.206 F 
ATOM    100  C   UNL A   1      45.177  24.560  36.071  1.00  0.00     0.060 A 
BRANCH 100 101
ATOM    101  S   UNL A   1      45.824  23.143  36.982  1.00  0.00     0.124 S 
ATOM    102  O   UNL A   1      45.260  22.007  36.257  1.00  0.00    -0.237 OA
ATOM    103  O   UNL A   1      47.263  23.334  36.831  1.00  0.00    -0.237 OA
ATOM    104  O   UNL A   1      45.298  23.342  38.327  1.00  0.00    -0.744 OA
ENDBRANCH 100 101
ENDBRANCH  68  93
ENDBRANCH  42  43
ENDBRANCH  34  37
ENDBRANCH  32  33
ENDBRANCH  31  32
ENDBRANCH   1  31
TORSDOF 17
ENDMDL
MODEL 2
REMARK VINA RESULT:     -13.4      3.471     10.077
REMARK SMILES Cc1cccc(-n2ncc(C(=O)Nc3cccc(C(=O)NCCCCNC(=O)c4ccc(-c5c6nc(c(-c7c(F)cc(S(=O)(=O)[O-])cc7F)c7ccc([nH]7)c(-c7c(F)cc(S(=O)(=O)[O-])cc7F)c7nc(c(-c8c(F)cc(S(=O)(=O)[O-])cc8F)c8ccc5[nH]8)C=C7)C=C6)cc4)c3C)c2C)c1
REMARK SMILES IDX 23 1 22 2 21 3 19 4 20 5 18 7 14 8 15 9 95 10 16 11 96 12
REMARK SMILES IDX 17 13 13 14 11 15 12 16 10 18 7 19 8 20 97 21 9 22 98 23
REMARK SMILES IDX 6 24 1 25 2 26 3 27 99 28 4 29 5 30 24 31 25 32 26 33 27 34
REMARK SMILES IDX 28 36 29 37 30 38 94 39 31 40 93 41 32 42 33 43 34 44 87 45
REMARK SMILES IDX 35 46 92 47 86 48 88 49 36 50 91 51 85 52 84 53 37 55 71 56
REMARK SMILES IDX 50 57 70 58 51 59 54 60 69 61 89 62 52 63 53 64 68 66 90 67
REMARK SMILES IDX 55 68 38 69 39 70 48 71 40 72 41 73 47 74 49 75 42 76 43 77
REMARK SMILES IDX 44 78 45 79 46 80 72 81 73 82 82 83 74 84 75 85 81 86 83 87
REMARK SMILES IDX 76 88 77 89 78 90 79 91 80 92 56 93 57 94 66 95 58 96 59 97
REMARK SMILES IDX 65 98 67 99 60 100 61 101 62 102 63 103 64 104
REMARK H PARENT 21 6 13 17 26 35 88 54 54 65
REMARK Flexibility Score: inf
ROOT
ATOM      1  C   UNL A   1      35.114  23.182  26.018  1.00  0.00     0.023 C 
ENDROOT
BRANCH   1   2
ATOM      2  C   UNL A   1      35.107  21.686  26.332  1.00  0.00     0.116 C 
BRANCH   2   3
ATOM      3  N   UNL A   1      33.887  20.993  25.919  1.00  0.00    -0.352 N 
ATOM      4  C   UNL A   1      32.846  21.207  25.048  1.00  0.00     0.251 C 
ATOM      5  O   UNL A   1      32.050  20.270  24.949  1.00  0.00    -0.269 OA
ATOM      6  H   UNL A   1      33.783  20.139  26.396  1.00  0.00     0.163 HD
BRANCH   4   7
ATOM      7  C   UNL A   1      32.617  22.450  24.227  1.00  0.00     0.044 A 
ATOM      8  C   UNL A   1      31.217  24.332  23.550  1.00  0.00     0.045 A 
ATOM      9  C   UNL A   1      32.104  24.635  22.514  1.00  0.00     0.026 A 
ATOM     10  C   UNL A   1      31.531  23.336  24.508  1.00  0.00    -0.015 A 
ATOM     11  C   UNL A   1      33.180  23.808  22.270  1.00  0.00     0.003 A 
ATOM     12  C   UNL A   1      30.616  23.140  25.695  1.00  0.00     0.047 C 
ATOM     13  C   UNL A   1      33.367  22.683  23.066  1.00  0.00     0.014 A 
BRANCH   8  14
ATOM     14  N   UNL A   1      29.956  24.958  23.548  1.00  0.00    -0.322 N 
ATOM     15  C   UNL A   1      29.625  26.187  24.096  1.00  0.00     0.259 C 
ATOM     16  O   UNL A   1      28.435  26.438  24.292  1.00  0.00    -0.269 OA
ATOM     17  H   UNL A   1      29.225  24.466  23.107  1.00  0.00     0.170 HD
BRANCH  15  18
ATOM     18  C   UNL A   1      30.672  27.192  24.326  1.00  0.00     0.081 A 
ATOM     19  N   UNL A   1      32.241  28.489  25.259  1.00  0.00    -0.237 N 
ATOM     20  N   UNL A   1      32.082  28.970  24.005  1.00  0.00    -0.175 NA
ATOM     21  C   UNL A   1      31.299  27.499  25.534  1.00  0.00     0.054 A 
ATOM     22  C   UNL A   1      31.170  28.183  23.450  1.00  0.00     0.149 A 
ATOM     23  C   UNL A   1      30.967  27.006  26.899  1.00  0.00     0.068 C 
BRANCH  19  24
ATOM     24  C   UNL A   1      33.249  29.059  26.088  1.00  0.00     0.065 A 
ATOM     25  C   UNL A   1      33.773  32.331  27.975  1.00  0.00     0.044 C 
ATOM     26  C   UNL A   1      34.006  30.957  27.418  1.00  0.00    -0.049 A 
ATOM     27  C   UNL A   1      35.134  30.223  27.797  1.00  0.00     0.003 A 
ATOM     28  C   UNL A   1      33.080  30.378  26.542  1.00  0.00     0.031 A 
ATOM     29  C   UNL A   1      35.338  28.933  27.301  1.00  0.00     0.002 A 
ATOM     30  C   UNL A   1      34.398  28.347  26.450  1.00  0.00     0.028 A 
ENDBRANCH  19  24
ENDBRANCH  15  18
ENDBRANCH   8  14
ENDBRANCH   4   7
ENDBRANCH   2   3
ENDBRANCH   1   2
BRANCH   1  31
ATOM     31  C   UNL A   1      36.478  23.859  26.128  1.00  0.00     0.023 C 
BRANCH  31  32
ATOM     32  C   UNL A   1      37.548  23.295  25.198  1.00  0.00     0.116 C 
BRANCH  32  33
ATOM     33  N   UNL A   1      38.613  22.560  25.856  1.00  0.00    -0.352 N 
ATOM     34  C   UNL A   1      39.727  23.082  26.507  1.00  0.00     0.251 C 
ATOM     35  H   UNL A   1      38.537  21.579  25.840  1.00  0.00     0.163 HD
ATOM     36  O   UNL A   1      40.669  22.387  26.817  1.00  0.00    -0.269 OA
BRANCH  34  37
ATOM     37  C   UNL A   1      39.675  24.513  26.900  1.00  0.00     0.039 A 
ATOM     38  C   UNL A   1      40.351  25.428  26.083  1.00  0.00     0.014 A 
ATOM     39  C   UNL A   1      39.199  24.894  28.151  1.00  0.00     0.014 A 
ATOM     40  C   UNL A   1      40.728  26.665  26.604  1.00  0.00     0.010 A 
ATOM     41  C   UNL A   1      39.641  26.088  28.693  1.00  0.00     0.010 A 
ATOM     42  C   UNL A   1      40.456  26.948  27.940  1.00  0.00    -0.014 A 
BRANCH  42  43
ATOM     43  C   UNL A   1      41.064  28.053  28.677  1.00  0.00     0.031 A 
ATOM     44  C   UNL A   1      40.285  29.271  28.991  1.00  0.00     0.074 A 
ATOM     45  C   UNL A   1      42.301  27.904  29.205  1.00  0.00     0.049 A 
ATOM     46  N   UNL A   1      40.795  30.335  29.514  1.00  0.00    -0.248 NA
ATOM     47  C   UNL A   1      38.864  29.419  28.676  1.00  0.00     0.031 C 
ATOM     48  C   UNL A   1      42.900  28.676  30.291  1.00  0.00     0.029 A 
ATOM     49  N   UNL A   1      43.366  27.157  28.687  1.00  0.00    -0.354 N 
ATOM     50  C   UNL A   1      39.755  31.140  29.903  1.00  0.00     0.074 A 
ATOM     51  C   UNL A   1      38.598  30.606  29.232  1.00  0.00     0.031 C 
ATOM     52  C   UNL A   1      44.234  28.588  30.207  1.00  0.00     0.029 A 
ATOM     53  C   UNL A   1      44.543  27.888  28.975  1.00  0.00     0.049 A 
ATOM     54  H   UNL A   1      43.308  26.294  28.217  1.00  0.00     0.167 HD
ATOM     55  C   UNL A   1      39.972  32.078  30.866  1.00  0.00     0.037 A 
ATOM     56  C   UNL A   1      45.312  28.396  27.963  1.00  0.00     0.037 A 
ATOM     57  C   UNL A   1      41.399  32.361  31.026  1.00  0.00     0.049 A 
ATOM     58  C   UNL A   1      45.383  29.910  27.912  1.00  0.00     0.074 A 
ATOM     59  C   UNL A   1      42.360  32.151  31.997  1.00  0.00     0.029 A 
ATOM     60  N   UNL A   1      42.085  32.809  29.908  1.00  0.00    -0.354 N 
ATOM     61  N   UNL A   1      44.838  30.711  28.788  1.00  0.00    -0.248 NA
ATOM     62  C   UNL A   1      46.013  30.645  26.811  1.00  0.00     0.031 C 
ATOM     63  C   UNL A   1      43.643  32.374  31.399  1.00  0.00     0.029 A 
ATOM     64  C   UNL A   1      43.451  32.760  30.083  1.00  0.00     0.049 A 
ATOM     65  H   UNL A   1      41.648  33.124  29.084  1.00  0.00     0.167 HD
ATOM     66  C   UNL A   1      44.928  32.002  28.337  1.00  0.00     0.074 A 
ATOM     67  C   UNL A   1      45.712  31.918  27.119  1.00  0.00     0.031 C 
ATOM     68  C   UNL A   1      44.301  33.051  28.939  1.00  0.00     0.037 A 
BRANCH  55  69
ATOM     69  C   UNL A   1      38.887  32.654  31.748  1.00  0.00     0.058 A 
ATOM     70  C   UNL A   1      38.158  31.824  32.625  1.00  0.00     0.135 A 
ATOM     71  C   UNL A   1      38.422  33.988  31.674  1.00  0.00     0.135 A 
ATOM     72  F   UNL A   1      38.469  30.527  32.765  1.00  0.00    -0.206 F 
ATOM     73  C   UNL A   1      37.060  32.280  33.365  1.00  0.00     0.059 A 
ATOM     74  C   UNL A   1      37.369  34.479  32.443  1.00  0.00     0.059 A 
ATOM     75  F   UNL A   1      38.914  34.868  30.794  1.00  0.00    -0.206 F 
ATOM     76  C   UNL A   1      36.671  33.612  33.267  1.00  0.00     0.060 A 
BRANCH  76  77
ATOM     77  S   UNL A   1      35.234  34.204  34.180  1.00  0.00     0.124 S 
ATOM     78  O   UNL A   1      35.635  33.950  35.560  1.00  0.00    -0.237 OA
ATOM     79  O   UNL A   1      35.161  35.606  33.784  1.00  0.00    -0.237 OA
ATOM     80  O   UNL A   1      34.149  33.363  33.681  1.00  0.00    -0.744 OA
ENDBRANCH  76  77
ENDBRANCH  55  69
BRANCH  56  81
ATOM     81  C   UNL A   1      45.376  27.476  26.795  1.00  0.00     0.058 A 
ATOM     82  C   UNL A   1      46.285  26.401  26.874  1.00  0.00     0.135 A 
ATOM     83  C   UNL A   1      44.307  27.362  25.896  1.00  0.00     0.135 A 
ATOM     84  F   UNL A   1      47.336  26.468  27.708  1.00  0.00    -0.206 F 
ATOM     85  C   UNL A   1      46.040  25.194  26.233  1.00  0.00     0.059 A 
ATOM     86  C   UNL A   1      44.052  26.161  25.231  1.00  0.00     0.059 A 
ATOM     87  F   UNL A   1      43.415  28.355  25.776  1.00  0.00    -0.206 F 
ATOM     88  C   UNL A   1      44.879  25.064  25.474  1.00  0.00     0.060 A 
BRANCH  88  89
ATOM     89  S   UNL A   1      44.373  23.393  25.003  1.00  0.00     0.124 S 
ATOM     90  O   UNL A   1      42.930  23.543  24.857  1.00  0.00    -0.237 OA
ATOM     91  O   UNL A   1      45.117  23.207  23.758  1.00  0.00    -0.237 OA
ATOM     92  O   UNL A   1      44.814  22.581  26.130  1.00  0.00    -0.744 OA
ENDBRANCH  88  89
ENDBRANCH  56  81
BRANCH  68  93
ATOM     93  C   UNL A   1      44.421  34.456  28.430  1.00  0.00     0.058 A 
ATOM     94  C   UNL A   1      45.064  35.452  29.181  1.00  0.00     0.135 A 
ATOM     95  C   UNL A   1      43.785  34.870  27.243  1.00  0.00     0.135 A 
ATOM     96  F   UNL A   1      45.689  35.144  30.329  1.00  0.00    -0.206 F 
ATOM     97  C   UNL A   1      45.071  36.788  28.782  1.00  0.00     0.059 A 
ATOM     98  C   UNL A   1      43.743  36.203  26.846  1.00  0.00     0.059 A 
ATOM     99  F   UNL A   1      43.201  33.979  26.426  1.00  0.00    -0.206 F 
ATOM    100  C   UNL A   1      44.398  37.157  27.617  1.00  0.00     0.060 A 
BRANCH 100 101
ATOM    101  S   UNL A   1      44.337  38.894  27.132  1.00  0.00     0.124 S 
ATOM    102  O   UNL A   1      45.449  39.006  26.191  1.00  0.00    -0.237 OA
ATOM    103  O   UNL A   1      43.004  38.986  26.546  1.00  0.00    -0.237 OA
ATOM    104  O   UNL A   1      44.523  39.601  28.395  1.00  0.00    -0.744 OA
ENDBRANCH 100 101
ENDBRANCH  68  93
ENDBRANCH  42  43
ENDBRANCH  34  37
ENDBRANCH  32  33
ENDBRANCH  31  32
ENDBRANCH   1  31
TORSDOF 17
ENDMDL
MODEL 3
REMARK VINA RESULT:     -13.0      1.565      2.122
REMARK SMILES Cc1cccc(-n2ncc(C(=O)Nc3cccc(C(=O)NCCCCNC(=O)c4ccc(-c5c6nc(c(-c7c(F)cc(S(=O)(=O)[O-])cc7F)c7ccc([nH]7)c(-c7c(F)cc(S(=O)(=O)[O-])cc7F)c7nc(c(-c8c(F)cc(S(=O)(=O)[O-])cc8F)c8ccc5[nH]8)C=C7)C=C6)cc4)c3C)c2C)c1
REMARK SMILES IDX 23 1 22 2 21 3 19 4 20 5 18 7 14 8 15 9 95 10 16 11 96 12
REMARK SMILES IDX 17 13 13 14 11 15 12 16 10 18 7 19 8 20 97 21 9 22 98 23
REMARK SMILES IDX 6 24 1 25 2 26 3 27 99 28 4 29 5 30 24 31 25 32 26 33 27 34
REMARK SMILES IDX 28 36 29 37 30 38 94 39 31 40 93 41 32 42 33 43 34 44 87 45
REMARK SMILES IDX 35 46 92 47 86 48 88 49 36 50 91 51 85 52 84 53 37 55 71 56
REMARK SMILES IDX 50 57 70 58 51 59 54 60 69 61 89 62 52 63 53 64 68 66 90 67
REMARK SMILES IDX 55 68 38 69 39 70 48 71 40 72 41 73 47 74 49 75 42 76 43 77
REMARK SMILES IDX 44 78 45 79 46 80 72 81 73 82 82 83 74 84 75 85 81 86 83 87
REMARK SMILES IDX 76 88 77 89 78 90 79 91 80 92 56 93 57 94 66 95 58 96 59 97
REMARK SMILES IDX 65 98 67 99 60 100 61 101 62 102 63 103 64 104
REMARK H PARENT 21 6 13 17 26 35 88 54 54 65
REMARK Flexibility Score: inf
ROOT
ATOM      1  C   UNL A   1      34.051  29.275  25.245  1.00  0.00     0.023 C 
ENDROOT
BRANCH   1   2
ATOM      2  C   UNL A   1      33.490  28.010  24.596  1.00  0.00     0.116 C 
BRANCH   2   3
ATOM      3  N   UNL A   1      32.068  28.088  24.266  1.00  0.00    -0.352 N 
ATOM      4  C   UNL A   1      30.966  27.269  24.330  1.00  0.00     0.251 C 
ATOM      5  O   UNL A   1      29.900  27.807  24.019  1.00  0.00    -0.269 OA
ATOM      6  H   UNL A   1      31.836  28.970  23.894  1.00  0.00     0.163 HD
BRANCH   4   7
ATOM      7  C   UNL A   1      30.960  25.821  24.748  1.00  0.00     0.044 A 
ATOM      8  C   UNL A   1      31.102  23.445  24.208  1.00  0.00     0.045 A 
ATOM      9  C   UNL A   1      30.708  23.114  25.507  1.00  0.00     0.026 A 
ATOM     10  C   UNL A   1      31.377  24.789  23.852  1.00  0.00    -0.015 A 
ATOM     11  C   UNL A   1      30.351  24.111  26.390  1.00  0.00     0.003 A 
ATOM     12  C   UNL A   1      31.940  25.087  22.481  1.00  0.00     0.047 C 
ATOM     13  C   UNL A   1      30.392  25.436  25.970  1.00  0.00     0.014 A 
BRANCH   8  14
ATOM     14  N   UNL A   1      31.104  22.426  23.235  1.00  0.00    -0.322 N 
ATOM     15  C   UNL A   1      32.176  21.644  22.837  1.00  0.00     0.259 C 
ATOM     16  O   UNL A   1      32.091  21.037  21.769  1.00  0.00    -0.269 OA
ATOM     17  H   UNL A   1      30.244  22.250  22.787  1.00  0.00     0.170 HD
BRANCH  15  18
ATOM     18  C   UNL A   1      33.329  21.471  23.733  1.00  0.00     0.081 A 
ATOM     19  N   UNL A   1      35.281  21.723  24.798  1.00  0.00    -0.237 N 
ATOM     20  N   UNL A   1      34.782  20.548  25.246  1.00  0.00    -0.175 NA
ATOM     21  C   UNL A   1      34.491  22.241  23.773  1.00  0.00     0.054 A 
ATOM     22  C   UNL A   1      33.614  20.417  24.630  1.00  0.00     0.149 A 
ATOM     23  C   UNL A   1      34.921  23.314  22.836  1.00  0.00     0.068 C 
BRANCH  19  24
ATOM     24  C   UNL A   1      36.494  22.212  25.364  1.00  0.00     0.065 A 
ATOM     25  C   UNL A   1      39.994  20.853  26.031  1.00  0.00     0.044 C 
ATOM     26  C   UNL A   1      38.813  21.777  25.979  1.00  0.00    -0.049 A 
ATOM     27  C   UNL A   1      38.942  23.111  26.378  1.00  0.00     0.003 A 
ATOM     28  C   UNL A   1      37.577  21.327  25.497  1.00  0.00     0.031 A 
ATOM     29  C   UNL A   1      37.851  23.979  26.305  1.00  0.00     0.002 A 
ATOM     30  C   UNL A   1      36.627  23.535  25.797  1.00  0.00     0.028 A 
ENDBRANCH  19  24
ENDBRANCH  15  18
ENDBRANCH   8  14
ENDBRANCH   4   7
ENDBRANCH   2   3
ENDBRANCH   1   2
BRANCH   1  31
ATOM     31  C   UNL A   1      33.064  30.045  26.119  1.00  0.00     0.023 C 
BRANCH  31  32
ATOM     32  C   UNL A   1      33.367  30.002  27.614  1.00  0.00     0.116 C 
BRANCH  32  33
ATOM     33  N   UNL A   1      33.809  31.258  28.192  1.00  0.00    -0.352 N 
ATOM     34  C   UNL A   1      34.938  31.481  28.974  1.00  0.00     0.251 C 
ATOM     35  H   UNL A   1      33.244  32.043  28.008  1.00  0.00     0.163 HD
ATOM     36  O   UNL A   1      35.090  32.508  29.597  1.00  0.00    -0.269 OA
BRANCH  34  37
ATOM     37  C   UNL A   1      36.003  30.447  28.940  1.00  0.00     0.039 A 
ATOM     38  C   UNL A   1      36.276  29.765  30.132  1.00  0.00     0.014 A 
ATOM     39  C   UNL A   1      36.860  30.342  27.849  1.00  0.00     0.014 A 
ATOM     40  C   UNL A   1      37.511  29.141  30.299  1.00  0.00     0.010 A 
ATOM     41  C   UNL A   1      38.115  29.791  28.042  1.00  0.00     0.010 A 
ATOM     42  C   UNL A   1      38.463  29.243  29.287  1.00  0.00    -0.014 A 
BRANCH  42  43
ATOM     43  C   UNL A   1      39.875  28.914  29.463  1.00  0.00     0.031 A 
ATOM     44  C   UNL A   1      40.378  27.557  29.154  1.00  0.00     0.074 A 
ATOM     45  C   UNL A   1      40.757  29.893  29.770  1.00  0.00     0.049 A 
ATOM     46  N   UNL A   1      41.578  27.158  29.415  1.00  0.00    -0.248 NA
ATOM     47  C   UNL A   1      39.542  26.502  28.580  1.00  0.00     0.031 C 
ATOM     48  C   UNL A   1      42.205  29.873  29.578  1.00  0.00     0.029 A 
ATOM     49  N   UNL A   1      40.530  31.033  30.550  1.00  0.00    -0.354 N 
ATOM     50  C   UNL A   1      41.766  25.967  28.763  1.00  0.00     0.074 A 
ATOM     51  C   UNL A   1      40.444  25.532  28.391  1.00  0.00     0.031 C 
ATOM     52  C   UNL A   1      42.769  30.757  30.412  1.00  0.00     0.029 A 
ATOM     53  C   UNL A   1      41.722  31.262  31.279  1.00  0.00     0.049 A 
ATOM     54  H   UNL A   1      39.705  31.569  30.585  1.00  0.00     0.167 HD
ATOM     55  C   UNL A   1      43.035  25.561  28.486  1.00  0.00     0.037 A 
ATOM     56  C   UNL A   1      41.731  31.174  32.643  1.00  0.00     0.037 A 
ATOM     57  C   UNL A   1      44.015  26.264  29.315  1.00  0.00     0.049 A 
ATOM     58  C   UNL A   1      42.588  30.057  33.207  1.00  0.00     0.074 A 
ATOM     59  C   UNL A   1      45.015  27.196  29.111  1.00  0.00     0.029 A 
ATOM     60  N   UNL A   1      43.880  26.151  30.689  1.00  0.00    -0.354 N 
ATOM     61  N   UNL A   1      43.342  29.264  32.493  1.00  0.00    -0.248 NA
ATOM     62  C   UNL A   1      42.599  29.694  34.627  1.00  0.00     0.031 C 
ATOM     63  C   UNL A   1      45.393  27.720  30.391  1.00  0.00     0.029 A 
ATOM     64  C   UNL A   1      44.652  27.071  31.364  1.00  0.00     0.049 A 
ATOM     65  H   UNL A   1      43.299  25.491  31.132  1.00  0.00     0.167 HD
ATOM     66  C   UNL A   1      43.820  28.257  33.289  1.00  0.00     0.074 A 
ATOM     67  C   UNL A   1      43.368  28.592  34.626  1.00  0.00     0.031 C 
ATOM     68  C   UNL A   1      44.493  27.175  32.806  1.00  0.00     0.037 A 
BRANCH  55  69
ATOM     69  C   UNL A   1      43.395  24.604  27.371  1.00  0.00     0.058 A 
ATOM     70  C   UNL A   1      43.147  23.221  27.504  1.00  0.00     0.135 A 
ATOM     71  C   UNL A   1      44.113  24.967  26.208  1.00  0.00     0.135 A 
ATOM     72  F   UNL A   1      42.507  22.735  28.577  1.00  0.00    -0.206 F 
ATOM     73  C   UNL A   1      43.578  22.279  26.561  1.00  0.00     0.059 A 
ATOM     74  C   UNL A   1      44.501  24.055  25.229  1.00  0.00     0.059 A 
ATOM     75  F   UNL A   1      44.546  26.215  25.997  1.00  0.00    -0.206 F 
ATOM     76  C   UNL A   1      44.256  22.706  25.424  1.00  0.00     0.060 A 
BRANCH  76  77
ATOM     77  S   UNL A   1      44.854  21.503  24.222  1.00  0.00     0.124 S 
ATOM     78  O   UNL A   1      44.445  22.116  22.962  1.00  0.00    -0.237 OA
ATOM     79  O   UNL A   1      46.288  21.476  24.485  1.00  0.00    -0.237 OA
ATOM     80  O   UNL A   1      44.136  20.283  24.583  1.00  0.00    -0.744 OA
ENDBRANCH  76  77
ENDBRANCH  55  69
BRANCH  56  81
ATOM     81  C   UNL A   1      40.478  31.706  33.246  1.00  0.00     0.058 A 
ATOM     82  C   UNL A   1      39.504  30.765  33.638  1.00  0.00     0.135 A 
ATOM     83  C   UNL A   1      40.435  32.974  33.840  1.00  0.00     0.135 A 
ATOM     84  F   UNL A   1      39.492  29.540  33.087  1.00  0.00    -0.206 F 
ATOM     85  C   UNL A   1      38.648  31.006  34.704  1.00  0.00     0.059 A 
ATOM     86  C   UNL A   1      39.572  33.242  34.903  1.00  0.00     0.059 A 
ATOM     87  F   UNL A   1      41.334  33.910  33.502  1.00  0.00    -0.206 F 
ATOM     88  C   UNL A   1      38.745  32.222  35.376  1.00  0.00     0.060 A 
BRANCH  88  89
ATOM     89  S   UNL A   1      37.934  32.352  36.987  1.00  0.00     0.124 S 
ATOM     90  O   UNL A   1      37.609  30.960  37.276  1.00  0.00    -0.237 OA
ATOM     91  O   UNL A   1      39.001  32.934  37.801  1.00  0.00    -0.237 OA
ATOM     92  O   UNL A   1      36.797  33.224  36.718  1.00  0.00    -0.744 OA
ENDBRANCH  88  89
ENDBRANCH  56  81
BRANCH  68  93
ATOM     93  C   UNL A   1      45.014  26.090  33.700  1.00  0.00     0.058 A 
ATOM     94  C   UNL A   1      46.391  25.880  33.868  1.00  0.00     0.135 A 
ATOM     95  C   UNL A   1      44.153  25.153  34.305  1.00  0.00     0.135 A 
ATOM     96  F   UNL A   1      47.281  26.723  33.319  1.00  0.00    -0.206 F 
ATOM     97  C   UNL A   1      46.890  24.797  34.591  1.00  0.00     0.059 A 
ATOM     98  C   UNL A   1      44.627  24.042  34.996  1.00  0.00     0.059 A 
ATOM     99  F   UNL A   1      42.820  25.308  34.254  1.00  0.00    -0.206 F 
ATOM    100  C   UNL A   1      46.000  23.876  35.143  1.00  0.00     0.060 A 
BRANCH 100 101
ATOM    101  S   UNL A   1      46.637  22.431  36.016  1.00  0.00     0.124 S 
ATOM    102  O   UNL A   1      47.278  21.665  34.950  1.00  0.00    -0.237 OA
ATOM    103  O   UNL A   1      47.542  23.049  36.979  1.00  0.00    -0.237 OA
ATOM    104  O   UNL A   1      45.435  21.823  36.578  1.00  0.00    -0.744 OA
ENDBRANCH 100 101
ENDBRANCH  68  93
ENDBRANCH  42  43
ENDBRANCH  34  37
ENDBRANCH  32  33
ENDBRANCH  31  32
ENDBRANCH   1  31
TORSDOF 17
ENDMDL
