MODEL 1
REMARK VINA RESULT:     -12.7      0.000      0.000
REMARK SMILES CC1(C)CCC[C@@H]1Nc1nc2c(cc1C(=O)NCCCCNC(=O)c1ccc(-c3c4nc(c(-c5c(F)cc(S(=O)(=O)[O-])cc5F)c5ccc([nH]5)c(-c5c(F)cc(S(=O)(=O)[O-])cc5F)c5nc(c(-c6c(F)cc(S(=O)(=O)[O-])cc6F)c6ccc3[nH]6)C=C5)C=C4)cc1)CCC2
REMARK SMILES IDX 20 1 19 2 18 3 17 4 15 5 16 6 14 8 9 9 10 10 11 11 13 12
REMARK SMILES IDX 12 13 93 14 91 15 92 16 8 17 7 19 1 20 2 21 3 22 4 23 5 24
REMARK SMILES IDX 6 25 21 26 22 27 23 28 24 30 25 31 26 32 90 33 27 34 89 35
REMARK SMILES IDX 28 36 29 37 30 38 83 39 31 40 88 41 82 42 84 43 32 44 87 45
REMARK SMILES IDX 81 46 80 47 33 49 67 50 46 51 66 52 47 53 50 54 65 55 85 56
REMARK SMILES IDX 48 57 49 58 64 60 86 61 51 62 34 63 35 64 44 65 36 66 37 67
REMARK SMILES IDX 43 68 45 69 38 70 39 71 40 72 41 73 42 74 68 75 69 76 78 77
REMARK SMILES IDX 70 78 71 79 77 80 79 81 72 82 73 83 74 84 75 85 76 86 52 87
REMARK SMILES IDX 53 88 62 89 54 90 55 91 61 92 63 93 56 94 57 95 58 96 59 97
REMARK SMILES IDX 60 98
REMARK H PARENT 17 7 8 18 22 29 84 48 50 59
REMARK Flexibility Score: inf
ROOT
ATOM      1  C   UNL A   1      35.424  32.161  27.937  1.00  0.00     0.023 C 
ENDROOT
BRANCH   1   2
ATOM      2  C   UNL A   1      34.687  30.848  27.604  1.00  0.00     0.023 C 
BRANCH   2   3
ATOM      3  C   UNL A   1      33.285  30.921  27.007  1.00  0.00     0.116 C 
BRANCH   3   4
ATOM      4  N   UNL A   1      32.282  30.029  27.525  1.00  0.00    -0.352 N 
ATOM      5  C   UNL A   1      31.977  28.737  27.148  1.00  0.00     0.255 C 
ATOM      6  O   UNL A   1      31.274  28.090  27.933  1.00  0.00    -0.269 OA
ATOM      7  H   UNL A   1      31.732  30.396  28.255  1.00  0.00     0.163 HD
BRANCH   5   8
ATOM      8  C   UNL A   1      32.282  28.104  25.822  1.00  0.00     0.082 A 
ATOM      9  C   UNL A   1      31.961  28.503  24.513  1.00  0.00     0.139 A 
ATOM     10  N   UNL A   1      32.308  27.763  23.420  1.00  0.00    -0.235 NA
ATOM     11  C   UNL A   1      33.050  26.670  23.605  1.00  0.00     0.046 A 
ATOM     12  C   UNL A   1      33.082  26.934  25.955  1.00  0.00     0.023 A 
ATOM     13  C   UNL A   1      33.473  26.226  24.835  1.00  0.00    -0.025 A 
ATOM     14  C   UNL A   1      33.608  25.844  22.487  1.00  0.00     0.057 C 
ATOM     15  C   UNL A   1      34.377  25.049  24.691  1.00  0.00     0.038 C 
ATOM     16  C   UNL A   1      34.060  24.595  23.253  1.00  0.00     0.011 C 
BRANCH   9  17
ATOM     17  N   UNL A   1      31.333  29.602  24.028  1.00  0.00    -0.366 N 
ATOM     18  H   UNL A   1      31.908  30.207  23.504  1.00  0.00     0.162 HD
BRANCH  17  19
ATOM     19  C   UNL A   1      29.975  30.026  24.153  1.00  0.00     0.086 C 
ATOM     20  C   UNL A   1      29.100  27.973  22.855  1.00  0.00     0.013 C 
ATOM     21  C   UNL A   1      29.127  29.501  22.962  1.00  0.00    -0.015 C 
ATOM     22  C   UNL A   1      29.568  29.989  21.561  1.00  0.00     0.013 C 
ATOM     23  C   UNL A   1      27.800  30.181  23.334  1.00  0.00     0.008 C 
ATOM     24  C   UNL A   1      28.223  31.608  23.751  1.00  0.00     0.003 C 
ATOM     25  C   UNL A   1      29.717  31.525  24.127  1.00  0.00     0.025 C 
ENDBRANCH  17  19
ENDBRANCH   9  17
ENDBRANCH   5   8
ENDBRANCH   3   4
ENDBRANCH   2   3
ENDBRANCH   1   2
BRANCH   1  26
ATOM     26  C   UNL A   1      36.119  32.336  29.292  1.00  0.00     0.116 C 
BRANCH  26  27
ATOM     27  N   UNL A   1      35.865  31.272  30.253  1.00  0.00    -0.352 N 
ATOM     28  C   UNL A   1      36.645  30.241  30.717  1.00  0.00     0.251 C 
ATOM     29  H   UNL A   1      34.962  31.296  30.644  1.00  0.00     0.163 HD
ATOM     30  O   UNL A   1      36.202  29.419  31.500  1.00  0.00    -0.269 OA
BRANCH  28  31
ATOM     31  C   UNL A   1      38.029  30.144  30.243  1.00  0.00     0.039 A 
ATOM     32  C   UNL A   1      39.073  30.286  31.158  1.00  0.00     0.014 A 
ATOM     33  C   UNL A   1      38.263  29.835  28.904  1.00  0.00     0.014 A 
ATOM     34  C   UNL A   1      40.371  29.999  30.745  1.00  0.00     0.010 A 
ATOM     35  C   UNL A   1      39.543  29.486  28.513  1.00  0.00     0.010 A 
ATOM     36  C   UNL A   1      40.598  29.547  29.437  1.00  0.00    -0.014 A 
BRANCH  36  37
ATOM     37  C   UNL A   1      41.931  29.091  29.000  1.00  0.00     0.031 A 
ATOM     38  C   UNL A   1      43.046  30.084  28.900  1.00  0.00     0.074 A 
ATOM     39  C   UNL A   1      42.077  27.820  28.581  1.00  0.00     0.049 A 
ATOM     40  N   UNL A   1      44.251  29.924  28.426  1.00  0.00    -0.248 NA
ATOM     41  C   UNL A   1      42.749  31.452  29.356  1.00  0.00     0.031 C 
ATOM     42  C   UNL A   1      41.020  26.804  28.577  1.00  0.00     0.029 A 
ATOM     43  N   UNL A   1      43.162  27.170  28.058  1.00  0.00    -0.354 N 
ATOM     44  C   UNL A   1      44.852  31.172  28.510  1.00  0.00     0.074 A 
ATOM     45  C   UNL A   1      43.861  32.091  29.025  1.00  0.00     0.031 C 
ATOM     46  C   UNL A   1      41.514  25.656  28.090  1.00  0.00     0.029 A 
ATOM     47  C   UNL A   1      42.911  25.861  27.725  1.00  0.00     0.049 A 
ATOM     48  H   UNL A   1      44.039  27.600  27.933  1.00  0.00     0.167 HD
ATOM     49  C   UNL A   1      46.126  31.510  28.204  1.00  0.00     0.037 A 
ATOM     50  C   UNL A   1      43.726  24.934  27.185  1.00  0.00     0.037 A 
ATOM     51  C   UNL A   1      47.096  30.568  27.715  1.00  0.00     0.049 A 
ATOM     52  C   UNL A   1      45.146  25.318  26.889  1.00  0.00     0.074 A 
ATOM     53  C   UNL A   1      48.433  30.772  27.434  1.00  0.00     0.029 A 
ATOM     54  N   UNL A   1      46.823  29.235  27.434  1.00  0.00    -0.354 N 
ATOM     55  N   UNL A   1      45.728  26.486  27.038  1.00  0.00    -0.248 NA
ATOM     56  C   UNL A   1      46.024  24.268  26.360  1.00  0.00     0.031 C 
ATOM     57  C   UNL A   1      48.963  29.567  26.958  1.00  0.00     0.029 A 
ATOM     58  C   UNL A   1      47.964  28.605  26.971  1.00  0.00     0.049 A 
ATOM     59  H   UNL A   1      45.946  28.802  27.547  1.00  0.00     0.167 HD
ATOM     60  C   UNL A   1      47.045  26.311  26.635  1.00  0.00     0.074 A 
ATOM     61  C   UNL A   1      47.176  24.919  26.246  1.00  0.00     0.031 C 
ATOM     62  C   UNL A   1      48.053  27.216  26.588  1.00  0.00     0.037 A 
BRANCH  49  63
ATOM     63  C   UNL A   1      46.520  32.945  28.405  1.00  0.00     0.058 A 
ATOM     64  C   UNL A   1      46.981  33.411  29.649  1.00  0.00     0.135 A 
ATOM     65  C   UNL A   1      46.411  33.874  27.359  1.00  0.00     0.135 A 
ATOM     66  F   UNL A   1      47.084  32.570  30.689  1.00  0.00    -0.206 F 
ATOM     67  C   UNL A   1      47.275  34.754  29.859  1.00  0.00     0.059 A 
ATOM     68  C   UNL A   1      46.726  35.218  27.540  1.00  0.00     0.059 A 
ATOM     69  F   UNL A   1      45.973  33.484  26.152  1.00  0.00    -0.206 F 
ATOM     70  C   UNL A   1      47.136  35.651  28.801  1.00  0.00     0.060 A 
BRANCH  70  71
ATOM     71  S   UNL A   1      47.491  37.396  29.099  1.00  0.00     0.124 S 
ATOM     72  O   UNL A   1      46.810  37.618  30.370  1.00  0.00    -0.237 OA
ATOM     73  O   UNL A   1      48.950  37.414  29.151  1.00  0.00    -0.237 OA
ATOM     74  O   UNL A   1      46.900  38.066  27.944  1.00  0.00    -0.744 OA
ENDBRANCH  70  71
ENDBRANCH  49  63
BRANCH  50  75
ATOM     75  C   UNL A   1      43.216  23.557  26.961  1.00  0.00     0.058 A 
ATOM     76  C   UNL A   1      42.955  23.097  25.662  1.00  0.00     0.135 A 
ATOM     77  C   UNL A   1      43.070  22.647  28.020  1.00  0.00     0.135 A 
ATOM     78  F   UNL A   1      43.080  23.931  24.619  1.00  0.00    -0.206 F 
ATOM     79  C   UNL A   1      42.579  21.780  25.418  1.00  0.00     0.059 A 
ATOM     80  C   UNL A   1      42.710  21.320  27.798  1.00  0.00     0.059 A 
ATOM     81  F   UNL A   1      43.327  23.034  29.279  1.00  0.00    -0.206 F 
ATOM     82  C   UNL A   1      42.471  20.895  26.491  1.00  0.00     0.060 A 
BRANCH  82  83
ATOM     83  S   UNL A   1      42.085  19.164  26.146  1.00  0.00     0.124 S 
ATOM     84  O   UNL A   1      42.972  18.881  25.023  1.00  0.00    -0.237 OA
ATOM     85  O   UNL A   1      42.428  18.519  27.409  1.00  0.00    -0.237 OA
ATOM     86  O   UNL A   1      40.660  19.193  25.833  1.00  0.00    -0.744 OA
ENDBRANCH  82  83
ENDBRANCH  50  75
BRANCH  62  87
ATOM     87  C   UNL A   1      49.386  26.728  26.101  1.00  0.00     0.058 A 
ATOM     88  C   UNL A   1      49.791  26.927  24.773  1.00  0.00     0.135 A 
ATOM     89  C   UNL A   1      50.296  26.137  26.991  1.00  0.00     0.135 A 
ATOM     90  F   UNL A   1      48.951  27.482  23.885  1.00  0.00    -0.206 F 
ATOM     91  C   UNL A   1      51.056  26.549  24.340  1.00  0.00     0.059 A 
ATOM     92  C   UNL A   1      51.574  25.771  26.585  1.00  0.00     0.059 A 
ATOM     93  F   UNL A   1      49.955  25.937  28.274  1.00  0.00    -0.206 F 
ATOM     94  C   UNL A   1      51.943  25.978  25.256  1.00  0.00     0.060 A 
BRANCH  94  95
ATOM     95  S   UNL A   1      53.603  25.546  24.693  1.00  0.00     0.124 S 
ATOM     96  O   UNL A   1      53.623  26.134  23.358  1.00  0.00    -0.237 OA
ATOM     97  O   UNL A   1      54.449  26.199  25.687  1.00  0.00    -0.237 OA
ATOM     98  O   UNL A   1      53.607  24.086  24.738  1.00  0.00    -0.744 OA
ENDBRANCH  94  95
ENDBRANCH  62  87
ENDBRANCH  36  37
ENDBRANCH  28  31
ENDBRANCH  26  27
ENDBRANCH   1  26
TORSDOF 16
ENDMDL
MODEL 2
REMARK VINA RESULT:     -12.5      3.550      9.564
REMARK SMILES CC1(C)CCC[C@@H]1Nc1nc2c(cc1C(=O)NCCCCNC(=O)c1ccc(-c3c4nc(c(-c5c(F)cc(S(=O)(=O)[O-])cc5F)c5ccc([nH]5)c(-c5c(F)cc(S(=O)(=O)[O-])cc5F)c5nc(c(-c6c(F)cc(S(=O)(=O)[O-])cc6F)c6ccc3[nH]6)C=C5)C=C4)cc1)CCC2
REMARK SMILES IDX 20 1 19 2 18 3 17 4 15 5 16 6 14 8 9 9 10 10 11 11 13 12
REMARK SMILES IDX 12 13 93 14 91 15 92 16 8 17 7 19 1 20 2 21 3 22 4 23 5 24
REMARK SMILES IDX 6 25 21 26 22 27 23 28 24 30 25 31 26 32 90 33 27 34 89 35
REMARK SMILES IDX 28 36 29 37 30 38 83 39 31 40 88 41 82 42 84 43 32 44 87 45
REMARK SMILES IDX 81 46 80 47 33 49 67 50 46 51 66 52 47 53 50 54 65 55 85 56
REMARK SMILES IDX 48 57 49 58 64 60 86 61 51 62 34 63 35 64 44 65 36 66 37 67
REMARK SMILES IDX 43 68 45 69 38 70 39 71 40 72 41 73 42 74 68 75 69 76 78 77
REMARK SMILES IDX 70 78 71 79 77 80 79 81 72 82 73 83 74 84 75 85 76 86 52 87
REMARK SMILES IDX 53 88 62 89 54 90 55 91 61 92 63 93 56 94 57 95 58 96 59 97
REMARK SMILES IDX 60 98
REMARK H PARENT 17 7 8 18 22 29 84 48 50 59
REMARK Flexibility Score: inf
ROOT
ATOM      1  C   UNL A   1      32.893  28.042  25.896  1.00  0.00     0.023 C 
ENDROOT
BRANCH   1   2
ATOM      2  C   UNL A   1      33.556  27.136  24.839  1.00  0.00     0.023 C 
BRANCH   2   3
ATOM      3  C   UNL A   1      32.879  25.821  24.467  1.00  0.00     0.116 C 
BRANCH   3   4
ATOM      4  N   UNL A   1      32.154  25.119  25.493  1.00  0.00    -0.352 N 
ATOM      5  C   UNL A   1      32.602  24.172  26.392  1.00  0.00     0.255 C 
ATOM      6  O   UNL A   1      31.859  23.936  27.351  1.00  0.00    -0.269 OA
ATOM      7  H   UNL A   1      31.199  25.349  25.564  1.00  0.00     0.163 HD
BRANCH   5   8
ATOM      8  C   UNL A   1      33.813  23.301  26.233  1.00  0.00     0.082 A 
ATOM      9  C   UNL A   1      33.938  21.906  26.105  1.00  0.00     0.139 A 
ATOM     10  N   UNL A   1      35.151  21.290  26.000  1.00  0.00    -0.235 NA
ATOM     11  C   UNL A   1      36.244  22.051  25.932  1.00  0.00     0.046 A 
ATOM     12  C   UNL A   1      35.015  24.060  26.144  1.00  0.00     0.023 A 
ATOM     13  C   UNL A   1      36.231  23.425  25.982  1.00  0.00    -0.025 A 
ATOM     14  C   UNL A   1      37.620  21.512  25.684  1.00  0.00     0.057 C 
ATOM     15  C   UNL A   1      37.599  23.977  25.763  1.00  0.00     0.038 C 
ATOM     16  C   UNL A   1      38.474  22.737  26.032  1.00  0.00     0.011 C 
BRANCH   9  17
ATOM     17  N   UNL A   1      33.015  20.918  26.026  1.00  0.00    -0.366 N 
ATOM     18  H   UNL A   1      32.751  20.532  26.894  1.00  0.00     0.162 HD
BRANCH  17  19
ATOM     19  C   UNL A   1      32.364  20.344  24.892  1.00  0.00     0.086 C 
ATOM     20  C   UNL A   1      32.558  17.956  25.853  1.00  0.00     0.013 C 
ATOM     21  C   UNL A   1      32.844  18.883  24.668  1.00  0.00    -0.015 C 
ATOM     22  C   UNL A   1      34.356  18.712  24.387  1.00  0.00     0.013 C 
ATOM     23  C   UNL A   1      32.059  18.600  23.377  1.00  0.00     0.008 C 
ATOM     24  C   UNL A   1      32.248  19.888  22.544  1.00  0.00     0.003 C 
ATOM     25  C   UNL A   1      32.621  21.001  23.544  1.00  0.00     0.025 C 
ENDBRANCH  17  19
ENDBRANCH   9  17
ENDBRANCH   5   8
ENDBRANCH   3   4
ENDBRANCH   2   3
ENDBRANCH   1   2
BRANCH   1  26
ATOM     26  C   UNL A   1      33.580  28.290  27.244  1.00  0.00     0.116 C 
BRANCH  26  27
ATOM     27  N   UNL A   1      33.598  29.680  27.676  1.00  0.00    -0.352 N 
ATOM     28  C   UNL A   1      34.597  30.482  28.172  1.00  0.00     0.251 C 
ATOM     29  H   UNL A   1      32.726  30.133  27.597  1.00  0.00     0.163 HD
ATOM     30  O   UNL A   1      34.371  31.626  28.524  1.00  0.00    -0.269 OA
BRANCH  28  31
ATOM     31  C   UNL A   1      35.950  29.925  28.277  1.00  0.00     0.039 A 
ATOM     32  C   UNL A   1      36.805  30.003  27.177  1.00  0.00     0.014 A 
ATOM     33  C   UNL A   1      36.372  29.404  29.500  1.00  0.00     0.014 A 
ATOM     34  C   UNL A   1      38.143  29.657  27.341  1.00  0.00     0.010 A 
ATOM     35  C   UNL A   1      37.714  29.124  29.678  1.00  0.00     0.010 A 
ATOM     36  C   UNL A   1      38.608  29.269  28.606  1.00  0.00    -0.014 A 
BRANCH  36  37
ATOM     37  C   UNL A   1      40.042  29.035  28.861  1.00  0.00     0.031 A 
ATOM     38  C   UNL A   1      40.634  27.700  28.533  1.00  0.00     0.074 A 
ATOM     39  C   UNL A   1      40.751  29.985  29.499  1.00  0.00     0.049 A 
ATOM     40  N   UNL A   1      41.831  27.246  28.786  1.00  0.00    -0.248 NA
ATOM     41  C   UNL A   1      39.745  26.733  27.868  1.00  0.00     0.031 C 
ATOM     42  C   UNL A   1      40.229  31.289  29.921  1.00  0.00     0.029 A 
ATOM     43  N   UNL A   1      42.052  29.995  29.925  1.00  0.00    -0.354 N 
ATOM     44  C   UNL A   1      41.835  25.935  28.329  1.00  0.00     0.074 A 
ATOM     45  C   UNL A   1      40.506  25.649  27.836  1.00  0.00     0.031 C 
ATOM     46  C   UNL A   1      41.206  31.977  30.531  1.00  0.00     0.029 A 
ATOM     47  C   UNL A   1      42.411  31.155  30.567  1.00  0.00     0.049 A 
ATOM     48  H   UNL A   1      42.670  29.242  29.785  1.00  0.00     0.167 HD
ATOM     49  C   UNL A   1      42.867  25.061  28.303  1.00  0.00     0.037 A 
ATOM     50  C   UNL A   1      43.587  31.510  31.120  1.00  0.00     0.037 A 
ATOM     51  C   UNL A   1      44.185  25.382  28.780  1.00  0.00     0.049 A 
ATOM     52  C   UNL A   1      44.730  30.541  31.047  1.00  0.00     0.074 A 
ATOM     53  C   UNL A   1      45.328  24.608  28.747  1.00  0.00     0.029 A 
ATOM     54  N   UNL A   1      44.530  26.587  29.381  1.00  0.00    -0.354 N 
ATOM     55  N   UNL A   1      44.745  29.327  30.547  1.00  0.00    -0.248 NA
ATOM     56  C   UNL A   1      46.015  30.982  31.602  1.00  0.00     0.031 C 
ATOM     57  C   UNL A   1      46.360  25.335  29.352  1.00  0.00     0.029 A 
ATOM     58  C   UNL A   1      45.867  26.574  29.734  1.00  0.00     0.049 A 
ATOM     59  H   UNL A   1      43.913  27.340  29.533  1.00  0.00     0.167 HD
ATOM     60  C   UNL A   1      46.042  28.861  30.714  1.00  0.00     0.074 A 
ATOM     61  C   UNL A   1      46.786  29.932  31.351  1.00  0.00     0.031 C 
ATOM     62  C   UNL A   1      46.571  27.659  30.374  1.00  0.00     0.037 A 
BRANCH  49  63
ATOM     63  C   UNL A   1      42.595  23.698  27.735  1.00  0.00     0.058 A 
ATOM     64  C   UNL A   1      42.375  22.587  28.568  1.00  0.00     0.135 A 
ATOM     65  C   UNL A   1      42.582  23.487  26.347  1.00  0.00     0.135 A 
ATOM     66  F   UNL A   1      42.399  22.728  29.903  1.00  0.00    -0.206 F 
ATOM     67  C   UNL A   1      42.199  21.310  28.046  1.00  0.00     0.059 A 
ATOM     68  C   UNL A   1      42.379  22.222  25.804  1.00  0.00     0.059 A 
ATOM     69  F   UNL A   1      42.789  24.511  25.506  1.00  0.00    -0.206 F 
ATOM     70  C   UNL A   1      42.211  21.136  26.663  1.00  0.00     0.060 A 
BRANCH  70  71
ATOM     71  S   UNL A   1      42.012  19.467  26.003  1.00  0.00     0.124 S 
ATOM     72  O   UNL A   1      42.501  18.656  27.113  1.00  0.00    -0.237 OA
ATOM     73  O   UNL A   1      40.575  19.399  25.754  1.00  0.00    -0.237 OA
ATOM     74  O   UNL A   1      42.852  19.471  24.810  1.00  0.00    -0.744 OA
ENDBRANCH  70  71
ENDBRANCH  49  63
BRANCH  50  75
ATOM     75  C   UNL A   1      43.732  32.860  31.721  1.00  0.00     0.058 A 
ATOM     76  C   UNL A   1      44.132  33.951  30.935  1.00  0.00     0.135 A 
ATOM     77  C   UNL A   1      43.386  33.110  33.058  1.00  0.00     0.135 A 
ATOM     78  F   UNL A   1      44.474  33.761  29.651  1.00  0.00    -0.206 F 
ATOM     79  C   UNL A   1      44.173  35.243  31.447  1.00  0.00     0.059 A 
ATOM     80  C   UNL A   1      43.405  34.398  33.590  1.00  0.00     0.059 A 
ATOM     81  F   UNL A   1      42.978  32.104  33.846  1.00  0.00    -0.206 F 
ATOM     82  C   UNL A   1      43.796  35.459  32.773  1.00  0.00     0.060 A 
BRANCH  82  83
ATOM     83  S   UNL A   1      43.754  37.156  33.393  1.00  0.00     0.124 S 
ATOM     84  O   UNL A   1      42.531  37.150  34.188  1.00  0.00    -0.237 OA
ATOM     85  O   UNL A   1      45.004  37.237  34.142  1.00  0.00    -0.237 OA
ATOM     86  O   UNL A   1      43.710  37.958  32.174  1.00  0.00    -0.744 OA
ENDBRANCH  82  83
ENDBRANCH  50  75
BRANCH  62  87
ATOM     87  C   UNL A   1      48.023  27.440  30.683  1.00  0.00     0.058 A 
ATOM     88  C   UNL A   1      48.432  26.938  31.927  1.00  0.00     0.135 A 
ATOM     89  C   UNL A   1      49.001  27.653  29.699  1.00  0.00     0.135 A 
ATOM     90  F   UNL A   1      47.534  26.726  32.900  1.00  0.00    -0.206 F 
ATOM     91  C   UNL A   1      49.768  26.658  32.188  1.00  0.00     0.059 A 
ATOM     92  C   UNL A   1      50.339  27.360  29.930  1.00  0.00     0.059 A 
ATOM     93  F   UNL A   1      48.652  28.124  28.491  1.00  0.00    -0.206 F 
ATOM     94  C   UNL A   1      50.714  26.866  31.180  1.00  0.00     0.060 A 
BRANCH  94  95
ATOM     95  S   UNL A   1      52.436  26.443  31.514  1.00  0.00     0.124 S 
ATOM     96  O   UNL A   1      52.326  25.037  31.890  1.00  0.00    -0.237 OA
ATOM     97  O   UNL A   1      53.077  26.707  30.229  1.00  0.00    -0.237 OA
ATOM     98  O   UNL A   1      52.807  27.355  32.592  1.00  0.00    -0.744 OA
ENDBRANCH  94  95
ENDBRANCH  62  87
ENDBRANCH  36  37
ENDBRANCH  28  31
ENDBRANCH  26  27
ENDBRANCH   1  26
TORSDOF 16
ENDMDL
MODEL 3
REMARK VINA RESULT:     -12.5      3.690      5.614
REMARK SMILES CC1(C)CCC[C@@H]1Nc1nc2c(cc1C(=O)NCCCCNC(=O)c1ccc(-c3c4nc(c(-c5c(F)cc(S(=O)(=O)[O-])cc5F)c5ccc([nH]5)c(-c5c(F)cc(S(=O)(=O)[O-])cc5F)c5nc(c(-c6c(F)cc(S(=O)(=O)[O-])cc6F)c6ccc3[nH]6)C=C5)C=C4)cc1)CCC2
REMARK SMILES IDX 20 1 19 2 18 3 17 4 15 5 16 6 14 8 9 9 10 10 11 11 13 12
REMARK SMILES IDX 12 13 93 14 91 15 92 16 8 17 7 19 1 20 2 21 3 22 4 23 5 24
REMARK SMILES IDX 6 25 21 26 22 27 23 28 24 30 25 31 26 32 90 33 27 34 89 35
REMARK SMILES IDX 28 36 29 37 30 38 83 39 31 40 88 41 82 42 84 43 32 44 87 45
REMARK SMILES IDX 81 46 80 47 33 49 67 50 46 51 66 52 47 53 50 54 65 55 85 56
REMARK SMILES IDX 48 57 49 58 64 60 86 61 51 62 34 63 35 64 44 65 36 66 37 67
REMARK SMILES IDX 43 68 45 69 38 70 39 71 40 72 41 73 42 74 68 75 69 76 78 77
REMARK SMILES IDX 70 78 71 79 77 80 79 81 72 82 73 83 74 84 75 85 76 86 52 87
REMARK SMILES IDX 53 88 62 89 54 90 55 91 61 92 63 93 56 94 57 95 58 96 59 97
REMARK SMILES IDX 60 98
REMARK H PARENT 17 7 8 18 22 29 84 48 50 59
REMARK Flexibility Score: inf
ROOT
ATOM      1  C   UNL A   1      33.603  26.946  25.375  1.00  0.00     0.023 C 
ENDROOT
BRANCH   1   2
ATOM      2  C   UNL A   1      32.250  26.339  25.796  1.00  0.00     0.023 C 
BRANCH   2   3
ATOM      3  C   UNL A   1      31.904  24.925  25.341  1.00  0.00     0.116 C 
BRANCH   3   4
ATOM      4  N   UNL A   1      31.511  23.969  26.342  1.00  0.00    -0.352 N 
ATOM      5  C   UNL A   1      32.281  23.057  27.036  1.00  0.00     0.255 C 
ATOM      6  O   UNL A   1      31.761  22.556  28.040  1.00  0.00    -0.269 OA
ATOM      7  H   UNL A   1      30.551  23.964  26.564  1.00  0.00     0.163 HD
BRANCH   5   8
ATOM      8  C   UNL A   1      33.610  22.509  26.607  1.00  0.00     0.082 A 
ATOM      9  C   UNL A   1      33.994  21.213  26.223  1.00  0.00     0.139 A 
ATOM     10  N   UNL A   1      35.281  20.902  25.891  1.00  0.00    -0.235 NA
ATOM     11  C   UNL A   1      36.179  21.887  25.850  1.00  0.00     0.046 A 
ATOM     12  C   UNL A   1      34.611  23.519  26.535  1.00  0.00     0.023 A 
ATOM     13  C   UNL A   1      35.897  23.200  26.142  1.00  0.00    -0.025 A 
ATOM     14  C   UNL A   1      37.589  21.708  25.375  1.00  0.00     0.057 C 
ATOM     15  C   UNL A   1      37.084  24.066  25.890  1.00  0.00     0.038 C 
ATOM     16  C   UNL A   1      38.218  23.024  25.848  1.00  0.00     0.011 C 
BRANCH   9  17
ATOM     17  N   UNL A   1      33.287  20.068  26.063  1.00  0.00    -0.366 N 
ATOM     18  H   UNL A   1      33.268  19.483  26.855  1.00  0.00     0.162 HD
BRANCH  17  19
ATOM     19  C   UNL A   1      32.565  19.573  24.935  1.00  0.00     0.086 C 
ATOM     20  C   UNL A   1      32.796  17.126  25.723  1.00  0.00     0.013 C 
ATOM     21  C   UNL A   1      33.019  18.128  24.586  1.00  0.00    -0.015 C 
ATOM     22  C   UNL A   1      34.510  17.971  24.204  1.00  0.00     0.013 C 
ATOM     23  C   UNL A   1      32.156  17.935  23.329  1.00  0.00     0.008 C 
ATOM     24  C   UNL A   1      32.305  19.275  22.573  1.00  0.00     0.003 C 
ATOM     25  C   UNL A   1      32.746  20.318  23.620  1.00  0.00     0.025 C 
ENDBRANCH  17  19
ENDBRANCH   9  17
ENDBRANCH   5   8
ENDBRANCH   3   4
ENDBRANCH   2   3
ENDBRANCH   1   2
BRANCH   1  26
ATOM     26  C   UNL A   1      34.426  27.772  26.371  1.00  0.00     0.116 C 
BRANCH  26  27
ATOM     27  N   UNL A   1      33.785  28.997  26.827  1.00  0.00    -0.352 N 
ATOM     28  C   UNL A   1      34.221  30.027  27.624  1.00  0.00     0.251 C 
ATOM     29  H   UNL A   1      32.862  29.108  26.503  1.00  0.00     0.163 HD
ATOM     30  O   UNL A   1      33.483  30.949  27.924  1.00  0.00    -0.269 OA
BRANCH  28  31
ATOM     31  C   UNL A   1      35.602  29.992  28.116  1.00  0.00     0.039 A 
ATOM     32  C   UNL A   1      35.852  29.527  29.409  1.00  0.00     0.014 A 
ATOM     33  C   UNL A   1      36.636  30.348  27.252  1.00  0.00     0.014 A 
ATOM     34  C   UNL A   1      37.170  29.309  29.800  1.00  0.00     0.010 A 
ATOM     35  C   UNL A   1      37.939  30.068  27.618  1.00  0.00     0.010 A 
ATOM     36  C   UNL A   1      38.209  29.528  28.885  1.00  0.00    -0.014 A 
BRANCH  36  37
ATOM     37  C   UNL A   1      39.605  29.170  29.205  1.00  0.00     0.031 A 
ATOM     38  C   UNL A   1      40.512  30.212  29.781  1.00  0.00     0.074 A 
ATOM     39  C   UNL A   1      40.060  27.954  28.852  1.00  0.00     0.049 A 
ATOM     40  N   UNL A   1      41.793  30.147  30.020  1.00  0.00    -0.248 NA
ATOM     41  C   UNL A   1      39.901  31.516  30.091  1.00  0.00     0.031 C 
ATOM     42  C   UNL A   1      39.259  26.903  28.217  1.00  0.00     0.029 A 
ATOM     43  N   UNL A   1      41.309  27.402  28.954  1.00  0.00    -0.354 N 
ATOM     44  C   UNL A   1      42.147  31.404  30.490  1.00  0.00     0.074 A 
ATOM     45  C   UNL A   1      40.959  32.227  30.449  1.00  0.00     0.031 C 
ATOM     46  C   UNL A   1      40.034  25.828  28.002  1.00  0.00     0.029 A 
ATOM     47  C   UNL A   1      41.388  26.124  28.457  1.00  0.00     0.049 A 
ATOM     48  H   UNL A   1      42.077  27.877  29.347  1.00  0.00     0.167 HD
ATOM     49  C   UNL A   1      43.354  31.820  30.938  1.00  0.00     0.037 A 
ATOM     50  C   UNL A   1      42.441  25.288  28.382  1.00  0.00     0.037 A 
ATOM     51  C   UNL A   1      44.512  30.970  30.989  1.00  0.00     0.049 A 
ATOM     52  C   UNL A   1      43.762  25.755  28.920  1.00  0.00     0.074 A 
ATOM     53  C   UNL A   1      45.771  31.254  31.484  1.00  0.00     0.029 A 
ATOM     54  N   UNL A   1      44.547  29.662  30.523  1.00  0.00    -0.354 N 
ATOM     55  N   UNL A   1      44.072  26.924  29.431  1.00  0.00    -0.248 NA
ATOM     56  C   UNL A   1      44.874  24.798  28.881  1.00  0.00     0.031 C 
ATOM     57  C   UNL A   1      46.575  30.124  31.292  1.00  0.00     0.029 A 
ATOM     58  C   UNL A   1      45.809  29.126  30.707  1.00  0.00     0.049 A 
ATOM     59  H   UNL A   1      43.785  29.185  30.121  1.00  0.00     0.167 HD
ATOM     60  C   UNL A   1      45.411  26.843  29.788  1.00  0.00     0.074 A 
ATOM     61  C   UNL A   1      45.848  25.502  29.445  1.00  0.00     0.031 C 
ATOM     62  C   UNL A   1      46.208  27.787  30.347  1.00  0.00     0.037 A 
BRANCH  49  63
ATOM     63  C   UNL A   1      43.455  33.243  31.408  1.00  0.00     0.058 A 
ATOM     64  C   UNL A   1      43.855  34.275  30.541  1.00  0.00     0.135 A 
ATOM     65  C   UNL A   1      43.182  33.581  32.743  1.00  0.00     0.135 A 
ATOM     66  F   UNL A   1      44.149  34.004  29.259  1.00  0.00    -0.206 F 
ATOM     67  C   UNL A   1      44.023  35.580  30.991  1.00  0.00     0.059 A 
ATOM     68  C   UNL A   1      43.317  34.886  33.207  1.00  0.00     0.059 A 
ATOM     69  F   UNL A   1      42.801  32.635  33.615  1.00  0.00    -0.206 F 
ATOM     70  C   UNL A   1      43.760  35.874  32.328  1.00  0.00     0.060 A 
BRANCH  70  71
ATOM     71  S   UNL A   1      44.014  37.566  32.904  1.00  0.00     0.124 S 
ATOM     72  O   UNL A   1      42.974  37.686  33.920  1.00  0.00    -0.237 OA
ATOM     73  O   UNL A   1      45.385  37.524  33.403  1.00  0.00    -0.237 OA
ATOM     74  O   UNL A   1      43.813  38.368  31.701  1.00  0.00    -0.744 OA
ENDBRANCH  70  71
ENDBRANCH  49  63
BRANCH  50  75
ATOM     75  C   UNL A   1      42.249  23.921  27.835  1.00  0.00     0.058 A 
ATOM     76  C   UNL A   1      42.187  23.710  26.450  1.00  0.00     0.135 A 
ATOM     77  C   UNL A   1      42.220  22.793  28.670  1.00  0.00     0.135 A 
ATOM     78  F   UNL A   1      42.211  24.758  25.612  1.00  0.00    -0.206 F 
ATOM     79  C   UNL A   1      42.115  22.431  25.909  1.00  0.00     0.059 A 
ATOM     80  C   UNL A   1      42.163  21.501  28.152  1.00  0.00     0.059 A 
ATOM     81  F   UNL A   1      42.296  22.940  30.001  1.00  0.00    -0.206 F 
ATOM     82  C   UNL A   1      42.116  21.331  26.767  1.00  0.00     0.060 A 
BRANCH  82  83
ATOM     83  S   UNL A   1      42.128  19.674  26.047  1.00  0.00     0.124 S 
ATOM     84  O   UNL A   1      40.738  19.521  25.633  1.00  0.00    -0.237 OA
ATOM     85  O   UNL A   1      43.104  19.818  24.970  1.00  0.00    -0.237 OA
ATOM     86  O   UNL A   1      42.554  18.827  27.157  1.00  0.00    -0.744 OA
ENDBRANCH  82  83
ENDBRANCH  50  75
BRANCH  62  87
ATOM     87  C   UNL A   1      47.632  27.403  30.622  1.00  0.00     0.058 A 
ATOM     88  C   UNL A   1      47.981  26.694  31.781  1.00  0.00     0.135 A 
ATOM     89  C   UNL A   1      48.636  27.671  29.679  1.00  0.00     0.135 A 
ATOM     90  F   UNL A   1      47.055  26.423  32.713  1.00  0.00    -0.206 F 
ATOM     91  C   UNL A   1      49.285  26.267  31.999  1.00  0.00     0.059 A 
ATOM     92  C   UNL A   1      49.942  27.234  29.867  1.00  0.00     0.059 A 
ATOM     93  F   UNL A   1      48.344  28.338  28.551  1.00  0.00    -0.206 F 
ATOM     94  C   UNL A   1      50.258  26.536  31.033  1.00  0.00     0.060 A 
BRANCH  94  95
ATOM     95  S   UNL A   1      51.934  25.924  31.302  1.00  0.00     0.124 S 
ATOM     96  O   UNL A   1      51.683  24.534  31.670  1.00  0.00    -0.237 OA
ATOM     97  O   UNL A   1      52.557  26.133  29.999  1.00  0.00    -0.237 OA
ATOM     98  O   UNL A   1      52.438  26.777  32.375  1.00  0.00    -0.744 OA
ENDBRANCH  94  95
ENDBRANCH  62  87
ENDBRANCH  36  37
ENDBRANCH  28  31
ENDBRANCH  26  27
ENDBRANCH   1  26
TORSDOF 16
ENDMDL
