MODEL 1
REMARK VINA RESULT:     -13.5      0.000      0.000
REMARK SMILES Cc1ccc([C@@H](C)Nc2ccc(N)cc2C(=O)NCCCCNC(=O)c2ccc(-c3c4nc(c(-c5c(F)cc(S(=O)(=O)[O-])cc5F)c5ccc([nH]5)c(-c5c(F)cc(S(=O)(=O)[O-])cc5F)c5nc(c(-c6c(F)cc(S(=O)(=O)[O-])cc6F)c6ccc3[nH]6)C=C5)C=C4)cc2)cc1F
REMARK SMILES IDX 20 1 19 2 18 3 16 4 17 5 15 7 9 8 10 9 11 10 14 11 12 12
REMARK SMILES IDX 8 13 6 15 7 16 5 17 1 18 2 19 3 20 93 21 4 22 92 23 94 24
REMARK SMILES IDX 13 25 21 28 22 29 23 30 24 31 25 33 26 34 27 35 91 36 28 37
REMARK SMILES IDX 90 38 29 39 30 40 31 41 84 42 32 43 89 44 83 45 85 46 33 47
REMARK SMILES IDX 88 48 82 49 81 50 34 52 68 53 47 54 67 55 48 56 51 57 66 58
REMARK SMILES IDX 86 59 49 60 50 61 65 63 87 64 52 65 35 66 36 67 45 68 37 69
REMARK SMILES IDX 38 70 44 71 46 72 39 73 40 74 41 75 42 76 43 77 69 78 70 79
REMARK SMILES IDX 79 80 71 81 72 82 78 83 80 84 73 85 74 86 75 87 76 88 77 89
REMARK SMILES IDX 53 90 54 91 63 92 55 93 56 94 62 95 64 96 57 97 58 98 59 99
REMARK SMILES IDX 60 100 61 101
REMARK H PARENT 18 6 8 14 13 26 13 27 23 32 85 51 51 62
REMARK Flexibility Score: inf
ROOT
ATOM      1  C   UNL A   1      34.925  23.002  22.781  1.00  0.00     0.023 C 
ENDROOT
BRANCH   1   2
ATOM      2  C   UNL A   1      33.747  24.184  22.275  1.00  0.00     0.116 C 
BRANCH   2   3
ATOM      3  N   UNL A   1      32.305  23.924  22.326  1.00  0.00    -0.352 N 
ATOM      4  C   UNL A   1      31.413  24.022  23.368  1.00  0.00     0.253 C 
ATOM      5  O   UNL A   1      30.203  24.011  23.152  1.00  0.00    -0.269 OA
ATOM      6  H   UNL A   1      31.909  23.633  21.473  1.00  0.00     0.163 HD
BRANCH   4   7
ATOM      7  C   UNL A   1      31.915  23.914  24.746  1.00  0.00     0.065 A 
ATOM      8  C   UNL A   1      32.686  24.892  25.379  1.00  0.00     0.048 A 
ATOM      9  C   UNL A   1      33.635  24.382  26.286  1.00  0.00     0.028 A 
ATOM     10  C   UNL A   1      33.701  23.014  26.626  1.00  0.00     0.027 A 
ATOM     11  C   UNL A   1      31.854  22.582  25.211  1.00  0.00     0.041 A 
ATOM     12  C   UNL A   1      32.740  22.121  26.170  1.00  0.00     0.032 A 
BRANCH   8  13
ATOM     13  N   UNL A   1      32.645  26.258  25.153  1.00  0.00    -0.378 N 
ATOM     14  H   UNL A   1      33.425  26.611  24.668  1.00  0.00     0.161 HD
BRANCH  13  15
ATOM     15  C   UNL A   1      31.635  27.279  25.514  1.00  0.00     0.106 C 
ATOM     16  C   UNL A   1      30.504  27.402  24.505  1.00  0.00     0.036 C 
BRANCH  15  17
ATOM     17  C   UNL A   1      32.298  28.496  26.172  1.00  0.00    -0.023 A 
ATOM     18  C   UNL A   1      35.077  31.913  28.720  1.00  0.00     0.047 C 
ATOM     19  C   UNL A   1      34.379  31.074  27.689  1.00  0.00    -0.015 A 
ATOM     20  C   UNL A   1      34.949  29.379  27.590  1.00  0.00     0.007 A 
ATOM     21  C   UNL A   1      32.727  31.494  27.040  1.00  0.00     0.126 A 
ATOM     22  C   UNL A   1      33.940  28.111  26.809  1.00  0.00     0.006 A 
ATOM     23  C   UNL A   1      31.683  30.209  26.275  1.00  0.00     0.045 A 
ATOM     24  F   UNL A   1      32.229  32.719  27.243  1.00  0.00    -0.207 F 
ENDBRANCH  15  17
ENDBRANCH  13  15
ENDBRANCH   8  13
BRANCH  12  25
ATOM     25  N   UNL A   1      32.790  20.768  26.468  1.00  0.00    -0.399 N 
ATOM     26  H   UNL A   1      32.355  20.427  27.282  1.00  0.00     0.156 HD
ATOM     27  H   UNL A   1      33.262  20.148  25.866  1.00  0.00     0.156 HD
ENDBRANCH  12  25
ENDBRANCH   4   7
ENDBRANCH   2   3
ENDBRANCH   1   2
BRANCH   1  28
ATOM     28  C   UNL A   1      36.609  22.926  24.180  1.00  0.00     0.023 C 
BRANCH  28  29
ATOM     29  C   UNL A   1      37.153  23.762  25.403  1.00  0.00     0.116 C 
BRANCH  29  30
ATOM     30  N   UNL A   1      37.870  22.999  26.431  1.00  0.00    -0.352 N 
ATOM     31  C   UNL A   1      39.248  22.874  26.357  1.00  0.00     0.251 C 
ATOM     32  H   UNL A   1      37.375  22.579  27.171  1.00  0.00     0.163 HD
ATOM     33  O   UNL A   1      39.839  21.936  25.841  1.00  0.00    -0.269 OA
BRANCH  31  34
ATOM     34  C   UNL A   1      39.942  24.115  26.767  1.00  0.00     0.039 A 
ATOM     35  C   UNL A   1      40.075  25.251  25.973  1.00  0.00     0.014 A 
ATOM     36  C   UNL A   1      40.347  24.139  28.097  1.00  0.00     0.014 A 
ATOM     37  C   UNL A   1      40.634  26.391  26.549  1.00  0.00     0.010 A 
ATOM     38  C   UNL A   1      40.623  25.279  28.719  1.00  0.00     0.010 A 
ATOM     39  C   UNL A   1      40.895  26.365  27.922  1.00  0.00    -0.014 A 
BRANCH  39  40
ATOM     40  C   UNL A   1      41.313  27.433  28.791  1.00  0.00     0.031 A 
ATOM     41  C   UNL A   1      40.265  28.454  28.905  1.00  0.00     0.074 A 
ATOM     42  C   UNL A   1      42.400  27.098  29.535  1.00  0.00     0.049 A 
ATOM     43  N   UNL A   1      40.399  29.718  28.725  1.00  0.00    -0.248 NA
ATOM     44  C   UNL A   1      38.839  28.065  29.021  1.00  0.00     0.031 C 
ATOM     45  C   UNL A   1      43.018  27.626  30.733  1.00  0.00     0.029 A 
ATOM     46  N   UNL A   1      43.285  26.061  29.185  1.00  0.00    -0.354 N 
ATOM     47  C   UNL A   1      39.266  30.249  29.314  1.00  0.00     0.074 A 
ATOM     48  C   UNL A   1      38.243  29.255  29.136  1.00  0.00     0.031 C 
ATOM     49  C   UNL A   1      44.317  27.244  30.748  1.00  0.00     0.029 A 
ATOM     50  C   UNL A   1      44.573  26.442  29.553  1.00  0.00     0.049 A 
ATOM     51  H   UNL A   1      43.037  25.211  28.754  1.00  0.00     0.167 HD
ATOM     52  C   UNL A   1      39.428  31.149  30.331  1.00  0.00     0.037 A 
ATOM     53  C   UNL A   1      45.400  26.745  28.505  1.00  0.00     0.037 A 
ATOM     54  C   UNL A   1      40.854  31.223  30.671  1.00  0.00     0.049 A 
ATOM     55  C   UNL A   1      45.432  28.247  28.347  1.00  0.00     0.074 A 
ATOM     56  C   UNL A   1      41.599  30.695  31.714  1.00  0.00     0.029 A 
ATOM     57  N   UNL A   1      41.764  31.570  29.683  1.00  0.00    -0.354 N 
ATOM     58  N   UNL A   1      44.458  29.040  28.712  1.00  0.00    -0.248 NA
ATOM     59  C   UNL A   1      46.623  28.975  27.930  1.00  0.00     0.031 C 
ATOM     60  C   UNL A   1      42.967  30.697  31.313  1.00  0.00     0.029 A 
ATOM     61  C   UNL A   1      43.038  31.146  30.005  1.00  0.00     0.049 A 
ATOM     62  H   UNL A   1      41.531  32.057  28.860  1.00  0.00     0.167 HD
ATOM     63  C   UNL A   1      44.883  30.334  28.668  1.00  0.00     0.074 A 
ATOM     64  C   UNL A   1      46.241  30.243  28.157  1.00  0.00     0.031 C 
ATOM     65  C   UNL A   1      44.122  31.395  29.070  1.00  0.00     0.037 A 
BRANCH  52  66
ATOM     66  C   UNL A   1      38.347  31.739  31.211  1.00  0.00     0.058 A 
ATOM     67  C   UNL A   1      37.888  33.053  30.965  1.00  0.00     0.135 A 
ATOM     68  C   UNL A   1      37.643  31.051  32.224  1.00  0.00     0.135 A 
ATOM     69  F   UNL A   1      38.427  33.821  30.009  1.00  0.00    -0.206 F 
ATOM     70  C   UNL A   1      36.830  33.635  31.657  1.00  0.00     0.059 A 
ATOM     71  C   UNL A   1      36.592  31.627  32.951  1.00  0.00     0.059 A 
ATOM     72  F   UNL A   1      37.896  29.770  32.517  1.00  0.00    -0.206 F 
ATOM     73  C   UNL A   1      36.179  32.914  32.644  1.00  0.00     0.060 A 
BRANCH  73  74
ATOM     74  S   UNL A   1      34.756  33.669  33.450  1.00  0.00     0.124 S 
ATOM     75  O   UNL A   1      35.075  33.486  34.862  1.00  0.00    -0.237 OA
ATOM     76  O   UNL A   1      34.822  35.041  32.957  1.00  0.00    -0.237 OA
ATOM     77  O   UNL A   1      33.628  32.883  32.959  1.00  0.00    -0.744 OA
ENDBRANCH  73  74
ENDBRANCH  52  66
BRANCH  53  78
ATOM     78  C   UNL A   1      45.265  25.692  27.423  1.00  0.00     0.058 A 
ATOM     79  C   UNL A   1      45.830  24.430  27.727  1.00  0.00     0.135 A 
ATOM     80  C   UNL A   1      44.229  25.698  26.471  1.00  0.00     0.135 A 
ATOM     81  F   UNL A   1      46.849  24.350  28.600  1.00  0.00    -0.206 F 
ATOM     82  C   UNL A   1      45.257  23.233  27.301  1.00  0.00     0.059 A 
ATOM     83  C   UNL A   1      43.655  24.501  26.009  1.00  0.00     0.059 A 
ATOM     84  F   UNL A   1      43.669  26.855  26.090  1.00  0.00    -0.206 F 
ATOM     85  C   UNL A   1      44.122  23.278  26.500  1.00  0.00     0.060 A 
BRANCH  85  86
ATOM     86  S   UNL A   1      43.233  21.727  26.213  1.00  0.00     0.124 S 
ATOM     87  O   UNL A   1      42.529  21.526  27.473  1.00  0.00    -0.237 OA
ATOM     88  O   UNL A   1      42.373  22.061  25.072  1.00  0.00    -0.237 OA
ATOM     89  O   UNL A   1      44.292  20.772  25.924  1.00  0.00    -0.744 OA
ENDBRANCH  85  86
ENDBRANCH  53  78
BRANCH  65  90
ATOM     90  C   UNL A   1      44.359  32.810  28.620  1.00  0.00     0.058 A 
ATOM     91  C   UNL A   1      44.885  33.801  29.462  1.00  0.00     0.135 A 
ATOM     92  C   UNL A   1      44.244  33.161  27.251  1.00  0.00     0.135 A 
ATOM     93  F   UNL A   1      45.185  33.554  30.745  1.00  0.00    -0.206 F 
ATOM     94  C   UNL A   1      45.170  35.080  29.007  1.00  0.00     0.059 A 
ATOM     95  C   UNL A   1      44.626  34.397  26.758  1.00  0.00     0.059 A 
ATOM     96  F   UNL A   1      43.775  32.301  26.333  1.00  0.00    -0.206 F 
ATOM     97  C   UNL A   1      45.040  35.367  27.653  1.00  0.00     0.060 A 
BRANCH  97  98
ATOM     98  S   UNL A   1      45.423  37.022  27.083  1.00  0.00     0.124 S 
ATOM     99  O   UNL A   1      46.342  36.736  25.986  1.00  0.00    -0.237 OA
ATOM    100  O   UNL A   1      44.112  37.533  26.694  1.00  0.00    -0.237 OA
ATOM    101  O   UNL A   1      46.015  37.657  28.255  1.00  0.00    -0.744 OA
ENDBRANCH  97  98
ENDBRANCH  65  90
ENDBRANCH  39  40
ENDBRANCH  31  34
ENDBRANCH  29  30
ENDBRANCH  28  29
ENDBRANCH   1  28
TORSDOF 18
ENDMDL
MODEL 2
REMARK VINA RESULT:     -13.5      1.236      2.267
REMARK SMILES Cc1ccc([C@@H](C)Nc2ccc(N)cc2C(=O)NCCCCNC(=O)c2ccc(-c3c4nc(c(-c5c(F)cc(S(=O)(=O)[O-])cc5F)c5ccc([nH]5)c(-c5c(F)cc(S(=O)(=O)[O-])cc5F)c5nc(c(-c6c(F)cc(S(=O)(=O)[O-])cc6F)c6ccc3[nH]6)C=C5)C=C4)cc2)cc1F
REMARK SMILES IDX 20 1 19 2 18 3 16 4 17 5 15 7 9 8 10 9 11 10 14 11 12 12
REMARK SMILES IDX 8 13 6 15 7 16 5 17 1 18 2 19 3 20 93 21 4 22 92 23 94 24
REMARK SMILES IDX 13 25 21 28 22 29 23 30 24 31 25 33 26 34 27 35 91 36 28 37
REMARK SMILES IDX 90 38 29 39 30 40 31 41 84 42 32 43 89 44 83 45 85 46 33 47
REMARK SMILES IDX 88 48 82 49 81 50 34 52 68 53 47 54 67 55 48 56 51 57 66 58
REMARK SMILES IDX 86 59 49 60 50 61 65 63 87 64 52 65 35 66 36 67 45 68 37 69
REMARK SMILES IDX 38 70 44 71 46 72 39 73 40 74 41 75 42 76 43 77 69 78 70 79
REMARK SMILES IDX 79 80 71 81 72 82 78 83 80 84 73 85 74 86 75 87 76 88 77 89
REMARK SMILES IDX 53 90 54 91 63 92 55 93 56 94 62 95 64 96 57 97 58 98 59 99
REMARK SMILES IDX 60 100 61 101
REMARK H PARENT 18 6 8 14 13 26 13 27 23 32 85 51 51 62
REMARK Flexibility Score: inf
ROOT
ATOM      1  C   UNL A   1      34.947  22.966  23.156  1.00  0.00     0.023 C 
ENDROOT
BRANCH   1   2
ATOM      2  C   UNL A   1      33.698  23.973  22.474  1.00  0.00     0.116 C 
BRANCH   2   3
ATOM      3  N   UNL A   1      32.290  23.563  22.444  1.00  0.00    -0.352 N 
ATOM      4  C   UNL A   1      31.364  23.468  23.455  1.00  0.00     0.253 C 
ATOM      5  O   UNL A   1      30.168  23.354  23.193  1.00  0.00    -0.269 OA
ATOM      6  H   UNL A   1      31.952  23.316  21.553  1.00  0.00     0.163 HD
BRANCH   4   7
ATOM      7  C   UNL A   1      31.834  23.280  24.836  1.00  0.00     0.065 A 
ATOM      8  C   UNL A   1      32.357  24.302  25.632  1.00  0.00     0.048 A 
ATOM      9  C   UNL A   1      33.364  23.883  26.522  1.00  0.00     0.028 A 
ATOM     10  C   UNL A   1      33.712  22.525  26.690  1.00  0.00     0.027 A 
ATOM     11  C   UNL A   1      32.045  21.915  25.124  1.00  0.00     0.041 A 
ATOM     12  C   UNL A   1      32.979  21.522  26.068  1.00  0.00     0.032 A 
BRANCH   8  13
ATOM     13  N   UNL A   1      32.030  25.647  25.579  1.00  0.00    -0.378 N 
ATOM     14  H   UNL A   1      31.385  25.934  26.267  1.00  0.00     0.161 HD
BRANCH  13  15
ATOM     15  C   UNL A   1      32.477  26.729  24.673  1.00  0.00     0.106 C 
ATOM     16  C   UNL A   1      33.719  27.458  25.160  1.00  0.00     0.036 C 
BRANCH  15  17
ATOM     17  C   UNL A   1      31.276  27.454  24.051  1.00  0.00    -0.023 A 
ATOM     18  C   UNL A   1      27.912  30.503  21.754  1.00  0.00     0.047 C 
ATOM     19  C   UNL A   1      28.817  29.382  22.177  1.00  0.00    -0.015 A 
ATOM     20  C   UNL A   1      30.566  29.731  22.019  1.00  0.00     0.007 A 
ATOM     21  C   UNL A   1      28.274  28.060  23.311  1.00  0.00     0.126 A 
ATOM     22  C   UNL A   1      31.785  28.757  22.914  1.00  0.00     0.006 A 
ATOM     23  C   UNL A   1      29.501  27.088  24.247  1.00  0.00     0.045 A 
ATOM     24  F   UNL A   1      26.970  27.891  23.553  1.00  0.00    -0.207 F 
ENDBRANCH  15  17
ENDBRANCH  13  15
ENDBRANCH   8  13
BRANCH  12  25
ATOM     25  N   UNL A   1      33.310  20.182  26.195  1.00  0.00    -0.399 N 
ATOM     26  H   UNL A   1      33.634  19.679  25.414  1.00  0.00     0.156 HD
ATOM     27  H   UNL A   1      33.221  19.734  27.067  1.00  0.00     0.156 HD
ENDBRANCH  12  25
ENDBRANCH   4   7
ENDBRANCH   2   3
ENDBRANCH   1   2
BRANCH   1  28
ATOM     28  C   UNL A   1      36.725  23.255  24.403  1.00  0.00     0.023 C 
BRANCH  28  29
ATOM     29  C   UNL A   1      37.083  23.893  25.800  1.00  0.00     0.116 C 
BRANCH  29  30
ATOM     30  N   UNL A   1      37.938  23.082  26.674  1.00  0.00    -0.352 N 
ATOM     31  C   UNL A   1      39.297  22.997  26.420  1.00  0.00     0.251 C 
ATOM     32  H   UNL A   1      37.548  22.600  27.439  1.00  0.00     0.163 HD
ATOM     33  O   UNL A   1      39.834  22.112  25.769  1.00  0.00    -0.269 OA
BRANCH  31  34
ATOM     34  C   UNL A   1      40.016  24.226  26.825  1.00  0.00     0.039 A 
ATOM     35  C   UNL A   1      40.219  25.335  26.008  1.00  0.00     0.014 A 
ATOM     36  C   UNL A   1      40.370  24.272  28.169  1.00  0.00     0.014 A 
ATOM     37  C   UNL A   1      40.793  26.471  26.577  1.00  0.00     0.010 A 
ATOM     38  C   UNL A   1      40.659  25.419  28.772  1.00  0.00     0.010 A 
ATOM     39  C   UNL A   1      40.999  26.473  27.959  1.00  0.00    -0.014 A 
BRANCH  39  40
ATOM     40  C   UNL A   1      41.418  27.551  28.816  1.00  0.00     0.031 A 
ATOM     41  C   UNL A   1      40.365  28.566  28.933  1.00  0.00     0.074 A 
ATOM     42  C   UNL A   1      42.514  27.228  29.552  1.00  0.00     0.049 A 
ATOM     43  N   UNL A   1      40.490  29.830  28.742  1.00  0.00    -0.248 NA
ATOM     44  C   UNL A   1      38.943  28.170  29.065  1.00  0.00     0.031 C 
ATOM     45  C   UNL A   1      43.139  27.768  30.742  1.00  0.00     0.029 A 
ATOM     46  N   UNL A   1      43.403  26.193  29.202  1.00  0.00    -0.354 N 
ATOM     47  C   UNL A   1      39.359  30.358  29.338  1.00  0.00     0.074 A 
ATOM     48  C   UNL A   1      38.340  29.357  29.177  1.00  0.00     0.031 C 
ATOM     49  C   UNL A   1      44.442  27.395  30.747  1.00  0.00     0.029 A 
ATOM     50  C   UNL A   1      44.691  26.584  29.555  1.00  0.00     0.049 A 
ATOM     51  H   UNL A   1      43.155  25.339  28.780  1.00  0.00     0.167 HD
ATOM     52  C   UNL A   1      39.525  31.267  30.347  1.00  0.00     0.037 A 
ATOM     53  C   UNL A   1      45.507  26.885  28.497  1.00  0.00     0.037 A 
ATOM     54  C   UNL A   1      40.953  31.351  30.672  1.00  0.00     0.049 A 
ATOM     55  C   UNL A   1      45.528  28.386  28.329  1.00  0.00     0.074 A 
ATOM     56  C   UNL A   1      41.711  30.835  31.713  1.00  0.00     0.029 A 
ATOM     57  N   UNL A   1      41.852  31.697  29.674  1.00  0.00    -0.354 N 
ATOM     58  N   UNL A   1      44.553  29.176  28.697  1.00  0.00    -0.248 NA
ATOM     59  C   UNL A   1      46.711  29.118  27.895  1.00  0.00     0.031 C 
ATOM     60  C   UNL A   1      43.075  30.843  31.299  1.00  0.00     0.029 A 
ATOM     61  C   UNL A   1      43.131  31.282  29.987  1.00  0.00     0.049 A 
ATOM     62  H   UNL A   1      41.609  32.176  28.849  1.00  0.00     0.167 HD
ATOM     63  C   UNL A   1      44.969  30.473  28.639  1.00  0.00     0.074 A 
ATOM     64  C   UNL A   1      46.323  30.386  28.116  1.00  0.00     0.031 C 
ATOM     65  C   UNL A   1      44.206  31.531  29.040  1.00  0.00     0.037 A 
BRANCH  52  66
ATOM     66  C   UNL A   1      38.449  31.857  31.232  1.00  0.00     0.058 A 
ATOM     67  C   UNL A   1      37.805  33.053  30.844  1.00  0.00     0.135 A 
ATOM     68  C   UNL A   1      37.921  31.258  32.398  1.00  0.00     0.135 A 
ATOM     69  F   UNL A   1      38.164  33.720  29.738  1.00  0.00    -0.206 F 
ATOM     70  C   UNL A   1      36.737  33.609  31.542  1.00  0.00     0.059 A 
ATOM     71  C   UNL A   1      36.864  31.813  33.131  1.00  0.00     0.059 A 
ATOM     72  F   UNL A   1      38.361  30.076  32.847  1.00  0.00    -0.206 F 
ATOM     73  C   UNL A   1      36.265  32.980  32.682  1.00  0.00     0.060 A 
BRANCH  73  74
ATOM     74  S   UNL A   1      34.823  33.681  33.504  1.00  0.00     0.124 S 
ATOM     75  O   UNL A   1      35.138  33.457  34.911  1.00  0.00    -0.237 OA
ATOM     76  O   UNL A   1      34.865  35.068  33.058  1.00  0.00    -0.237 OA
ATOM     77  O   UNL A   1      33.714  32.890  32.981  1.00  0.00    -0.744 OA
ENDBRANCH  73  74
ENDBRANCH  52  66
BRANCH  53  78
ATOM     78  C   UNL A   1      45.368  25.823  27.424  1.00  0.00     0.058 A 
ATOM     79  C   UNL A   1      45.922  24.560  27.742  1.00  0.00     0.135 A 
ATOM     80  C   UNL A   1      44.337  25.829  26.469  1.00  0.00     0.135 A 
ATOM     81  F   UNL A   1      46.936  24.481  28.621  1.00  0.00    -0.206 F 
ATOM     82  C   UNL A   1      45.342  23.364  27.325  1.00  0.00     0.059 A 
ATOM     83  C   UNL A   1      43.755  24.631  26.015  1.00  0.00     0.059 A 
ATOM     84  F   UNL A   1      43.786  26.987  26.075  1.00  0.00    -0.206 F 
ATOM     85  C   UNL A   1      44.211  23.410  26.519  1.00  0.00     0.060 A 
BRANCH  85  86
ATOM     86  S   UNL A   1      43.310  21.864  26.242  1.00  0.00     0.124 S 
ATOM     87  O   UNL A   1      44.385  20.907  26.005  1.00  0.00    -0.237 OA
ATOM     88  O   UNL A   1      42.591  21.683  27.507  1.00  0.00    -0.237 OA
ATOM     89  O   UNL A   1      42.467  22.159  25.092  1.00  0.00    -0.744 OA
ENDBRANCH  85  86
ENDBRANCH  53  78
BRANCH  65  90
ATOM     90  C   UNL A   1      44.430  32.944  28.578  1.00  0.00     0.058 A 
ATOM     91  C   UNL A   1      44.173  33.368  27.265  1.00  0.00     0.135 A 
ATOM     92  C   UNL A   1      44.729  33.970  29.510  1.00  0.00     0.135 A 
ATOM     93  F   UNL A   1      43.735  32.524  26.321  1.00  0.00    -0.206 F 
ATOM     94  C   UNL A   1      44.312  34.692  26.878  1.00  0.00     0.059 A 
ATOM     95  C   UNL A   1      44.764  35.311  29.166  1.00  0.00     0.059 A 
ATOM     96  F   UNL A   1      44.975  33.706  30.803  1.00  0.00    -0.206 F 
ATOM     97  C   UNL A   1      44.605  35.656  27.836  1.00  0.00     0.060 A 
BRANCH  97  98
ATOM     98  S   UNL A   1      44.769  37.365  27.318  1.00  0.00     0.124 S 
ATOM     99  O   UNL A   1      45.885  37.269  26.382  1.00  0.00    -0.237 OA
ATOM    100  O   UNL A   1      43.466  37.640  26.723  1.00  0.00    -0.237 OA
ATOM    101  O   UNL A   1      45.047  38.072  28.563  1.00  0.00    -0.744 OA
ENDBRANCH  97  98
ENDBRANCH  65  90
ENDBRANCH  39  40
ENDBRANCH  31  34
ENDBRANCH  29  30
ENDBRANCH  28  29
ENDBRANCH   1  28
TORSDOF 18
ENDMDL
MODEL 3
REMARK VINA RESULT:     -13.4      1.596      3.348
REMARK SMILES Cc1ccc([C@@H](C)Nc2ccc(N)cc2C(=O)NCCCCNC(=O)c2ccc(-c3c4nc(c(-c5c(F)cc(S(=O)(=O)[O-])cc5F)c5ccc([nH]5)c(-c5c(F)cc(S(=O)(=O)[O-])cc5F)c5nc(c(-c6c(F)cc(S(=O)(=O)[O-])cc6F)c6ccc3[nH]6)C=C5)C=C4)cc2)cc1F
REMARK SMILES IDX 20 1 19 2 18 3 16 4 17 5 15 7 9 8 10 9 11 10 14 11 12 12
REMARK SMILES IDX 8 13 6 15 7 16 5 17 1 18 2 19 3 20 93 21 4 22 92 23 94 24
REMARK SMILES IDX 13 25 21 28 22 29 23 30 24 31 25 33 26 34 27 35 91 36 28 37
REMARK SMILES IDX 90 38 29 39 30 40 31 41 84 42 32 43 89 44 83 45 85 46 33 47
REMARK SMILES IDX 88 48 82 49 81 50 34 52 68 53 47 54 67 55 48 56 51 57 66 58
REMARK SMILES IDX 86 59 49 60 50 61 65 63 87 64 52 65 35 66 36 67 45 68 37 69
REMARK SMILES IDX 38 70 44 71 46 72 39 73 40 74 41 75 42 76 43 77 69 78 70 79
REMARK SMILES IDX 79 80 71 81 72 82 78 83 80 84 73 85 74 86 75 87 76 88 77 89
REMARK SMILES IDX 53 90 54 91 63 92 55 93 56 94 62 95 64 96 57 97 58 98 59 99
REMARK SMILES IDX 60 100 61 101
REMARK H PARENT 18 6 8 14 13 26 13 27 23 32 85 51 51 62
REMARK Flexibility Score: inf
ROOT
ATOM      1  C   UNL A   1      35.263  23.737  23.220  1.00  0.00     0.023 C 
ENDROOT
BRANCH   1   2
ATOM      2  C   UNL A   1      33.863  24.765  23.071  1.00  0.00     0.116 C 
BRANCH   2   3
ATOM      3  N   UNL A   1      33.849  25.950  22.207  1.00  0.00    -0.352 N 
ATOM      4  C   UNL A   1      33.719  27.283  22.517  1.00  0.00     0.253 C 
ATOM      5  O   UNL A   1      33.989  28.144  21.682  1.00  0.00    -0.269 OA
ATOM      6  H   UNL A   1      33.950  25.760  21.246  1.00  0.00     0.163 HD
BRANCH   4   7
ATOM      7  C   UNL A   1      33.045  27.660  23.769  1.00  0.00     0.065 A 
ATOM      8  C   UNL A   1      31.660  27.775  23.910  1.00  0.00     0.048 A 
ATOM      9  C   UNL A   1      31.253  28.777  24.813  1.00  0.00     0.028 A 
ATOM     10  C   UNL A   1      32.169  29.502  25.606  1.00  0.00     0.027 A 
ATOM     11  C   UNL A   1      33.949  28.247  24.680  1.00  0.00     0.041 A 
ATOM     12  C   UNL A   1      33.517  29.166  25.621  1.00  0.00     0.032 A 
BRANCH   8  13
ATOM     13  N   UNL A   1      30.692  27.064  23.222  1.00  0.00    -0.378 N 
ATOM     14  H   UNL A   1      30.562  27.356  22.290  1.00  0.00     0.161 HD
BRANCH  13  15
ATOM     15  C   UNL A   1      29.819  25.943  23.639  1.00  0.00     0.106 C 
ATOM     16  C   UNL A   1      28.461  26.390  24.161  1.00  0.00     0.036 C 
BRANCH  15  17
ATOM     17  C   UNL A   1      30.638  24.828  24.301  1.00  0.00    -0.023 A 
ATOM     18  C   UNL A   1      33.037  20.601  25.807  1.00  0.00     0.047 C 
ATOM     19  C   UNL A   1      32.654  21.968  25.319  1.00  0.00    -0.015 A 
ATOM     20  C   UNL A   1      31.841  21.992  23.723  1.00  0.00     0.007 A 
ATOM     21  C   UNL A   1      32.443  23.387  26.445  1.00  0.00     0.126 A 
ATOM     22  C   UNL A   1      30.875  23.418  23.203  1.00  0.00     0.006 A 
ATOM     23  C   UNL A   1      31.440  24.824  25.938  1.00  0.00     0.045 A 
ATOM     24  F   UNL A   1      32.917  23.316  27.693  1.00  0.00    -0.207 F 
ENDBRANCH  15  17
ENDBRANCH  13  15
ENDBRANCH   8  13
BRANCH  12  25
ATOM     25  N   UNL A   1      34.444  29.873  26.371  1.00  0.00    -0.399 N 
ATOM     26  H   UNL A   1      35.070  30.489  25.928  1.00  0.00     0.156 HD
ATOM     27  H   UNL A   1      34.476  29.759  27.349  1.00  0.00     0.156 HD
ENDBRANCH  12  25
ENDBRANCH   4   7
ENDBRANCH   2   3
ENDBRANCH   1   2
BRANCH   1  28
ATOM     28  C   UNL A   1      36.758  23.291  24.757  1.00  0.00     0.023 C 
BRANCH  28  29
ATOM     29  C   UNL A   1      37.304  23.946  26.084  1.00  0.00     0.116 C 
BRANCH  29  30
ATOM     30  N   UNL A   1      38.253  23.135  26.856  1.00  0.00    -0.352 N 
ATOM     31  C   UNL A   1      39.583  23.088  26.475  1.00  0.00     0.251 C 
ATOM     32  H   UNL A   1      37.945  22.628  27.642  1.00  0.00     0.163 HD
ATOM     33  O   UNL A   1      40.076  22.229  25.756  1.00  0.00    -0.269 OA
BRANCH  31  34
ATOM     34  C   UNL A   1      40.312  24.322  26.841  1.00  0.00     0.039 A 
ATOM     35  C   UNL A   1      40.369  25.474  26.060  1.00  0.00     0.014 A 
ATOM     36  C   UNL A   1      40.839  24.323  28.128  1.00  0.00     0.014 A 
ATOM     37  C   UNL A   1      40.979  26.604  26.602  1.00  0.00     0.010 A 
ATOM     38  C   UNL A   1      41.170  25.452  28.743  1.00  0.00     0.010 A 
ATOM     39  C   UNL A   1      41.367  26.553  27.944  1.00  0.00    -0.014 A 
BRANCH  39  40
ATOM     40  C   UNL A   1      41.862  27.606  28.790  1.00  0.00     0.031 A 
ATOM     41  C   UNL A   1      40.829  28.622  29.021  1.00  0.00     0.074 A 
ATOM     42  C   UNL A   1      43.014  27.260  29.423  1.00  0.00     0.049 A 
ATOM     43  N   UNL A   1      40.944  29.889  28.853  1.00  0.00    -0.248 NA
ATOM     44  C   UNL A   1      39.420  28.227  29.262  1.00  0.00     0.031 C 
ATOM     45  C   UNL A   1      43.741  27.767  30.569  1.00  0.00     0.029 A 
ATOM     46  N   UNL A   1      43.864  26.232  28.973  1.00  0.00    -0.354 N 
ATOM     47  C   UNL A   1      39.871  30.407  29.555  1.00  0.00     0.074 A 
ATOM     48  C   UNL A   1      38.836  29.413  29.455  1.00  0.00     0.031 C 
ATOM     49  C   UNL A   1      45.037  27.389  30.455  1.00  0.00     0.029 A 
ATOM     50  C   UNL A   1      45.181  26.609  29.226  1.00  0.00     0.049 A 
ATOM     51  H   UNL A   1      43.578  25.390  28.551  1.00  0.00     0.167 HD
ATOM     52  C   UNL A   1      40.126  31.288  30.569  1.00  0.00     0.037 A 
ATOM     53  C   UNL A   1      45.906  26.934  28.111  1.00  0.00     0.037 A 
ATOM     54  C   UNL A   1      41.577  31.359  30.776  1.00  0.00     0.049 A 
ATOM     55  C   UNL A   1      45.921  28.439  27.980  1.00  0.00     0.074 A 
ATOM     56  C   UNL A   1      42.417  30.814  31.735  1.00  0.00     0.029 A 
ATOM     57  N   UNL A   1      42.390  31.727  29.714  1.00  0.00    -0.354 N 
ATOM     58  N   UNL A   1      44.985  29.223  28.449  1.00  0.00    -0.248 NA
ATOM     59  C   UNL A   1      47.068  29.178  27.467  1.00  0.00     0.031 C 
ATOM     60  C   UNL A   1      43.741  30.827  31.208  1.00  0.00     0.029 A 
ATOM     61  C   UNL A   1      43.689  31.300  29.908  1.00  0.00     0.049 A 
ATOM     62  H   UNL A   1      42.082  32.228  28.925  1.00  0.00     0.167 HD
ATOM     63  C   UNL A   1      45.403  30.519  28.389  1.00  0.00     0.074 A 
ATOM     64  C   UNL A   1      46.707  30.441  27.753  1.00  0.00     0.031 C 
ATOM     65  C   UNL A   1      44.682  31.569  28.880  1.00  0.00     0.037 A 
BRANCH  52  66
ATOM     66  C   UNL A   1      39.131  31.858  31.557  1.00  0.00     0.058 A 
ATOM     67  C   UNL A   1      38.603  33.153  31.346  1.00  0.00     0.135 A 
ATOM     68  C   UNL A   1      38.568  31.166  32.652  1.00  0.00     0.135 A 
ATOM     69  F   UNL A   1      39.007  33.920  30.325  1.00  0.00    -0.206 F 
ATOM     70  C   UNL A   1      37.611  33.713  32.144  1.00  0.00     0.059 A 
ATOM     71  C   UNL A   1      37.587  31.720  33.484  1.00  0.00     0.059 A 
ATOM     72  F   UNL A   1      38.895  29.899  32.932  1.00  0.00    -0.206 F 
ATOM     73  C   UNL A   1      37.099  32.989  33.208  1.00  0.00     0.060 A 
BRANCH  73  74
ATOM     74  S   UNL A   1      35.751  33.713  34.159  1.00  0.00     0.124 S 
ATOM     75  O   UNL A   1      35.883  35.131  33.841  1.00  0.00    -0.237 OA
ATOM     76  O   UNL A   1      34.587  33.041  33.592  1.00  0.00    -0.237 OA
ATOM     77  O   UNL A   1      36.072  33.350  35.536  1.00  0.00    -0.744 OA
ENDBRANCH  73  74
ENDBRANCH  52  66
BRANCH  53  78
ATOM     78  C   UNL A   1      45.671  25.902  27.027  1.00  0.00     0.058 A 
ATOM     79  C   UNL A   1      46.278  24.641  27.245  1.00  0.00     0.135 A 
ATOM     80  C   UNL A   1      44.543  25.913  26.188  1.00  0.00     0.135 A 
ATOM     81  F   UNL A   1      47.382  24.557  28.007  1.00  0.00    -0.206 F 
ATOM     82  C   UNL A   1      45.677  23.446  26.856  1.00  0.00     0.059 A 
ATOM     83  C   UNL A   1      43.937  24.718  25.762  1.00  0.00     0.059 A 
ATOM     84  F   UNL A   1      43.934  27.070  25.890  1.00  0.00    -0.206 F 
ATOM     85  C   UNL A   1      44.466  23.492  26.177  1.00  0.00     0.060 A 
BRANCH  85  86
ATOM     86  S   UNL A   1      43.568  21.936  25.949  1.00  0.00     0.124 S 
ATOM     87  O   UNL A   1      42.899  21.764  27.233  1.00  0.00    -0.237 OA
ATOM     88  O   UNL A   1      42.678  22.243  24.825  1.00  0.00    -0.237 OA
ATOM     89  O   UNL A   1      44.619  20.973  25.655  1.00  0.00    -0.744 OA
ENDBRANCH  85  86
ENDBRANCH  53  78
BRANCH  65  90
ATOM     90  C   UNL A   1      44.874  32.993  28.437  1.00  0.00     0.058 A 
ATOM     91  C   UNL A   1      44.437  33.471  27.192  1.00  0.00     0.135 A 
ATOM     92  C   UNL A   1      45.337  33.977  29.348  1.00  0.00     0.135 A 
ATOM     93  F   UNL A   1      43.839  32.673  26.297  1.00  0.00    -0.206 F 
ATOM     94  C   UNL A   1      44.554  34.806  26.833  1.00  0.00     0.059 A 
ATOM     95  C   UNL A   1      45.359  35.328  29.047  1.00  0.00     0.059 A 
ATOM     96  F   UNL A   1      45.766  33.659  30.580  1.00  0.00    -0.206 F 
ATOM     97  C   UNL A   1      45.013  35.726  27.768  1.00  0.00     0.060 A 
BRANCH  97  98
ATOM     98  S   UNL A   1      45.147  37.448  27.288  1.00  0.00     0.124 S 
ATOM     99  O   UNL A   1      45.522  38.065  28.557  1.00  0.00    -0.237 OA
ATOM    100  O   UNL A   1      46.190  37.412  26.269  1.00  0.00    -0.237 OA
ATOM    101  O   UNL A   1      43.810  37.770  26.799  1.00  0.00    -0.744 OA
ENDBRANCH  97  98
ENDBRANCH  65  90
ENDBRANCH  39  40
ENDBRANCH  31  34
ENDBRANCH  29  30
ENDBRANCH  28  29
ENDBRANCH   1  28
TORSDOF 18
ENDMDL
