MODEL 1
REMARK VINA RESULT:     -11.8      0.000      0.000
REMARK SMILES CC[C@@H]1CCC[C@@](Cc2cccc(O)c2)(C(=O)NCCCCNC(=O)c2ccc(-c3c4nc(c(-c5c(F)cc(S(=O)(=O)[O-])cc5F)c5ccc([nH]5)c(-c5c(F)cc(S(=O)(=O)[O-])cc5F)c5nc(c(-c6c(F)cc(S(=O)(=O)[O-])cc6F)c6ccc3[nH]6)C=C5)C=C4)cc2)C1
REMARK SMILES IDX 20 1 19 2 18 3 16 4 17 5 7 7 3 8 4 9 92 10 5 11 6 12 2 13
REMARK SMILES IDX 1 14 8 15 9 16 10 17 15 18 11 19 13 20 12 21 14 22 21 24
REMARK SMILES IDX 22 25 23 26 24 27 25 29 26 30 27 31 91 32 28 33 90 34 29 35
REMARK SMILES IDX 30 36 31 37 84 38 32 39 89 40 83 41 85 42 33 43 88 44 82 45
REMARK SMILES IDX 81 46 34 48 68 49 47 50 67 51 48 52 51 53 66 54 86 55 49 56
REMARK SMILES IDX 50 57 65 59 87 60 52 61 35 62 36 63 45 64 37 65 38 66 44 67
REMARK SMILES IDX 46 68 39 69 40 70 41 71 42 72 43 73 69 74 70 75 79 76 71 77
REMARK SMILES IDX 72 78 78 79 80 80 73 81 74 82 75 83 76 84 77 85 53 86 54 87
REMARK SMILES IDX 63 88 55 89 56 90 62 91 64 92 57 93 58 94 59 95 60 96 61 97
REMARK H PARENT 18 6 14 23 23 28 85 47 51 58
REMARK Flexibility Score: inf
ROOT
ATOM      1  C   UNL A   1      33.448  27.550  24.767  1.00  0.00     0.023 C 
ENDROOT
BRANCH   1   2
ATOM      2  C   UNL A   1      32.677  26.389  24.154  1.00  0.00     0.116 C 
BRANCH   2   3
ATOM      3  N   UNL A   1      33.439  25.622  23.193  1.00  0.00    -0.356 N 
ATOM      4  C   UNL A   1      33.742  24.297  23.127  1.00  0.00     0.226 C 
ATOM      5  O   UNL A   1      34.086  23.894  22.009  1.00  0.00    -0.274 OA
ATOM      6  H   UNL A   1      33.805  26.154  22.450  1.00  0.00     0.163 HD
BRANCH   4   7
ATOM      7  C   UNL A   1      33.648  23.309  24.325  1.00  0.00     0.053 C 
ATOM      8  C   UNL A   1      36.229  22.863  24.311  1.00  0.00    -0.010 C 
ATOM      9  C   UNL A   1      36.368  23.635  25.630  1.00  0.00     0.003 C 
ATOM     10  C   UNL A   1      34.814  22.264  24.167  1.00  0.00     0.020 C 
ATOM     11  C   UNL A   1      35.226  24.621  25.848  1.00  0.00     0.001 C 
ATOM     12  C   UNL A   1      33.864  23.937  25.721  1.00  0.00     0.017 C 
BRANCH   8  13
ATOM     13  C   UNL A   1      37.285  21.744  24.202  1.00  0.00     0.000 C 
ATOM     14  C   UNL A   1      38.162  21.637  25.442  1.00  0.00     0.004 C 
ENDBRANCH   8  13
BRANCH   7  15
ATOM     15  C   UNL A   1      32.335  22.466  24.226  1.00  0.00     0.052 C 
BRANCH  15  16
ATOM     16  C   UNL A   1      32.428  20.961  24.211  1.00  0.00    -0.043 A 
ATOM     17  C   UNL A   1      32.301  20.255  23.003  1.00  0.00     0.004 A 
ATOM     18  C   UNL A   1      32.629  20.239  25.397  1.00  0.00     0.049 A 
ATOM     19  C   UNL A   1      32.322  18.858  22.990  1.00  0.00     0.004 A 
ATOM     20  C   UNL A   1      32.637  18.846  25.372  1.00  0.00     0.115 A 
ATOM     21  C   UNL A   1      32.477  18.148  24.179  1.00  0.00     0.046 A 
BRANCH  20  22
ATOM     22  O   UNL A   1      32.785  18.192  26.560  1.00  0.00    -0.508 OA
ATOM     23  H   UNL A   1      32.251  17.447  26.754  1.00  0.00     0.293 HD
ENDBRANCH  20  22
ENDBRANCH  15  16
ENDBRANCH   7  15
ENDBRANCH   4   7
ENDBRANCH   2   3
ENDBRANCH   1   2
BRANCH   1  24
ATOM     24  C   UNL A   1      32.711  28.303  25.874  1.00  0.00     0.023 C 
BRANCH  24  25
ATOM     25  C   UNL A   1      33.502  28.568  27.155  1.00  0.00     0.116 C 
BRANCH  25  26
ATOM     26  N   UNL A   1      33.449  29.948  27.620  1.00  0.00    -0.352 N 
ATOM     27  C   UNL A   1      34.462  30.701  28.170  1.00  0.00     0.251 C 
ATOM     28  H   UNL A   1      32.579  30.399  27.530  1.00  0.00     0.163 HD
ATOM     29  O   UNL A   1      34.261  31.855  28.526  1.00  0.00    -0.269 OA
BRANCH  27  30
ATOM     30  C   UNL A   1      35.787  30.074  28.360  1.00  0.00     0.039 A 
ATOM     31  C   UNL A   1      36.706  30.107  27.308  1.00  0.00     0.014 A 
ATOM     32  C   UNL A   1      36.144  29.543  29.602  1.00  0.00     0.014 A 
ATOM     33  C   UNL A   1      38.019  29.686  27.530  1.00  0.00     0.010 A 
ATOM     34  C   UNL A   1      37.466  29.174  29.835  1.00  0.00     0.010 A 
ATOM     35  C   UNL A   1      38.419  29.262  28.809  1.00  0.00    -0.014 A 
BRANCH  35  36
ATOM     36  C   UNL A   1      39.840  28.949  29.107  1.00  0.00     0.031 A 
ATOM     37  C   UNL A   1      40.738  29.998  29.697  1.00  0.00     0.074 A 
ATOM     38  C   UNL A   1      40.342  27.745  28.761  1.00  0.00     0.049 A 
ATOM     39  N   UNL A   1      42.023  29.944  29.935  1.00  0.00    -0.248 NA
ATOM     40  C   UNL A   1      40.114  31.284  30.042  1.00  0.00     0.031 C 
ATOM     41  C   UNL A   1      39.585  26.661  28.130  1.00  0.00     0.029 A 
ATOM     42  N   UNL A   1      41.612  27.239  28.874  1.00  0.00    -0.354 N 
ATOM     43  C   UNL A   1      42.367  31.193  30.438  1.00  0.00     0.074 A 
ATOM     44  C   UNL A   1      41.162  31.995  30.436  1.00  0.00     0.031 C 
ATOM     45  C   UNL A   1      40.401  25.615  27.925  1.00  0.00     0.029 A 
ATOM     46  C   UNL A   1      41.745  25.963  28.378  1.00  0.00     0.049 A 
ATOM     47  H   UNL A   1      42.358  27.741  29.272  1.00  0.00     0.167 HD
ATOM     48  C   UNL A   1      43.572  31.626  30.878  1.00  0.00     0.037 A 
ATOM     49  C   UNL A   1      42.827  25.166  28.291  1.00  0.00     0.037 A 
ATOM     50  C   UNL A   1      44.762  30.817  30.906  1.00  0.00     0.049 A 
ATOM     51  C   UNL A   1      44.150  25.661  28.806  1.00  0.00     0.074 A 
ATOM     52  C   UNL A   1      46.017  31.147  31.390  1.00  0.00     0.029 A 
ATOM     53  N   UNL A   1      44.847  29.516  30.433  1.00  0.00    -0.354 N 
ATOM     54  N   UNL A   1      44.443  26.826  29.333  1.00  0.00    -0.248 NA
ATOM     55  C   UNL A   1      45.287  24.734  28.721  1.00  0.00     0.031 C 
ATOM     56  C   UNL A   1      46.866  30.054  31.186  1.00  0.00     0.029 A 
ATOM     57  C   UNL A   1      46.134  29.032  30.605  1.00  0.00     0.049 A 
ATOM     58  H   UNL A   1      44.102  29.011  30.035  1.00  0.00     0.167 HD
ATOM     59  C   UNL A   1      45.793  26.763  29.663  1.00  0.00     0.074 A 
ATOM     60  C   UNL A   1      46.256  25.444  29.283  1.00  0.00     0.031 C 
ATOM     61  C   UNL A   1      46.576  27.713  30.230  1.00  0.00     0.037 A 
BRANCH  48  62
ATOM     62  C   UNL A   1      43.658  33.041  31.373  1.00  0.00     0.058 A 
ATOM     63  C   UNL A   1      44.019  34.095  30.520  1.00  0.00     0.135 A 
ATOM     64  C   UNL A   1      43.358  33.351  32.710  1.00  0.00     0.135 A 
ATOM     65  F   UNL A   1      44.331  33.849  29.237  1.00  0.00    -0.206 F 
ATOM     66  C   UNL A   1      44.112  35.404  30.980  1.00  0.00     0.059 A 
ATOM     67  C   UNL A   1      43.422  34.657  33.186  1.00  0.00     0.059 A 
ATOM     68  F   UNL A   1      43.009  32.379  33.567  1.00  0.00    -0.206 F 
ATOM     69  C   UNL A   1      43.816  35.674  32.318  1.00  0.00     0.060 A 
BRANCH  69  70
ATOM     70  S   UNL A   1      43.950  37.375  32.906  1.00  0.00     0.124 S 
ATOM     71  O   UNL A   1      45.293  37.379  33.476  1.00  0.00    -0.237 OA
ATOM     72  O   UNL A   1      43.781  38.147  31.679  1.00  0.00    -0.237 OA
ATOM     73  O   UNL A   1      42.858  37.487  33.868  1.00  0.00    -0.744 OA
ENDBRANCH  69  70
ENDBRANCH  48  62
BRANCH  49  74
ATOM     74  C   UNL A   1      42.698  23.803  27.714  1.00  0.00     0.058 A 
ATOM     75  C   UNL A   1      42.800  23.598  26.330  1.00  0.00     0.135 A 
ATOM     76  C   UNL A   1      42.489  22.681  28.530  1.00  0.00     0.135 A 
ATOM     77  F   UNL A   1      42.994  24.642  25.511  1.00  0.00    -0.206 F 
ATOM     78  C   UNL A   1      42.686  22.329  25.773  1.00  0.00     0.059 A 
ATOM     79  C   UNL A   1      42.392  21.400  27.997  1.00  0.00     0.059 A 
ATOM     80  F   UNL A   1      42.402  22.825  29.862  1.00  0.00    -0.206 F 
ATOM     81  C   UNL A   1      42.483  21.235  26.615  1.00  0.00     0.060 A 
BRANCH  81  82
ATOM     82  S   UNL A   1      42.393  19.584  25.889  1.00  0.00     0.124 S 
ATOM     83  O   UNL A   1      41.005  19.533  25.448  1.00  0.00    -0.237 OA
ATOM     84  O   UNL A   1      43.396  19.657  24.831  1.00  0.00    -0.237 OA
ATOM     85  O   UNL A   1      42.736  18.710  27.007  1.00  0.00    -0.744 OA
ENDBRANCH  81  82
ENDBRANCH  49  74
BRANCH  61  86
ATOM     86  C   UNL A   1      48.008  27.353  30.503  1.00  0.00     0.058 A 
ATOM     87  C   UNL A   1      48.396  26.754  31.711  1.00  0.00     0.135 A 
ATOM     88  C   UNL A   1      48.992  27.560  29.524  1.00  0.00     0.135 A 
ATOM     89  F   UNL A   1      47.493  26.542  32.681  1.00  0.00    -0.206 F 
ATOM     90  C   UNL A   1      49.716  26.384  31.945  1.00  0.00     0.059 A 
ATOM     91  C   UNL A   1      50.314  27.180  29.729  1.00  0.00     0.059 A 
ATOM     92  F   UNL A   1      48.669  28.124  28.350  1.00  0.00    -0.206 F 
ATOM     93  C   UNL A   1      50.668  26.601  30.947  1.00  0.00     0.060 A 
BRANCH  93  94
ATOM     94  S   UNL A   1      52.372  26.080  31.242  1.00  0.00     0.124 S 
ATOM     95  O   UNL A   1      52.176  24.766  31.845  1.00  0.00    -0.237 OA
ATOM     96  O   UNL A   1      52.940  26.082  29.897  1.00  0.00    -0.237 OA
ATOM     97  O   UNL A   1      52.891  27.110  32.136  1.00  0.00    -0.744 OA
ENDBRANCH  93  94
ENDBRANCH  61  86
ENDBRANCH  35  36
ENDBRANCH  27  30
ENDBRANCH  25  26
ENDBRANCH  24  25
ENDBRANCH   1  24
TORSDOF 18
ENDMDL
MODEL 2
REMARK VINA RESULT:     -11.6      3.077      9.464
REMARK SMILES CC[C@@H]1CCC[C@@](Cc2cccc(O)c2)(C(=O)NCCCCNC(=O)c2ccc(-c3c4nc(c(-c5c(F)cc(S(=O)(=O)[O-])cc5F)c5ccc([nH]5)c(-c5c(F)cc(S(=O)(=O)[O-])cc5F)c5nc(c(-c6c(F)cc(S(=O)(=O)[O-])cc6F)c6ccc3[nH]6)C=C5)C=C4)cc2)C1
REMARK SMILES IDX 20 1 19 2 18 3 16 4 17 5 7 7 3 8 4 9 92 10 5 11 6 12 2 13
REMARK SMILES IDX 1 14 8 15 9 16 10 17 15 18 11 19 13 20 12 21 14 22 21 24
REMARK SMILES IDX 22 25 23 26 24 27 25 29 26 30 27 31 91 32 28 33 90 34 29 35
REMARK SMILES IDX 30 36 31 37 84 38 32 39 89 40 83 41 85 42 33 43 88 44 82 45
REMARK SMILES IDX 81 46 34 48 68 49 47 50 67 51 48 52 51 53 66 54 86 55 49 56
REMARK SMILES IDX 50 57 65 59 87 60 52 61 35 62 36 63 45 64 37 65 38 66 44 67
REMARK SMILES IDX 46 68 39 69 40 70 41 71 42 72 43 73 69 74 70 75 79 76 71 77
REMARK SMILES IDX 72 78 78 79 80 80 73 81 74 82 75 83 76 84 77 85 53 86 54 87
REMARK SMILES IDX 63 88 55 89 56 90 62 91 64 92 57 93 58 94 59 95 60 96 61 97
REMARK H PARENT 18 6 14 23 23 28 85 47 51 58
REMARK Flexibility Score: inf
ROOT
ATOM      1  C   UNL A   1      34.580  22.496  24.880  1.00  0.00     0.023 C 
ENDROOT
BRANCH   1   2
ATOM      2  C   UNL A   1      33.278  23.161  24.458  1.00  0.00     0.116 C 
BRANCH   2   3
ATOM      3  N   UNL A   1      32.446  23.578  25.566  1.00  0.00    -0.356 N 
ATOM      4  C   UNL A   1      31.608  24.639  25.720  1.00  0.00     0.226 C 
ATOM      5  O   UNL A   1      30.771  24.517  26.623  1.00  0.00    -0.274 OA
ATOM      6  H   UNL A   1      32.494  22.987  26.351  1.00  0.00     0.163 HD
BRANCH   4   7
ATOM      7  C   UNL A   1      31.631  25.919  24.835  1.00  0.00     0.053 C 
ATOM      8  C   UNL A   1      32.166  27.465  26.881  1.00  0.00    -0.010 C 
ATOM      9  C   UNL A   1      33.583  27.692  26.337  1.00  0.00     0.003 C 
ATOM     10  C   UNL A   1      31.183  27.126  25.740  1.00  0.00     0.020 C 
ATOM     11  C   UNL A   1      34.035  26.570  25.411  1.00  0.00     0.001 C 
ATOM     12  C   UNL A   1      33.020  26.325  24.293  1.00  0.00     0.017 C 
BRANCH   8  13
ATOM     13  C   UNL A   1      31.659  28.696  27.659  1.00  0.00     0.000 C 
ATOM     14  C   UNL A   1      32.115  30.012  27.044  1.00  0.00     0.004 C 
ENDBRANCH   8  13
BRANCH   7  15
ATOM     15  C   UNL A   1      30.539  25.822  23.721  1.00  0.00     0.052 C 
BRANCH  15  16
ATOM     16  C   UNL A   1      29.834  27.079  23.274  1.00  0.00    -0.043 A 
ATOM     17  C   UNL A   1      28.474  27.272  23.572  1.00  0.00     0.004 A 
ATOM     18  C   UNL A   1      30.511  28.067  22.546  1.00  0.00     0.049 A 
ATOM     19  C   UNL A   1      27.797  28.402  23.107  1.00  0.00     0.004 A 
ATOM     20  C   UNL A   1      29.823  29.184  22.078  1.00  0.00     0.115 A 
ATOM     21  C   UNL A   1      28.468  29.357  22.346  1.00  0.00     0.046 A 
BRANCH  20  22
ATOM     22  O   UNL A   1      30.518  30.090  21.332  1.00  0.00    -0.508 OA
ATOM     23  H   UNL A   1      31.380  30.349  21.593  1.00  0.00     0.293 HD
ENDBRANCH  20  22
ENDBRANCH  15  16
ENDBRANCH   7  15
ENDBRANCH   4   7
ENDBRANCH   2   3
ENDBRANCH   1   2
BRANCH   1  24
ATOM     24  C   UNL A   1      35.846  23.127  24.302  1.00  0.00     0.023 C 
BRANCH  24  25
ATOM     25  C   UNL A   1      36.879  23.623  25.314  1.00  0.00     0.116 C 
BRANCH  25  26
ATOM     26  N   UNL A   1      38.028  22.744  25.481  1.00  0.00    -0.352 N 
ATOM     27  C   UNL A   1      39.198  22.991  26.164  1.00  0.00     0.251 C 
ATOM     28  H   UNL A   1      37.960  21.861  25.051  1.00  0.00     0.163 HD
ATOM     29  O   UNL A   1      40.087  22.149  26.207  1.00  0.00    -0.269 OA
BRANCH  27  30
ATOM     30  C   UNL A   1      39.377  24.308  26.807  1.00  0.00     0.039 A 
ATOM     31  C   UNL A   1      38.893  24.497  28.104  1.00  0.00     0.014 A 
ATOM     32  C   UNL A   1      40.101  25.316  26.163  1.00  0.00     0.014 A 
ATOM     33  C   UNL A   1      39.214  25.669  28.793  1.00  0.00     0.010 A 
ATOM     34  C   UNL A   1      40.463  26.459  26.871  1.00  0.00     0.010 A 
ATOM     35  C   UNL A   1      40.040  26.636  28.198  1.00  0.00    -0.014 A 
BRANCH  35  36
ATOM     36  C   UNL A   1      40.515  27.819  28.960  1.00  0.00     0.031 A 
ATOM     37  C   UNL A   1      41.860  27.800  29.628  1.00  0.00     0.074 A 
ATOM     38  C   UNL A   1      39.693  28.876  29.125  1.00  0.00     0.049 A 
ATOM     39  N   UNL A   1      42.403  28.693  30.413  1.00  0.00    -0.248 NA
ATOM     40  C   UNL A   1      42.693  26.609  29.401  1.00  0.00     0.031 C 
ATOM     41  C   UNL A   1      38.341  28.992  28.573  1.00  0.00     0.029 A 
ATOM     42  N   UNL A   1      39.868  30.046  29.820  1.00  0.00    -0.354 N 
ATOM     43  C   UNL A   1      43.632  28.166  30.792  1.00  0.00     0.074 A 
ATOM     44  C   UNL A   1      43.737  26.858  30.180  1.00  0.00     0.031 C 
ATOM     45  C   UNL A   1      37.815  30.172  28.940  1.00  0.00     0.029 A 
ATOM     46  C   UNL A   1      38.777  30.883  29.777  1.00  0.00     0.049 A 
ATOM     47  H   UNL A   1      40.696  30.266  30.304  1.00  0.00     0.167 HD
ATOM     48  C   UNL A   1      44.592  28.727  31.565  1.00  0.00     0.037 A 
ATOM     49  C   UNL A   1      38.571  32.083  30.354  1.00  0.00     0.037 A 
ATOM     50  C   UNL A   1      44.498  30.039  32.149  1.00  0.00     0.049 A 
ATOM     51  C   UNL A   1      39.660  32.696  31.190  1.00  0.00     0.074 A 
ATOM     52  C   UNL A   1      45.443  30.719  32.898  1.00  0.00     0.029 A 
ATOM     53  N   UNL A   1      43.393  30.872  32.050  1.00  0.00    -0.354 N 
ATOM     54  N   UNL A   1      40.840  32.206  31.490  1.00  0.00    -0.248 NA
ATOM     55  C   UNL A   1      39.395  34.022  31.762  1.00  0.00     0.031 C 
ATOM     56  C   UNL A   1      44.900  31.953  33.272  1.00  0.00     0.029 A 
ATOM     57  C   UNL A   1      43.630  32.056  32.730  1.00  0.00     0.049 A 
ATOM     58  H   UNL A   1      42.564  30.655  31.565  1.00  0.00     0.167 HD
ATOM     59  C   UNL A   1      41.466  33.176  32.265  1.00  0.00     0.074 A 
ATOM     60  C   UNL A   1      40.538  34.282  32.383  1.00  0.00     0.031 C 
ATOM     61  C   UNL A   1      42.699  33.150  32.828  1.00  0.00     0.037 A 
BRANCH  48  62
ATOM     62  C   UNL A   1      45.834  27.921  31.816  1.00  0.00     0.058 A 
ATOM     63  C   UNL A   1      46.987  28.092  31.034  1.00  0.00     0.135 A 
ATOM     64  C   UNL A   1      45.880  26.982  32.859  1.00  0.00     0.135 A 
ATOM     65  F   UNL A   1      46.989  28.965  30.015  1.00  0.00    -0.206 F 
ATOM     66  C   UNL A   1      48.134  27.337  31.256  1.00  0.00     0.059 A 
ATOM     67  C   UNL A   1      47.025  26.232  33.114  1.00  0.00     0.059 A 
ATOM     68  F   UNL A   1      44.804  26.780  33.635  1.00  0.00    -0.206 F 
ATOM     69  C   UNL A   1      48.140  26.404  32.296  1.00  0.00     0.060 A 
BRANCH  69  70
ATOM     70  S   UNL A   1      49.631  25.423  32.567  1.00  0.00     0.124 S 
ATOM     71  O   UNL A   1      49.922  24.959  31.215  1.00  0.00    -0.237 OA
ATOM     72  O   UNL A   1      50.561  26.408  33.111  1.00  0.00    -0.237 OA
ATOM     73  O   UNL A   1      49.193  24.395  33.506  1.00  0.00    -0.744 OA
ENDBRANCH  69  70
ENDBRANCH  48  62
BRANCH  49  74
ATOM     74  C   UNL A   1      37.287  32.798  30.138  1.00  0.00     0.058 A 
ATOM     75  C   UNL A   1      37.146  33.715  29.086  1.00  0.00     0.135 A 
ATOM     76  C   UNL A   1      36.175  32.568  30.962  1.00  0.00     0.135 A 
ATOM     77  F   UNL A   1      38.184  33.971  28.277  1.00  0.00    -0.206 F 
ATOM     78  C   UNL A   1      35.951  34.391  28.866  1.00  0.00     0.059 A 
ATOM     79  C   UNL A   1      34.963  33.217  30.749  1.00  0.00     0.059 A 
ATOM     80  F   UNL A   1      36.256  31.686  31.970  1.00  0.00    -0.206 F 
ATOM     81  C   UNL A   1      34.864  34.134  29.702  1.00  0.00     0.060 A 
BRANCH  81  82
ATOM     82  S   UNL A   1      33.298  34.973  29.374  1.00  0.00     0.124 S 
ATOM     83  O   UNL A   1      32.674  34.954  30.691  1.00  0.00    -0.237 OA
ATOM     84  O   UNL A   1      33.742  36.279  28.896  1.00  0.00    -0.237 OA
ATOM     85  O   UNL A   1      32.673  34.125  28.363  1.00  0.00    -0.744 OA
ENDBRANCH  81  82
ENDBRANCH  49  74
BRANCH  61  86
ATOM     86  C   UNL A   1      43.130  34.367  33.598  1.00  0.00     0.058 A 
ATOM     87  C   UNL A   1      42.794  34.537  34.950  1.00  0.00     0.135 A 
ATOM     88  C   UNL A   1      43.933  35.344  32.990  1.00  0.00     0.135 A 
ATOM     89  F   UNL A   1      42.022  33.633  35.573  1.00  0.00    -0.206 F 
ATOM     90  C   UNL A   1      43.230  35.644  35.670  1.00  0.00     0.059 A 
ATOM     91  C   UNL A   1      44.397  36.449  33.697  1.00  0.00     0.059 A 
ATOM     92  F   UNL A   1      44.287  35.222  31.701  1.00  0.00    -0.206 F 
ATOM     93  C   UNL A   1      44.031  36.595  35.034  1.00  0.00     0.060 A 
BRANCH  93  94
ATOM     94  S   UNL A   1      44.627  38.008  35.988  1.00  0.00     0.124 S 
ATOM     95  O   UNL A   1      44.158  37.674  37.329  1.00  0.00    -0.237 OA
ATOM     96  O   UNL A   1      46.071  37.939  35.786  1.00  0.00    -0.237 OA
ATOM     97  O   UNL A   1      43.966  39.145  35.357  1.00  0.00    -0.744 OA
ENDBRANCH  93  94
ENDBRANCH  61  86
ENDBRANCH  35  36
ENDBRANCH  27  30
ENDBRANCH  25  26
ENDBRANCH  24  25
ENDBRANCH   1  24
TORSDOF 18
ENDMDL
MODEL 3
REMARK VINA RESULT:     -11.5      3.136      4.746
REMARK SMILES CC[C@@H]1CCC[C@@](Cc2cccc(O)c2)(C(=O)NCCCCNC(=O)c2ccc(-c3c4nc(c(-c5c(F)cc(S(=O)(=O)[O-])cc5F)c5ccc([nH]5)c(-c5c(F)cc(S(=O)(=O)[O-])cc5F)c5nc(c(-c6c(F)cc(S(=O)(=O)[O-])cc6F)c6ccc3[nH]6)C=C5)C=C4)cc2)C1
REMARK SMILES IDX 20 1 19 2 18 3 16 4 17 5 7 7 3 8 4 9 92 10 5 11 6 12 2 13
REMARK SMILES IDX 1 14 8 15 9 16 10 17 15 18 11 19 13 20 12 21 14 22 21 24
REMARK SMILES IDX 22 25 23 26 24 27 25 29 26 30 27 31 91 32 28 33 90 34 29 35
REMARK SMILES IDX 30 36 31 37 84 38 32 39 89 40 83 41 85 42 33 43 88 44 82 45
REMARK SMILES IDX 81 46 34 48 68 49 47 50 67 51 48 52 51 53 66 54 86 55 49 56
REMARK SMILES IDX 50 57 65 59 87 60 52 61 35 62 36 63 45 64 37 65 38 66 44 67
REMARK SMILES IDX 46 68 39 69 40 70 41 71 42 72 43 73 69 74 70 75 79 76 71 77
REMARK SMILES IDX 72 78 78 79 80 80 73 81 74 82 75 83 76 84 77 85 53 86 54 87
REMARK SMILES IDX 63 88 55 89 56 90 62 91 64 92 57 93 58 94 59 95 60 96 61 97
REMARK H PARENT 18 6 14 23 23 28 85 47 51 58
REMARK Flexibility Score: inf
ROOT
ATOM      1  C   UNL A   1      32.887  30.320  27.171  1.00  0.00     0.023 C 
ENDROOT
BRANCH   1   2
ATOM      2  C   UNL A   1      32.346  30.146  25.758  1.00  0.00     0.116 C 
BRANCH   2   3
ATOM      3  N   UNL A   1      33.310  29.604  24.825  1.00  0.00    -0.356 N 
ATOM      4  C   UNL A   1      33.193  28.670  23.842  1.00  0.00     0.226 C 
ATOM      5  O   UNL A   1      34.088  28.695  22.988  1.00  0.00    -0.274 OA
ATOM      6  H   UNL A   1      34.215  29.980  24.916  1.00  0.00     0.163 HD
BRANCH   4   7
ATOM      7  C   UNL A   1      32.027  27.646  23.731  1.00  0.00     0.053 C 
ATOM      8  C   UNL A   1      33.575  25.637  24.386  1.00  0.00    -0.010 C 
ATOM      9  C   UNL A   1      32.854  25.524  25.737  1.00  0.00     0.003 C 
ATOM     10  C   UNL A   1      32.652  26.262  23.318  1.00  0.00     0.020 C 
ATOM     11  C   UNL A   1      32.187  26.831  26.149  1.00  0.00     0.001 C 
ATOM     12  C   UNL A   1      31.268  27.361  25.047  1.00  0.00     0.017 C 
BRANCH   8  13
ATOM     13  C   UNL A   1      34.077  24.261  23.903  1.00  0.00     0.000 C 
ATOM     14  C   UNL A   1      35.484  23.941  24.389  1.00  0.00     0.004 C 
ENDBRANCH   8  13
BRANCH   7  15
ATOM     15  C   UNL A   1      31.083  28.032  22.547  1.00  0.00     0.052 C 
BRANCH  15  16
ATOM     16  C   UNL A   1      29.866  28.880  22.824  1.00  0.00    -0.043 A 
ATOM     17  C   UNL A   1      30.009  30.241  23.142  1.00  0.00     0.004 A 
ATOM     18  C   UNL A   1      28.578  28.328  22.786  1.00  0.00     0.049 A 
ATOM     19  C   UNL A   1      28.893  31.018  23.463  1.00  0.00     0.004 A 
ATOM     20  C   UNL A   1      27.474  29.110  23.118  1.00  0.00     0.115 A 
ATOM     21  C   UNL A   1      27.620  30.449  23.465  1.00  0.00     0.046 A 
BRANCH  20  22
ATOM     22  O   UNL A   1      26.248  28.511  23.113  1.00  0.00    -0.508 OA
ATOM     23  H   UNL A   1      25.981  27.998  22.376  1.00  0.00     0.293 HD
ENDBRANCH  20  22
ENDBRANCH  15  16
ENDBRANCH   7  15
ENDBRANCH   4   7
ENDBRANCH   2   3
ENDBRANCH   1   2
BRANCH   1  24
ATOM     24  C   UNL A   1      34.378  30.643  27.258  1.00  0.00     0.023 C 
BRANCH  24  25
ATOM     25  C   UNL A   1      35.141  30.011  28.422  1.00  0.00     0.116 C 
BRANCH  25  26
ATOM     26  N   UNL A   1      35.333  30.894  29.565  1.00  0.00    -0.352 N 
ATOM     27  C   UNL A   1      36.490  31.134  30.271  1.00  0.00     0.251 C 
ATOM     28  H   UNL A   1      34.533  31.379  29.873  1.00  0.00     0.163 HD
ATOM     29  O   UNL A   1      36.492  31.902  31.226  1.00  0.00    -0.269 OA
BRANCH  27  30
ATOM     30  C   UNL A   1      37.720  30.415  29.881  1.00  0.00     0.039 A 
ATOM     31  C   UNL A   1      38.065  30.354  28.528  1.00  0.00     0.014 A 
ATOM     32  C   UNL A   1      38.568  29.886  30.857  1.00  0.00     0.014 A 
ATOM     33  C   UNL A   1      39.311  29.842  28.160  1.00  0.00     0.010 A 
ATOM     34  C   UNL A   1      39.830  29.425  30.491  1.00  0.00     0.010 A 
ATOM     35  C   UNL A   1      40.220  29.418  29.143  1.00  0.00    -0.014 A 
BRANCH  35  36
ATOM     36  C   UNL A   1      41.603  29.006  28.789  1.00  0.00     0.031 A 
ATOM     37  C   UNL A   1      42.707  30.023  28.743  1.00  0.00     0.074 A 
ATOM     38  C   UNL A   1      41.842  27.731  28.420  1.00  0.00     0.049 A 
ATOM     39  N   UNL A   1      43.949  29.875  28.362  1.00  0.00    -0.248 NA
ATOM     40  C   UNL A   1      42.362  31.392  29.156  1.00  0.00     0.031 C 
ATOM     41  C   UNL A   1      40.842  26.662  28.369  1.00  0.00     0.029 A 
ATOM     42  N   UNL A   1      42.997  27.123  27.999  1.00  0.00    -0.354 N 
ATOM     43  C   UNL A   1      44.530  31.132  28.470  1.00  0.00     0.074 A 
ATOM     44  C   UNL A   1      43.494  32.039  28.916  1.00  0.00     0.031 C 
ATOM     45  C   UNL A   1      41.429  25.528  27.955  1.00  0.00     0.029 A 
ATOM     46  C   UNL A   1      42.839  25.794  27.681  1.00  0.00     0.049 A 
ATOM     47  H   UNL A   1      43.860  27.592  27.932  1.00  0.00     0.167 HD
ATOM     48  C   UNL A   1      45.814  31.494  28.236  1.00  0.00     0.037 A 
ATOM     49  C   UNL A   1      43.725  24.894  27.213  1.00  0.00     0.037 A 
ATOM     50  C   UNL A   1      46.850  30.585  27.820  1.00  0.00     0.049 A 
ATOM     51  C   UNL A   1      45.150  25.314  26.981  1.00  0.00     0.074 A 
ATOM     52  C   UNL A   1      48.194  30.845  27.616  1.00  0.00     0.029 A 
ATOM     53  N   UNL A   1      46.658  29.239  27.547  1.00  0.00    -0.354 N 
ATOM     54  N   UNL A   1      45.695  26.496  27.145  1.00  0.00    -0.248 NA
ATOM     55  C   UNL A   1      46.081  24.281  26.508  1.00  0.00     0.031 C 
ATOM     56  C   UNL A   1      48.810  29.662  27.195  1.00  0.00     0.029 A 
ATOM     57  C   UNL A   1      47.857  28.657  27.168  1.00  0.00     0.049 A 
ATOM     58  H   UNL A   1      45.797  28.766  27.615  1.00  0.00     0.167 HD
ATOM     59  C   UNL A   1      47.037  26.343  26.817  1.00  0.00     0.074 A 
ATOM     60  C   UNL A   1      47.223  24.952  26.452  1.00  0.00     0.031 C 
ATOM     61  C   UNL A   1      48.026  27.270  26.818  1.00  0.00     0.037 A 
BRANCH  48  62
ATOM     62  C   UNL A   1      46.170  32.940  28.434  1.00  0.00     0.058 A 
ATOM     63  C   UNL A   1      46.104  33.861  27.377  1.00  0.00     0.135 A 
ATOM     64  C   UNL A   1      46.562  33.414  29.696  1.00  0.00     0.135 A 
ATOM     65  F   UNL A   1      45.751  33.455  26.148  1.00  0.00    -0.206 F 
ATOM     66  C   UNL A   1      46.447  35.197  27.555  1.00  0.00     0.059 A 
ATOM     67  C   UNL A   1      46.887  34.752  29.903  1.00  0.00     0.059 A 
ATOM     68  F   UNL A   1      46.642  32.574  30.739  1.00  0.00    -0.206 F 
ATOM     69  C   UNL A   1      46.842  35.632  28.822  1.00  0.00     0.060 A 
BRANCH  69  70
ATOM     70  S   UNL A   1      47.293  37.366  29.039  1.00  0.00     0.124 S 
ATOM     71  O   UNL A   1      48.604  37.406  28.400  1.00  0.00    -0.237 OA
ATOM     72  O   UNL A   1      46.223  38.061  28.330  1.00  0.00    -0.237 OA
ATOM     73  O   UNL A   1      47.294  37.537  30.488  1.00  0.00    -0.744 OA
ENDBRANCH  69  70
ENDBRANCH  48  62
BRANCH  49  74
ATOM     74  C   UNL A   1      43.294  23.495  26.957  1.00  0.00     0.058 A 
ATOM     75  C   UNL A   1      43.073  23.042  25.648  1.00  0.00     0.135 A 
ATOM     76  C   UNL A   1      43.113  22.583  28.006  1.00  0.00     0.135 A 
ATOM     77  F   UNL A   1      43.227  23.881  24.613  1.00  0.00    -0.206 F 
ATOM     78  C   UNL A   1      42.673  21.736  25.388  1.00  0.00     0.059 A 
ATOM     79  C   UNL A   1      42.734  21.265  27.770  1.00  0.00     0.059 A 
ATOM     80  F   UNL A   1      43.330  22.965  29.275  1.00  0.00    -0.206 F 
ATOM     81  C   UNL A   1      42.507  20.854  26.457  1.00  0.00     0.060 A 
BRANCH  81  82
ATOM     82  S   UNL A   1      42.044  19.143  26.108  1.00  0.00     0.124 S 
ATOM     83  O   UNL A   1      42.411  18.480  27.352  1.00  0.00    -0.237 OA
ATOM     84  O   UNL A   1      40.613  19.259  25.843  1.00  0.00    -0.237 OA
ATOM     85  O   UNL A   1      42.862  18.808  24.946  1.00  0.00    -0.744 OA
ENDBRANCH  81  82
ENDBRANCH  49  74
BRANCH  61  86
ATOM     86  C   UNL A   1      49.405  26.808  26.442  1.00  0.00     0.058 A 
ATOM     87  C   UNL A   1      50.254  26.197  27.378  1.00  0.00     0.135 A 
ATOM     88  C   UNL A   1      49.860  26.929  25.120  1.00  0.00     0.135 A 
ATOM     89  F   UNL A   1      49.867  26.065  28.657  1.00  0.00    -0.206 F 
ATOM     90  C   UNL A   1      51.514  25.733  27.017  1.00  0.00     0.059 A 
ATOM     91  C   UNL A   1      51.109  26.454  24.733  1.00  0.00     0.059 A 
ATOM     92  F   UNL A   1      49.081  27.501  24.188  1.00  0.00    -0.206 F 
ATOM     93  C   UNL A   1      51.933  25.866  25.692  1.00  0.00     0.060 A 
BRANCH  93  94
ATOM     94  S   UNL A   1      53.554  25.223  25.222  1.00  0.00     0.124 S 
ATOM     95  O   UNL A   1      53.676  25.710  23.852  1.00  0.00    -0.237 OA
ATOM     96  O   UNL A   1      54.438  25.852  26.199  1.00  0.00    -0.237 OA
ATOM     97  O   UNL A   1      53.399  23.779  25.365  1.00  0.00    -0.744 OA
ENDBRANCH  93  94
ENDBRANCH  61  86
ENDBRANCH  35  36
ENDBRANCH  27  30
ENDBRANCH  25  26
ENDBRANCH  24  25
ENDBRANCH   1  24
TORSDOF 18
ENDMDL
