MODEL 1
REMARK VINA RESULT:     -11.2      0.000      0.000
REMARK SMILES C[C@@H](CC(=O)NCCCCNC(=O)c1ccc(-c2c3nc(c(-c4c(F)cc(S(=O)(=O)[O-])cc4F)c4ccc([nH]4)c(-c4c(F)cc(S(=O)(=O)[O-])cc4F)c4nc(c(-c5c(F)cc(S(=O)(=O)[O-])cc5F)c5ccc2[nH]5)C=C4)C=C3)cc1)CC(=O)N1C[C@H](C)[C@@H](C)C1
REMARK SMILES IDX 8 1 7 2 6 3 4 4 5 5 3 7 2 8 1 9 80 10 81 11 82 12 83 13
REMARK SMILES IDX 84 14 89 15 85 16 87 17 86 18 88 19 9 20 10 21 11 22 12 23
REMARK SMILES IDX 13 25 14 26 15 27 79 28 16 29 78 30 17 31 18 32 19 33 72 34
REMARK SMILES IDX 20 35 77 36 71 37 73 38 21 39 76 40 70 41 69 42 22 44 56 45
REMARK SMILES IDX 35 46 55 47 36 48 39 49 54 50 74 51 37 52 38 53 53 55 75 56
REMARK SMILES IDX 40 57 23 58 24 59 33 60 25 61 26 62 32 63 34 64 27 65 28 66
REMARK SMILES IDX 29 67 30 68 31 69 57 70 58 71 67 72 59 73 60 74 66 75 68 76
REMARK SMILES IDX 61 77 62 78 63 79 64 80 65 81 41 82 42 83 51 84 43 85 44 86
REMARK SMILES IDX 50 87 52 88 45 89 46 90 47 91 48 92 49 93
REMARK H PARENT 6 6 11 24 73 43 39 54
REMARK Flexibility Score: inf
ROOT
ATOM      1  C   UNL A   1      32.875  29.553  24.988  1.00  0.00     0.023 C 
ENDROOT
BRANCH   1   2
ATOM      2  C   UNL A   1      31.352  29.524  25.103  1.00  0.00     0.116 C 
BRANCH   2   3
ATOM      3  N   UNL A   1      30.722  29.454  23.801  1.00  0.00    -0.356 N 
ATOM      4  C   UNL A   1      30.608  28.408  22.937  1.00  0.00     0.220 C 
ATOM      5  O   UNL A   1      30.074  28.606  21.845  1.00  0.00    -0.275 OA
ATOM      6  H   UNL A   1      30.312  30.294  23.492  1.00  0.00     0.163 HD
BRANCH   4   7
ATOM      7  C   UNL A   1      31.118  27.025  23.309  1.00  0.00     0.103 C 
BRANCH   7   8
ATOM      8  C   UNL A   1      30.217  26.134  24.200  1.00  0.00     0.004 C 
ATOM      9  C   UNL A   1      28.749  26.521  24.020  1.00  0.00     0.009 C 
BRANCH   8  10
ATOM     10  C   UNL A   1      30.689  26.039  25.660  1.00  0.00     0.104 C 
BRANCH  10  11
ATOM     11  C   UNL A   1      31.315  24.721  26.092  1.00  0.00     0.222 C 
ATOM     12  O   UNL A   1      31.200  24.282  27.232  1.00  0.00    -0.275 OA
ATOM     13  N   UNL A   1      31.941  24.025  25.067  1.00  0.00    -0.342 N 
ATOM     14  C   UNL A   1      31.604  22.629  24.830  1.00  0.00     0.123 C 
ATOM     15  C   UNL A   1      33.348  24.259  24.782  1.00  0.00     0.123 C 
ATOM     16  C   UNL A   1      32.930  21.915  24.549  1.00  0.00     0.010 C 
ATOM     17  C   UNL A   1      33.830  23.036  24.004  1.00  0.00     0.010 C 
ATOM     18  C   UNL A   1      33.505  21.306  25.828  1.00  0.00     0.010 C 
ATOM     19  C   UNL A   1      33.668  23.226  22.495  1.00  0.00     0.010 C 
ENDBRANCH  10  11
ENDBRANCH   8  10
ENDBRANCH   7   8
ENDBRANCH   4   7
ENDBRANCH   2   3
ENDBRANCH   1   2
BRANCH   1  20
ATOM     20  C   UNL A   1      33.603  28.449  25.750  1.00  0.00     0.023 C 
BRANCH  20  21
ATOM     21  C   UNL A   1      33.535  28.593  27.260  1.00  0.00     0.116 C 
BRANCH  21  22
ATOM     22  N   UNL A   1      33.514  29.982  27.703  1.00  0.00    -0.352 N 
ATOM     23  C   UNL A   1      34.531  30.718  28.271  1.00  0.00     0.251 C 
ATOM     24  H   UNL A   1      32.661  30.457  27.581  1.00  0.00     0.163 HD
ATOM     25  O   UNL A   1      34.321  31.851  28.678  1.00  0.00    -0.269 OA
BRANCH  23  26
ATOM     26  C   UNL A   1      35.863  30.092  28.422  1.00  0.00     0.039 A 
ATOM     27  C   UNL A   1      36.763  30.153  27.356  1.00  0.00     0.014 A 
ATOM     28  C   UNL A   1      36.241  29.524  29.640  1.00  0.00     0.014 A 
ATOM     29  C   UNL A   1      38.078  29.725  27.545  1.00  0.00     0.010 A 
ATOM     30  C   UNL A   1      37.570  29.180  29.852  1.00  0.00     0.010 A 
ATOM     31  C   UNL A   1      38.503  29.282  28.809  1.00  0.00    -0.014 A 
BRANCH  31  32
ATOM     32  C   UNL A   1      39.920  28.926  29.076  1.00  0.00     0.031 A 
ATOM     33  C   UNL A   1      40.858  29.967  29.622  1.00  0.00     0.074 A 
ATOM     34  C   UNL A   1      40.380  27.707  28.733  1.00  0.00     0.049 A 
ATOM     35  N   UNL A   1      42.151  29.902  29.797  1.00  0.00    -0.248 NA
ATOM     36  C   UNL A   1      40.267  31.266  29.984  1.00  0.00     0.031 C 
ATOM     37  C   UNL A   1      39.581  26.633  28.138  1.00  0.00     0.029 A 
ATOM     38  N   UNL A   1      41.640  27.170  28.819  1.00  0.00    -0.354 N 
ATOM     39  C   UNL A   1      42.533  31.156  30.259  1.00  0.00     0.074 A 
ATOM     40  C   UNL A   1      41.342  31.976  30.291  1.00  0.00     0.031 C 
ATOM     41  C   UNL A   1      40.365  25.561  27.931  1.00  0.00     0.029 A 
ATOM     42  C   UNL A   1      41.727  25.883  28.343  1.00  0.00     0.049 A 
ATOM     43  H   UNL A   1      42.410  27.661  29.188  1.00  0.00     0.167 HD
ATOM     44  C   UNL A   1      43.760  31.578  30.644  1.00  0.00     0.037 A 
ATOM     45  C   UNL A   1      42.788  25.059  28.242  1.00  0.00     0.037 A 
ATOM     46  C   UNL A   1      44.930  30.741  30.656  1.00  0.00     0.049 A 
ATOM     47  C   UNL A   1      44.135  25.538  28.709  1.00  0.00     0.074 A 
ATOM     48  C   UNL A   1      46.205  31.050  31.096  1.00  0.00     0.029 A 
ATOM     49  N   UNL A   1      44.966  29.427  30.215  1.00  0.00    -0.354 N 
ATOM     50  N   UNL A   1      44.466  26.710  29.199  1.00  0.00    -0.248 NA
ATOM     51  C   UNL A   1      45.250  24.586  28.617  1.00  0.00     0.031 C 
ATOM     52  C   UNL A   1      47.019  29.931  30.894  1.00  0.00     0.029 A 
ATOM     53  C   UNL A   1      46.243  28.914  30.364  1.00  0.00     0.049 A 
ATOM     54  H   UNL A   1      44.197  28.932  29.850  1.00  0.00     0.167 HD
ATOM     55  C   UNL A   1      45.822  26.626  29.496  1.00  0.00     0.074 A 
ATOM     56  C   UNL A   1      46.247  25.288  29.140  1.00  0.00     0.031 C 
ATOM     57  C   UNL A   1      46.641  27.573  30.017  1.00  0.00     0.037 A 
BRANCH  44  58
ATOM     58  C   UNL A   1      43.892  33.004  31.099  1.00  0.00     0.058 A 
ATOM     59  C   UNL A   1      43.744  33.361  32.449  1.00  0.00     0.135 A 
ATOM     60  C   UNL A   1      44.187  34.023  30.180  1.00  0.00     0.135 A 
ATOM     61  F   UNL A   1      43.443  32.428  33.366  1.00  0.00    -0.206 F 
ATOM     62  C   UNL A   1      43.850  34.682  32.867  1.00  0.00     0.059 A 
ATOM     63  C   UNL A   1      44.325  35.349  30.580  1.00  0.00     0.059 A 
ATOM     64  F   UNL A   1      44.336  33.737  28.877  1.00  0.00    -0.206 F 
ATOM     65  C   UNL A   1      44.138  35.671  31.924  1.00  0.00     0.060 A 
BRANCH  65  66
ATOM     66  S   UNL A   1      44.269  37.383  32.482  1.00  0.00     0.124 S 
ATOM     67  O   UNL A   1      44.140  38.108  31.222  1.00  0.00    -0.237 OA
ATOM     68  O   UNL A   1      43.140  37.502  33.399  1.00  0.00    -0.237 OA
ATOM     69  O   UNL A   1      45.588  37.435  33.106  1.00  0.00    -0.744 OA
ENDBRANCH  65  66
ENDBRANCH  44  58
BRANCH  45  70
ATOM     70  C   UNL A   1      42.614  23.685  27.700  1.00  0.00     0.058 A 
ATOM     71  C   UNL A   1      42.649  23.450  26.318  1.00  0.00     0.135 A 
ATOM     72  C   UNL A   1      42.425  22.583  28.547  1.00  0.00     0.135 A 
ATOM     73  F   UNL A   1      42.823  24.474  25.468  1.00  0.00    -0.206 F 
ATOM     74  C   UNL A   1      42.488  22.172  25.792  1.00  0.00     0.059 A 
ATOM     75  C   UNL A   1      42.283  21.292  28.045  1.00  0.00     0.059 A 
ATOM     76  F   UNL A   1      42.403  22.753  29.879  1.00  0.00    -0.206 F 
ATOM     77  C   UNL A   1      42.307  21.099  26.664  1.00  0.00     0.060 A 
BRANCH  77  78
ATOM     78  S   UNL A   1      42.149  19.437  25.973  1.00  0.00     0.124 S 
ATOM     79  O   UNL A   1      40.712  19.351  25.744  1.00  0.00    -0.237 OA
ATOM     80  O   UNL A   1      42.983  19.521  24.778  1.00  0.00    -0.237 OA
ATOM     81  O   UNL A   1      42.674  18.584  27.035  1.00  0.00    -0.744 OA
ENDBRANCH  77  78
ENDBRANCH  45  70
BRANCH  57  82
ATOM     82  C   UNL A   1      48.071  27.188  30.267  1.00  0.00     0.058 A 
ATOM     83  C   UNL A   1      49.053  27.323  29.276  1.00  0.00     0.135 A 
ATOM     84  C   UNL A   1      48.473  26.743  31.537  1.00  0.00     0.135 A 
ATOM     85  F   UNL A   1      48.717  27.738  28.044  1.00  0.00    -0.206 F 
ATOM     86  C   UNL A   1      50.386  27.017  29.530  1.00  0.00     0.059 A 
ATOM     87  C   UNL A   1      49.802  26.452  31.821  1.00  0.00     0.059 A 
ATOM     88  F   UNL A   1      47.570  26.606  32.522  1.00  0.00    -0.206 F 
ATOM     89  C   UNL A   1      50.751  26.585  30.807  1.00  0.00     0.060 A 
BRANCH  89  90
ATOM     90  S   UNL A   1      52.491  26.239  31.140  1.00  0.00     0.124 S 
ATOM     91  O   UNL A   1      52.851  27.350  32.014  1.00  0.00    -0.237 OA
ATOM     92  O   UNL A   1      52.434  24.926  31.776  1.00  0.00    -0.237 OA
ATOM     93  O   UNL A   1      53.100  26.259  29.814  1.00  0.00    -0.744 OA
ENDBRANCH  89  90
ENDBRANCH  57  82
ENDBRANCH  31  32
ENDBRANCH  23  26
ENDBRANCH  21  22
ENDBRANCH  20  21
ENDBRANCH   1  20
TORSDOF 17
ENDMDL
MODEL 2
REMARK VINA RESULT:     -10.8      1.116      1.907
REMARK SMILES C[C@@H](CC(=O)NCCCCNC(=O)c1ccc(-c2c3nc(c(-c4c(F)cc(S(=O)(=O)[O-])cc4F)c4ccc([nH]4)c(-c4c(F)cc(S(=O)(=O)[O-])cc4F)c4nc(c(-c5c(F)cc(S(=O)(=O)[O-])cc5F)c5ccc2[nH]5)C=C4)C=C3)cc1)CC(=O)N1C[C@H](C)[C@@H](C)C1
REMARK SMILES IDX 8 1 7 2 6 3 4 4 5 5 3 7 2 8 1 9 80 10 81 11 82 12 83 13
REMARK SMILES IDX 84 14 89 15 85 16 87 17 86 18 88 19 9 20 10 21 11 22 12 23
REMARK SMILES IDX 13 25 14 26 15 27 79 28 16 29 78 30 17 31 18 32 19 33 72 34
REMARK SMILES IDX 20 35 77 36 71 37 73 38 21 39 76 40 70 41 69 42 22 44 56 45
REMARK SMILES IDX 35 46 55 47 36 48 39 49 54 50 74 51 37 52 38 53 53 55 75 56
REMARK SMILES IDX 40 57 23 58 24 59 33 60 25 61 26 62 32 63 34 64 27 65 28 66
REMARK SMILES IDX 29 67 30 68 31 69 57 70 58 71 67 72 59 73 60 74 66 75 68 76
REMARK SMILES IDX 61 77 62 78 63 79 64 80 65 81 41 82 42 83 51 84 43 85 44 86
REMARK SMILES IDX 50 87 52 88 45 89 46 90 47 91 48 92 49 93
REMARK H PARENT 6 6 11 24 73 43 39 54
REMARK Flexibility Score: inf
ROOT
ATOM      1  C   UNL A   1      33.410  29.025  24.802  1.00  0.00     0.023 C 
ENDROOT
BRANCH   1   2
ATOM      2  C   UNL A   1      32.680  28.869  23.469  1.00  0.00     0.116 C 
BRANCH   2   3
ATOM      3  N   UNL A   1      33.357  27.929  22.599  1.00  0.00    -0.356 N 
ATOM      4  C   UNL A   1      32.925  26.748  22.077  1.00  0.00     0.220 C 
ATOM      5  O   UNL A   1      33.712  26.083  21.403  1.00  0.00    -0.275 OA
ATOM      6  H   UNL A   1      34.274  28.183  22.346  1.00  0.00     0.163 HD
BRANCH   4   7
ATOM      7  C   UNL A   1      31.503  26.263  22.310  1.00  0.00     0.103 C 
BRANCH   7   8
ATOM      8  C   UNL A   1      31.209  25.475  23.611  1.00  0.00     0.004 C 
ATOM      9  C   UNL A   1      30.072  26.143  24.386  1.00  0.00     0.009 C 
BRANCH   8  10
ATOM     10  C   UNL A   1      32.463  25.161  24.443  1.00  0.00     0.104 C 
BRANCH  10  11
ATOM     11  C   UNL A   1      32.922  23.711  24.465  1.00  0.00     0.222 C 
ATOM     12  O   UNL A   1      32.156  22.775  24.251  1.00  0.00    -0.275 OA
ATOM     13  N   UNL A   1      34.288  23.548  24.655  1.00  0.00    -0.342 N 
ATOM     14  C   UNL A   1      35.053  22.724  23.732  1.00  0.00     0.123 C 
ATOM     15  C   UNL A   1      34.827  23.430  26.000  1.00  0.00     0.123 C 
ATOM     16  C   UNL A   1      36.019  21.905  24.595  1.00  0.00     0.010 C 
ATOM     17  C   UNL A   1      36.198  22.774  25.851  1.00  0.00     0.010 C 
ATOM     18  C   UNL A   1      35.424  20.540  24.936  1.00  0.00     0.010 C 
ATOM     19  C   UNL A   1      37.306  23.814  25.682  1.00  0.00     0.010 C 
ENDBRANCH  10  11
ENDBRANCH   8  10
ENDBRANCH   7   8
ENDBRANCH   4   7
ENDBRANCH   2   3
ENDBRANCH   1   2
BRANCH   1  20
ATOM     20  C   UNL A   1      32.832  28.209  25.955  1.00  0.00     0.023 C 
BRANCH  20  21
ATOM     21  C   UNL A   1      33.450  28.529  27.306  1.00  0.00     0.116 C 
BRANCH  21  22
ATOM     22  N   UNL A   1      33.439  29.952  27.619  1.00  0.00    -0.352 N 
ATOM     23  C   UNL A   1      34.460  30.729  28.121  1.00  0.00     0.251 C 
ATOM     24  H   UNL A   1      32.590  30.421  27.449  1.00  0.00     0.163 HD
ATOM     25  O   UNL A   1      34.258  31.897  28.420  1.00  0.00    -0.269 OA
BRANCH  23  26
ATOM     26  C   UNL A   1      35.785  30.110  28.335  1.00  0.00     0.039 A 
ATOM     27  C   UNL A   1      36.702  30.092  27.281  1.00  0.00     0.014 A 
ATOM     28  C   UNL A   1      36.143  29.626  29.595  1.00  0.00     0.014 A 
ATOM     29  C   UNL A   1      38.011  29.672  27.519  1.00  0.00     0.010 A 
ATOM     30  C   UNL A   1      37.466  29.291  29.850  1.00  0.00     0.010 A 
ATOM     31  C   UNL A   1      38.415  29.316  28.817  1.00  0.00    -0.014 A 
BRANCH  31  32
ATOM     32  C   UNL A   1      39.826  28.973  29.129  1.00  0.00     0.031 A 
ATOM     33  C   UNL A   1      40.732  30.018  29.719  1.00  0.00     0.074 A 
ATOM     34  C   UNL A   1      40.312  27.763  28.790  1.00  0.00     0.049 A 
ATOM     35  N   UNL A   1      42.020  29.965  29.938  1.00  0.00    -0.248 NA
ATOM     36  C   UNL A   1      40.114  31.306  30.074  1.00  0.00     0.031 C 
ATOM     37  C   UNL A   1      39.546  26.687  28.156  1.00  0.00     0.029 A 
ATOM     38  N   UNL A   1      41.574  27.239  28.914  1.00  0.00    -0.354 N 
ATOM     39  C   UNL A   1      42.371  31.219  30.426  1.00  0.00     0.074 A 
ATOM     40  C   UNL A   1      41.170  32.025  30.425  1.00  0.00     0.031 C 
ATOM     41  C   UNL A   1      40.349  25.626  27.966  1.00  0.00     0.029 A 
ATOM     42  C   UNL A   1      41.693  25.958  28.428  1.00  0.00     0.049 A 
ATOM     43  H   UNL A   1      42.325  27.734  29.315  1.00  0.00     0.167 HD
ATOM     44  C   UNL A   1      43.579  31.650  30.858  1.00  0.00     0.037 A 
ATOM     45  C   UNL A   1      42.766  25.147  28.355  1.00  0.00     0.037 A 
ATOM     46  C   UNL A   1      44.757  30.826  30.902  1.00  0.00     0.049 A 
ATOM     47  C   UNL A   1      44.090  25.636  28.874  1.00  0.00     0.074 A 
ATOM     48  C   UNL A   1      46.013  31.145  31.389  1.00  0.00     0.029 A 
ATOM     49  N   UNL A   1      44.823  29.517  30.449  1.00  0.00    -0.354 N 
ATOM     50  N   UNL A   1      44.391  26.806  29.387  1.00  0.00    -0.248 NA
ATOM     51  C   UNL A   1      45.218  24.697  28.810  1.00  0.00     0.031 C 
ATOM     52  C   UNL A   1      46.846  30.037  31.204  1.00  0.00     0.029 A 
ATOM     53  C   UNL A   1      46.101  29.017  30.636  1.00  0.00     0.049 A 
ATOM     54  H   UNL A   1      44.074  29.018  30.052  1.00  0.00     0.167 HD
ATOM     55  C   UNL A   1      45.736  26.734  29.730  1.00  0.00     0.074 A 
ATOM     56  C   UNL A   1      46.188  25.405  29.375  1.00  0.00     0.031 C 
ATOM     57  C   UNL A   1      46.526  27.684  30.289  1.00  0.00     0.037 A 
BRANCH  44  58
ATOM     58  C   UNL A   1      43.678  33.073  31.333  1.00  0.00     0.058 A 
ATOM     59  C   UNL A   1      43.901  34.131  30.438  1.00  0.00     0.135 A 
ATOM     60  C   UNL A   1      43.531  33.384  32.694  1.00  0.00     0.135 A 
ATOM     61  F   UNL A   1      44.066  33.887  29.129  1.00  0.00    -0.206 F 
ATOM     62  C   UNL A   1      44.008  35.445  30.879  1.00  0.00     0.059 A 
ATOM     63  C   UNL A   1      43.608  34.695  33.155  1.00  0.00     0.059 A 
ATOM     64  F   UNL A   1      43.319  32.409  33.592  1.00  0.00    -0.206 F 
ATOM     65  C   UNL A   1      43.863  35.717  32.241  1.00  0.00     0.060 A 
BRANCH  65  66
ATOM     66  S   UNL A   1      44.009  37.427  32.799  1.00  0.00     0.124 S 
ATOM     67  O   UNL A   1      43.841  38.156  31.546  1.00  0.00    -0.237 OA
ATOM     68  O   UNL A   1      42.909  37.543  33.751  1.00  0.00    -0.237 OA
ATOM     69  O   UNL A   1      45.347  37.480  33.382  1.00  0.00    -0.744 OA
ENDBRANCH  65  66
ENDBRANCH  44  58
BRANCH  45  70
ATOM     70  C   UNL A   1      42.626  23.778  27.793  1.00  0.00     0.058 A 
ATOM     71  C   UNL A   1      42.651  23.565  26.407  1.00  0.00     0.135 A 
ATOM     72  C   UNL A   1      42.481  22.657  28.624  1.00  0.00     0.135 A 
ATOM     73  F   UNL A   1      42.784  24.608  25.572  1.00  0.00    -0.206 F 
ATOM     74  C   UNL A   1      42.522  22.292  25.862  1.00  0.00     0.059 A 
ATOM     75  C   UNL A   1      42.372  21.370  28.103  1.00  0.00     0.059 A 
ATOM     76  F   UNL A   1      42.470  22.805  29.959  1.00  0.00    -0.206 F 
ATOM     77  C   UNL A   1      42.384  21.200  26.719  1.00  0.00     0.060 A 
BRANCH  77  78
ATOM     78  S   UNL A   1      42.268  19.546  26.003  1.00  0.00     0.124 S 
ATOM     79  O   UNL A   1      42.712  18.714  27.115  1.00  0.00    -0.237 OA
ATOM     80  O   UNL A   1      40.850  19.457  25.665  1.00  0.00    -0.237 OA
ATOM     81  O   UNL A   1      43.173  19.613  24.859  1.00  0.00    -0.744 OA
ENDBRANCH  77  78
ENDBRANCH  45  70
BRANCH  57  82
ATOM     82  C   UNL A   1      47.950  27.312  30.585  1.00  0.00     0.058 A 
ATOM     83  C   UNL A   1      48.326  26.771  31.823  1.00  0.00     0.135 A 
ATOM     84  C   UNL A   1      48.936  27.436  29.593  1.00  0.00     0.135 A 
ATOM     85  F   UNL A   1      47.421  26.638  32.806  1.00  0.00    -0.206 F 
ATOM     86  C   UNL A   1      49.636  26.377  32.074  1.00  0.00     0.059 A 
ATOM     87  C   UNL A   1      50.247  27.029  29.813  1.00  0.00     0.059 A 
ATOM     88  F   UNL A   1      48.623  27.941  28.389  1.00  0.00    -0.206 F 
ATOM     89  C   UNL A   1      50.589  26.506  31.060  1.00  0.00     0.060 A 
BRANCH  89  90
ATOM     90  S   UNL A   1      52.275  25.945  31.379  1.00  0.00     0.124 S 
ATOM     91  O   UNL A   1      52.851  25.967  30.039  1.00  0.00    -0.237 OA
ATOM     92  O   UNL A   1      52.776  26.962  32.300  1.00  0.00    -0.237 OA
ATOM     93  O   UNL A   1      52.086  24.620  31.962  1.00  0.00    -0.744 OA
ENDBRANCH  89  90
ENDBRANCH  57  82
ENDBRANCH  31  32
ENDBRANCH  23  26
ENDBRANCH  21  22
ENDBRANCH  20  21
ENDBRANCH   1  20
TORSDOF 17
ENDMDL
MODEL 3
REMARK VINA RESULT:     -10.5      3.034      9.428
REMARK SMILES C[C@@H](CC(=O)NCCCCNC(=O)c1ccc(-c2c3nc(c(-c4c(F)cc(S(=O)(=O)[O-])cc4F)c4ccc([nH]4)c(-c4c(F)cc(S(=O)(=O)[O-])cc4F)c4nc(c(-c5c(F)cc(S(=O)(=O)[O-])cc5F)c5ccc2[nH]5)C=C4)C=C3)cc1)CC(=O)N1C[C@H](C)[C@@H](C)C1
REMARK SMILES IDX 8 1 7 2 6 3 4 4 5 5 3 7 2 8 1 9 80 10 81 11 82 12 83 13
REMARK SMILES IDX 84 14 89 15 85 16 87 17 86 18 88 19 9 20 10 21 11 22 12 23
REMARK SMILES IDX 13 25 14 26 15 27 79 28 16 29 78 30 17 31 18 32 19 33 72 34
REMARK SMILES IDX 20 35 77 36 71 37 73 38 21 39 76 40 70 41 69 42 22 44 56 45
REMARK SMILES IDX 35 46 55 47 36 48 39 49 54 50 74 51 37 52 38 53 53 55 75 56
REMARK SMILES IDX 40 57 23 58 24 59 33 60 25 61 26 62 32 63 34 64 27 65 28 66
REMARK SMILES IDX 29 67 30 68 31 69 57 70 58 71 67 72 59 73 60 74 66 75 68 76
REMARK SMILES IDX 61 77 62 78 63 79 64 80 65 81 41 82 42 83 51 84 43 85 44 86
REMARK SMILES IDX 50 87 52 88 45 89 46 90 47 91 48 92 49 93
REMARK H PARENT 6 6 11 24 73 43 39 54
REMARK Flexibility Score: inf
ROOT
ATOM      1  C   UNL A   1      35.045  22.297  25.568  1.00  0.00     0.023 C 
ENDROOT
BRANCH   1   2
ATOM      2  C   UNL A   1      33.526  22.440  25.497  1.00  0.00     0.116 C 
BRANCH   2   3
ATOM      3  N   UNL A   1      32.969  21.659  24.411  1.00  0.00    -0.356 N 
ATOM      4  C   UNL A   1      32.672  22.022  23.132  1.00  0.00     0.220 C 
ATOM      5  O   UNL A   1      32.141  21.189  22.396  1.00  0.00    -0.275 OA
ATOM      6  H   UNL A   1      32.773  20.720  24.632  1.00  0.00     0.163 HD
BRANCH   4   7
ATOM      7  C   UNL A   1      32.995  23.415  22.618  1.00  0.00     0.103 C 
BRANCH   7   8
ATOM      8  C   UNL A   1      32.050  24.575  23.020  1.00  0.00     0.004 C 
ATOM      9  C   UNL A   1      30.628  24.051  23.222  1.00  0.00     0.009 C 
BRANCH   8  10
ATOM     10  C   UNL A   1      32.164  25.810  22.111  1.00  0.00     0.104 C 
BRANCH  10  11
ATOM     11  C   UNL A   1      31.551  27.101  22.632  1.00  0.00     0.222 C 
ATOM     12  O   UNL A   1      30.624  27.666  22.060  1.00  0.00    -0.275 OA
ATOM     13  N   UNL A   1      32.069  27.527  23.847  1.00  0.00    -0.342 N 
ATOM     14  C   UNL A   1      31.168  27.838  24.947  1.00  0.00     0.123 C 
ATOM     15  C   UNL A   1      33.223  28.410  23.878  1.00  0.00     0.123 C 
ATOM     16  C   UNL A   1      31.716  29.113  25.596  1.00  0.00     0.010 C 
ATOM     17  C   UNL A   1      33.214  29.071  25.255  1.00  0.00     0.010 C 
ATOM     18  C   UNL A   1      31.042  30.355  25.015  1.00  0.00     0.010 C 
ATOM     19  C   UNL A   1      34.018  28.264  26.275  1.00  0.00     0.010 C 
ENDBRANCH  10  11
ENDBRANCH   8  10
ENDBRANCH   7   8
ENDBRANCH   4   7
ENDBRANCH   2   3
ENDBRANCH   1   2
BRANCH   1  20
ATOM     20  C   UNL A   1      35.812  23.607  25.728  1.00  0.00     0.023 C 
BRANCH  20  21
ATOM     21  C   UNL A   1      37.061  23.700  24.869  1.00  0.00     0.116 C 
BRANCH  21  22
ATOM     22  N   UNL A   1      38.089  22.737  25.245  1.00  0.00    -0.352 N 
ATOM     23  C   UNL A   1      39.180  22.921  26.065  1.00  0.00     0.251 C 
ATOM     24  H   UNL A   1      37.990  21.835  24.863  1.00  0.00     0.163 HD
ATOM     25  O   UNL A   1      40.007  22.032  26.203  1.00  0.00    -0.269 OA
BRANCH  23  26
ATOM     26  C   UNL A   1      39.356  24.230  26.731  1.00  0.00     0.039 A 
ATOM     27  C   UNL A   1      38.804  24.423  27.999  1.00  0.00     0.014 A 
ATOM     28  C   UNL A   1      40.132  25.226  26.136  1.00  0.00     0.014 A 
ATOM     29  C   UNL A   1      39.109  25.584  28.710  1.00  0.00     0.010 A 
ATOM     30  C   UNL A   1      40.504  26.339  26.877  1.00  0.00     0.010 A 
ATOM     31  C   UNL A   1      40.002  26.528  28.174  1.00  0.00    -0.014 A 
BRANCH  31  32
ATOM     32  C   UNL A   1      40.438  27.717  28.947  1.00  0.00     0.031 A 
ATOM     33  C   UNL A   1      41.760  27.695  29.665  1.00  0.00     0.074 A 
ATOM     34  C   UNL A   1      39.606  28.769  29.085  1.00  0.00     0.049 A 
ATOM     35  N   UNL A   1      42.261  28.569  30.498  1.00  0.00    -0.248 NA
ATOM     36  C   UNL A   1      42.612  26.515  29.445  1.00  0.00     0.031 C 
ATOM     37  C   UNL A   1      38.273  28.881  28.488  1.00  0.00     0.029 A 
ATOM     38  N   UNL A   1      39.751  29.937  29.789  1.00  0.00    -0.354 N 
ATOM     39  C   UNL A   1      43.470  28.031  30.924  1.00  0.00     0.074 A 
ATOM     40  C   UNL A   1      43.603  26.735  30.296  1.00  0.00     0.031 C 
ATOM     41  C   UNL A   1      37.732  30.061  28.834  1.00  0.00     0.029 A 
ATOM     42  C   UNL A   1      38.660  30.772  29.707  1.00  0.00     0.049 A 
ATOM     43  H   UNL A   1      40.560  30.159  30.305  1.00  0.00     0.167 HD
ATOM     44  C   UNL A   1      44.397  28.579  31.745  1.00  0.00     0.037 A 
ATOM     45  C   UNL A   1      38.433  31.971  30.278  1.00  0.00     0.037 A 
ATOM     46  C   UNL A   1      44.279  29.890  32.327  1.00  0.00     0.049 A 
ATOM     47  C   UNL A   1      39.492  32.575  31.159  1.00  0.00     0.074 A 
ATOM     48  C   UNL A   1      45.194  30.567  33.114  1.00  0.00     0.029 A 
ATOM     49  N   UNL A   1      43.183  30.726  32.177  1.00  0.00    -0.354 N 
ATOM     50  N   UNL A   1      40.656  32.078  31.504  1.00  0.00    -0.248 NA
ATOM     51  C   UNL A   1      39.212  33.903  31.722  1.00  0.00     0.031 C 
ATOM     52  C   UNL A   1      44.638  31.802  33.464  1.00  0.00     0.029 A 
ATOM     53  C   UNL A   1      43.394  31.909  32.865  1.00  0.00     0.049 A 
ATOM     54  H   UNL A   1      42.375  30.510  31.659  1.00  0.00     0.167 HD
ATOM     55  C   UNL A   1      41.257  33.043  32.305  1.00  0.00     0.074 A 
ATOM     56  C   UNL A   1      40.333  34.155  32.385  1.00  0.00     0.031 C 
ATOM     57  C   UNL A   1      42.466  33.010  32.919  1.00  0.00     0.037 A 
BRANCH  44  58
ATOM     58  C   UNL A   1      45.624  27.766  32.047  1.00  0.00     0.058 A 
ATOM     59  C   UNL A   1      46.770  27.837  31.240  1.00  0.00     0.135 A 
ATOM     60  C   UNL A   1      45.662  26.920  33.167  1.00  0.00     0.135 A 
ATOM     61  F   UNL A   1      46.780  28.617  30.147  1.00  0.00    -0.206 F 
ATOM     62  C   UNL A   1      47.899  27.073  31.511  1.00  0.00     0.059 A 
ATOM     63  C   UNL A   1      46.791  26.166  33.473  1.00  0.00     0.059 A 
ATOM     64  F   UNL A   1      44.592  26.812  33.971  1.00  0.00    -0.206 F 
ATOM     65  C   UNL A   1      47.898  26.237  32.629  1.00  0.00     0.060 A 
BRANCH  65  66
ATOM     66  S   UNL A   1      49.370  25.247  32.966  1.00  0.00     0.124 S 
ATOM     67  O   UNL A   1      50.207  26.208  33.679  1.00  0.00    -0.237 OA
ATOM     68  O   UNL A   1      48.836  24.153  33.770  1.00  0.00    -0.237 OA
ATOM     69  O   UNL A   1      49.838  24.873  31.635  1.00  0.00    -0.744 OA
ENDBRANCH  65  66
ENDBRANCH  44  58
BRANCH  45  70
ATOM     70  C   UNL A   1      37.160  32.691  30.012  1.00  0.00     0.058 A 
ATOM     71  C   UNL A   1      37.093  33.688  29.028  1.00  0.00     0.135 A 
ATOM     72  C   UNL A   1      35.987  32.391  30.720  1.00  0.00     0.135 A 
ATOM     73  F   UNL A   1      38.191  34.014  28.328  1.00  0.00    -0.206 F 
ATOM     74  C   UNL A   1      35.911  34.374  28.765  1.00  0.00     0.059 A 
ATOM     75  C   UNL A   1      34.788  33.048  30.460  1.00  0.00     0.059 A 
ATOM     76  F   UNL A   1      35.995  31.431  31.659  1.00  0.00    -0.206 F 
ATOM     77  C   UNL A   1      34.763  34.046  29.485  1.00  0.00     0.060 A 
BRANCH  77  78
ATOM     78  S   UNL A   1      33.222  34.907  29.101  1.00  0.00     0.124 S 
ATOM     79  O   UNL A   1      33.718  36.181  28.596  1.00  0.00    -0.237 OA
ATOM     80  O   UNL A   1      32.613  34.020  28.114  1.00  0.00    -0.237 OA
ATOM     81  O   UNL A   1      32.539  34.958  30.391  1.00  0.00    -0.744 OA
ENDBRANCH  77  78
ENDBRANCH  45  70
BRANCH  57  82
ATOM     82  C   UNL A   1      42.876  34.224  33.701  1.00  0.00     0.058 A 
ATOM     83  C   UNL A   1      42.579  34.354  35.065  1.00  0.00     0.135 A 
ATOM     84  C   UNL A   1      43.636  35.236  33.093  1.00  0.00     0.135 A 
ATOM     85  F   UNL A   1      41.850  33.416  35.691  1.00  0.00    -0.206 F 
ATOM     86  C   UNL A   1      43.009  35.455  35.799  1.00  0.00     0.059 A 
ATOM     87  C   UNL A   1      44.096  36.334  33.811  1.00  0.00     0.059 A 
ATOM     88  F   UNL A   1      43.954  35.152  31.791  1.00  0.00    -0.206 F 
ATOM     89  C   UNL A   1      43.771  36.438  35.163  1.00  0.00     0.060 A 
BRANCH  89  90
ATOM     90  S   UNL A   1      44.366  37.837  36.136  1.00  0.00     0.124 S 
ATOM     91  O   UNL A   1      43.951  38.967  35.312  1.00  0.00    -0.237 OA
ATOM     92  O   UNL A   1      43.647  37.673  37.396  1.00  0.00    -0.237 OA
ATOM     93  O   UNL A   1      45.806  37.609  36.211  1.00  0.00    -0.744 OA
ENDBRANCH  89  90
ENDBRANCH  57  82
ENDBRANCH  31  32
ENDBRANCH  23  26
ENDBRANCH  21  22
ENDBRANCH  20  21
ENDBRANCH   1  20
TORSDOF 17
ENDMDL
