MODEL 1
REMARK VINA RESULT:     -11.7      0.000      0.000
REMARK SMILES CC[C@H](C)[C@H](NC(=O)[C@H](C)Oc1ccc2c(C)c(C)c(=O)oc2c1C)C(=O)NCCCCNC(=O)c1ccc(-c2c3nc(c(-c4c(F)cc(S(=O)(=O)[O-])cc4F)c4ccc([nH]4)c(-c4c(F)cc(S(=O)(=O)[O-])cc4F)c4nc(c(-c5c(F)cc(S(=O)(=O)[O-])cc5F)c5ccc2[nH]5)C=C4)C=C3)cc1
REMARK SMILES IDX 30 1 29 2 28 3 26 4 27 5 5 7 3 8 4 9 2 10 1 11 6 12 7 13
REMARK SMILES IDX 8 15 9 16 10 17 11 18 12 19 13 20 24 21 14 22 23 23 25 24
REMARK SMILES IDX 15 25 22 26 16 27 20 28 17 29 18 30 21 31 19 32 31 33 32 34
REMARK SMILES IDX 33 35 34 36 35 38 36 39 37 40 101 41 38 42 100 43 39 44
REMARK SMILES IDX 40 45 41 46 94 47 42 48 99 49 93 50 95 51 43 52 98 53 92 54
REMARK SMILES IDX 91 55 44 57 78 58 57 59 77 60 58 61 61 62 76 63 96 64 59 65
REMARK SMILES IDX 60 66 75 68 97 69 62 70 45 71 46 72 55 73 47 74 48 75 54 76
REMARK SMILES IDX 56 77 49 78 50 79 51 80 52 81 53 82 79 83 80 84 89 85 81 86
REMARK SMILES IDX 82 87 88 88 90 89 83 90 84 91 85 92 86 93 87 94 63 95 64 96
REMARK SMILES IDX 73 97 65 98 66 99 72 100 74 101 67 102 68 103 69 104 70 105
REMARK SMILES IDX 71 106
REMARK H PARENT 28 6 6 14 33 37 95 56 61 67
REMARK Flexibility Score: inf
ROOT
ATOM      1  C   UNL A   1      31.648  27.446  26.476  1.00  0.00     0.023 C 
ENDROOT
BRANCH   1   2
ATOM      2  C   UNL A   1      32.375  26.110  26.517  1.00  0.00     0.116 C 
BRANCH   2   3
ATOM      3  N   UNL A   1      31.558  25.037  27.039  1.00  0.00    -0.354 N 
ATOM      4  C   UNL A   1      31.595  23.697  26.805  1.00  0.00     0.242 C 
ATOM      5  O   UNL A   1      30.900  22.979  27.532  1.00  0.00    -0.273 OA
ATOM      6  H   UNL A   1      30.858  25.324  27.669  1.00  0.00     0.163 HD
BRANCH   4   7
ATOM      7  C   UNL A   1      32.569  23.042  25.792  1.00  0.00     0.174 C 
BRANCH   7   8
ATOM      8  C   UNL A   1      32.402  21.486  25.747  1.00  0.00     0.018 C 
ATOM      9  C   UNL A   1      31.912  21.073  24.353  1.00  0.00     0.010 C 
BRANCH   8  10
ATOM     10  C   UNL A   1      33.650  20.684  26.186  1.00  0.00     0.002 C 
ATOM     11  C   UNL A   1      34.482  20.081  25.062  1.00  0.00     0.004 C 
ENDBRANCH   8  10
ENDBRANCH   7   8
BRANCH   7  12
ATOM     12  N   UNL A   1      33.959  23.485  25.917  1.00  0.00    -0.341 N 
ATOM     13  C   UNL A   1      34.816  24.013  24.996  1.00  0.00     0.261 C 
ATOM     14  H   UNL A   1      34.341  23.384  26.819  1.00  0.00     0.164 HD
ATOM     15  O   UNL A   1      35.884  24.436  25.444  1.00  0.00    -0.271 OA
BRANCH  13  16
ATOM     16  C   UNL A   1      34.478  23.968  23.477  1.00  0.00     0.258 C 
ATOM     17  C   UNL A   1      35.590  23.172  22.783  1.00  0.00     0.064 C 
BRANCH  16  18
ATOM     18  O   UNL A   1      34.189  25.129  22.699  1.00  0.00    -0.480 OA
BRANCH  18  19
ATOM     19  C   UNL A   1      32.935  25.652  22.809  1.00  0.00     0.127 A 
ATOM     20  C   UNL A   1      31.889  24.864  23.283  1.00  0.00     0.047 A 
ATOM     21  C   UNL A   1      32.733  27.012  22.555  1.00  0.00     0.035 A 
ATOM     22  C   UNL A   1      30.609  25.406  23.448  1.00  0.00     0.016 A 
ATOM     23  C   UNL A   1      31.434  27.528  22.726  1.00  0.00     0.145 A 
ATOM     24  C   UNL A   1      33.849  27.920  22.118  1.00  0.00     0.052 C 
ATOM     25  C   UNL A   1      30.358  26.754  23.165  1.00  0.00     0.021 A 
ATOM     26  O   UNL A   1      31.248  28.892  22.427  1.00  0.00    -0.422 OA
ATOM     27  C   UNL A   1      29.031  27.383  23.323  1.00  0.00    -0.030 A 
ATOM     28  C   UNL A   1      30.013  29.509  22.510  1.00  0.00     0.339 A 
ATOM     29  C   UNL A   1      27.906  26.524  23.842  1.00  0.00     0.045 C 
ATOM     30  C   UNL A   1      28.877  28.686  23.006  1.00  0.00     0.038 A 
ATOM     31  O   UNL A   1      29.874  30.685  22.196  1.00  0.00    -0.246 OA
ATOM     32  C   UNL A   1      27.563  29.413  23.119  1.00  0.00     0.052 C 
ENDBRANCH  18  19
ENDBRANCH  16  18
ENDBRANCH  13  16
ENDBRANCH   7  12
ENDBRANCH   4   7
ENDBRANCH   2   3
ENDBRANCH   1   2
BRANCH   1  33
ATOM     33  C   UNL A   1      32.548  28.644  26.185  1.00  0.00     0.023 C 
BRANCH  33  34
ATOM     34  C   UNL A   1      33.674  28.880  27.188  1.00  0.00     0.116 C 
BRANCH  34  35
ATOM     35  N   UNL A   1      33.626  30.185  27.839  1.00  0.00    -0.352 N 
ATOM     36  C   UNL A   1      34.650  30.838  28.488  1.00  0.00     0.251 C 
ATOM     37  H   UNL A   1      32.760  30.654  27.810  1.00  0.00     0.163 HD
ATOM     38  O   UNL A   1      34.482  31.927  29.015  1.00  0.00    -0.269 OA
BRANCH  36  39
ATOM     39  C   UNL A   1      35.949  30.149  28.559  1.00  0.00     0.039 A 
ATOM     40  C   UNL A   1      36.819  30.254  27.473  1.00  0.00     0.014 A 
ATOM     41  C   UNL A   1      36.356  29.575  29.767  1.00  0.00     0.014 A 
ATOM     42  C   UNL A   1      38.142  29.847  27.627  1.00  0.00     0.010 A 
ATOM     43  C   UNL A   1      37.690  29.225  29.933  1.00  0.00     0.010 A 
ATOM     44  C   UNL A   1      38.595  29.372  28.869  1.00  0.00    -0.014 A 
BRANCH  44  45
ATOM     45  C   UNL A   1      40.026  29.048  29.072  1.00  0.00     0.031 A 
ATOM     46  C   UNL A   1      40.951  30.082  29.635  1.00  0.00     0.074 A 
ATOM     47  C   UNL A   1      40.494  27.842  28.699  1.00  0.00     0.049 A 
ATOM     48  N   UNL A   1      42.223  29.980  29.917  1.00  0.00    -0.248 NA
ATOM     49  C   UNL A   1      40.380  31.415  29.893  1.00  0.00     0.031 C 
ATOM     50  C   UNL A   1      39.700  26.784  28.067  1.00  0.00     0.029 A 
ATOM     51  N   UNL A   1      41.751  27.302  28.792  1.00  0.00    -0.354 N 
ATOM     52  C   UNL A   1      42.605  31.230  30.383  1.00  0.00     0.074 A 
ATOM     53  C   UNL A   1      41.448  32.093  30.290  1.00  0.00     0.031 C 
ATOM     54  C   UNL A   1      40.486  25.715  27.853  1.00  0.00     0.029 A 
ATOM     55  C   UNL A   1      41.836  26.014  28.322  1.00  0.00     0.049 A 
ATOM     56  H   UNL A   1      42.521  27.792  29.162  1.00  0.00     0.167 HD
ATOM     57  C   UNL A   1      43.805  31.614  30.875  1.00  0.00     0.037 A 
ATOM     58  C   UNL A   1      42.881  25.164  28.286  1.00  0.00     0.037 A 
ATOM     59  C   UNL A   1      44.940  30.743  30.993  1.00  0.00     0.049 A 
ATOM     60  C   UNL A   1      44.201  25.601  28.860  1.00  0.00     0.074 A 
ATOM     61  C   UNL A   1      46.171  31.005  31.565  1.00  0.00     0.029 A 
ATOM     62  N   UNL A   1      44.984  29.437  30.524  1.00  0.00    -0.354 N 
ATOM     63  N   UNL A   1      44.517  26.752  29.403  1.00  0.00    -0.248 NA
ATOM     64  C   UNL A   1      45.300  24.628  28.828  1.00  0.00     0.031 C 
ATOM     65  C   UNL A   1      46.972  29.869  31.413  1.00  0.00     0.029 A 
ATOM     66  C   UNL A   1      46.230  28.889  30.772  1.00  0.00     0.049 A 
ATOM     67  H   UNL A   1      44.239  28.972  30.080  1.00  0.00     0.167 HD
ATOM     68  C   UNL A   1      45.846  26.637  29.794  1.00  0.00     0.074 A 
ATOM     69  C   UNL A   1      46.274  25.302  29.430  1.00  0.00     0.031 C 
ATOM     70  C   UNL A   1      46.635  27.555  30.403  1.00  0.00     0.037 A 
BRANCH  57  71
ATOM     71  C   UNL A   1      43.930  33.035  31.339  1.00  0.00     0.058 A 
ATOM     72  C   UNL A   1      43.692  33.388  32.677  1.00  0.00     0.135 A 
ATOM     73  C   UNL A   1      44.286  34.053  30.443  1.00  0.00     0.135 A 
ATOM     74  F   UNL A   1      43.331  32.452  33.569  1.00  0.00    -0.206 F 
ATOM     75  C   UNL A   1      43.766  34.709  33.103  1.00  0.00     0.059 A 
ATOM     76  C   UNL A   1      44.387  35.380  30.852  1.00  0.00     0.059 A 
ATOM     77  F   UNL A   1      44.520  33.767  29.153  1.00  0.00    -0.206 F 
ATOM     78  C   UNL A   1      44.106  35.699  32.181  1.00  0.00     0.060 A 
BRANCH  78  79
ATOM     79  S   UNL A   1      44.174  37.413  32.743  1.00  0.00     0.124 S 
ATOM     80  O   UNL A   1      44.015  38.136  31.485  1.00  0.00    -0.237 OA
ATOM     81  O   UNL A   1      43.043  37.488  33.663  1.00  0.00    -0.237 OA
ATOM     82  O   UNL A   1      45.491  37.515  33.363  1.00  0.00    -0.744 OA
ENDBRANCH  78  79
ENDBRANCH  57  71
BRANCH  58  83
ATOM     83  C   UNL A   1      42.695  23.798  27.735  1.00  0.00     0.058 A 
ATOM     84  C   UNL A   1      42.484  22.705  28.586  1.00  0.00     0.135 A 
ATOM     85  C   UNL A   1      42.663  23.568  26.351  1.00  0.00     0.135 A 
ATOM     86  F   UNL A   1      42.508  22.877  29.917  1.00  0.00    -0.206 F 
ATOM     87  C   UNL A   1      42.245  21.428  28.088  1.00  0.00     0.059 A 
ATOM     88  C   UNL A   1      42.412  22.303  25.827  1.00  0.00     0.059 A 
ATOM     89  F   UNL A   1      42.845  24.587  25.497  1.00  0.00    -0.206 F 
ATOM     90  C   UNL A   1      42.205  21.239  26.705  1.00  0.00     0.060 A 
BRANCH  90  91
ATOM     91  S   UNL A   1      41.822  19.592  26.067  1.00  0.00     0.124 S 
ATOM     92  O   UNL A   1      40.396  19.710  25.789  1.00  0.00    -0.237 OA
ATOM     93  O   UNL A   1      42.694  19.507  24.899  1.00  0.00    -0.237 OA
ATOM     94  O   UNL A   1      42.180  18.713  27.175  1.00  0.00    -0.744 OA
ENDBRANCH  90  91
ENDBRANCH  58  83
BRANCH  70  95
ATOM     95  C   UNL A   1      48.048  27.162  30.723  1.00  0.00     0.058 A 
ATOM     96  C   UNL A   1      49.103  27.485  29.858  1.00  0.00     0.135 A 
ATOM     97  C   UNL A   1      48.361  26.577  31.959  1.00  0.00     0.135 A 
ATOM     98  F   UNL A   1      48.851  28.041  28.661  1.00  0.00    -0.206 F 
ATOM     99  C   UNL A   1      50.426  27.253  30.214  1.00  0.00     0.059 A 
ATOM    100  C   UNL A   1      49.679  26.350  32.343  1.00  0.00     0.059 A 
ATOM    101  F   UNL A   1      47.384  26.256  32.822  1.00  0.00    -0.206 F 
ATOM    102  C   UNL A   1      50.705  26.696  31.464  1.00  0.00     0.060 A 
BRANCH 102 103
ATOM    103  S   UNL A   1      52.432  26.491  31.955  1.00  0.00     0.124 S 
ATOM    104  O   UNL A   1      52.328  25.443  32.964  1.00  0.00    -0.237 OA
ATOM    105  O   UNL A   1      53.069  26.103  30.700  1.00  0.00    -0.237 OA
ATOM    106  O   UNL A   1      52.802  27.812  32.454  1.00  0.00    -0.744 OA
ENDBRANCH 102 103
ENDBRANCH  70  95
ENDBRANCH  44  45
ENDBRANCH  36  39
ENDBRANCH  34  35
ENDBRANCH  33  34
ENDBRANCH   1  33
TORSDOF 20
ENDMDL
MODEL 2
REMARK VINA RESULT:     -10.9      3.081      9.408
REMARK SMILES CC[C@H](C)[C@H](NC(=O)[C@H](C)Oc1ccc2c(C)c(C)c(=O)oc2c1C)C(=O)NCCCCNC(=O)c1ccc(-c2c3nc(c(-c4c(F)cc(S(=O)(=O)[O-])cc4F)c4ccc([nH]4)c(-c4c(F)cc(S(=O)(=O)[O-])cc4F)c4nc(c(-c5c(F)cc(S(=O)(=O)[O-])cc5F)c5ccc2[nH]5)C=C4)C=C3)cc1
REMARK SMILES IDX 30 1 29 2 28 3 26 4 27 5 5 7 3 8 4 9 2 10 1 11 6 12 7 13
REMARK SMILES IDX 8 15 9 16 10 17 11 18 12 19 13 20 24 21 14 22 23 23 25 24
REMARK SMILES IDX 15 25 22 26 16 27 20 28 17 29 18 30 21 31 19 32 31 33 32 34
REMARK SMILES IDX 33 35 34 36 35 38 36 39 37 40 101 41 38 42 100 43 39 44
REMARK SMILES IDX 40 45 41 46 94 47 42 48 99 49 93 50 95 51 43 52 98 53 92 54
REMARK SMILES IDX 91 55 44 57 78 58 57 59 77 60 58 61 61 62 76 63 96 64 59 65
REMARK SMILES IDX 60 66 75 68 97 69 62 70 45 71 46 72 55 73 47 74 48 75 54 76
REMARK SMILES IDX 56 77 49 78 50 79 51 80 52 81 53 82 79 83 80 84 89 85 81 86
REMARK SMILES IDX 82 87 88 88 90 89 83 90 84 91 85 92 86 93 87 94 63 95 64 96
REMARK SMILES IDX 73 97 65 98 66 99 72 100 74 101 67 102 68 103 69 104 70 105
REMARK SMILES IDX 71 106
REMARK H PARENT 28 6 6 14 33 37 95 56 61 67
REMARK Flexibility Score: inf
ROOT
ATOM      1  C   UNL A   1      33.961  28.312  27.233  1.00  0.00     0.023 C 
ENDROOT
BRANCH   1   2
ATOM      2  C   UNL A   1      32.455  28.454  27.404  1.00  0.00     0.116 C 
BRANCH   2   3
ATOM      3  N   UNL A   1      31.913  29.606  26.718  1.00  0.00    -0.354 N 
ATOM      4  C   UNL A   1      31.508  29.764  25.429  1.00  0.00     0.242 C 
ATOM      5  O   UNL A   1      30.903  30.806  25.152  1.00  0.00    -0.273 OA
ATOM      6  H   UNL A   1      31.822  30.411  27.279  1.00  0.00     0.163 HD
BRANCH   4   7
ATOM      7  C   UNL A   1      31.634  28.648  24.360  1.00  0.00     0.174 C 
BRANCH   7   8
ATOM      8  C   UNL A   1      32.089  29.217  22.975  1.00  0.00     0.018 C 
ATOM      9  C   UNL A   1      33.414  28.558  22.570  1.00  0.00     0.010 C 
BRANCH   8  10
ATOM     10  C   UNL A   1      31.028  29.127  21.852  1.00  0.00     0.002 C 
ATOM     11  C   UNL A   1      29.764  29.948  22.065  1.00  0.00     0.004 C 
ENDBRANCH   8  10
ENDBRANCH   7   8
BRANCH   7  12
ATOM     12  N   UNL A   1      30.477  27.754  24.280  1.00  0.00    -0.341 N 
ATOM     13  C   UNL A   1      30.402  26.400  24.126  1.00  0.00     0.261 C 
ATOM     14  H   UNL A   1      29.605  28.206  24.350  1.00  0.00     0.164 HD
ATOM     15  O   UNL A   1      29.277  25.911  24.253  1.00  0.00    -0.271 OA
BRANCH  13  16
ATOM     16  C   UNL A   1      31.655  25.576  23.712  1.00  0.00     0.258 C 
ATOM     17  C   UNL A   1      31.650  25.470  22.182  1.00  0.00     0.064 C 
BRANCH  16  18
ATOM     18  O   UNL A   1      31.975  24.297  24.259  1.00  0.00    -0.480 OA
BRANCH  18  19
ATOM     19  C   UNL A   1      33.275  24.079  24.607  1.00  0.00     0.127 A 
ATOM     20  C   UNL A   1      34.015  25.093  25.213  1.00  0.00     0.047 A 
ATOM     21  C   UNL A   1      33.821  22.801  24.459  1.00  0.00     0.035 A 
ATOM     22  C   UNL A   1      35.333  24.862  25.620  1.00  0.00     0.016 A 
ATOM     23  C   UNL A   1      35.152  22.601  24.874  1.00  0.00     0.145 A 
ATOM     24  C   UNL A   1      33.035  21.655  23.885  1.00  0.00     0.052 C 
ATOM     25  C   UNL A   1      35.930  23.606  25.451  1.00  0.00     0.021 A 
ATOM     26  O   UNL A   1      35.691  21.314  24.680  1.00  0.00    -0.422 OA
ATOM     27  C   UNL A   1      37.314  23.304  25.864  1.00  0.00    -0.030 A 
ATOM     28  C   UNL A   1      36.999  21.000  25.003  1.00  0.00     0.339 A 
ATOM     29  C   UNL A   1      38.106  24.404  26.523  1.00  0.00     0.045 C 
ATOM     30  C   UNL A   1      37.813  22.068  25.644  1.00  0.00     0.038 A 
ATOM     31  O   UNL A   1      37.454  19.886  24.776  1.00  0.00    -0.246 OA
ATOM     32  C   UNL A   1      39.216  21.667  26.014  1.00  0.00     0.052 C 
ENDBRANCH  18  19
ENDBRANCH  16  18
ENDBRANCH  13  16
ENDBRANCH   7  12
ENDBRANCH   4   7
ENDBRANCH   2   3
ENDBRANCH   1   2
BRANCH   1  33
ATOM     33  C   UNL A   1      34.676  29.606  26.855  1.00  0.00     0.023 C 
BRANCH  33  34
ATOM     34  C   UNL A   1      35.853  29.992  27.747  1.00  0.00     0.116 C 
BRANCH  34  35
ATOM     35  N   UNL A   1      35.641  29.715  29.163  1.00  0.00    -0.352 N 
ATOM     36  C   UNL A   1      36.599  29.537  30.137  1.00  0.00     0.251 C 
ATOM     37  H   UNL A   1      34.704  29.648  29.458  1.00  0.00     0.163 HD
ATOM     38  O   UNL A   1      36.296  29.288  31.294  1.00  0.00    -0.269 OA
BRANCH  36  39
ATOM     39  C   UNL A   1      38.008  29.616  29.718  1.00  0.00     0.039 A 
ATOM     40  C   UNL A   1      38.998  29.561  30.699  1.00  0.00     0.014 A 
ATOM     41  C   UNL A   1      38.323  29.552  28.357  1.00  0.00     0.014 A 
ATOM     42  C   UNL A   1      40.321  29.360  30.310  1.00  0.00     0.010 A 
ATOM     43  C   UNL A   1      39.635  29.294  27.980  1.00  0.00     0.010 A 
ATOM     44  C   UNL A   1      40.639  29.183  28.954  1.00  0.00    -0.014 A 
BRANCH  44  45
ATOM     45  C   UNL A   1      42.024  28.853  28.546  1.00  0.00     0.031 A 
ATOM     46  C   UNL A   1      42.365  27.456  28.125  1.00  0.00     0.074 A 
ATOM     47  C   UNL A   1      42.979  29.800  28.606  1.00  0.00     0.049 A 
ATOM     48  N   UNL A   1      43.507  26.980  27.703  1.00  0.00    -0.248 NA
ATOM     49  C   UNL A   1      41.289  26.454  28.213  1.00  0.00     0.031 C 
ATOM     50  C   UNL A   1      42.780  31.175  29.076  1.00  0.00     0.029 A 
ATOM     51  N   UNL A   1      44.309  29.753  28.276  1.00  0.00    -0.354 N 
ATOM     52  C   UNL A   1      43.289  25.629  27.477  1.00  0.00     0.074 A 
ATOM     53  C   UNL A   1      41.924  25.345  27.865  1.00  0.00     0.031 C 
ATOM     54  C   UNL A   1      43.941  31.844  28.980  1.00  0.00     0.029 A 
ATOM     55  C   UNL A   1      44.966  30.947  28.453  1.00  0.00     0.049 A 
ATOM     56  H   UNL A   1      44.752  28.939  27.944  1.00  0.00     0.167 HD
ATOM     57  C   UNL A   1      44.141  24.714  26.960  1.00  0.00     0.037 A 
ATOM     58  C   UNL A   1      46.246  31.285  28.204  1.00  0.00     0.037 A 
ATOM     59  C   UNL A   1      45.484  25.011  26.548  1.00  0.00     0.049 A 
ATOM     60  C   UNL A   1      47.172  30.261  27.607  1.00  0.00     0.074 A 
ATOM     61  C   UNL A   1      46.396  24.180  25.925  1.00  0.00     0.029 A 
ATOM     62  N   UNL A   1      46.109  26.237  26.723  1.00  0.00    -0.354 N 
ATOM     63  N   UNL A   1      46.918  29.013  27.291  1.00  0.00    -0.248 NA
ATOM     64  C   UNL A   1      48.548  30.687  27.322  1.00  0.00     0.031 C 
ATOM     65  C   UNL A   1      47.587  24.894  25.753  1.00  0.00     0.029 A 
ATOM     66  C   UNL A   1      47.405  26.179  26.243  1.00  0.00     0.049 A 
ATOM     67  H   UNL A   1      45.692  27.030  27.131  1.00  0.00     0.167 HD
ATOM     68  C   UNL A   1      48.098  28.509  26.755  1.00  0.00     0.074 A 
ATOM     69  C   UNL A   1      49.064  29.588  26.783  1.00  0.00     0.031 C 
ATOM     70  C   UNL A   1      48.351  27.266  26.278  1.00  0.00     0.037 A 
BRANCH  57  71
ATOM     71  C   UNL A   1      43.625  23.315  26.797  1.00  0.00     0.058 A 
ATOM     72  C   UNL A   1      43.442  22.473  27.905  1.00  0.00     0.135 A 
ATOM     73  C   UNL A   1      43.315  22.808  25.526  1.00  0.00     0.135 A 
ATOM     74  F   UNL A   1      43.741  22.906  29.140  1.00  0.00    -0.206 F 
ATOM     75  C   UNL A   1      43.004  21.162  27.755  1.00  0.00     0.059 A 
ATOM     76  C   UNL A   1      42.854  21.506  25.355  1.00  0.00     0.059 A 
ATOM     77  F   UNL A   1      43.477  23.573  24.435  1.00  0.00    -0.206 F 
ATOM     78  C   UNL A   1      42.721  20.685  26.476  1.00  0.00     0.060 A 
BRANCH  78  79
ATOM     79  S   UNL A   1      42.177  18.973  26.294  1.00  0.00     0.124 S 
ATOM     80  O   UNL A   1      40.810  19.154  25.817  1.00  0.00    -0.237 OA
ATOM     81  O   UNL A   1      43.124  18.444  25.319  1.00  0.00    -0.237 OA
ATOM     82  O   UNL A   1      42.303  18.433  27.645  1.00  0.00    -0.744 OA
ENDBRANCH  78  79
ENDBRANCH  57  71
BRANCH  58  83
ATOM     83  C   UNL A   1      46.701  32.673  28.469  1.00  0.00     0.058 A 
ATOM     84  C   UNL A   1      46.600  33.662  27.479  1.00  0.00     0.135 A 
ATOM     85  C   UNL A   1      47.186  33.053  29.729  1.00  0.00     0.135 A 
ATOM     86  F   UNL A   1      46.144  33.343  26.258  1.00  0.00    -0.206 F 
ATOM     87  C   UNL A   1      46.963  34.981  27.729  1.00  0.00     0.059 A 
ATOM     88  C   UNL A   1      47.543  34.370  30.007  1.00  0.00     0.059 A 
ATOM     89  F   UNL A   1      47.286  32.145  30.712  1.00  0.00    -0.206 F 
ATOM     90  C   UNL A   1      47.427  35.326  28.999  1.00  0.00     0.060 A 
BRANCH  90  91
ATOM     91  S   UNL A   1      47.826  37.057  29.334  1.00  0.00     0.124 S 
ATOM     92  O   UNL A   1      48.800  37.342  28.287  1.00  0.00    -0.237 OA
ATOM     93  O   UNL A   1      46.525  37.704  29.187  1.00  0.00    -0.237 OA
ATOM     94  O   UNL A   1      48.352  37.023  30.694  1.00  0.00    -0.744 OA
ENDBRANCH  90  91
ENDBRANCH  58  83
BRANCH  70  95
ATOM     95  C   UNL A   1      49.725  26.988  25.743  1.00  0.00     0.058 A 
ATOM     96  C   UNL A   1      50.034  27.204  24.392  1.00  0.00     0.135 A 
ATOM     97  C   UNL A   1      50.769  26.630  26.611  1.00  0.00     0.135 A 
ATOM     98  F   UNL A   1      49.067  27.542  23.523  1.00  0.00    -0.206 F 
ATOM     99  C   UNL A   1      51.336  27.086  23.921  1.00  0.00     0.059 A 
ATOM    100  C   UNL A   1      52.081  26.522  26.164  1.00  0.00     0.059 A 
ATOM    101  F   UNL A   1      50.522  26.419  27.914  1.00  0.00    -0.206 F 
ATOM    102  C   UNL A   1      52.355  26.756  24.816  1.00  0.00     0.060 A 
BRANCH 102 103
ATOM    103  S   UNL A   1      54.057  26.704  24.211  1.00  0.00     0.124 S 
ATOM    104  O   UNL A   1      54.421  25.317  24.477  1.00  0.00    -0.237 OA
ATOM    105  O   UNL A   1      53.898  27.060  22.804  1.00  0.00    -0.237 OA
ATOM    106  O   UNL A   1      54.739  27.703  25.029  1.00  0.00    -0.744 OA
ENDBRANCH 102 103
ENDBRANCH  70  95
ENDBRANCH  44  45
ENDBRANCH  36  39
ENDBRANCH  34  35
ENDBRANCH  33  34
ENDBRANCH   1  33
TORSDOF 20
ENDMDL
MODEL 3
REMARK VINA RESULT:     -10.8      2.803      5.417
REMARK SMILES CC[C@H](C)[C@H](NC(=O)[C@H](C)Oc1ccc2c(C)c(C)c(=O)oc2c1C)C(=O)NCCCCNC(=O)c1ccc(-c2c3nc(c(-c4c(F)cc(S(=O)(=O)[O-])cc4F)c4ccc([nH]4)c(-c4c(F)cc(S(=O)(=O)[O-])cc4F)c4nc(c(-c5c(F)cc(S(=O)(=O)[O-])cc5F)c5ccc2[nH]5)C=C4)C=C3)cc1
REMARK SMILES IDX 30 1 29 2 28 3 26 4 27 5 5 7 3 8 4 9 2 10 1 11 6 12 7 13
REMARK SMILES IDX 8 15 9 16 10 17 11 18 12 19 13 20 24 21 14 22 23 23 25 24
REMARK SMILES IDX 15 25 22 26 16 27 20 28 17 29 18 30 21 31 19 32 31 33 32 34
REMARK SMILES IDX 33 35 34 36 35 38 36 39 37 40 101 41 38 42 100 43 39 44
REMARK SMILES IDX 40 45 41 46 94 47 42 48 99 49 93 50 95 51 43 52 98 53 92 54
REMARK SMILES IDX 91 55 44 57 78 58 57 59 77 60 58 61 61 62 76 63 96 64 59 65
REMARK SMILES IDX 60 66 75 68 97 69 62 70 45 71 46 72 55 73 47 74 48 75 54 76
REMARK SMILES IDX 56 77 49 78 50 79 51 80 52 81 53 82 79 83 80 84 89 85 81 86
REMARK SMILES IDX 82 87 88 88 90 89 83 90 84 91 85 92 86 93 87 94 63 95 64 96
REMARK SMILES IDX 73 97 65 98 66 99 72 100 74 101 67 102 68 103 69 104 70 105
REMARK SMILES IDX 71 106
REMARK H PARENT 28 6 6 14 33 37 95 56 61 67
REMARK Flexibility Score: inf
ROOT
ATOM      1  C   UNL A   1      34.738  29.351  27.603  1.00  0.00     0.023 C 
ENDROOT
BRANCH   1   2
ATOM      2  C   UNL A   1      33.380  28.803  27.189  1.00  0.00     0.116 C 
BRANCH   2   3
ATOM      3  N   UNL A   1      32.517  29.808  26.608  1.00  0.00    -0.354 N 
ATOM      4  C   UNL A   1      31.756  29.782  25.481  1.00  0.00     0.242 C 
ATOM      5  O   UNL A   1      30.961  30.714  25.316  1.00  0.00    -0.273 OA
ATOM      6  H   UNL A   1      32.474  30.653  27.113  1.00  0.00     0.163 HD
BRANCH   4   7
ATOM      7  C   UNL A   1      31.735  28.580  24.502  1.00  0.00     0.174 C 
BRANCH   7   8
ATOM      8  C   UNL A   1      32.098  29.011  23.042  1.00  0.00     0.018 C 
ATOM      9  C   UNL A   1      33.353  28.252  22.590  1.00  0.00     0.010 C 
BRANCH   8  10
ATOM     10  C   UNL A   1      30.944  28.887  22.019  1.00  0.00     0.002 C 
ATOM     11  C   UNL A   1      29.875  29.969  22.090  1.00  0.00     0.004 C 
ENDBRANCH   8  10
ENDBRANCH   7   8
BRANCH   7  12
ATOM     12  N   UNL A   1      30.532  27.748  24.591  1.00  0.00    -0.341 N 
ATOM     13  C   UNL A   1      30.385  26.408  24.802  1.00  0.00     0.261 C 
ATOM     14  H   UNL A   1      29.686  28.239  24.479  1.00  0.00     0.164 HD
ATOM     15  O   UNL A   1      29.228  26.022  24.983  1.00  0.00    -0.271 OA
BRANCH  13  16
ATOM     16  C   UNL A   1      31.607  25.449  24.707  1.00  0.00     0.258 C 
ATOM     17  C   UNL A   1      31.648  24.900  23.276  1.00  0.00     0.064 C 
BRANCH  16  18
ATOM     18  O   UNL A   1      31.839  24.375  25.619  1.00  0.00    -0.480 OA
BRANCH  18  19
ATOM     19  C   UNL A   1      33.025  23.712  25.505  1.00  0.00     0.127 A 
ATOM     20  C   UNL A   1      34.226  24.391  25.701  1.00  0.00     0.047 A 
ATOM     21  C   UNL A   1      33.022  22.328  25.308  1.00  0.00     0.035 A 
ATOM     22  C   UNL A   1      35.446  23.708  25.637  1.00  0.00     0.016 A 
ATOM     23  C   UNL A   1      34.265  21.670  25.244  1.00  0.00     0.145 A 
ATOM     24  C   UNL A   1      31.749  21.541  25.171  1.00  0.00     0.052 C 
ATOM     25  C   UNL A   1      35.486  22.328  25.400  1.00  0.00     0.021 A 
ATOM     26  O   UNL A   1      34.237  20.281  25.007  1.00  0.00    -0.422 OA
ATOM     27  C   UNL A   1      36.741  21.555  25.326  1.00  0.00    -0.030 A 
ATOM     28  C   UNL A   1      35.388  19.526  24.878  1.00  0.00     0.339 A 
ATOM     29  C   UNL A   1      38.036  22.295  25.544  1.00  0.00     0.045 C 
ATOM     30  C   UNL A   1      36.685  20.229  25.074  1.00  0.00     0.038 A 
ATOM     31  O   UNL A   1      35.332  18.329  24.622  1.00  0.00    -0.246 OA
ATOM     32  C   UNL A   1      37.908  19.357  24.964  1.00  0.00     0.052 C 
ENDBRANCH  18  19
ENDBRANCH  16  18
ENDBRANCH  13  16
ENDBRANCH   7  12
ENDBRANCH   4   7
ENDBRANCH   2   3
ENDBRANCH   1   2
BRANCH   1  33
ATOM     33  C   UNL A   1      34.747  30.845  27.912  1.00  0.00     0.023 C 
BRANCH  33  34
ATOM     34  C   UNL A   1      35.915  31.333  28.766  1.00  0.00     0.116 C 
BRANCH  34  35
ATOM     35  N   UNL A   1      35.742  31.099  30.196  1.00  0.00    -0.352 N 
ATOM     36  C   UNL A   1      36.536  30.337  31.024  1.00  0.00     0.251 C 
ATOM     37  H   UNL A   1      34.968  31.538  30.618  1.00  0.00     0.163 HD
ATOM     38  O   UNL A   1      36.276  30.199  32.210  1.00  0.00    -0.269 OA
BRANCH  36  39
ATOM     39  C   UNL A   1      37.689  29.657  30.412  1.00  0.00     0.039 A 
ATOM     40  C   UNL A   1      37.964  29.894  29.065  1.00  0.00     0.014 A 
ATOM     41  C   UNL A   1      38.581  28.952  31.226  1.00  0.00     0.014 A 
ATOM     42  C   UNL A   1      39.190  29.485  28.545  1.00  0.00     0.010 A 
ATOM     43  C   UNL A   1      39.824  28.598  30.717  1.00  0.00     0.010 A 
ATOM     44  C   UNL A   1      40.142  28.875  29.378  1.00  0.00    -0.014 A 
BRANCH  44  45
ATOM     45  C   UNL A   1      41.489  28.544  28.860  1.00  0.00     0.031 A 
ATOM     46  C   UNL A   1      42.535  29.612  28.765  1.00  0.00     0.074 A 
ATOM     47  C   UNL A   1      41.747  27.294  28.429  1.00  0.00     0.049 A 
ATOM     48  N   UNL A   1      43.777  29.513  28.372  1.00  0.00    -0.248 NA
ATOM     49  C   UNL A   1      42.125  30.977  29.137  1.00  0.00     0.031 C 
ATOM     50  C   UNL A   1      40.782  26.192  28.400  1.00  0.00     0.029 A 
ATOM     51  N   UNL A   1      42.897  26.741  27.928  1.00  0.00    -0.354 N 
ATOM     52  C   UNL A   1      44.297  30.797  28.447  1.00  0.00     0.074 A 
ATOM     53  C   UNL A   1      43.222  31.670  28.865  1.00  0.00     0.031 C 
ATOM     54  C   UNL A   1      41.389  25.089  27.930  1.00  0.00     0.029 A 
ATOM     55  C   UNL A   1      42.779  25.407  27.615  1.00  0.00     0.049 A 
ATOM     56  H   UNL A   1      43.730  27.251  27.803  1.00  0.00     0.167 HD
ATOM     57  C   UNL A   1      45.566  31.206  28.220  1.00  0.00     0.037 A 
ATOM     58  C   UNL A   1      43.692  24.537  27.143  1.00  0.00     0.037 A 
ATOM     59  C   UNL A   1      46.636  30.328  27.836  1.00  0.00     0.049 A 
ATOM     60  C   UNL A   1      45.104  25.004  26.919  1.00  0.00     0.074 A 
ATOM     61  C   UNL A   1      47.976  30.624  27.675  1.00  0.00     0.029 A 
ATOM     62  N   UNL A   1      46.483  28.979  27.548  1.00  0.00    -0.354 N 
ATOM     63  N   UNL A   1      45.610  26.200  27.105  1.00  0.00    -0.248 NA
ATOM     64  C   UNL A   1      46.070  24.009  26.437  1.00  0.00     0.031 C 
ATOM     65  C   UNL A   1      48.630  29.461  27.256  1.00  0.00     0.029 A 
ATOM     66  C   UNL A   1      47.701  28.434  27.185  1.00  0.00     0.049 A 
ATOM     67  H   UNL A   1      45.633  28.485  27.594  1.00  0.00     0.167 HD
ATOM     68  C   UNL A   1      46.957  26.099  26.777  1.00  0.00     0.074 A 
ATOM     69  C   UNL A   1      47.189  24.723  26.387  1.00  0.00     0.031 C 
ATOM     70  C   UNL A   1      47.912  27.059  26.803  1.00  0.00     0.037 A 
BRANCH  57  71
ATOM     71  C   UNL A   1      45.858  32.666  28.406  1.00  0.00     0.058 A 
ATOM     72  C   UNL A   1      45.749  33.572  27.340  1.00  0.00     0.135 A 
ATOM     73  C   UNL A   1      46.255  33.164  29.656  1.00  0.00     0.135 A 
ATOM     74  F   UNL A   1      45.391  33.140  26.120  1.00  0.00    -0.206 F 
ATOM     75  C   UNL A   1      46.058  34.918  27.497  1.00  0.00     0.059 A 
ATOM     76  C   UNL A   1      46.549  34.512  29.842  1.00  0.00     0.059 A 
ATOM     77  F   UNL A   1      46.378  32.338  30.706  1.00  0.00    -0.206 F 
ATOM     78  C   UNL A   1      46.465  35.377  28.750  1.00  0.00     0.060 A 
BRANCH  78  79
ATOM     79  S   UNL A   1      46.888  37.123  28.933  1.00  0.00     0.124 S 
ATOM     80  O   UNL A   1      48.083  37.044  29.767  1.00  0.00    -0.237 OA
ATOM     81  O   UNL A   1      47.106  37.540  27.551  1.00  0.00    -0.237 OA
ATOM     82  O   UNL A   1      45.708  37.691  29.578  1.00  0.00    -0.744 OA
ENDBRANCH  78  79
ENDBRANCH  57  71
BRANCH  58  83
ATOM     83  C   UNL A   1      43.302  23.123  26.908  1.00  0.00     0.058 A 
ATOM     84  C   UNL A   1      43.212  22.612  25.605  1.00  0.00     0.135 A 
ATOM     85  C   UNL A   1      43.072  22.244  27.976  1.00  0.00     0.135 A 
ATOM     86  F   UNL A   1      43.422  23.418  24.553  1.00  0.00    -0.206 F 
ATOM     87  C   UNL A   1      42.910  21.275  25.367  1.00  0.00     0.059 A 
ATOM     88  C   UNL A   1      42.781  20.899  27.764  1.00  0.00     0.059 A 
ATOM     89  F   UNL A   1      43.162  22.685  29.240  1.00  0.00    -0.206 F 
ATOM     90  C   UNL A   1      42.702  20.425  26.455  1.00  0.00     0.060 A 
BRANCH  90  91
ATOM     91  S   UNL A   1      42.381  18.675  26.136  1.00  0.00     0.124 S 
ATOM     92  O   UNL A   1      40.975  18.699  25.754  1.00  0.00    -0.237 OA
ATOM     93  O   UNL A   1      43.328  18.382  25.064  1.00  0.00    -0.237 OA
ATOM     94  O   UNL A   1      42.678  18.041  27.417  1.00  0.00    -0.744 OA
ENDBRANCH  90  91
ENDBRANCH  58  83
BRANCH  70  95
ATOM     95  C   UNL A   1      49.306  26.673  26.402  1.00  0.00     0.058 A 
ATOM     96  C   UNL A   1      49.760  26.864  25.089  1.00  0.00     0.135 A 
ATOM     97  C   UNL A   1      50.228  26.232  27.364  1.00  0.00     0.135 A 
ATOM     98  F   UNL A   1      48.913  27.278  24.133  1.00  0.00    -0.206 F 
ATOM     99  C   UNL A   1      51.089  26.642  24.745  1.00  0.00     0.059 A 
ATOM    100  C   UNL A   1      51.565  26.020  27.045  1.00  0.00     0.059 A 
ATOM    101  F   UNL A   1      49.839  26.042  28.635  1.00  0.00    -0.206 F 
ATOM    102  C   UNL A   1      51.987  26.232  25.733  1.00  0.00     0.060 A 
BRANCH 102 103
ATOM    103  S   UNL A   1      53.729  26.046  25.295  1.00  0.00     0.124 S 
ATOM    104  O   UNL A   1      53.940  27.199  24.428  1.00  0.00    -0.237 OA
ATOM    105  O   UNL A   1      54.386  26.103  26.598  1.00  0.00    -0.237 OA
ATOM    106  O   UNL A   1      53.776  24.744  24.636  1.00  0.00    -0.744 OA
ENDBRANCH 102 103
ENDBRANCH  70  95
ENDBRANCH  44  45
ENDBRANCH  36  39
ENDBRANCH  34  35
ENDBRANCH  33  34
ENDBRANCH   1  33
TORSDOF 20
ENDMDL
