MODEL 1
REMARK VINA RESULT:      -9.8      0.000      0.000
REMARK SMILES C=CC[N@@H+](CC(=O)NCCCCNC(=O)c1ccc(-c2c3nc(c(-c4c(F)cc(S(=O)(=O)[O-])cc4F)c4ccc([nH]4)c(-c4c(F)cc(S(=O)(=O)[O-])cc4F)c4nc(c(-c5c(F)cc(S(=O)(=O)[O-])cc5F)c5ccc2[nH]5)C=C4)C=C3)cc1)Cc1ccc(C(F)(F)F)cc1
REMARK SMILES IDX 10 1 9 2 8 3 6 4 7 5 5 7 4 8 3 10 2 11 1 12 82 13 83 14
REMARK SMILES IDX 84 15 92 16 85 17 91 18 86 19 87 20 88 21 89 22 90 23 11 24
REMARK SMILES IDX 12 25 13 26 14 27 15 29 16 30 17 31 81 32 18 33 80 34 19 35
REMARK SMILES IDX 20 36 21 37 74 38 22 39 79 40 73 41 75 42 23 43 78 44 72 45
REMARK SMILES IDX 71 46 24 48 58 49 37 50 57 51 38 52 41 53 56 54 76 55 39 56
REMARK SMILES IDX 40 57 55 59 77 60 42 61 25 62 26 63 35 64 27 65 28 66 34 67
REMARK SMILES IDX 36 68 29 69 30 70 31 71 32 72 33 73 59 74 60 75 69 76 61 77
REMARK SMILES IDX 62 78 68 79 70 80 63 81 64 82 65 83 66 84 67 85 43 86 44 87
REMARK SMILES IDX 53 88 45 89 46 90 52 91 54 92 47 93 48 94 49 95 50 96 51 97
REMARK H PARENT 8 6 4 9 13 28 75 47 41 58
REMARK Flexibility Score: inf
ROOT
ATOM      1  C   UNL A   1      35.415  22.593  23.914  1.00  0.00     0.023 C 
ENDROOT
BRANCH   1   2
ATOM      2  C   UNL A   1      34.051  22.886  23.280  1.00  0.00     0.116 C 
BRANCH   2   3
ATOM      3  N   UNL A   1      33.899  24.262  22.851  1.00  0.00    -0.351 N 
ATOM      4  C   UNL A   1      33.088  25.259  23.308  1.00  0.00     0.275 C 
ATOM      5  O   UNL A   1      33.384  26.413  22.975  1.00  0.00    -0.269 OA
ATOM      6  H   UNL A   1      34.481  24.522  22.101  1.00  0.00     0.163 HD
BRANCH   4   7
ATOM      7  C   UNL A   1      31.913  25.014  24.267  1.00  0.00     0.364 C 
BRANCH   7   8
ATOM      8  N   UNL A   1      32.015  25.554  25.642  1.00  0.00    -0.320 N 
ATOM      9  H   UNL A   1      32.999  25.802  25.742  1.00  0.00     0.349 HD
BRANCH   8  10
ATOM     10  C   UNL A   1      31.842  24.552  26.672  1.00  0.00     0.291 C 
BRANCH  10  11
ATOM     11  C   UNL A   1      32.623  23.281  26.538  1.00  0.00     0.025 C 
ATOM     12  C   UNL A   1      32.993  22.534  27.589  1.00  0.00     0.010 C 
ENDBRANCH  10  11
ENDBRANCH   8  10
BRANCH   8  13
ATOM     13  C   UNL A   1      31.484  26.902  25.877  1.00  0.00     0.299 C 
BRANCH  13  14
ATOM     14  C   UNL A   1      32.441  28.003  26.278  1.00  0.00     0.006 A 
ATOM     15  C   UNL A   1      33.820  27.793  26.387  1.00  0.00     0.010 A 
ATOM     16  C   UNL A   1      31.941  29.284  26.566  1.00  0.00     0.010 A 
ATOM     17  C   UNL A   1      34.660  28.798  26.880  1.00  0.00     0.013 A 
ATOM     18  C   UNL A   1      32.777  30.293  27.048  1.00  0.00     0.013 A 
ATOM     19  C   UNL A   1      34.143  30.051  27.237  1.00  0.00     0.056 A 
BRANCH  19  20
ATOM     20  C   UNL A   1      35.022  31.092  27.886  1.00  0.00     0.416 C 
ATOM     21  F   UNL A   1      35.181  30.862  29.219  1.00  0.00    -0.166 F 
ATOM     22  F   UNL A   1      36.276  31.133  27.360  1.00  0.00    -0.166 F 
ATOM     23  F   UNL A   1      34.527  32.357  27.780  1.00  0.00    -0.166 F 
ENDBRANCH  19  20
ENDBRANCH  13  14
ENDBRANCH   8  13
ENDBRANCH   7   8
ENDBRANCH   4   7
ENDBRANCH   2   3
ENDBRANCH   1   2
BRANCH   1  24
ATOM     24  C   UNL A   1      36.011  23.707  24.758  1.00  0.00     0.023 C 
BRANCH  24  25
ATOM     25  C   UNL A   1      36.433  23.273  26.147  1.00  0.00     0.116 C 
BRANCH  25  26
ATOM     26  N   UNL A   1      37.578  22.368  26.129  1.00  0.00    -0.352 N 
ATOM     27  C   UNL A   1      38.913  22.636  26.333  1.00  0.00     0.251 C 
ATOM     28  H   UNL A   1      37.363  21.425  25.943  1.00  0.00     0.163 HD
ATOM     29  O   UNL A   1      39.754  21.776  26.110  1.00  0.00    -0.269 OA
BRANCH  27  30
ATOM     30  C   UNL A   1      39.316  23.981  26.795  1.00  0.00     0.039 A 
ATOM     31  C   UNL A   1      39.372  24.251  28.164  1.00  0.00     0.014 A 
ATOM     32  C   UNL A   1      39.691  24.955  25.868  1.00  0.00     0.014 A 
ATOM     33  C   UNL A   1      39.894  25.470  28.602  1.00  0.00     0.010 A 
ATOM     34  C   UNL A   1      40.318  26.111  26.306  1.00  0.00     0.010 A 
ATOM     35  C   UNL A   1      40.417  26.388  27.676  1.00  0.00    -0.014 A 
BRANCH  35  36
ATOM     36  C   UNL A   1      41.047  27.664  28.100  1.00  0.00     0.031 A 
ATOM     37  C   UNL A   1      42.541  27.817  28.000  1.00  0.00     0.074 A 
ATOM     38  C   UNL A   1      40.296  28.633  28.659  1.00  0.00     0.049 A 
ATOM     39  N   UNL A   1      43.307  28.780  28.440  1.00  0.00    -0.248 NA
ATOM     40  C   UNL A   1      43.278  26.714  27.357  1.00  0.00     0.031 C 
ATOM     41  C   UNL A   1      38.847  28.576  28.865  1.00  0.00     0.029 A 
ATOM     42  N   UNL A   1      40.654  29.857  29.169  1.00  0.00    -0.354 N 
ATOM     43  C   UNL A   1      44.608  28.385  28.157  1.00  0.00     0.074 A 
ATOM     44  C   UNL A   1      44.535  27.067  27.568  1.00  0.00     0.031 C 
ATOM     45  C   UNL A   1      38.435  29.725  29.426  1.00  0.00     0.029 A 
ATOM     46  C   UNL A   1      39.593  30.582  29.659  1.00  0.00     0.049 A 
ATOM     47  H   UNL A   1      41.582  30.183  29.183  1.00  0.00     0.167 HD
ATOM     48  C   UNL A   1      45.761  29.072  28.340  1.00  0.00     0.037 A 
ATOM     49  C   UNL A   1      39.562  31.800  30.234  1.00  0.00     0.037 A 
ATOM     50  C   UNL A   1      45.818  30.404  28.878  1.00  0.00     0.049 A 
ATOM     51  C   UNL A   1      40.852  32.555  30.407  1.00  0.00     0.074 A 
ATOM     52  C   UNL A   1      46.923  31.218  29.046  1.00  0.00     0.029 A 
ATOM     53  N   UNL A   1      44.718  31.120  29.327  1.00  0.00    -0.354 N 
ATOM     54  N   UNL A   1      42.071  32.190  30.085  1.00  0.00    -0.248 NA
ATOM     55  C   UNL A   1      40.764  33.888  31.018  1.00  0.00     0.031 C 
ATOM     56  C   UNL A   1      46.494  32.418  29.623  1.00  0.00     0.029 A 
ATOM     57  C   UNL A   1      45.117  32.364  29.781  1.00  0.00     0.049 A 
ATOM     58  H   UNL A   1      43.790  30.791  29.324  1.00  0.00     0.167 HD
ATOM     59  C   UNL A   1      42.891  33.256  30.431  1.00  0.00     0.074 A 
ATOM     60  C   UNL A   1      42.029  34.285  30.978  1.00  0.00     0.031 C 
ATOM     61  C   UNL A   1      44.236  33.376  30.309  1.00  0.00     0.037 A 
BRANCH  48  62
ATOM     62  C   UNL A   1      47.040  28.394  27.934  1.00  0.00     0.058 A 
ATOM     63  C   UNL A   1      47.584  28.560  26.650  1.00  0.00     0.135 A 
ATOM     64  C   UNL A   1      47.731  27.566  28.834  1.00  0.00     0.135 A 
ATOM     65  F   UNL A   1      46.956  29.326  25.742  1.00  0.00    -0.206 F 
ATOM     66  C   UNL A   1      48.741  27.897  26.256  1.00  0.00     0.059 A 
ATOM     67  C   UNL A   1      48.908  26.916  28.471  1.00  0.00     0.059 A 
ATOM     68  F   UNL A   1      47.256  27.371  30.074  1.00  0.00    -0.206 F 
ATOM     69  C   UNL A   1      49.393  27.072  27.174  1.00  0.00     0.060 A 
BRANCH  69  70
ATOM     70  S   UNL A   1      50.885  26.204  26.645  1.00  0.00     0.124 S 
ATOM     71  O   UNL A   1      51.900  27.238  26.824  1.00  0.00    -0.237 OA
ATOM     72  O   UNL A   1      50.948  25.087  27.582  1.00  0.00    -0.237 OA
ATOM     73  O   UNL A   1      50.595  25.842  25.261  1.00  0.00    -0.744 OA
ENDBRANCH  69  70
ENDBRANCH  48  62
BRANCH  49  74
ATOM     74  C   UNL A   1      38.263  32.395  30.648  1.00  0.00     0.058 A 
ATOM     75  C   UNL A   1      37.782  32.218  31.954  1.00  0.00     0.135 A 
ATOM     76  C   UNL A   1      37.491  33.164  29.765  1.00  0.00     0.135 A 
ATOM     77  F   UNL A   1      38.483  31.487  32.834  1.00  0.00    -0.206 F 
ATOM     78  C   UNL A   1      36.575  32.772  32.369  1.00  0.00     0.059 A 
ATOM     79  C   UNL A   1      36.290  33.747  30.163  1.00  0.00     0.059 A 
ATOM     80  F   UNL A   1      37.915  33.376  28.511  1.00  0.00    -0.206 F 
ATOM     81  C   UNL A   1      35.837  33.538  31.465  1.00  0.00     0.060 A 
BRANCH  81  82
ATOM     82  S   UNL A   1      34.299  34.298  32.032  1.00  0.00     0.124 S 
ATOM     83  O   UNL A   1      33.586  34.490  30.774  1.00  0.00    -0.237 OA
ATOM     84  O   UNL A   1      33.760  33.275  32.921  1.00  0.00    -0.237 OA
ATOM     85  O   UNL A   1      34.752  35.518  32.694  1.00  0.00    -0.744 OA
ENDBRANCH  81  82
ENDBRANCH  49  74
BRANCH  61  86
ATOM     86  C   UNL A   1      44.856  34.673  30.743  1.00  0.00     0.058 A 
ATOM     87  C   UNL A   1      44.963  35.763  29.868  1.00  0.00     0.135 A 
ATOM     88  C   UNL A   1      45.282  34.845  32.069  1.00  0.00     0.135 A 
ATOM     89  F   UNL A   1      44.575  35.644  28.588  1.00  0.00    -0.206 F 
ATOM     90  C   UNL A   1      45.486  36.981  30.290  1.00  0.00     0.059 A 
ATOM     91  C   UNL A   1      45.786  36.061  32.519  1.00  0.00     0.059 A 
ATOM     92  F   UNL A   1      45.191  33.834  32.948  1.00  0.00    -0.206 F 
ATOM     93  C   UNL A   1      45.891  37.121  31.619  1.00  0.00     0.060 A 
BRANCH  93  94
ATOM     94  S   UNL A   1      46.522  38.721  32.168  1.00  0.00     0.124 S 
ATOM     95  O   UNL A   1      46.330  38.633  33.612  1.00  0.00    -0.237 OA
ATOM     96  O   UNL A   1      47.906  38.686  31.708  1.00  0.00    -0.237 OA
ATOM     97  O   UNL A   1      45.663  39.678  31.477  1.00  0.00    -0.744 OA
ENDBRANCH  93  94
ENDBRANCH  61  86
ENDBRANCH  35  36
ENDBRANCH  27  30
ENDBRANCH  25  26
ENDBRANCH  24  25
ENDBRANCH   1  24
TORSDOF 20
ENDMDL
MODEL 2
REMARK VINA RESULT:      -9.7      3.598      9.429
REMARK SMILES C=CC[N@@H+](CC(=O)NCCCCNC(=O)c1ccc(-c2c3nc(c(-c4c(F)cc(S(=O)(=O)[O-])cc4F)c4ccc([nH]4)c(-c4c(F)cc(S(=O)(=O)[O-])cc4F)c4nc(c(-c5c(F)cc(S(=O)(=O)[O-])cc5F)c5ccc2[nH]5)C=C4)C=C3)cc1)Cc1ccc(C(F)(F)F)cc1
REMARK SMILES IDX 10 1 9 2 8 3 6 4 7 5 5 7 4 8 3 10 2 11 1 12 82 13 83 14
REMARK SMILES IDX 84 15 92 16 85 17 91 18 86 19 87 20 88 21 89 22 90 23 11 24
REMARK SMILES IDX 12 25 13 26 14 27 15 29 16 30 17 31 81 32 18 33 80 34 19 35
REMARK SMILES IDX 20 36 21 37 74 38 22 39 79 40 73 41 75 42 23 43 78 44 72 45
REMARK SMILES IDX 71 46 24 48 58 49 37 50 57 51 38 52 41 53 56 54 76 55 39 56
REMARK SMILES IDX 40 57 55 59 77 60 42 61 25 62 26 63 35 64 27 65 28 66 34 67
REMARK SMILES IDX 36 68 29 69 30 70 31 71 32 72 33 73 59 74 60 75 69 76 61 77
REMARK SMILES IDX 62 78 68 79 70 80 63 81 64 82 65 83 66 84 67 85 43 86 44 87
REMARK SMILES IDX 53 88 45 89 46 90 52 91 54 92 47 93 48 94 49 95 50 96 51 97
REMARK H PARENT 8 6 4 9 13 28 75 47 41 58
REMARK Flexibility Score: inf
ROOT
ATOM      1  C   UNL A   1      33.759  31.059  27.698  1.00  0.00     0.023 C 
ENDROOT
BRANCH   1   2
ATOM      2  C   UNL A   1      32.653  30.682  26.707  1.00  0.00     0.116 C 
BRANCH   2   3
ATOM      3  N   UNL A   1      31.883  29.524  27.115  1.00  0.00    -0.351 N 
ATOM      4  C   UNL A   1      32.128  28.190  26.971  1.00  0.00     0.275 C 
ATOM      5  O   UNL A   1      31.468  27.423  27.684  1.00  0.00    -0.269 OA
ATOM      6  H   UNL A   1      31.039  29.737  27.575  1.00  0.00     0.163 HD
BRANCH   4   7
ATOM      7  C   UNL A   1      33.223  27.630  26.052  1.00  0.00     0.364 C 
BRANCH   7   8
ATOM      8  N   UNL A   1      32.955  26.355  25.348  1.00  0.00    -0.320 N 
ATOM      9  H   UNL A   1      32.029  26.078  25.674  1.00  0.00     0.349 HD
BRANCH   8  10
ATOM     10  C   UNL A   1      33.782  25.258  25.801  1.00  0.00     0.291 C 
BRANCH  10  11
ATOM     11  C   UNL A   1      33.100  23.961  26.116  1.00  0.00     0.025 C 
ATOM     12  C   UNL A   1      31.958  23.886  26.815  1.00  0.00     0.010 C 
ENDBRANCH  10  11
ENDBRANCH   8  10
BRANCH   8  13
ATOM     13  C   UNL A   1      32.609  26.432  23.923  1.00  0.00     0.299 C 
BRANCH  13  14
ATOM     14  C   UNL A   1      31.358  27.180  23.517  1.00  0.00     0.006 A 
ATOM     15  C   UNL A   1      31.405  28.425  22.879  1.00  0.00     0.010 A 
ATOM     16  C   UNL A   1      30.099  26.623  23.791  1.00  0.00     0.010 A 
ATOM     17  C   UNL A   1      30.231  29.145  22.630  1.00  0.00     0.013 A 
ATOM     18  C   UNL A   1      28.925  27.333  23.534  1.00  0.00     0.013 A 
ATOM     19  C   UNL A   1      28.980  28.616  22.976  1.00  0.00     0.056 A 
BRANCH  19  20
ATOM     20  C   UNL A   1      27.725  29.440  22.825  1.00  0.00     0.416 C 
ATOM     21  F   UNL A   1      27.626  29.991  21.583  1.00  0.00    -0.166 F 
ATOM     22  F   UNL A   1      26.587  28.715  23.005  1.00  0.00    -0.166 F 
ATOM     23  F   UNL A   1      27.653  30.479  23.703  1.00  0.00    -0.166 F 
ENDBRANCH  19  20
ENDBRANCH  13  14
ENDBRANCH   8  13
ENDBRANCH   7   8
ENDBRANCH   4   7
ENDBRANCH   2   3
ENDBRANCH   1   2
BRANCH   1  24
ATOM     24  C   UNL A   1      35.127  30.453  27.432  1.00  0.00     0.023 C 
BRANCH  24  25
ATOM     25  C   UNL A   1      35.705  29.689  28.605  1.00  0.00     0.116 C 
BRANCH  25  26
ATOM     26  N   UNL A   1      35.632  30.438  29.855  1.00  0.00    -0.352 N 
ATOM     27  C   UNL A   1      36.632  30.768  30.742  1.00  0.00     0.251 C 
ATOM     28  H   UNL A   1      34.732  30.754  30.101  1.00  0.00     0.163 HD
ATOM     29  O   UNL A   1      36.353  31.257  31.828  1.00  0.00    -0.269 OA
BRANCH  27  30
ATOM     30  C   UNL A   1      38.037  30.497  30.376  1.00  0.00     0.039 A 
ATOM     31  C   UNL A   1      38.889  29.902  31.308  1.00  0.00     0.014 A 
ATOM     32  C   UNL A   1      38.492  30.785  29.088  1.00  0.00     0.014 A 
ATOM     33  C   UNL A   1      40.171  29.510  30.915  1.00  0.00     0.010 A 
ATOM     34  C   UNL A   1      39.716  30.288  28.668  1.00  0.00     0.010 A 
ATOM     35  C   UNL A   1      40.575  29.656  29.577  1.00  0.00    -0.014 A 
BRANCH  35  36
ATOM     36  C   UNL A   1      41.900  29.189  29.098  1.00  0.00     0.031 A 
ATOM     37  C   UNL A   1      43.035  30.173  28.996  1.00  0.00     0.074 A 
ATOM     38  C   UNL A   1      42.052  27.922  28.667  1.00  0.00     0.049 A 
ATOM     39  N   UNL A   1      44.223  30.015  28.475  1.00  0.00    -0.248 NA
ATOM     40  C   UNL A   1      42.782  31.531  29.509  1.00  0.00     0.031 C 
ATOM     41  C   UNL A   1      41.010  26.893  28.660  1.00  0.00     0.029 A 
ATOM     42  N   UNL A   1      43.147  27.284  28.138  1.00  0.00    -0.354 N 
ATOM     43  C   UNL A   1      44.842  31.255  28.570  1.00  0.00     0.074 A 
ATOM     44  C   UNL A   1      43.878  32.171  29.136  1.00  0.00     0.031 C 
ATOM     45  C   UNL A   1      41.523  25.747  28.184  1.00  0.00     0.029 A 
ATOM     46  C   UNL A   1      42.916  25.968  27.813  1.00  0.00     0.049 A 
ATOM     47  H   UNL A   1      44.016  27.728  28.004  1.00  0.00     0.167 HD
ATOM     48  C   UNL A   1      46.112  31.595  28.245  1.00  0.00     0.037 A 
ATOM     49  C   UNL A   1      43.738  25.047  27.272  1.00  0.00     0.037 A 
ATOM     50  C   UNL A   1      47.080  30.664  27.732  1.00  0.00     0.049 A 
ATOM     51  C   UNL A   1      45.152  25.440  26.941  1.00  0.00     0.074 A 
ATOM     52  C   UNL A   1      48.411  30.884  27.431  1.00  0.00     0.029 A 
ATOM     53  N   UNL A   1      46.818  29.331  27.452  1.00  0.00    -0.354 N 
ATOM     54  N   UNL A   1      45.740  26.605  27.085  1.00  0.00    -0.248 NA
ATOM     55  C   UNL A   1      46.016  24.395  26.375  1.00  0.00     0.031 C 
ATOM     56  C   UNL A   1      48.950  29.688  26.943  1.00  0.00     0.029 A 
ATOM     57  C   UNL A   1      47.962  28.716  26.973  1.00  0.00     0.049 A 
ATOM     58  H   UNL A   1      45.949  28.888  27.575  1.00  0.00     0.167 HD
ATOM     59  C   UNL A   1      47.048  26.427  26.652  1.00  0.00     0.074 A 
ATOM     60  C   UNL A   1      47.169  25.040  26.249  1.00  0.00     0.031 C 
ATOM     61  C   UNL A   1      48.058  27.328  26.592  1.00  0.00     0.037 A 
BRANCH  48  62
ATOM     62  C   UNL A   1      46.520  33.026  28.458  1.00  0.00     0.058 A 
ATOM     63  C   UNL A   1      46.350  33.996  27.456  1.00  0.00     0.135 A 
ATOM     64  C   UNL A   1      47.091  33.437  29.674  1.00  0.00     0.135 A 
ATOM     65  F   UNL A   1      45.827  33.656  26.267  1.00  0.00    -0.206 F 
ATOM     66  C   UNL A   1      46.770  35.310  27.634  1.00  0.00     0.059 A 
ATOM     67  C   UNL A   1      47.491  34.754  29.885  1.00  0.00     0.059 A 
ATOM     68  F   UNL A   1      47.278  32.552  30.665  1.00  0.00    -0.206 F 
ATOM     69  C   UNL A   1      47.345  35.677  28.851  1.00  0.00     0.060 A 
BRANCH  69  70
ATOM     70  S   UNL A   1      47.900  37.382  29.062  1.00  0.00     0.124 S 
ATOM     71  O   UNL A   1      46.628  38.090  29.166  1.00  0.00    -0.237 OA
ATOM     72  O   UNL A   1      48.685  37.307  30.291  1.00  0.00    -0.237 OA
ATOM     73  O   UNL A   1      48.667  37.642  27.848  1.00  0.00    -0.744 OA
ENDBRANCH  69  70
ENDBRANCH  48  62
BRANCH  49  74
ATOM     74  C   UNL A   1      43.257  23.657  27.052  1.00  0.00     0.058 A 
ATOM     75  C   UNL A   1      42.941  23.208  25.761  1.00  0.00     0.135 A 
ATOM     76  C   UNL A   1      43.122  22.748  28.112  1.00  0.00     0.135 A 
ATOM     77  F   UNL A   1      43.050  24.042  24.716  1.00  0.00    -0.206 F 
ATOM     78  C   UNL A   1      42.498  21.910  25.527  1.00  0.00     0.059 A 
ATOM     79  C   UNL A   1      42.701  21.437  27.901  1.00  0.00     0.059 A 
ATOM     80  F   UNL A   1      43.427  23.124  29.363  1.00  0.00    -0.206 F 
ATOM     81  C   UNL A   1      42.383  21.031  26.605  1.00  0.00     0.060 A 
BRANCH  81  82
ATOM     82  S   UNL A   1      41.860  19.332  26.282  1.00  0.00     0.124 S 
ATOM     83  O   UNL A   1      40.416  19.492  26.142  1.00  0.00    -0.237 OA
ATOM     84  O   UNL A   1      42.588  19.013  25.058  1.00  0.00    -0.237 OA
ATOM     85  O   UNL A   1      42.303  18.613  27.473  1.00  0.00    -0.744 OA
ENDBRANCH  81  82
ENDBRANCH  49  74
BRANCH  61  86
ATOM     86  C   UNL A   1      49.392  26.839  26.104  1.00  0.00     0.058 A 
ATOM     87  C   UNL A   1      49.770  26.958  24.759  1.00  0.00     0.135 A 
ATOM     88  C   UNL A   1      50.326  26.309  27.008  1.00  0.00     0.135 A 
ATOM     89  F   UNL A   1      48.908  27.453  23.856  1.00  0.00    -0.206 F 
ATOM     90  C   UNL A   1      51.028  26.555  24.323  1.00  0.00     0.059 A 
ATOM     91  C   UNL A   1      51.597  25.922  26.598  1.00  0.00     0.059 A 
ATOM     92  F   UNL A   1      50.015  26.184  28.309  1.00  0.00    -0.206 F 
ATOM     93  C   UNL A   1      51.936  26.042  25.251  1.00  0.00     0.060 A 
BRANCH  93  94
ATOM     94  S   UNL A   1      53.582  25.570  24.681  1.00  0.00     0.124 S 
ATOM     95  O   UNL A   1      53.612  26.160  23.346  1.00  0.00    -0.237 OA
ATOM     96  O   UNL A   1      54.449  26.199  25.672  1.00  0.00    -0.237 OA
ATOM     97  O   UNL A   1      53.549  24.111  24.723  1.00  0.00    -0.744 OA
ENDBRANCH  93  94
ENDBRANCH  61  86
ENDBRANCH  35  36
ENDBRANCH  27  30
ENDBRANCH  25  26
ENDBRANCH  24  25
ENDBRANCH   1  24
TORSDOF 20
ENDMDL
MODEL 3
REMARK VINA RESULT:      -9.7      3.999      9.599
REMARK SMILES C=CC[N@@H+](CC(=O)NCCCCNC(=O)c1ccc(-c2c3nc(c(-c4c(F)cc(S(=O)(=O)[O-])cc4F)c4ccc([nH]4)c(-c4c(F)cc(S(=O)(=O)[O-])cc4F)c4nc(c(-c5c(F)cc(S(=O)(=O)[O-])cc5F)c5ccc2[nH]5)C=C4)C=C3)cc1)Cc1ccc(C(F)(F)F)cc1
REMARK SMILES IDX 10 1 9 2 8 3 6 4 7 5 5 7 4 8 3 10 2 11 1 12 82 13 83 14
REMARK SMILES IDX 84 15 92 16 85 17 91 18 86 19 87 20 88 21 89 22 90 23 11 24
REMARK SMILES IDX 12 25 13 26 14 27 15 29 16 30 17 31 81 32 18 33 80 34 19 35
REMARK SMILES IDX 20 36 21 37 74 38 22 39 79 40 73 41 75 42 23 43 78 44 72 45
REMARK SMILES IDX 71 46 24 48 58 49 37 50 57 51 38 52 41 53 56 54 76 55 39 56
REMARK SMILES IDX 40 57 55 59 77 60 42 61 25 62 26 63 35 64 27 65 28 66 34 67
REMARK SMILES IDX 36 68 29 69 30 70 31 71 32 72 33 73 59 74 60 75 69 76 61 77
REMARK SMILES IDX 62 78 68 79 70 80 63 81 64 82 65 83 66 84 67 85 43 86 44 87
REMARK SMILES IDX 53 88 45 89 46 90 52 91 54 92 47 93 48 94 49 95 50 96 51 97
REMARK H PARENT 8 6 4 9 13 28 75 47 41 58
REMARK Flexibility Score: inf
ROOT
ATOM      1  C   UNL A   1      32.454  28.345  24.770  1.00  0.00     0.023 C 
ENDROOT
BRANCH   1   2
ATOM      2  C   UNL A   1      33.770  27.879  24.137  1.00  0.00     0.116 C 
BRANCH   2   3
ATOM      3  N   UNL A   1      33.589  26.880  23.104  1.00  0.00    -0.351 N 
ATOM      4  C   UNL A   1      33.714  25.522  23.139  1.00  0.00     0.275 C 
ATOM      5  O   UNL A   1      33.200  24.892  22.207  1.00  0.00    -0.269 OA
ATOM      6  H   UNL A   1      33.333  27.243  22.225  1.00  0.00     0.163 HD
BRANCH   4   7
ATOM      7  C   UNL A   1      34.368  24.768  24.306  1.00  0.00     0.364 C 
BRANCH   7   8
ATOM      8  N   UNL A   1      33.500  23.932  25.167  1.00  0.00    -0.320 N 
ATOM      9  H   UNL A   1      32.875  23.462  24.512  1.00  0.00     0.349 HD
BRANCH   8  10
ATOM     10  C   UNL A   1      32.578  24.698  25.978  1.00  0.00     0.291 C 
BRANCH  10  11
ATOM     11  C   UNL A   1      31.138  24.708  25.565  1.00  0.00     0.025 C 
ATOM     12  C   UNL A   1      30.675  24.028  24.506  1.00  0.00     0.010 C 
ENDBRANCH  10  11
ENDBRANCH   8  10
BRANCH   8  13
ATOM     13  C   UNL A   1      34.088  22.712  25.733  1.00  0.00     0.299 C 
BRANCH  13  14
ATOM     14  C   UNL A   1      33.874  21.398  25.014  1.00  0.00     0.006 A 
ATOM     15  C   UNL A   1      32.753  21.156  24.214  1.00  0.00     0.010 A 
ATOM     16  C   UNL A   1      34.823  20.371  25.154  1.00  0.00     0.010 A 
ATOM     17  C   UNL A   1      32.525  19.889  23.665  1.00  0.00     0.013 A 
ATOM     18  C   UNL A   1      34.605  19.109  24.599  1.00  0.00     0.013 A 
ATOM     19  C   UNL A   1      33.439  18.846  23.872  1.00  0.00     0.056 A 
BRANCH  19  20
ATOM     20  C   UNL A   1      33.136  17.448  23.389  1.00  0.00     0.416 C 
ATOM     21  F   UNL A   1      34.239  16.841  22.868  1.00  0.00    -0.166 F 
ATOM     22  F   UNL A   1      32.689  16.628  24.379  1.00  0.00    -0.166 F 
ATOM     23  F   UNL A   1      32.189  17.409  22.411  1.00  0.00    -0.166 F 
ENDBRANCH  19  20
ENDBRANCH  13  14
ENDBRANCH   8  13
ENDBRANCH   7   8
ENDBRANCH   4   7
ENDBRANCH   2   3
ENDBRANCH   1   2
BRANCH   1  24
ATOM     24  C   UNL A   1      32.335  28.157  26.274  1.00  0.00     0.023 C 
BRANCH  24  25
ATOM     25  C   UNL A   1      33.581  28.541  27.046  1.00  0.00     0.116 C 
BRANCH  25  26
ATOM     26  N   UNL A   1      33.537  29.915  27.536  1.00  0.00    -0.352 N 
ATOM     27  C   UNL A   1      34.492  30.636  28.218  1.00  0.00     0.251 C 
ATOM     28  H   UNL A   1      32.699  30.398  27.352  1.00  0.00     0.163 HD
ATOM     29  O   UNL A   1      34.212  31.725  28.699  1.00  0.00    -0.269 OA
BRANCH  27  30
ATOM     30  C   UNL A   1      35.844  30.064  28.384  1.00  0.00     0.039 A 
ATOM     31  C   UNL A   1      36.734  30.078  27.308  1.00  0.00     0.014 A 
ATOM     32  C   UNL A   1      36.245  29.566  29.625  1.00  0.00     0.014 A 
ATOM     33  C   UNL A   1      38.057  29.676  27.507  1.00  0.00     0.010 A 
ATOM     34  C   UNL A   1      37.583  29.284  29.849  1.00  0.00     0.010 A 
ATOM     35  C   UNL A   1      38.503  29.323  28.791  1.00  0.00    -0.014 A 
BRANCH  35  36
ATOM     36  C   UNL A   1      39.916  28.958  29.064  1.00  0.00     0.031 A 
ATOM     37  C   UNL A   1      40.840  29.986  29.660  1.00  0.00     0.074 A 
ATOM     38  C   UNL A   1      40.385  27.752  28.689  1.00  0.00     0.049 A 
ATOM     39  N   UNL A   1      42.132  29.929  29.847  1.00  0.00    -0.248 NA
ATOM     40  C   UNL A   1      40.235  31.270  30.057  1.00  0.00     0.031 C 
ATOM     41  C   UNL A   1      39.600  26.694  28.048  1.00  0.00     0.029 A 
ATOM     42  N   UNL A   1      41.645  27.216  28.784  1.00  0.00    -0.354 N 
ATOM     43  C   UNL A   1      42.495  31.172  30.351  1.00  0.00     0.074 A 
ATOM     44  C   UNL A   1      41.300  31.986  30.378  1.00  0.00     0.031 C 
ATOM     45  C   UNL A   1      40.387  25.626  27.838  1.00  0.00     0.029 A 
ATOM     46  C   UNL A   1      41.739  25.936  28.289  1.00  0.00     0.049 A 
ATOM     47  H   UNL A   1      42.409  27.702  29.170  1.00  0.00     0.167 HD
ATOM     48  C   UNL A   1      43.708  31.590  30.783  1.00  0.00     0.037 A 
ATOM     49  C   UNL A   1      42.800  25.110  28.207  1.00  0.00     0.037 A 
ATOM     50  C   UNL A   1      44.878  30.756  30.802  1.00  0.00     0.049 A 
ATOM     51  C   UNL A   1      44.133  25.586  28.716  1.00  0.00     0.074 A 
ATOM     52  C   UNL A   1      46.141  31.054  31.279  1.00  0.00     0.029 A 
ATOM     53  N   UNL A   1      44.924  29.453  30.327  1.00  0.00    -0.354 N 
ATOM     54  N   UNL A   1      44.450  26.748  29.239  1.00  0.00    -0.248 NA
ATOM     55  C   UNL A   1      45.255  24.641  28.626  1.00  0.00     0.031 C 
ATOM     56  C   UNL A   1      46.960  29.939  31.068  1.00  0.00     0.029 A 
ATOM     57  C   UNL A   1      46.196  28.934  30.493  1.00  0.00     0.049 A 
ATOM     58  H   UNL A   1      44.164  28.969  29.932  1.00  0.00     0.167 HD
ATOM     59  C   UNL A   1      45.798  26.664  29.562  1.00  0.00     0.074 A 
ATOM     60  C   UNL A   1      46.237  25.335  29.186  1.00  0.00     0.031 C 
ATOM     61  C   UNL A   1      46.603  27.602  30.120  1.00  0.00     0.037 A 
BRANCH  48  62
ATOM     62  C   UNL A   1      43.812  33.003  31.288  1.00  0.00     0.058 A 
ATOM     63  C   UNL A   1      43.631  33.314  32.645  1.00  0.00     0.135 A 
ATOM     64  C   UNL A   1      44.091  34.060  30.407  1.00  0.00     0.135 A 
ATOM     65  F   UNL A   1      43.342  32.344  33.529  1.00  0.00    -0.206 F 
ATOM     66  C   UNL A   1      43.679  34.625  33.106  1.00  0.00     0.059 A 
ATOM     67  C   UNL A   1      44.174  35.377  30.851  1.00  0.00     0.059 A 
ATOM     68  F   UNL A   1      44.272  33.821  29.099  1.00  0.00    -0.206 F 
ATOM     69  C   UNL A   1      43.946  35.650  32.199  1.00  0.00     0.060 A 
BRANCH  69  70
ATOM     70  S   UNL A   1      43.990  37.349  32.807  1.00  0.00     0.124 S 
ATOM     71  O   UNL A   1      42.833  37.368  33.698  1.00  0.00    -0.237 OA
ATOM     72  O   UNL A   1      45.293  37.416  33.462  1.00  0.00    -0.237 OA
ATOM     73  O   UNL A   1      43.861  38.149  31.593  1.00  0.00    -0.744 OA
ENDBRANCH  69  70
ENDBRANCH  48  62
BRANCH  49  74
ATOM     74  C   UNL A   1      42.634  23.736  27.661  1.00  0.00     0.058 A 
ATOM     75  C   UNL A   1      42.506  22.636  28.522  1.00  0.00     0.135 A 
ATOM     76  C   UNL A   1      42.577  23.496  26.279  1.00  0.00     0.135 A 
ATOM     77  F   UNL A   1      42.558  22.816  29.850  1.00  0.00    -0.206 F 
ATOM     78  C   UNL A   1      42.339  21.344  28.035  1.00  0.00     0.059 A 
ATOM     79  C   UNL A   1      42.389  22.213  25.769  1.00  0.00     0.059 A 
ATOM     80  F   UNL A   1      42.677  24.516  25.415  1.00  0.00    -0.206 F 
ATOM     81  C   UNL A   1      42.280  21.143  26.655  1.00  0.00     0.060 A 
BRANCH  81  82
ATOM     82  S   UNL A   1      42.008  19.467  26.038  1.00  0.00     0.124 S 
ATOM     83  O   UNL A   1      40.569  19.473  25.799  1.00  0.00    -0.237 OA
ATOM     84  O   UNL A   1      42.853  19.437  24.848  1.00  0.00    -0.237 OA
ATOM     85  O   UNL A   1      42.462  18.626  27.141  1.00  0.00    -0.744 OA
ENDBRANCH  81  82
ENDBRANCH  49  74
BRANCH  61  86
ATOM     86  C   UNL A   1      48.029  27.216  30.389  1.00  0.00     0.058 A 
ATOM     87  C   UNL A   1      49.052  27.505  29.474  1.00  0.00     0.135 A 
ATOM     88  C   UNL A   1      48.382  26.613  31.606  1.00  0.00     0.135 A 
ATOM     89  F   UNL A   1      48.762  28.075  28.293  1.00  0.00    -0.206 F 
ATOM     90  C   UNL A   1      50.379  27.197  29.752  1.00  0.00     0.059 A 
ATOM     91  C   UNL A   1      49.706  26.318  31.915  1.00  0.00     0.059 A 
ATOM     92  F   UNL A   1      47.440  26.326  32.519  1.00  0.00    -0.206 F 
ATOM     93  C   UNL A   1      50.697  26.607  30.977  1.00  0.00     0.060 A 
BRANCH  93  94
ATOM     94  S   UNL A   1      52.429  26.258  31.347  1.00  0.00     0.124 S 
ATOM     95  O   UNL A   1      52.313  25.106  32.236  1.00  0.00    -0.237 OA
ATOM     96  O   UNL A   1      52.983  25.987  30.024  1.00  0.00    -0.237 OA
ATOM     97  O   UNL A   1      52.896  27.491  31.973  1.00  0.00    -0.744 OA
ENDBRANCH  93  94
ENDBRANCH  61  86
ENDBRANCH  35  36
ENDBRANCH  27  30
ENDBRANCH  25  26
ENDBRANCH  24  25
ENDBRANCH   1  24
TORSDOF 20
ENDMDL
