MODEL 1
REMARK VINA RESULT:     -13.3      0.000      0.000
REMARK SMILES Cc1ccc(NC(=O)c2csc(Br)c2)c(C(=O)NCCCCNC(=O)c2ccc(-c3c4nc(c(-c5c(F)cc(S(=O)(=O)[O-])cc5F)c5ccc([nH]5)c(-c5c(F)cc(S(=O)(=O)[O-])cc5F)c5nc(c(-c6c(F)cc(S(=O)(=O)[O-])cc6F)c6ccc3[nH]6)C=C5)C=C4)cc2)c1
REMARK SMILES IDX 21 1 20 2 19 3 18 4 16 5 17 6 15 8 1 9 2 10 3 11 92 12 4 13
REMARK SMILES IDX 5 14 6 15 7 16 8 18 9 19 10 20 14 21 11 22 12 23 13 24 22 25
REMARK SMILES IDX 23 26 24 27 25 29 26 30 27 31 91 32 28 33 90 34 29 35 30 36
REMARK SMILES IDX 31 37 84 38 32 39 89 40 83 41 85 42 33 43 88 44 82 45 81 46
REMARK SMILES IDX 34 48 68 49 47 50 67 51 48 52 51 53 66 54 86 55 49 56 50 57
REMARK SMILES IDX 65 59 87 60 52 61 35 62 36 63 45 64 37 65 38 66 44 67 46 68
REMARK SMILES IDX 39 69 40 70 41 71 42 72 43 73 69 74 70 75 79 76 71 77 72 78
REMARK SMILES IDX 78 79 80 80 73 81 74 82 75 83 76 84 77 85 53 86 54 87 63 88
REMARK SMILES IDX 55 89 56 90 62 91 64 92 57 93 58 94 59 95 60 96 61 97
REMARK H PARENT 18 7 6 17 23 28 85 47 51 58
REMARK Flexibility Score: inf
ROOT
ATOM      1  C   UNL A   1      37.158  22.000  25.692  1.00  0.00     0.023 C 
ENDROOT
BRANCH   1   2
ATOM      2  C   UNL A   1      36.902  21.974  24.180  1.00  0.00     0.023 C 
BRANCH   2   3
ATOM      3  C   UNL A   1      36.368  23.295  23.600  1.00  0.00     0.116 C 
BRANCH   3   4
ATOM      4  N   UNL A   1      35.191  23.119  22.761  1.00  0.00    -0.352 N 
ATOM      5  C   UNL A   1      33.836  23.242  22.932  1.00  0.00     0.253 C 
ATOM      6  O   UNL A   1      33.164  23.071  21.908  1.00  0.00    -0.269 OA
ATOM      7  H   UNL A   1      35.426  22.842  21.845  1.00  0.00     0.163 HD
BRANCH   5   8
ATOM      8  C   UNL A   1      33.114  23.523  24.227  1.00  0.00     0.063 A 
ATOM      9  C   UNL A   1      33.140  22.395  27.887  1.00  0.00     0.044 C 
ATOM     10  C   UNL A   1      32.721  23.065  26.610  1.00  0.00    -0.050 A 
ATOM     11  C   UNL A   1      31.610  23.897  26.591  1.00  0.00     0.005 A 
ATOM     12  C   UNL A   1      33.438  22.864  25.424  1.00  0.00     0.019 A 
ATOM     13  C   UNL A   1      31.259  24.558  25.417  1.00  0.00     0.027 A 
ATOM     14  C   UNL A   1      32.032  24.455  24.251  1.00  0.00     0.054 A 
BRANCH  14  15
ATOM     15  N   UNL A   1      31.730  25.227  23.099  1.00  0.00    -0.321 N 
ATOM     16  C   UNL A   1      31.511  26.565  22.864  1.00  0.00     0.256 C 
ATOM     17  H   UNL A   1      31.661  24.681  22.282  1.00  0.00     0.170 HD
ATOM     18  O   UNL A   1      31.007  26.916  21.797  1.00  0.00    -0.269 OA
BRANCH  16  19
ATOM     19  C   UNL A   1      31.887  27.571  23.852  1.00  0.00     0.052 A 
ATOM     20  C   UNL A   1      31.100  28.688  24.092  1.00  0.00     0.080 A 
ATOM     21  C   UNL A   1      33.082  27.613  24.655  1.00  0.00     0.041 A 
ATOM     22  S   UNL A   1      31.715  29.672  25.350  1.00  0.00    -0.136 S 
ATOM     23  C   UNL A   1      33.067  28.670  25.531  1.00  0.00     0.071 A 
ATOM     24  Br  UNL A   1      34.395  28.969  26.816  1.00  0.00    -0.039 Br
ENDBRANCH  16  19
ENDBRANCH  14  15
ENDBRANCH   5   8
ENDBRANCH   3   4
ENDBRANCH   2   3
ENDBRANCH   1   2
BRANCH   1  25
ATOM     25  C   UNL A   1      38.002  23.193  26.130  1.00  0.00     0.116 C 
BRANCH  25  26
ATOM     26  N   UNL A   1      39.188  22.862  26.903  1.00  0.00    -0.352 N 
ATOM     27  C   UNL A   1      40.089  23.751  27.470  1.00  0.00     0.251 C 
ATOM     28  H   UNL A   1      39.370  21.904  27.038  1.00  0.00     0.163 HD
ATOM     29  O   UNL A   1      41.191  23.399  27.854  1.00  0.00    -0.269 OA
BRANCH  27  30
ATOM     30  C   UNL A   1      39.608  25.131  27.717  1.00  0.00     0.039 A 
ATOM     31  C   UNL A   1      40.082  26.129  26.856  1.00  0.00     0.014 A 
ATOM     32  C   UNL A   1      38.969  25.460  28.910  1.00  0.00     0.014 A 
ATOM     33  C   UNL A   1      40.091  27.455  27.283  1.00  0.00     0.010 A 
ATOM     34  C   UNL A   1      39.048  26.765  29.362  1.00  0.00     0.010 A 
ATOM     35  C   UNL A   1      39.663  27.751  28.574  1.00  0.00    -0.014 A 
BRANCH  35  36
ATOM     36  C   UNL A   1      39.916  29.028  29.238  1.00  0.00     0.031 A 
ATOM     37  C   UNL A   1      38.940  30.140  29.126  1.00  0.00     0.074 A 
ATOM     38  C   UNL A   1      41.006  29.178  30.026  1.00  0.00     0.049 A 
ATOM     39  N   UNL A   1      39.176  31.350  29.509  1.00  0.00    -0.248 NA
ATOM     40  C   UNL A   1      37.634  29.995  28.485  1.00  0.00     0.031 C 
ATOM     41  C   UNL A   1      41.214  30.190  31.059  1.00  0.00     0.029 A 
ATOM     42  N   UNL A   1      42.246  28.559  29.913  1.00  0.00    -0.354 N 
ATOM     43  C   UNL A   1      37.995  32.047  29.453  1.00  0.00     0.074 A 
ATOM     44  C   UNL A   1      37.108  31.210  28.688  1.00  0.00     0.031 C 
ATOM     45  C   UNL A   1      42.524  30.282  31.329  1.00  0.00     0.029 A 
ATOM     46  C   UNL A   1      43.227  29.454  30.367  1.00  0.00     0.049 A 
ATOM     47  H   UNL A   1      42.408  27.649  29.572  1.00  0.00     0.167 HD
ATOM     48  C   UNL A   1      37.867  33.191  30.183  1.00  0.00     0.037 A 
ATOM     49  C   UNL A   1      44.214  29.914  29.541  1.00  0.00     0.037 A 
ATOM     50  C   UNL A   1      39.178  33.691  30.597  1.00  0.00     0.049 A 
ATOM     51  C   UNL A   1      44.189  31.409  29.303  1.00  0.00     0.074 A 
ATOM     52  C   UNL A   1      39.854  33.732  31.803  1.00  0.00     0.029 A 
ATOM     53  N   UNL A   1      40.102  34.044  29.616  1.00  0.00    -0.354 N 
ATOM     54  N   UNL A   1      43.197  32.189  29.636  1.00  0.00    -0.248 NA
ATOM     55  C   UNL A   1      45.271  32.142  28.647  1.00  0.00     0.031 C 
ATOM     56  C   UNL A   1      41.224  33.993  31.521  1.00  0.00     0.029 A 
ATOM     57  C   UNL A   1      41.368  34.164  30.153  1.00  0.00     0.049 A 
ATOM     58  H   UNL A   1      39.882  34.190  28.668  1.00  0.00     0.167 HD
ATOM     59  C   UNL A   1      43.440  33.461  29.191  1.00  0.00     0.074 A 
ATOM     60  C   UNL A   1      44.774  33.391  28.624  1.00  0.00     0.031 C 
ATOM     61  C   UNL A   1      42.511  34.459  29.295  1.00  0.00     0.037 A 
BRANCH  48  62
ATOM     62  C   UNL A   1      36.551  33.762  30.683  1.00  0.00     0.058 A 
ATOM     63  C   UNL A   1      35.600  34.276  29.772  1.00  0.00     0.135 A 
ATOM     64  C   UNL A   1      36.225  33.977  32.044  1.00  0.00     0.135 A 
ATOM     65  F   UNL A   1      35.785  34.167  28.447  1.00  0.00    -0.206 F 
ATOM     66  C   UNL A   1      34.442  34.956  30.175  1.00  0.00     0.059 A 
ATOM     67  C   UNL A   1      35.052  34.605  32.468  1.00  0.00     0.059 A 
ATOM     68  F   UNL A   1      37.058  33.660  33.039  1.00  0.00    -0.206 F 
ATOM     69  C   UNL A   1      34.178  35.120  31.529  1.00  0.00     0.060 A 
BRANCH  69  70
ATOM     70  S   UNL A   1      32.719  36.036  32.061  1.00  0.00     0.124 S 
ATOM     71  O   UNL A   1      33.268  36.891  33.108  1.00  0.00    -0.237 OA
ATOM     72  O   UNL A   1      32.305  36.712  30.837  1.00  0.00    -0.237 OA
ATOM     73  O   UNL A   1      31.812  34.988  32.525  1.00  0.00    -0.744 OA
ENDBRANCH  69  70
ENDBRANCH  48  62
BRANCH  49  74
ATOM     74  C   UNL A   1      44.691  28.893  28.571  1.00  0.00     0.058 A 
ATOM     75  C   UNL A   1      44.122  28.917  27.285  1.00  0.00     0.135 A 
ATOM     76  C   UNL A   1      45.944  28.280  28.721  1.00  0.00     0.135 A 
ATOM     77  F   UNL A   1      42.912  29.469  27.096  1.00  0.00    -0.206 F 
ATOM     78  C   UNL A   1      44.845  28.532  26.164  1.00  0.00     0.059 A 
ATOM     79  C   UNL A   1      46.685  27.880  27.607  1.00  0.00     0.059 A 
ATOM     80  F   UNL A   1      46.529  28.220  29.927  1.00  0.00    -0.206 F 
ATOM     81  C   UNL A   1      46.156  28.092  26.333  1.00  0.00     0.060 A 
BRANCH  81  82
ATOM     82  S   UNL A   1      47.209  28.026  24.866  1.00  0.00     0.124 S 
ATOM     83  O   UNL A   1      46.985  26.666  24.388  1.00  0.00    -0.237 OA
ATOM     84  O   UNL A   1      46.621  29.087  24.047  1.00  0.00    -0.237 OA
ATOM     85  O   UNL A   1      48.539  28.301  25.397  1.00  0.00    -0.744 OA
ENDBRANCH  81  82
ENDBRANCH  49  74
BRANCH  61  86
ATOM     86  C   UNL A   1      42.619  35.821  28.646  1.00  0.00     0.058 A 
ATOM     87  C   UNL A   1      42.223  36.099  27.326  1.00  0.00     0.135 A 
ATOM     88  C   UNL A   1      43.023  36.944  29.407  1.00  0.00     0.135 A 
ATOM     89  F   UNL A   1      41.702  35.147  26.539  1.00  0.00    -0.206 F 
ATOM     90  C   UNL A   1      42.301  37.380  26.770  1.00  0.00     0.059 A 
ATOM     91  C   UNL A   1      43.056  38.238  28.891  1.00  0.00     0.059 A 
ATOM     92  F   UNL A   1      43.394  36.817  30.690  1.00  0.00    -0.206 F 
ATOM     93  C   UNL A   1      42.724  38.444  27.560  1.00  0.00     0.060 A 
BRANCH  93  94
ATOM     94  S   UNL A   1      42.786  40.110  26.874  1.00  0.00     0.124 S 
ATOM     95  O   UNL A   1      41.434  40.259  26.347  1.00  0.00    -0.237 OA
ATOM     96  O   UNL A   1      43.100  40.935  28.038  1.00  0.00    -0.237 OA
ATOM     97  O   UNL A   1      43.849  40.017  25.878  1.00  0.00    -0.744 OA
ENDBRANCH  93  94
ENDBRANCH  61  86
ENDBRANCH  35  36
ENDBRANCH  27  30
ENDBRANCH  25  26
ENDBRANCH   1  25
TORSDOF 16
ENDMDL
MODEL 2
REMARK VINA RESULT:     -13.3      4.843     11.168
REMARK SMILES Cc1ccc(NC(=O)c2csc(Br)c2)c(C(=O)NCCCCNC(=O)c2ccc(-c3c4nc(c(-c5c(F)cc(S(=O)(=O)[O-])cc5F)c5ccc([nH]5)c(-c5c(F)cc(S(=O)(=O)[O-])cc5F)c5nc(c(-c6c(F)cc(S(=O)(=O)[O-])cc6F)c6ccc3[nH]6)C=C5)C=C4)cc2)c1
REMARK SMILES IDX 21 1 20 2 19 3 18 4 16 5 17 6 15 8 1 9 2 10 3 11 92 12 4 13
REMARK SMILES IDX 5 14 6 15 7 16 8 18 9 19 10 20 14 21 11 22 12 23 13 24 22 25
REMARK SMILES IDX 23 26 24 27 25 29 26 30 27 31 91 32 28 33 90 34 29 35 30 36
REMARK SMILES IDX 31 37 84 38 32 39 89 40 83 41 85 42 33 43 88 44 82 45 81 46
REMARK SMILES IDX 34 48 68 49 47 50 67 51 48 52 51 53 66 54 86 55 49 56 50 57
REMARK SMILES IDX 65 59 87 60 52 61 35 62 36 63 45 64 37 65 38 66 44 67 46 68
REMARK SMILES IDX 39 69 40 70 41 71 42 72 43 73 69 74 70 75 79 76 71 77 72 78
REMARK SMILES IDX 78 79 80 80 73 81 74 82 75 83 76 84 77 85 53 86 54 87 63 88
REMARK SMILES IDX 55 89 56 90 62 91 64 92 57 93 58 94 59 95 60 96 61 97
REMARK H PARENT 18 7 6 17 23 28 85 47 51 58
REMARK Flexibility Score: inf
ROOT
ATOM      1  C   UNL A   1      33.142  29.834  26.357  1.00  0.00     0.023 C 
ENDROOT
BRANCH   1   2
ATOM      2  C   UNL A   1      32.527  28.513  25.876  1.00  0.00     0.023 C 
BRANCH   2   3
ATOM      3  C   UNL A   1      33.431  27.282  26.064  1.00  0.00     0.116 C 
BRANCH   3   4
ATOM      4  N   UNL A   1      32.687  26.059  26.327  1.00  0.00    -0.352 N 
ATOM      5  C   UNL A   1      32.891  24.720  26.113  1.00  0.00     0.253 C 
ATOM      6  O   UNL A   1      32.015  23.979  26.575  1.00  0.00    -0.269 OA
ATOM      7  H   UNL A   1      31.824  26.237  26.767  1.00  0.00     0.163 HD
BRANCH   5   8
ATOM      8  C   UNL A   1      34.036  24.094  25.355  1.00  0.00     0.063 A 
ATOM      9  C   UNL A   1      37.832  23.668  25.629  1.00  0.00     0.044 C 
ATOM     10  C   UNL A   1      36.437  23.643  25.075  1.00  0.00    -0.050 A 
ATOM     11  C   UNL A   1      36.194  23.109  23.818  1.00  0.00     0.005 A 
ATOM     12  C   UNL A   1      35.361  24.157  25.812  1.00  0.00     0.019 A 
ATOM     13  C   UNL A   1      34.891  23.040  23.333  1.00  0.00     0.027 A 
ATOM     14  C   UNL A   1      33.793  23.446  24.106  1.00  0.00     0.054 A 
BRANCH  14  15
ATOM     15  N   UNL A   1      32.462  23.260  23.646  1.00  0.00    -0.321 N 
ATOM     16  C   UNL A   1      31.453  24.104  23.241  1.00  0.00     0.256 C 
ATOM     17  H   UNL A   1      32.202  22.311  23.607  1.00  0.00     0.170 HD
ATOM     18  O   UNL A   1      30.306  23.669  23.143  1.00  0.00    -0.269 OA
BRANCH  16  19
ATOM     19  C   UNL A   1      31.730  25.498  22.910  1.00  0.00     0.052 A 
ATOM     20  C   UNL A   1      32.964  25.901  22.421  1.00  0.00     0.080 A 
ATOM     21  C   UNL A   1      30.857  26.632  23.074  1.00  0.00     0.041 A 
ATOM     22  S   UNL A   1      33.010  27.568  22.035  1.00  0.00    -0.136 S 
ATOM     23  C   UNL A   1      31.425  27.783  22.588  1.00  0.00     0.071 A 
ATOM     24  Br  UNL A   1      30.535  29.429  22.518  1.00  0.00    -0.039 Br
ENDBRANCH  16  19
ENDBRANCH  14  15
ENDBRANCH   5   8
ENDBRANCH   3   4
ENDBRANCH   2   3
ENDBRANCH   1   2
BRANCH   1  25
ATOM     25  C   UNL A   1      34.368  29.630  27.241  1.00  0.00     0.116 C 
BRANCH  25  26
ATOM     26  N   UNL A   1      35.107  30.838  27.563  1.00  0.00    -0.352 N 
ATOM     27  C   UNL A   1      36.295  30.926  28.275  1.00  0.00     0.251 C 
ATOM     28  H   UNL A   1      34.724  31.686  27.241  1.00  0.00     0.163 HD
ATOM     29  O   UNL A   1      36.695  31.979  28.739  1.00  0.00    -0.269 OA
BRANCH  27  30
ATOM     30  C   UNL A   1      37.133  29.705  28.337  1.00  0.00     0.039 A 
ATOM     31  C   UNL A   1      37.272  29.097  29.591  1.00  0.00     0.014 A 
ATOM     32  C   UNL A   1      37.971  29.362  27.280  1.00  0.00     0.014 A 
ATOM     33  C   UNL A   1      38.377  28.287  29.842  1.00  0.00     0.010 A 
ATOM     34  C   UNL A   1      39.107  28.619  27.552  1.00  0.00     0.010 A 
ATOM     35  C   UNL A   1      39.340  28.133  28.849  1.00  0.00    -0.014 A 
BRANCH  35  36
ATOM     36  C   UNL A   1      40.671  27.581  29.090  1.00  0.00     0.031 A 
ATOM     37  C   UNL A   1      40.977  26.173  28.736  1.00  0.00     0.074 A 
ATOM     38  C   UNL A   1      41.658  28.377  29.565  1.00  0.00     0.049 A 
ATOM     39  N   UNL A   1      42.053  25.555  29.095  1.00  0.00    -0.248 NA
ATOM     40  C   UNL A   1      40.044  25.309  28.015  1.00  0.00     0.031 C 
ATOM     41  C   UNL A   1      43.097  28.135  29.489  1.00  0.00     0.029 A 
ATOM     42  N   UNL A   1      41.551  29.482  30.401  1.00  0.00    -0.354 N 
ATOM     43  C   UNL A   1      42.096  24.361  28.420  1.00  0.00     0.074 A 
ATOM     44  C   UNL A   1      40.773  24.196  27.877  1.00  0.00     0.031 C 
ATOM     45  C   UNL A   1      43.721  28.900  30.397  1.00  0.00     0.029 A 
ATOM     46  C   UNL A   1      42.699  29.540  31.205  1.00  0.00     0.049 A 
ATOM     47  H   UNL A   1      40.797  30.116  30.425  1.00  0.00     0.167 HD
ATOM     48  C   UNL A   1      43.292  23.721  28.287  1.00  0.00     0.037 A 
ATOM     49  C   UNL A   1      42.627  29.437  32.566  1.00  0.00     0.037 A 
ATOM     50  C   UNL A   1      44.268  24.239  29.246  1.00  0.00     0.049 A 
ATOM     51  C   UNL A   1      43.332  28.229  33.143  1.00  0.00     0.074 A 
ATOM     52  C   UNL A   1      45.389  25.042  29.138  1.00  0.00     0.029 A 
ATOM     53  N   UNL A   1      43.998  24.121  30.607  1.00  0.00    -0.354 N 
ATOM     54  N   UNL A   1      43.771  27.226  32.433  1.00  0.00    -0.248 NA
ATOM     55  C   UNL A   1      43.577  28.042  34.572  1.00  0.00     0.031 C 
ATOM     56  C   UNL A   1      45.715  25.506  30.442  1.00  0.00     0.029 A 
ATOM     57  C   UNL A   1      44.827  24.941  31.345  1.00  0.00     0.049 A 
ATOM     58  H   UNL A   1      43.309  23.532  30.992  1.00  0.00     0.167 HD
ATOM     59  C   UNL A   1      44.262  26.252  33.262  1.00  0.00     0.074 A 
ATOM     60  C   UNL A   1      44.166  26.833  34.589  1.00  0.00     0.031 C 
ATOM     61  C   UNL A   1      44.676  25.036  32.794  1.00  0.00     0.037 A 
BRANCH  48  62
ATOM     62  C   UNL A   1      43.642  22.754  27.167  1.00  0.00     0.058 A 
ATOM     63  C   UNL A   1      43.007  21.494  27.085  1.00  0.00     0.135 A 
ATOM     64  C   UNL A   1      44.694  22.935  26.239  1.00  0.00     0.135 A 
ATOM     65  F   UNL A   1      42.005  21.169  27.917  1.00  0.00    -0.206 F 
ATOM     66  C   UNL A   1      43.394  20.499  26.175  1.00  0.00     0.059 A 
ATOM     67  C   UNL A   1      45.063  21.978  25.291  1.00  0.00     0.059 A 
ATOM     68  F   UNL A   1      45.478  24.017  26.246  1.00  0.00    -0.206 F 
ATOM     69  C   UNL A   1      44.428  20.749  25.283  1.00  0.00     0.060 A 
BRANCH  69  70
ATOM     70  S   UNL A   1      44.970  19.462  24.142  1.00  0.00     0.124 S 
ATOM     71  O   UNL A   1      44.263  18.292  24.653  1.00  0.00    -0.237 OA
ATOM     72  O   UNL A   1      44.516  19.970  22.853  1.00  0.00    -0.237 OA
ATOM     73  O   UNL A   1      46.420  19.440  24.322  1.00  0.00    -0.744 OA
ENDBRANCH  69  70
ENDBRANCH  48  62
BRANCH  49  74
ATOM     74  C   UNL A   1      41.422  30.091  33.140  1.00  0.00     0.058 A 
ATOM     75  C   UNL A   1      41.465  31.489  33.294  1.00  0.00     0.135 A 
ATOM     76  C   UNL A   1      40.162  29.478  33.071  1.00  0.00     0.135 A 
ATOM     77  F   UNL A   1      42.647  32.118  33.392  1.00  0.00    -0.206 F 
ATOM     78  C   UNL A   1      40.319  32.267  33.184  1.00  0.00     0.059 A 
ATOM     79  C   UNL A   1      38.998  30.241  32.965  1.00  0.00     0.059 A 
ATOM     80  F   UNL A   1      40.063  28.148  32.935  1.00  0.00    -0.206 F 
ATOM     81  C   UNL A   1      39.103  31.633  32.937  1.00  0.00     0.060 A 
BRANCH  81  82
ATOM     82  S   UNL A   1      37.731  32.658  32.360  1.00  0.00     0.124 S 
ATOM     83  O   UNL A   1      37.505  33.539  33.501  1.00  0.00    -0.237 OA
ATOM     84  O   UNL A   1      38.326  33.291  31.183  1.00  0.00    -0.237 OA
ATOM     85  O   UNL A   1      36.678  31.686  32.091  1.00  0.00    -0.744 OA
ENDBRANCH  81  82
ENDBRANCH  49  74
BRANCH  61  86
ATOM     86  C   UNL A   1      45.029  23.845  33.656  1.00  0.00     0.058 A 
ATOM     87  C   UNL A   1      44.107  22.864  34.062  1.00  0.00     0.135 A 
ATOM     88  C   UNL A   1      46.378  23.588  34.001  1.00  0.00     0.135 A 
ATOM     89  F   UNL A   1      42.819  22.922  33.692  1.00  0.00    -0.206 F 
ATOM     90  C   UNL A   1      44.476  21.754  34.827  1.00  0.00     0.059 A 
ATOM     91  C   UNL A   1      46.777  22.460  34.715  1.00  0.00     0.059 A 
ATOM     92  F   UNL A   1      47.359  24.431  33.643  1.00  0.00    -0.206 F 
ATOM     93  C   UNL A   1      45.815  21.562  35.153  1.00  0.00     0.060 A 
BRANCH  93  94
ATOM     94  S   UNL A   1      46.316  20.111  36.099  1.00  0.00     0.124 S 
ATOM     95  O   UNL A   1      45.759  19.030  35.293  1.00  0.00    -0.237 OA
ATOM     96  O   UNL A   1      47.774  20.206  36.100  1.00  0.00    -0.237 OA
ATOM     97  O   UNL A   1      45.683  20.329  37.396  1.00  0.00    -0.744 OA
ENDBRANCH  93  94
ENDBRANCH  61  86
ENDBRANCH  35  36
ENDBRANCH  27  30
ENDBRANCH  25  26
ENDBRANCH   1  25
TORSDOF 16
ENDMDL
MODEL 3
REMARK VINA RESULT:     -13.2      1.564      2.397
REMARK SMILES Cc1ccc(NC(=O)c2csc(Br)c2)c(C(=O)NCCCCNC(=O)c2ccc(-c3c4nc(c(-c5c(F)cc(S(=O)(=O)[O-])cc5F)c5ccc([nH]5)c(-c5c(F)cc(S(=O)(=O)[O-])cc5F)c5nc(c(-c6c(F)cc(S(=O)(=O)[O-])cc6F)c6ccc3[nH]6)C=C5)C=C4)cc2)c1
REMARK SMILES IDX 21 1 20 2 19 3 18 4 16 5 17 6 15 8 1 9 2 10 3 11 92 12 4 13
REMARK SMILES IDX 5 14 6 15 7 16 8 18 9 19 10 20 14 21 11 22 12 23 13 24 22 25
REMARK SMILES IDX 23 26 24 27 25 29 26 30 27 31 91 32 28 33 90 34 29 35 30 36
REMARK SMILES IDX 31 37 84 38 32 39 89 40 83 41 85 42 33 43 88 44 82 45 81 46
REMARK SMILES IDX 34 48 68 49 47 50 67 51 48 52 51 53 66 54 86 55 49 56 50 57
REMARK SMILES IDX 65 59 87 60 52 61 35 62 36 63 45 64 37 65 38 66 44 67 46 68
REMARK SMILES IDX 39 69 40 70 41 71 42 72 43 73 69 74 70 75 79 76 71 77 72 78
REMARK SMILES IDX 78 79 80 80 73 81 74 82 75 83 76 84 77 85 53 86 54 87 63 88
REMARK SMILES IDX 55 89 56 90 62 91 64 92 57 93 58 94 59 95 60 96 61 97
REMARK H PARENT 18 7 6 17 23 28 85 47 51 58
REMARK Flexibility Score: inf
ROOT
ATOM      1  C   UNL A   1      37.425  22.230  25.130  1.00  0.00     0.023 C 
ENDROOT
BRANCH   1   2
ATOM      2  C   UNL A   1      36.387  22.745  24.124  1.00  0.00     0.023 C 
BRANCH   2   3
ATOM      3  C   UNL A   1      35.558  23.942  24.620  1.00  0.00     0.116 C 
BRANCH   3   4
ATOM      4  N   UNL A   1      34.742  24.545  23.575  1.00  0.00    -0.352 N 
ATOM      5  C   UNL A   1      33.806  25.545  23.516  1.00  0.00     0.253 C 
ATOM      6  O   UNL A   1      33.394  25.807  22.379  1.00  0.00    -0.269 OA
ATOM      7  H   UNL A   1      34.900  24.132  22.695  1.00  0.00     0.163 HD
BRANCH   5   8
ATOM      8  C   UNL A   1      33.224  26.305  24.683  1.00  0.00     0.063 A 
ATOM      9  C   UNL A   1      34.284  28.889  27.303  1.00  0.00     0.044 C 
ATOM     10  C   UNL A   1      33.467  27.868  26.565  1.00  0.00    -0.050 A 
ATOM     11  C   UNL A   1      32.186  27.554  26.996  1.00  0.00     0.005 A 
ATOM     12  C   UNL A   1      33.981  27.217  25.435  1.00  0.00     0.019 A 
ATOM     13  C   UNL A   1      31.414  26.647  26.276  1.00  0.00     0.027 A 
ATOM     14  C   UNL A   1      31.872  26.074  25.080  1.00  0.00     0.054 A 
BRANCH  14  15
ATOM     15  N   UNL A   1      31.030  25.244  24.295  1.00  0.00    -0.321 N 
ATOM     16  C   UNL A   1      31.032  23.909  23.958  1.00  0.00     0.256 C 
ATOM     17  H   UNL A   1      30.271  25.733  23.902  1.00  0.00     0.170 HD
ATOM     18  O   UNL A   1      30.312  23.518  23.038  1.00  0.00    -0.269 OA
BRANCH  16  19
ATOM     19  C   UNL A   1      31.859  22.953  24.687  1.00  0.00     0.052 A 
ATOM     20  C   UNL A   1      32.078  23.070  26.051  1.00  0.00     0.080 A 
ATOM     21  C   UNL A   1      32.588  21.832  24.152  1.00  0.00     0.041 A 
ATOM     22  S   UNL A   1      33.013  21.783  26.683  1.00  0.00    -0.136 S 
ATOM     23  C   UNL A   1      33.200  21.106  25.143  1.00  0.00     0.071 A 
ATOM     24  Br  UNL A   1      34.133  19.512  24.835  1.00  0.00    -0.039 Br
ENDBRANCH  16  19
ENDBRANCH  14  15
ENDBRANCH   5   8
ENDBRANCH   3   4
ENDBRANCH   2   3
ENDBRANCH   1   2
BRANCH   1  25
ATOM     25  C   UNL A   1      37.936  23.321  26.066  1.00  0.00     0.116 C 
BRANCH  25  26
ATOM     26  N   UNL A   1      39.102  22.963  26.856  1.00  0.00    -0.352 N 
ATOM     27  C   UNL A   1      39.997  23.832  27.464  1.00  0.00     0.251 C 
ATOM     28  H   UNL A   1      39.274  22.001  26.973  1.00  0.00     0.163 HD
ATOM     29  O   UNL A   1      41.088  23.463  27.862  1.00  0.00    -0.269 OA
BRANCH  27  30
ATOM     30  C   UNL A   1      39.520  25.209  27.732  1.00  0.00     0.039 A 
ATOM     31  C   UNL A   1      40.002  26.220  26.890  1.00  0.00     0.014 A 
ATOM     32  C   UNL A   1      38.878  25.520  28.928  1.00  0.00     0.014 A 
ATOM     33  C   UNL A   1      40.015  27.538  27.339  1.00  0.00     0.010 A 
ATOM     34  C   UNL A   1      38.961  26.818  29.403  1.00  0.00     0.010 A 
ATOM     35  C   UNL A   1      39.583  27.814  28.634  1.00  0.00    -0.014 A 
BRANCH  35  36
ATOM     36  C   UNL A   1      39.839  29.079  29.320  1.00  0.00     0.031 A 
ATOM     37  C   UNL A   1      38.872  30.199  29.218  1.00  0.00     0.074 A 
ATOM     38  C   UNL A   1      40.923  29.208  30.121  1.00  0.00     0.049 A 
ATOM     39  N   UNL A   1      39.113  31.401  29.622  1.00  0.00    -0.248 NA
ATOM     40  C   UNL A   1      37.570  30.074  28.563  1.00  0.00     0.031 C 
ATOM     41  C   UNL A   1      41.128  30.202  31.172  1.00  0.00     0.029 A 
ATOM     42  N   UNL A   1      42.159  28.583  30.009  1.00  0.00    -0.354 N 
ATOM     43  C   UNL A   1      37.937  32.107  29.566  1.00  0.00     0.074 A 
ATOM     44  C   UNL A   1      37.052  31.289  28.779  1.00  0.00     0.031 C 
ATOM     45  C   UNL A   1      42.437  30.280  31.455  1.00  0.00     0.029 A 
ATOM     46  C   UNL A   1      43.143  29.463  30.486  1.00  0.00     0.049 A 
ATOM     47  H   UNL A   1      42.318  27.677  29.655  1.00  0.00     0.167 HD
ATOM     48  C   UNL A   1      37.811  33.240  30.313  1.00  0.00     0.037 A 
ATOM     49  C   UNL A   1      44.140  29.930  29.676  1.00  0.00     0.037 A 
ATOM     50  C   UNL A   1      39.121  33.724  30.747  1.00  0.00     0.049 A 
ATOM     51  C   UNL A   1      44.128  31.428  29.463  1.00  0.00     0.074 A 
ATOM     52  C   UNL A   1      39.786  33.741  31.960  1.00  0.00     0.029 A 
ATOM     53  N   UNL A   1      40.056  34.087  29.781  1.00  0.00    -0.354 N 
ATOM     54  N   UNL A   1      43.138  32.209  29.799  1.00  0.00    -0.248 NA
ATOM     55  C   UNL A   1      45.220  32.163  28.828  1.00  0.00     0.031 C 
ATOM     56  C   UNL A   1      41.160  33.997  31.695  1.00  0.00     0.029 A 
ATOM     57  C   UNL A   1      41.318  34.189  30.331  1.00  0.00     0.049 A 
ATOM     58  H   UNL A   1      39.846  34.249  28.832  1.00  0.00     0.167 HD
ATOM     59  C   UNL A   1      43.394  33.487  29.377  1.00  0.00     0.074 A 
ATOM     60  C   UNL A   1      44.732  33.416  28.821  1.00  0.00     0.031 C 
ATOM     61  C   UNL A   1      42.471  34.490  29.488  1.00  0.00     0.037 A 
BRANCH  48  62
ATOM     62  C   UNL A   1      36.494  33.813  30.811  1.00  0.00     0.058 A 
ATOM     63  C   UNL A   1      35.531  34.295  29.895  1.00  0.00     0.135 A 
ATOM     64  C   UNL A   1      36.177  34.059  32.168  1.00  0.00     0.135 A 
ATOM     65  F   UNL A   1      35.705  34.155  28.572  1.00  0.00    -0.206 F 
ATOM     66  C   UNL A   1      34.370  34.975  30.291  1.00  0.00     0.059 A 
ATOM     67  C   UNL A   1      35.003  34.688  32.587  1.00  0.00     0.059 A 
ATOM     68  F   UNL A   1      37.022  33.774  33.164  1.00  0.00    -0.206 F 
ATOM     69  C   UNL A   1      34.116  35.171  31.642  1.00  0.00     0.060 A 
BRANCH  69  70
ATOM     70  S   UNL A   1      32.654  36.088  32.165  1.00  0.00     0.124 S 
ATOM     71  O   UNL A   1      31.734  35.010  32.515  1.00  0.00    -0.237 OA
ATOM     72  O   UNL A   1      33.160  36.882  33.279  1.00  0.00    -0.237 OA
ATOM     73  O   UNL A   1      32.291  36.853  30.974  1.00  0.00    -0.744 OA
ENDBRANCH  69  70
ENDBRANCH  48  62
BRANCH  49  74
ATOM     74  C   UNL A   1      44.619  28.920  28.695  1.00  0.00     0.058 A 
ATOM     75  C   UNL A   1      44.026  28.937  27.419  1.00  0.00     0.135 A 
ATOM     76  C   UNL A   1      45.886  28.331  28.820  1.00  0.00     0.135 A 
ATOM     77  F   UNL A   1      42.802  29.466  27.254  1.00  0.00    -0.206 F 
ATOM     78  C   UNL A   1      44.735  28.569  26.284  1.00  0.00     0.059 A 
ATOM     79  C   UNL A   1      46.614  27.949  27.691  1.00  0.00     0.059 A 
ATOM     80  F   UNL A   1      46.494  28.279  30.014  1.00  0.00    -0.206 F 
ATOM     81  C   UNL A   1      46.057  28.155  26.428  1.00  0.00     0.060 A 
BRANCH  81  82
ATOM     82  S   UNL A   1      47.085  28.113  24.941  1.00  0.00     0.124 S 
ATOM     83  O   UNL A   1      48.427  28.269  25.491  1.00  0.00    -0.237 OA
ATOM     84  O   UNL A   1      46.768  26.784  24.416  1.00  0.00    -0.237 OA
ATOM     85  O   UNL A   1      46.585  29.237  24.158  1.00  0.00    -0.744 OA
ENDBRANCH  81  82
ENDBRANCH  49  74
BRANCH  61  86
ATOM     86  C   UNL A   1      42.595  35.861  28.862  1.00  0.00     0.058 A 
ATOM     87  C   UNL A   1      42.036  36.215  27.620  1.00  0.00     0.135 A 
ATOM     88  C   UNL A   1      43.193  36.922  29.581  1.00  0.00     0.135 A 
ATOM     89  F   UNL A   1      41.331  35.333  26.897  1.00  0.00    -0.206 F 
ATOM     90  C   UNL A   1      42.136  37.503  27.089  1.00  0.00     0.059 A 
ATOM     91  C   UNL A   1      43.256  38.228  29.096  1.00  0.00     0.059 A 
ATOM     92  F   UNL A   1      43.734  36.723  30.793  1.00  0.00    -0.206 F 
ATOM     93  C   UNL A   1      42.753  38.504  27.833  1.00  0.00     0.060 A 
BRANCH  93  94
ATOM     94  S   UNL A   1      42.851  40.184  27.184  1.00  0.00     0.124 S 
ATOM     95  O   UNL A   1      43.409  40.904  28.324  1.00  0.00    -0.237 OA
ATOM     96  O   UNL A   1      43.741  40.042  26.035  1.00  0.00    -0.237 OA
ATOM     97  O   UNL A   1      41.463  40.491  26.856  1.00  0.00    -0.744 OA
ENDBRANCH  93  94
ENDBRANCH  61  86
ENDBRANCH  35  36
ENDBRANCH  27  30
ENDBRANCH  25  26
ENDBRANCH   1  25
TORSDOF 16
ENDMDL
