MODEL 1
REMARK VINA RESULT:     -11.5      0.000      0.000
REMARK SMILES CCCc1ccc(Nc2ccc(C(=O)NCCCCNC(=O)c3ccc(-c4c5nc(c(-c6c(F)cc(S(=O)(=O)[O-])cc6F)c6ccc([nH]6)c(-c6c(F)cc(S(=O)(=O)[O-])cc6F)c6nc(c(-c7c(F)cc(S(=O)(=O)[O-])cc7F)c7ccc4[nH]7)C=C6)C=C5)cc3)cn2)cc1
REMARK SMILES IDX 17 1 16 2 15 3 13 4 14 5 12 7 9 8 10 9 90 10 11 11 89 12
REMARK SMILES IDX 8 13 7 15 4 16 5 17 92 18 6 19 91 20 3 21 2 22 1 23 18 24
REMARK SMILES IDX 19 25 20 26 21 27 22 29 23 30 24 31 88 32 25 33 87 34 26 35
REMARK SMILES IDX 27 36 28 37 81 38 29 39 86 40 80 41 82 42 30 43 85 44 79 45
REMARK SMILES IDX 78 46 31 48 65 49 44 50 64 51 45 52 48 53 63 54 83 55 46 56
REMARK SMILES IDX 47 57 62 59 84 60 49 61 32 62 33 63 42 64 34 65 35 66 41 67
REMARK SMILES IDX 43 68 36 69 37 70 38 71 39 72 40 73 66 74 67 75 76 76 68 77
REMARK SMILES IDX 69 78 75 79 77 80 70 81 71 82 72 83 73 84 74 85 50 86 51 87
REMARK SMILES IDX 60 88 52 89 53 90 59 91 61 92 54 93 55 94 56 95 57 96 58 97
REMARK H PARENT 15 6 8 14 20 28 82 47 48 58
REMARK Flexibility Score: inf
ROOT
ATOM      1  C   UNL A   1      39.827  21.753  26.221  1.00  0.00     0.023 C 
ENDROOT
BRANCH   1   2
ATOM      2  C   UNL A   1      38.409  22.245  25.930  1.00  0.00     0.116 C 
BRANCH   2   3
ATOM      3  N   UNL A   1      37.582  21.167  25.422  1.00  0.00    -0.352 N 
ATOM      4  C   UNL A   1      36.222  21.031  25.290  1.00  0.00     0.252 C 
ATOM      5  O   UNL A   1      35.796  19.999  24.771  1.00  0.00    -0.269 OA
ATOM      6  H   UNL A   1      38.093  20.383  25.114  1.00  0.00     0.163 HD
BRANCH   4   7
ATOM      7  C   UNL A   1      35.252  22.081  25.679  1.00  0.00     0.058 A 
ATOM      8  C   UNL A   1      33.193  23.756  26.466  1.00  0.00     0.130 A 
ATOM      9  C   UNL A   1      34.099  24.187  25.503  1.00  0.00     0.048 A 
ATOM     10  N   UNL A   1      33.352  22.591  27.121  1.00  0.00    -0.238 NA
ATOM     11  C   UNL A   1      35.148  23.351  25.124  1.00  0.00     0.019 A 
ATOM     12  C   UNL A   1      34.359  21.778  26.704  1.00  0.00     0.127 A 
BRANCH   8  13
ATOM     13  N   UNL A   1      32.019  24.475  26.720  1.00  0.00    -0.340 N 
ATOM     14  H   UNL A   1      31.406  24.102  27.395  1.00  0.00     0.168 HD
BRANCH  13  15
ATOM     15  C   UNL A   1      31.625  25.683  26.101  1.00  0.00     0.040 A 
ATOM     16  C   UNL A   1      30.966  28.067  24.714  1.00  0.00    -0.048 A 
ATOM     17  C   UNL A   1      31.720  28.108  25.888  1.00  0.00     0.006 A 
ATOM     18  C   UNL A   1      30.482  26.822  24.282  1.00  0.00     0.006 A 
ATOM     19  C   UNL A   1      32.057  26.933  26.560  1.00  0.00     0.026 A 
ATOM     20  C   UNL A   1      30.809  25.644  24.967  1.00  0.00     0.026 A 
BRANCH  16  21
ATOM     21  C   UNL A   1      30.635  29.311  23.922  1.00  0.00     0.035 C 
BRANCH  21  22
ATOM     22  C   UNL A   1      29.290  29.332  23.181  1.00  0.00     0.001 C 
ATOM     23  C   UNL A   1      28.559  30.667  23.274  1.00  0.00     0.004 C 
ENDBRANCH  21  22
ENDBRANCH  16  21
ENDBRANCH  13  15
ENDBRANCH   8  13
ENDBRANCH   4   7
ENDBRANCH   2   3
ENDBRANCH   1   2
BRANCH   1  24
ATOM     24  C   UNL A   1      40.426  22.283  27.527  1.00  0.00     0.023 C 
BRANCH  24  25
ATOM     25  C   UNL A   1      41.776  22.979  27.385  1.00  0.00     0.116 C 
BRANCH  25  26
ATOM     26  N   UNL A   1      41.881  23.790  26.182  1.00  0.00    -0.352 N 
ATOM     27  C   UNL A   1      41.799  25.158  26.061  1.00  0.00     0.251 C 
ATOM     28  H   UNL A   1      42.030  23.295  25.345  1.00  0.00     0.163 HD
ATOM     29  O   UNL A   1      41.805  25.676  24.952  1.00  0.00    -0.269 OA
BRANCH  27  30
ATOM     30  C   UNL A   1      41.660  25.986  27.278  1.00  0.00     0.039 A 
ATOM     31  C   UNL A   1      42.675  26.894  27.592  1.00  0.00     0.014 A 
ATOM     32  C   UNL A   1      40.524  25.889  28.083  1.00  0.00     0.014 A 
ATOM     33  C   UNL A   1      42.518  27.753  28.681  1.00  0.00     0.010 A 
ATOM     34  C   UNL A   1      40.339  26.792  29.127  1.00  0.00     0.010 A 
ATOM     35  C   UNL A   1      41.334  27.732  29.435  1.00  0.00    -0.014 A 
BRANCH  35  36
ATOM     36  C   UNL A   1      41.114  28.693  30.546  1.00  0.00     0.031 A 
ATOM     37  C   UNL A   1      41.930  28.592  31.804  1.00  0.00     0.074 A 
ATOM     38  C   UNL A   1      40.125  29.602  30.450  1.00  0.00     0.049 A 
ATOM     39  N   UNL A   1      41.839  29.293  32.904  1.00  0.00    -0.248 NA
ATOM     40  C   UNL A   1      42.962  27.545  31.840  1.00  0.00     0.031 C 
ATOM     41  C   UNL A   1      39.219  29.750  29.309  1.00  0.00     0.029 A 
ATOM     42  N   UNL A   1      39.703  30.561  31.335  1.00  0.00    -0.354 N 
ATOM     43  C   UNL A   1      42.790  28.764  33.769  1.00  0.00     0.074 A 
ATOM     44  C   UNL A   1      43.405  27.648  33.085  1.00  0.00     0.031 C 
ATOM     45  C   UNL A   1      38.355  30.746  29.559  1.00  0.00     0.029 A 
ATOM     46  C   UNL A   1      38.626  31.288  30.887  1.00  0.00     0.049 A 
ATOM     47  H   UNL A   1      40.131  30.715  32.208  1.00  0.00     0.167 HD
ATOM     48  C   UNL A   1      43.136  29.184  35.009  1.00  0.00     0.037 A 
ATOM     49  C   UNL A   1      37.929  32.277  31.482  1.00  0.00     0.037 A 
ATOM     50  C   UNL A   1      42.531  30.307  35.677  1.00  0.00     0.049 A 
ATOM     51  C   UNL A   1      38.348  32.752  32.844  1.00  0.00     0.074 A 
ATOM     52  C   UNL A   1      42.849  30.853  36.907  1.00  0.00     0.029 A 
ATOM     53  N   UNL A   1      41.477  31.056  35.168  1.00  0.00    -0.354 N 
ATOM     54  N   UNL A   1      39.303  32.292  33.619  1.00  0.00    -0.248 NA
ATOM     55  C   UNL A   1      37.610  33.889  33.409  1.00  0.00     0.031 C 
ATOM     56  C   UNL A   1      41.965  31.910  37.159  1.00  0.00     0.029 A 
ATOM     57  C   UNL A   1      41.123  32.049  36.066  1.00  0.00     0.049 A 
ATOM     58  H   UNL A   1      41.045  30.902  34.297  1.00  0.00     0.167 HD
ATOM     59  C   UNL A   1      39.290  33.092  34.755  1.00  0.00     0.074 A 
ATOM     60  C   UNL A   1      38.244  34.076  34.560  1.00  0.00     0.031 C 
ATOM     61  C   UNL A   1      40.075  33.019  35.859  1.00  0.00     0.037 A 
BRANCH  48  62
ATOM     62  C   UNL A   1      44.221  28.419  35.715  1.00  0.00     0.058 A 
ATOM     63  C   UNL A   1      45.579  28.725  35.526  1.00  0.00     0.135 A 
ATOM     64  C   UNL A   1      43.905  27.357  36.578  1.00  0.00     0.135 A 
ATOM     65  F   UNL A   1      45.939  29.722  34.702  1.00  0.00    -0.206 F 
ATOM     66  C   UNL A   1      46.586  27.975  36.125  1.00  0.00     0.059 A 
ATOM     67  C   UNL A   1      44.895  26.611  37.211  1.00  0.00     0.059 A 
ATOM     68  F   UNL A   1      42.624  27.022  36.798  1.00  0.00    -0.206 F 
ATOM     69  C   UNL A   1      46.233  26.913  36.958  1.00  0.00     0.060 A 
BRANCH  69  70
ATOM     70  S   UNL A   1      47.548  25.922  37.698  1.00  0.00     0.124 S 
ATOM     71  O   UNL A   1      46.823  25.224  38.756  1.00  0.00    -0.237 OA
ATOM     72  O   UNL A   1      47.985  25.092  36.580  1.00  0.00    -0.237 OA
ATOM     73  O   UNL A   1      48.513  26.920  38.149  1.00  0.00    -0.744 OA
ENDBRANCH  69  70
ENDBRANCH  48  62
BRANCH  49  74
ATOM     74  C   UNL A   1      36.782  32.893  30.766  1.00  0.00     0.058 A 
ATOM     75  C   UNL A   1      35.462  32.531  31.068  1.00  0.00     0.135 A 
ATOM     76  C   UNL A   1      36.983  33.898  29.806  1.00  0.00     0.135 A 
ATOM     77  F   UNL A   1      35.221  31.572  31.975  1.00  0.00    -0.206 F 
ATOM     78  C   UNL A   1      34.379  33.143  30.445  1.00  0.00     0.059 A 
ATOM     79  C   UNL A   1      35.915  34.539  29.185  1.00  0.00     0.059 A 
ATOM     80  F   UNL A   1      38.228  34.291  29.496  1.00  0.00    -0.206 F 
ATOM     81  C   UNL A   1      34.616  34.152  29.510  1.00  0.00     0.060 A 
BRANCH  81  82
ATOM     82  S   UNL A   1      33.202  35.000  28.772  1.00  0.00     0.124 S 
ATOM     83  O   UNL A   1      33.843  36.143  28.136  1.00  0.00    -0.237 OA
ATOM     84  O   UNL A   1      32.670  33.981  27.872  1.00  0.00    -0.237 OA
ATOM     85  O   UNL A   1      32.359  35.307  29.925  1.00  0.00    -0.744 OA
ENDBRANCH  81  82
ENDBRANCH  49  74
BRANCH  61  86
ATOM     86  C   UNL A   1      39.847  34.042  36.935  1.00  0.00     0.058 A 
ATOM     87  C   UNL A   1      39.085  33.750  38.077  1.00  0.00     0.135 A 
ATOM     88  C   UNL A   1      40.440  35.312  36.847  1.00  0.00     0.135 A 
ATOM     89  F   UNL A   1      38.491  32.553  38.206  1.00  0.00    -0.206 F 
ATOM     90  C   UNL A   1      38.901  34.691  39.086  1.00  0.00     0.059 A 
ATOM     91  C   UNL A   1      40.288  36.259  37.856  1.00  0.00     0.059 A 
ATOM     92  F   UNL A   1      41.186  35.638  35.780  1.00  0.00    -0.206 F 
ATOM     93  C   UNL A   1      39.508  35.942  38.967  1.00  0.00     0.060 A 
BRANCH  93  94
ATOM     94  S   UNL A   1      39.290  37.143  40.298  1.00  0.00     0.124 S 
ATOM     95  O   UNL A   1      38.419  36.411  41.212  1.00  0.00    -0.237 OA
ATOM     96  O   UNL A   1      40.659  37.353  40.757  1.00  0.00    -0.237 OA
ATOM     97  O   UNL A   1      38.678  38.286  39.626  1.00  0.00    -0.744 OA
ENDBRANCH  93  94
ENDBRANCH  61  86
ENDBRANCH  35  36
ENDBRANCH  27  30
ENDBRANCH  25  26
ENDBRANCH  24  25
ENDBRANCH   1  24
TORSDOF 18
ENDMDL
MODEL 2
REMARK VINA RESULT:     -11.5      4.945     10.814
REMARK SMILES CCCc1ccc(Nc2ccc(C(=O)NCCCCNC(=O)c3ccc(-c4c5nc(c(-c6c(F)cc(S(=O)(=O)[O-])cc6F)c6ccc([nH]6)c(-c6c(F)cc(S(=O)(=O)[O-])cc6F)c6nc(c(-c7c(F)cc(S(=O)(=O)[O-])cc7F)c7ccc4[nH]7)C=C6)C=C5)cc3)cn2)cc1
REMARK SMILES IDX 17 1 16 2 15 3 13 4 14 5 12 7 9 8 10 9 90 10 11 11 89 12
REMARK SMILES IDX 8 13 7 15 4 16 5 17 92 18 6 19 91 20 3 21 2 22 1 23 18 24
REMARK SMILES IDX 19 25 20 26 21 27 22 29 23 30 24 31 88 32 25 33 87 34 26 35
REMARK SMILES IDX 27 36 28 37 81 38 29 39 86 40 80 41 82 42 30 43 85 44 79 45
REMARK SMILES IDX 78 46 31 48 65 49 44 50 64 51 45 52 48 53 63 54 83 55 46 56
REMARK SMILES IDX 47 57 62 59 84 60 49 61 32 62 33 63 42 64 34 65 35 66 41 67
REMARK SMILES IDX 43 68 36 69 37 70 38 71 39 72 40 73 66 74 67 75 76 76 68 77
REMARK SMILES IDX 69 78 75 79 77 80 70 81 71 82 72 83 73 84 74 85 50 86 51 87
REMARK SMILES IDX 60 88 52 89 53 90 59 91 61 92 54 93 55 94 56 95 57 96 58 97
REMARK H PARENT 15 6 8 14 20 28 82 47 48 58
REMARK Flexibility Score: inf
ROOT
ATOM      1  C   UNL A   1      31.402  28.905  26.242  1.00  0.00     0.023 C 
ENDROOT
BRANCH   1   2
ATOM      2  C   UNL A   1      31.761  29.720  24.998  1.00  0.00     0.116 C 
BRANCH   2   3
ATOM      3  N   UNL A   1      30.658  29.742  24.058  1.00  0.00    -0.352 N 
ATOM      4  C   UNL A   1      30.161  28.796  23.195  1.00  0.00     0.252 C 
ATOM      5  O   UNL A   1      29.162  29.086  22.537  1.00  0.00    -0.269 OA
ATOM      6  H   UNL A   1      30.171  30.598  24.033  1.00  0.00     0.163 HD
BRANCH   4   7
ATOM      7  C   UNL A   1      30.725  27.432  23.062  1.00  0.00     0.058 A 
ATOM      8  C   UNL A   1      31.882  24.989  22.460  1.00  0.00     0.130 A 
ATOM      9  C   UNL A   1      30.768  25.036  23.292  1.00  0.00     0.048 A 
ATOM     10  N   UNL A   1      32.494  26.108  22.029  1.00  0.00    -0.238 NA
ATOM     11  C   UNL A   1      30.200  26.268  23.612  1.00  0.00     0.019 A 
ATOM     12  C   UNL A   1      31.897  27.294  22.323  1.00  0.00     0.127 A 
BRANCH   8  13
ATOM     13  N   UNL A   1      32.349  23.771  21.954  1.00  0.00    -0.340 N 
ATOM     14  H   UNL A   1      32.402  23.689  20.974  1.00  0.00     0.168 HD
BRANCH  13  15
ATOM     15  C   UNL A   1      32.750  22.647  22.710  1.00  0.00     0.040 A 
ATOM     16  C   UNL A   1      33.391  20.417  24.340  1.00  0.00    -0.048 A 
ATOM     17  C   UNL A   1      34.099  21.614  24.457  1.00  0.00     0.006 A 
ATOM     18  C   UNL A   1      32.405  20.325  23.346  1.00  0.00     0.006 A 
ATOM     19  C   UNL A   1      33.771  22.715  23.665  1.00  0.00     0.026 A 
ATOM     20  C   UNL A   1      32.088  21.428  22.541  1.00  0.00     0.026 A 
BRANCH  16  21
ATOM     21  C   UNL A   1      33.672  19.222  25.223  1.00  0.00     0.035 C 
BRANCH  21  22
ATOM     22  C   UNL A   1      33.509  17.831  24.593  1.00  0.00     0.001 C 
ATOM     23  C   UNL A   1      32.424  16.984  25.247  1.00  0.00     0.004 C 
ENDBRANCH  21  22
ENDBRANCH  16  21
ENDBRANCH  13  15
ENDBRANCH   8  13
ENDBRANCH   4   7
ENDBRANCH   2   3
ENDBRANCH   1   2
BRANCH   1  24
ATOM     24  C   UNL A   1      32.454  27.868  26.646  1.00  0.00     0.023 C 
BRANCH  24  25
ATOM     25  C   UNL A   1      33.749  28.444  27.208  1.00  0.00     0.116 C 
BRANCH  25  26
ATOM     26  N   UNL A   1      33.621  29.826  27.646  1.00  0.00    -0.352 N 
ATOM     27  C   UNL A   1      34.561  30.620  28.260  1.00  0.00     0.251 C 
ATOM     28  H   UNL A   1      32.748  30.247  27.481  1.00  0.00     0.163 HD
ATOM     29  O   UNL A   1      34.255  31.736  28.659  1.00  0.00    -0.269 OA
BRANCH  27  30
ATOM     30  C   UNL A   1      35.928  30.096  28.471  1.00  0.00     0.039 A 
ATOM     31  C   UNL A   1      36.831  30.128  27.405  1.00  0.00     0.014 A 
ATOM     32  C   UNL A   1      36.322  29.606  29.718  1.00  0.00     0.014 A 
ATOM     33  C   UNL A   1      38.153  29.729  27.610  1.00  0.00     0.010 A 
ATOM     34  C   UNL A   1      37.656  29.272  29.938  1.00  0.00     0.010 A 
ATOM     35  C   UNL A   1      38.583  29.331  28.887  1.00  0.00    -0.014 A 
BRANCH  35  36
ATOM     36  C   UNL A   1      40.003  28.980  29.144  1.00  0.00     0.031 A 
ATOM     37  C   UNL A   1      40.947  30.012  29.694  1.00  0.00     0.074 A 
ATOM     38  C   UNL A   1      40.456  27.758  28.806  1.00  0.00     0.049 A 
ATOM     39  N   UNL A   1      42.232  29.916  29.922  1.00  0.00    -0.248 NA
ATOM     40  C   UNL A   1      40.378  31.334  29.999  1.00  0.00     0.031 C 
ATOM     41  C   UNL A   1      39.651  26.696  28.198  1.00  0.00     0.029 A 
ATOM     42  N   UNL A   1      41.709  27.209  28.907  1.00  0.00    -0.354 N 
ATOM     43  C   UNL A   1      42.628  31.167  30.381  1.00  0.00     0.074 A 
ATOM     44  C   UNL A   1      41.459  32.018  30.345  1.00  0.00     0.031 C 
ATOM     45  C   UNL A   1      40.428  25.621  27.988  1.00  0.00     0.029 A 
ATOM     46  C   UNL A   1      41.789  25.926  28.421  1.00  0.00     0.049 A 
ATOM     47  H   UNL A   1      42.478  27.687  29.293  1.00  0.00     0.167 HD
ATOM     48  C   UNL A   1      43.848  31.563  30.816  1.00  0.00     0.037 A 
ATOM     49  C   UNL A   1      42.842  25.090  28.325  1.00  0.00     0.037 A 
ATOM     50  C   UNL A   1      45.003  30.705  30.866  1.00  0.00     0.049 A 
ATOM     51  C   UNL A   1      44.181  25.535  28.844  1.00  0.00     0.074 A 
ATOM     52  C   UNL A   1      46.269  30.990  31.346  1.00  0.00     0.029 A 
ATOM     53  N   UNL A   1      45.033  29.392  30.414  1.00  0.00    -0.354 N 
ATOM     54  N   UNL A   1      44.522  26.698  29.349  1.00  0.00    -0.248 NA
ATOM     55  C   UNL A   1      45.273  24.555  28.795  1.00  0.00     0.031 C 
ATOM     56  C   UNL A   1      47.074  29.860  31.152  1.00  0.00     0.029 A 
ATOM     57  C   UNL A   1      46.299  28.858  30.590  1.00  0.00     0.049 A 
ATOM     58  H   UNL A   1      44.267  28.912  30.025  1.00  0.00     0.167 HD
ATOM     59  C   UNL A   1      45.864  26.583  29.693  1.00  0.00     0.074 A 
ATOM     60  C   UNL A   1      46.267  25.233  29.353  1.00  0.00     0.031 C 
ATOM     61  C   UNL A   1      46.686  27.512  30.242  1.00  0.00     0.037 A 
BRANCH  48  62
ATOM     62  C   UNL A   1      43.984  32.990  31.273  1.00  0.00     0.058 A 
ATOM     63  C   UNL A   1      44.365  34.011  30.387  1.00  0.00     0.135 A 
ATOM     64  C   UNL A   1      43.747  33.340  32.612  1.00  0.00     0.135 A 
ATOM     65  F   UNL A   1      44.617  33.731  29.099  1.00  0.00    -0.206 F 
ATOM     66  C   UNL A   1      44.557  35.319  30.822  1.00  0.00     0.059 A 
ATOM     67  C   UNL A   1      43.904  34.648  33.063  1.00  0.00     0.059 A 
ATOM     68  F   UNL A   1      43.376  32.406  33.500  1.00  0.00    -0.206 F 
ATOM     69  C   UNL A   1      44.334  35.625  32.165  1.00  0.00     0.060 A 
BRANCH  69  70
ATOM     70  S   UNL A   1      44.624  37.316  32.725  1.00  0.00     0.124 S 
ATOM     71  O   UNL A   1      45.853  37.157  33.497  1.00  0.00    -0.237 OA
ATOM     72  O   UNL A   1      44.757  38.046  31.469  1.00  0.00    -0.237 OA
ATOM     73  O   UNL A   1      43.429  37.626  33.504  1.00  0.00    -0.744 OA
ENDBRANCH  69  70
ENDBRANCH  48  62
BRANCH  49  74
ATOM     74  C   UNL A   1      42.650  23.739  27.738  1.00  0.00     0.058 A 
ATOM     75  C   UNL A   1      42.771  23.527  26.357  1.00  0.00     0.135 A 
ATOM     76  C   UNL A   1      42.398  22.624  28.553  1.00  0.00     0.135 A 
ATOM     77  F   UNL A   1      43.007  24.563  25.538  1.00  0.00    -0.206 F 
ATOM     78  C   UNL A   1      42.650  22.257  25.803  1.00  0.00     0.059 A 
ATOM     79  C   UNL A   1      42.294  21.341  28.024  1.00  0.00     0.059 A 
ATOM     80  F   UNL A   1      42.291  22.775  29.882  1.00  0.00    -0.206 F 
ATOM     81  C   UNL A   1      42.420  21.168  26.647  1.00  0.00     0.060 A 
BRANCH  81  82
ATOM     82  S   UNL A   1      42.351  19.513  25.927  1.00  0.00     0.124 S 
ATOM     83  O   UNL A   1      42.821  18.690  27.035  1.00  0.00    -0.237 OA
ATOM     84  O   UNL A   1      40.937  19.384  25.588  1.00  0.00    -0.237 OA
ATOM     85  O   UNL A   1      43.255  19.610  24.783  1.00  0.00    -0.744 OA
ENDBRANCH  81  82
ENDBRANCH  49  74
BRANCH  61  86
ATOM     86  C   UNL A   1      48.101  27.097  30.528  1.00  0.00     0.058 A 
ATOM     87  C   UNL A   1      49.133  27.314  29.602  1.00  0.00     0.135 A 
ATOM     88  C   UNL A   1      48.438  26.520  31.764  1.00  0.00     0.135 A 
ATOM     89  F   UNL A   1      48.863  27.856  28.404  1.00  0.00    -0.206 F 
ATOM     90  C   UNL A   1      50.448  26.955  29.883  1.00  0.00     0.059 A 
ATOM     91  C   UNL A   1      49.749  26.175  32.074  1.00  0.00     0.059 A 
ATOM     92  F   UNL A   1      47.489  26.299  32.688  1.00  0.00    -0.206 F 
ATOM     93  C   UNL A   1      50.746  26.387  31.123  1.00  0.00     0.060 A 
BRANCH  93  94
ATOM     94  S   UNL A   1      52.461  25.956  31.489  1.00  0.00     0.124 S 
ATOM     95  O   UNL A   1      52.314  24.612  32.038  1.00  0.00    -0.237 OA
ATOM     96  O   UNL A   1      53.093  26.040  30.177  1.00  0.00    -0.237 OA
ATOM     97  O   UNL A   1      52.872  26.984  32.443  1.00  0.00    -0.744 OA
ENDBRANCH  93  94
ENDBRANCH  61  86
ENDBRANCH  35  36
ENDBRANCH  27  30
ENDBRANCH  25  26
ENDBRANCH  24  25
ENDBRANCH   1  24
TORSDOF 18
ENDMDL
MODEL 3
REMARK VINA RESULT:     -11.4      6.349     12.126
REMARK SMILES CCCc1ccc(Nc2ccc(C(=O)NCCCCNC(=O)c3ccc(-c4c5nc(c(-c6c(F)cc(S(=O)(=O)[O-])cc6F)c6ccc([nH]6)c(-c6c(F)cc(S(=O)(=O)[O-])cc6F)c6nc(c(-c7c(F)cc(S(=O)(=O)[O-])cc7F)c7ccc4[nH]7)C=C6)C=C5)cc3)cn2)cc1
REMARK SMILES IDX 17 1 16 2 15 3 13 4 14 5 12 7 9 8 10 9 90 10 11 11 89 12
REMARK SMILES IDX 8 13 7 15 4 16 5 17 92 18 6 19 91 20 3 21 2 22 1 23 18 24
REMARK SMILES IDX 19 25 20 26 21 27 22 29 23 30 24 31 88 32 25 33 87 34 26 35
REMARK SMILES IDX 27 36 28 37 81 38 29 39 86 40 80 41 82 42 30 43 85 44 79 45
REMARK SMILES IDX 78 46 31 48 65 49 44 50 64 51 45 52 48 53 63 54 83 55 46 56
REMARK SMILES IDX 47 57 62 59 84 60 49 61 32 62 33 63 42 64 34 65 35 66 41 67
REMARK SMILES IDX 43 68 36 69 37 70 38 71 39 72 40 73 66 74 67 75 76 76 68 77
REMARK SMILES IDX 69 78 75 79 77 80 70 81 71 82 72 83 73 84 74 85 50 86 51 87
REMARK SMILES IDX 60 88 52 89 53 90 59 91 61 92 54 93 55 94 56 95 57 96 58 97
REMARK H PARENT 15 6 8 14 20 28 82 47 48 58
REMARK Flexibility Score: inf
ROOT
ATOM      1  C   UNL A   1      34.528  29.872  26.827  1.00  0.00     0.023 C 
ENDROOT
BRANCH   1   2
ATOM      2  C   UNL A   1      33.274  29.540  26.016  1.00  0.00     0.116 C 
BRANCH   2   3
ATOM      3  N   UNL A   1      33.597  29.365  24.613  1.00  0.00    -0.352 N 
ATOM      4  C   UNL A   1      33.755  28.245  23.836  1.00  0.00     0.252 C 
ATOM      5  O   UNL A   1      33.987  28.405  22.637  1.00  0.00    -0.269 OA
ATOM      6  H   UNL A   1      33.727  30.211  24.125  1.00  0.00     0.163 HD
BRANCH   4   7
ATOM      7  C   UNL A   1      33.602  26.862  24.349  1.00  0.00     0.058 A 
ATOM      8  C   UNL A   1      33.046  24.240  25.039  1.00  0.00     0.130 A 
ATOM      9  C   UNL A   1      33.422  25.145  26.026  1.00  0.00     0.048 A 
ATOM     10  N   UNL A   1      33.057  24.566  23.733  1.00  0.00    -0.238 NA
ATOM     11  C   UNL A   1      33.723  26.459  25.674  1.00  0.00     0.019 A 
ATOM     12  C   UNL A   1      33.315  25.865  23.421  1.00  0.00     0.127 A 
BRANCH   8  13
ATOM     13  N   UNL A   1      32.540  22.979  25.377  1.00  0.00    -0.340 N 
ATOM     14  H   UNL A   1      31.705  22.961  25.900  1.00  0.00     0.168 HD
BRANCH  13  15
ATOM     15  C   UNL A   1      33.109  21.730  25.043  1.00  0.00     0.040 A 
ATOM     16  C   UNL A   1      34.181  19.152  24.545  1.00  0.00    -0.048 A 
ATOM     17  C   UNL A   1      35.012  20.213  24.907  1.00  0.00     0.006 A 
ATOM     18  C   UNL A   1      32.814  19.414  24.362  1.00  0.00     0.006 A 
ATOM     19  C   UNL A   1      34.480  21.477  25.168  1.00  0.00     0.026 A 
ATOM     20  C   UNL A   1      32.285  20.688  24.610  1.00  0.00     0.026 A 
BRANCH  16  21
ATOM     21  C   UNL A   1      34.708  17.754  24.317  1.00  0.00     0.035 C 
BRANCH  21  22
ATOM     22  C   UNL A   1      33.707  16.700  23.820  1.00  0.00     0.001 C 
ATOM     23  C   UNL A   1      33.179  15.788  24.921  1.00  0.00     0.004 C 
ENDBRANCH  21  22
ENDBRANCH  16  21
ENDBRANCH  13  15
ENDBRANCH   8  13
ENDBRANCH   4   7
ENDBRANCH   2   3
ENDBRANCH   1   2
BRANCH   1  24
ATOM     24  C   UNL A   1      34.315  30.921  27.922  1.00  0.00     0.023 C 
BRANCH  24  25
ATOM     25  C   UNL A   1      35.579  31.356  28.656  1.00  0.00     0.116 C 
BRANCH  25  26
ATOM     26  N   UNL A   1      35.463  31.270  30.104  1.00  0.00    -0.352 N 
ATOM     27  C   UNL A   1      36.336  30.701  31.002  1.00  0.00     0.251 C 
ATOM     28  H   UNL A   1      34.653  31.672  30.491  1.00  0.00     0.163 HD
ATOM     29  O   UNL A   1      36.034  30.622  32.185  1.00  0.00    -0.269 OA
BRANCH  27  30
ATOM     30  C   UNL A   1      37.618  30.147  30.515  1.00  0.00     0.039 A 
ATOM     31  C   UNL A   1      37.930  30.269  29.158  1.00  0.00     0.014 A 
ATOM     32  C   UNL A   1      38.517  29.542  31.396  1.00  0.00     0.014 A 
ATOM     33  C   UNL A   1      39.176  29.841  28.696  1.00  0.00     0.010 A 
ATOM     34  C   UNL A   1      39.784  29.179  30.947  1.00  0.00     0.010 A 
ATOM     35  C   UNL A   1      40.124  29.325  29.594  1.00  0.00    -0.014 A 
BRANCH  35  36
ATOM     36  C   UNL A   1      41.484  28.940  29.137  1.00  0.00     0.031 A 
ATOM     37  C   UNL A   1      42.570  29.974  29.045  1.00  0.00     0.074 A 
ATOM     38  C   UNL A   1      41.714  27.677  28.729  1.00  0.00     0.049 A 
ATOM     39  N   UNL A   1      43.796  29.847  28.607  1.00  0.00    -0.248 NA
ATOM     40  C   UNL A   1      42.223  31.338  29.473  1.00  0.00     0.031 C 
ATOM     41  C   UNL A   1      40.720  26.602  28.704  1.00  0.00     0.029 A 
ATOM     42  N   UNL A   1      42.852  27.088  28.240  1.00  0.00    -0.354 N 
ATOM     43  C   UNL A   1      44.361  31.114  28.691  1.00  0.00     0.074 A 
ATOM     44  C   UNL A   1      43.327  32.004  29.169  1.00  0.00     0.031 C 
ATOM     45  C   UNL A   1      41.293  25.484  28.232  1.00  0.00     0.029 A 
ATOM     46  C   UNL A   1      42.686  25.768  27.896  1.00  0.00     0.049 A 
ATOM     47  H   UNL A   1      43.707  27.566  28.143  1.00  0.00     0.167 HD
ATOM     48  C   UNL A   1      45.633  31.495  28.420  1.00  0.00     0.037 A 
ATOM     49  C   UNL A   1      43.553  24.886  27.363  1.00  0.00     0.037 A 
ATOM     50  C   UNL A   1      46.662  30.599  27.962  1.00  0.00     0.049 A 
ATOM     51  C   UNL A   1      44.969  25.318  27.099  1.00  0.00     0.074 A 
ATOM     52  C   UNL A   1      47.996  30.870  27.717  1.00  0.00     0.029 A 
ATOM     53  N   UNL A   1      46.469  29.253  27.677  1.00  0.00    -0.354 N 
ATOM     54  N   UNL A   1      45.510  26.503  27.259  1.00  0.00    -0.248 NA
ATOM     55  C   UNL A   1      45.895  24.294  26.600  1.00  0.00     0.031 C 
ATOM     56  C   UNL A   1      48.602  29.698  27.249  1.00  0.00     0.029 A 
ATOM     57  C   UNL A   1      47.656  28.685  27.244  1.00  0.00     0.049 A 
ATOM     58  H   UNL A   1      45.615  28.774  27.769  1.00  0.00     0.167 HD
ATOM     59  C   UNL A   1      46.844  26.364  26.894  1.00  0.00     0.074 A 
ATOM     60  C   UNL A   1      47.031  24.976  26.521  1.00  0.00     0.031 C 
ATOM     61  C   UNL A   1      47.825  27.301  26.872  1.00  0.00     0.037 A 
BRANCH  48  62
ATOM     62  C   UNL A   1      45.970  32.947  28.616  1.00  0.00     0.058 A 
ATOM     63  C   UNL A   1      46.484  33.425  29.833  1.00  0.00     0.135 A 
ATOM     64  C   UNL A   1      45.763  33.877  27.584  1.00  0.00     0.135 A 
ATOM     65  F   UNL A   1      46.688  32.582  30.858  1.00  0.00    -0.206 F 
ATOM     66  C   UNL A   1      46.732  34.778  30.039  1.00  0.00     0.059 A 
ATOM     67  C   UNL A   1      46.032  35.232  27.758  1.00  0.00     0.059 A 
ATOM     68  F   UNL A   1      45.278  33.477  26.400  1.00  0.00    -0.206 F 
ATOM     69  C   UNL A   1      46.493  35.675  28.998  1.00  0.00     0.060 A 
BRANCH  69  70
ATOM     70  S   UNL A   1      46.781  37.434  29.289  1.00  0.00     0.124 S 
ATOM     71  O   UNL A   1      45.424  37.967  29.203  1.00  0.00    -0.237 OA
ATOM     72  O   UNL A   1      47.378  37.439  30.621  1.00  0.00    -0.237 OA
ATOM     73  O   UNL A   1      47.676  37.816  28.202  1.00  0.00    -0.744 OA
ENDBRANCH  69  70
ENDBRANCH  48  62
BRANCH  49  74
ATOM     74  C   UNL A   1      43.101  23.500  27.075  1.00  0.00     0.058 A 
ATOM     75  C   UNL A   1      42.807  23.093  25.766  1.00  0.00     0.135 A 
ATOM     76  C   UNL A   1      43.009  22.542  28.097  1.00  0.00     0.135 A 
ATOM     77  F   UNL A   1      42.876  23.975  24.758  1.00  0.00    -0.206 F 
ATOM     78  C   UNL A   1      42.438  21.783  25.477  1.00  0.00     0.059 A 
ATOM     79  C   UNL A   1      42.663  21.221  27.829  1.00  0.00     0.059 A 
ATOM     80  F   UNL A   1      43.298  22.880  29.363  1.00  0.00    -0.206 F 
ATOM     81  C   UNL A   1      42.377  20.852  26.516  1.00  0.00     0.060 A 
BRANCH  81  82
ATOM     82  S   UNL A   1      41.982  19.134  26.118  1.00  0.00     0.124 S 
ATOM     83  O   UNL A   1      42.312  18.459  27.367  1.00  0.00    -0.237 OA
ATOM     84  O   UNL A   1      40.563  19.214  25.789  1.00  0.00    -0.237 OA
ATOM     85  O   UNL A   1      42.863  18.843  24.990  1.00  0.00    -0.744 OA
ENDBRANCH  81  82
ENDBRANCH  49  74
BRANCH  61  86
ATOM     86  C   UNL A   1      49.195  26.854  26.447  1.00  0.00     0.058 A 
ATOM     87  C   UNL A   1      50.093  26.270  27.355  1.00  0.00     0.135 A 
ATOM     88  C   UNL A   1      49.595  26.965  25.105  1.00  0.00     0.135 A 
ATOM     89  F   UNL A   1      49.761  26.147  28.649  1.00  0.00    -0.206 F 
ATOM     90  C   UNL A   1      51.349  25.830  26.950  1.00  0.00     0.059 A 
ATOM     91  C   UNL A   1      50.838  26.509  24.675  1.00  0.00     0.059 A 
ATOM     92  F   UNL A   1      48.770  27.507  24.196  1.00  0.00    -0.206 F 
ATOM     93  C   UNL A   1      51.712  25.953  25.608  1.00  0.00     0.060 A 
BRANCH  93  94
ATOM     94  S   UNL A   1      53.332  25.347  25.088  1.00  0.00     0.124 S 
ATOM     95  O   UNL A   1      54.223  26.123  25.944  1.00  0.00    -0.237 OA
ATOM     96  O   UNL A   1      53.245  23.922  25.389  1.00  0.00    -0.237 OA
ATOM     97  O   UNL A   1      53.378  25.680  23.667  1.00  0.00    -0.744 OA
ENDBRANCH  93  94
ENDBRANCH  61  86
ENDBRANCH  35  36
ENDBRANCH  27  30
ENDBRANCH  25  26
ENDBRANCH  24  25
ENDBRANCH   1  24
TORSDOF 18
ENDMDL
