MODEL 1
REMARK VINA RESULT:     -13.5      0.000      0.000
REMARK SMILES O=C(NCCCCNC(=O)c1ccc([C@H]2Nc3ccc(Cl)cc3[C@@H]3C=CC[C@@H]23)cc1)c1ccc(-c2c3nc(c(-c4c(F)cc(S(=O)(=O)[O-])cc4F)c4ccc([nH]4)c(-c4c(F)cc(S(=O)(=O)[O-])cc4F)c4nc(c(-c5c(F)cc(S(=O)(=O)[O-])cc5F)c5ccc2[nH]5)C=C4)C=C3)cc1
REMARK SMILES IDX 4 1 3 2 1 3 2 4 31 6 32 7 96 8 33 9 95 10 34 11 35 12 36 13
REMARK SMILES IDX 89 14 37 15 94 16 88 17 90 18 38 19 93 20 87 21 86 22 39 24
REMARK SMILES IDX 73 25 52 26 72 27 53 28 56 29 71 30 91 31 54 32 55 33 70 35
REMARK SMILES IDX 92 36 57 37 40 38 41 39 50 40 42 41 43 42 49 43 51 44 44 45
REMARK SMILES IDX 45 46 46 47 47 48 48 49 74 50 75 51 84 52 76 53 77 54 83 55
REMARK SMILES IDX 85 56 78 57 79 58 80 59 81 60 82 61 58 62 59 63 68 64 60 65
REMARK SMILES IDX 61 66 67 67 69 68 62 69 63 70 64 71 65 72 66 73 5 74 6 75
REMARK SMILES IDX 7 76 8 77 9 78 10 80 11 81 12 82 30 83 13 84 29 85 14 86
REMARK SMILES IDX 15 87 16 88 28 89 17 90 24 92 27 93 18 94 23 95 25 96 26 97
REMARK SMILES IDX 19 98 22 99 20 100 21 101
REMARK H PARENT 3 5 90 23 56 34 8 79 16 91
REMARK Flexibility Score: inf
ROOT
ATOM      1  C   UNL A   1      38.241  23.947  26.597  1.00  0.00     0.116 C 
ENDROOT
BRANCH   1   2
ATOM      2  N   UNL A   1      39.616  23.946  26.119  1.00  0.00    -0.352 N 
ATOM      3  O   UNL A   1      41.731  24.651  25.828  1.00  0.00    -0.269 OA
ATOM      4  C   UNL A   1      40.673  24.764  26.446  1.00  0.00     0.251 C 
ATOM      5  H   UNL A   1      39.823  23.248  25.456  1.00  0.00     0.163 HD
BRANCH   4   6
ATOM      6  C   UNL A   1      40.548  25.795  27.505  1.00  0.00     0.039 A 
ATOM      7  C   UNL A   1      41.318  26.959  27.481  1.00  0.00     0.014 A 
ATOM      8  C   UNL A   1      39.616  25.605  28.531  1.00  0.00     0.014 A 
ATOM      9  C   UNL A   1      41.270  27.849  28.553  1.00  0.00     0.010 A 
ATOM     10  C   UNL A   1      39.510  26.543  29.567  1.00  0.00     0.010 A 
ATOM     11  C   UNL A   1      40.362  27.657  29.607  1.00  0.00    -0.014 A 
BRANCH  11  12
ATOM     12  C   UNL A   1      40.291  28.647  30.715  1.00  0.00     0.031 A 
ATOM     13  C   UNL A   1      41.208  28.550  31.906  1.00  0.00     0.074 A 
ATOM     14  C   UNL A   1      39.395  29.652  30.640  1.00  0.00     0.049 A 
ATOM     15  N   UNL A   1      41.273  29.321  32.963  1.00  0.00    -0.248 NA
ATOM     16  C   UNL A   1      42.174  27.440  31.916  1.00  0.00     0.031 C 
ATOM     17  C   UNL A   1      38.445  29.850  29.542  1.00  0.00     0.029 A 
ATOM     18  N   UNL A   1      39.137  30.696  31.492  1.00  0.00    -0.354 N 
ATOM     19  C   UNL A   1      42.271  28.785  33.770  1.00  0.00     0.074 A 
ATOM     20  C   UNL A   1      42.764  27.604  33.093  1.00  0.00     0.031 C 
ATOM     21  C   UNL A   1      37.733  30.962  29.771  1.00  0.00     0.029 A 
ATOM     22  C   UNL A   1      38.128  31.522  31.060  1.00  0.00     0.049 A 
ATOM     23  H   UNL A   1      39.629  30.839  32.332  1.00  0.00     0.167 HD
ATOM     24  C   UNL A   1      42.737  29.240  34.960  1.00  0.00     0.037 A 
ATOM     25  C   UNL A   1      37.562  32.598  31.640  1.00  0.00     0.037 A 
ATOM     26  C   UNL A   1      42.243  30.421  35.623  1.00  0.00     0.049 A 
ATOM     27  C   UNL A   1      38.071  33.063  32.974  1.00  0.00     0.074 A 
ATOM     28  C   UNL A   1      42.673  30.982  36.814  1.00  0.00     0.029 A 
ATOM     29  N   UNL A   1      41.205  31.219  35.162  1.00  0.00    -0.354 N 
ATOM     30  N   UNL A   1      39.038  32.563  33.706  1.00  0.00    -0.248 NA
ATOM     31  C   UNL A   1      37.415  34.238  33.564  1.00  0.00     0.031 C 
ATOM     32  C   UNL A   1      41.861  32.085  37.100  1.00  0.00     0.029 A 
ATOM     33  C   UNL A   1      40.963  32.250  36.056  1.00  0.00     0.049 A 
ATOM     34  H   UNL A   1      40.712  31.074  34.322  1.00  0.00     0.167 HD
ATOM     35  C   UNL A   1      39.122  33.375  34.831  1.00  0.00     0.074 A 
ATOM     36  C   UNL A   1      38.117  34.406  34.676  1.00  0.00     0.031 C 
ATOM     37  C   UNL A   1      39.961  33.275  35.892  1.00  0.00     0.037 A 
BRANCH  24  38
ATOM     38  C   UNL A   1      43.823  28.445  35.638  1.00  0.00     0.058 A 
ATOM     39  C   UNL A   1      43.533  27.427  36.562  1.00  0.00     0.135 A 
ATOM     40  C   UNL A   1      45.175  28.678  35.330  1.00  0.00     0.135 A 
ATOM     41  F   UNL A   1      42.261  27.165  36.902  1.00  0.00    -0.206 F 
ATOM     42  C   UNL A   1      44.542  26.696  37.182  1.00  0.00     0.059 A 
ATOM     43  C   UNL A   1      46.198  27.939  35.917  1.00  0.00     0.059 A 
ATOM     44  F   UNL A   1      45.512  29.633  34.450  1.00  0.00    -0.206 F 
ATOM     45  C   UNL A   1      45.873  26.962  36.855  1.00  0.00     0.060 A 
BRANCH  45  46
ATOM     46  S   UNL A   1      47.170  26.014  37.680  1.00  0.00     0.124 S 
ATOM     47  O   UNL A   1      46.392  25.217  38.624  1.00  0.00    -0.237 OA
ATOM     48  O   UNL A   1      47.771  25.278  36.574  1.00  0.00    -0.237 OA
ATOM     49  O   UNL A   1      48.016  27.043  38.278  1.00  0.00    -0.744 OA
ENDBRANCH  45  46
ENDBRANCH  24  38
BRANCH  25  50
ATOM     50  C   UNL A   1      36.444  33.299  30.953  1.00  0.00     0.058 A 
ATOM     51  C   UNL A   1      35.133  33.225  31.444  1.00  0.00     0.135 A 
ATOM     52  C   UNL A   1      36.675  34.089  29.816  1.00  0.00     0.135 A 
ATOM     53  F   UNL A   1      34.861  32.479  32.525  1.00  0.00    -0.206 F 
ATOM     54  C   UNL A   1      34.087  33.906  30.828  1.00  0.00     0.059 A 
ATOM     55  C   UNL A   1      35.651  34.801  29.200  1.00  0.00     0.059 A 
ATOM     56  F   UNL A   1      37.915  34.204  29.317  1.00  0.00    -0.206 F 
ATOM     57  C   UNL A   1      34.359  34.698  29.710  1.00  0.00     0.060 A 
BRANCH  57  58
ATOM     58  S   UNL A   1      33.006  35.628  28.960  1.00  0.00     0.124 S 
ATOM     59  O   UNL A   1      32.374  34.610  28.129  1.00  0.00    -0.237 OA
ATOM     60  O   UNL A   1      32.247  36.062  30.128  1.00  0.00    -0.237 OA
ATOM     61  O   UNL A   1      33.693  36.696  28.238  1.00  0.00    -0.744 OA
ENDBRANCH  57  58
ENDBRANCH  25  50
BRANCH  37  62
ATOM     62  C   UNL A   1      39.857  34.332  36.958  1.00  0.00     0.058 A 
ATOM     63  C   UNL A   1      40.535  35.557  36.857  1.00  0.00     0.135 A 
ATOM     64  C   UNL A   1      39.025  34.133  38.073  1.00  0.00     0.135 A 
ATOM     65  F   UNL A   1      41.349  35.796  35.817  1.00  0.00    -0.206 F 
ATOM     66  C   UNL A   1      40.410  36.540  37.834  1.00  0.00     0.059 A 
ATOM     67  C   UNL A   1      38.863  35.113  39.048  1.00  0.00     0.059 A 
ATOM     68  F   UNL A   1      38.348  32.983  38.216  1.00  0.00    -0.206 F 
ATOM     69  C   UNL A   1      39.568  36.309  38.925  1.00  0.00     0.060 A 
BRANCH  69  70
ATOM     70  S   UNL A   1      39.386  37.606  40.167  1.00  0.00     0.124 S 
ATOM     71  O   UNL A   1      40.736  38.158  40.217  1.00  0.00    -0.237 OA
ATOM     72  O   UNL A   1      38.369  38.469  39.571  1.00  0.00    -0.237 OA
ATOM     73  O   UNL A   1      38.961  36.879  41.360  1.00  0.00    -0.744 OA
ENDBRANCH  69  70
ENDBRANCH  37  62
ENDBRANCH  11  12
ENDBRANCH   4   6
ENDBRANCH   1   2
BRANCH   1  74
ATOM     74  C   UNL A   1      37.209  23.792  25.483  1.00  0.00     0.023 C 
BRANCH  74  75
ATOM     75  C   UNL A   1      36.825  22.360  25.102  1.00  0.00     0.023 C 
BRANCH  75  76
ATOM     76  C   UNL A   1      35.749  21.678  25.957  1.00  0.00     0.116 C 
BRANCH  76  77
ATOM     77  N   UNL A   1      35.188  20.479  25.351  1.00  0.00    -0.352 N 
ATOM     78  C   UNL A   1      33.937  20.196  24.847  1.00  0.00     0.251 C 
ATOM     79  H   UNL A   1      35.822  19.728  25.290  1.00  0.00     0.163 HD
ATOM     80  O   UNL A   1      33.703  19.054  24.456  1.00  0.00    -0.269 OA
BRANCH  78  81
ATOM     81  C   UNL A   1      32.843  21.199  24.814  1.00  0.00     0.039 A 
ATOM     82  C   UNL A   1      32.328  21.653  26.036  1.00  0.00     0.014 A 
ATOM     83  C   UNL A   1      32.308  21.701  23.630  1.00  0.00     0.014 A 
ATOM     84  C   UNL A   1      31.457  22.749  26.077  1.00  0.00     0.006 A 
ATOM     85  C   UNL A   1      31.442  22.801  23.673  1.00  0.00     0.006 A 
ATOM     86  C   UNL A   1      31.134  23.428  24.895  1.00  0.00    -0.025 A 
BRANCH  86  87
ATOM     87  C   UNL A   1      30.798  24.926  24.877  1.00  0.00     0.114 C 
ATOM     88  N   UNL A   1      30.822  25.572  26.213  1.00  0.00    -0.378 N 
ATOM     89  C   UNL A   1      31.782  25.691  23.962  1.00  0.00     0.031 C 
ATOM     90  C   UNL A   1      31.704  26.625  26.500  1.00  0.00     0.038 A 
ATOM     91  H   UNL A   1      30.208  25.255  26.913  1.00  0.00     0.161 HD
ATOM     92  C   UNL A   1      33.134  25.749  24.697  1.00  0.00     0.049 C 
ATOM     93  C   UNL A   1      32.089  25.294  22.519  1.00  0.00     0.034 C 
ATOM     94  C   UNL A   1      31.369  27.615  27.427  1.00  0.00     0.027 A 
ATOM     95  C   UNL A   1      32.904  26.785  25.754  1.00  0.00    -0.016 A 
ATOM     96  C   UNL A   1      34.112  25.893  23.587  1.00  0.00    -0.023 C 
ATOM     97  C   UNL A   1      33.558  25.571  22.411  1.00  0.00    -0.030 C 
ATOM     98  C   UNL A   1      32.203  28.728  27.609  1.00  0.00     0.022 A 
ATOM     99  C   UNL A   1      33.760  27.868  25.970  1.00  0.00     0.027 A 
ATOM    100  C   UNL A   1      33.393  28.844  26.889  1.00  0.00     0.041 A 
ATOM    101  Cl  UNL A   1      34.397  30.226  27.106  1.00  0.00    -0.084 Cl
ENDBRANCH  86  87
ENDBRANCH  78  81
ENDBRANCH  76  77
ENDBRANCH  75  76
ENDBRANCH  74  75
ENDBRANCH   1  74
TORSDOF 15
ENDMDL
MODEL 2
REMARK VINA RESULT:     -13.4      6.640     12.010
REMARK SMILES O=C(NCCCCNC(=O)c1ccc([C@H]2Nc3ccc(Cl)cc3[C@@H]3C=CC[C@@H]23)cc1)c1ccc(-c2c3nc(c(-c4c(F)cc(S(=O)(=O)[O-])cc4F)c4ccc([nH]4)c(-c4c(F)cc(S(=O)(=O)[O-])cc4F)c4nc(c(-c5c(F)cc(S(=O)(=O)[O-])cc5F)c5ccc2[nH]5)C=C4)C=C3)cc1
REMARK SMILES IDX 4 1 3 2 1 3 2 4 31 6 32 7 96 8 33 9 95 10 34 11 35 12 36 13
REMARK SMILES IDX 89 14 37 15 94 16 88 17 90 18 38 19 93 20 87 21 86 22 39 24
REMARK SMILES IDX 73 25 52 26 72 27 53 28 56 29 71 30 91 31 54 32 55 33 70 35
REMARK SMILES IDX 92 36 57 37 40 38 41 39 50 40 42 41 43 42 49 43 51 44 44 45
REMARK SMILES IDX 45 46 46 47 47 48 48 49 74 50 75 51 84 52 76 53 77 54 83 55
REMARK SMILES IDX 85 56 78 57 79 58 80 59 81 60 82 61 58 62 59 63 68 64 60 65
REMARK SMILES IDX 61 66 67 67 69 68 62 69 63 70 64 71 65 72 66 73 5 74 6 75
REMARK SMILES IDX 7 76 8 77 9 78 10 80 11 81 12 82 30 83 13 84 29 85 14 86
REMARK SMILES IDX 15 87 16 88 28 89 17 90 24 92 27 93 18 94 23 95 25 96 26 97
REMARK SMILES IDX 19 98 22 99 20 100 21 101
REMARK H PARENT 3 5 90 23 56 34 8 79 16 91
REMARK Flexibility Score: inf
ROOT
ATOM      1  C   UNL A   1      35.090  29.503  27.604  1.00  0.00     0.116 C 
ENDROOT
BRANCH   1   2
ATOM      2  N   UNL A   1      35.145  30.172  28.896  1.00  0.00    -0.352 N 
ATOM      3  O   UNL A   1      35.982  30.849  30.870  1.00  0.00    -0.269 OA
ATOM      4  C   UNL A   1      36.194  30.338  29.770  1.00  0.00     0.251 C 
ATOM      5  H   UNL A   1      34.294  30.571  29.191  1.00  0.00     0.163 HD
BRANCH   4   6
ATOM      6  C   UNL A   1      37.563  29.886  29.422  1.00  0.00     0.039 A 
ATOM      7  C   UNL A   1      38.453  29.441  30.401  1.00  0.00     0.014 A 
ATOM      8  C   UNL A   1      37.955  29.880  28.079  1.00  0.00     0.014 A 
ATOM      9  C   UNL A   1      39.771  29.142  30.061  1.00  0.00     0.010 A 
ATOM     10  C   UNL A   1      39.257  29.500  27.729  1.00  0.00     0.010 A 
ATOM     11  C   UNL A   1      40.190  29.161  28.721  1.00  0.00    -0.014 A 
BRANCH  11  12
ATOM     12  C   UNL A   1      41.588  28.787  28.374  1.00  0.00     0.031 A 
ATOM     13  C   UNL A   1      42.691  29.813  28.374  1.00  0.00     0.074 A 
ATOM     14  C   UNL A   1      41.866  27.504  28.067  1.00  0.00     0.049 A 
ATOM     15  N   UNL A   1      43.960  29.660  28.088  1.00  0.00    -0.248 NA
ATOM     16  C   UNL A   1      42.322  31.190  28.737  1.00  0.00     0.031 C 
ATOM     17  C   UNL A   1      40.883  26.419  28.022  1.00  0.00     0.029 A 
ATOM     18  N   UNL A   1      43.050  26.892  27.739  1.00  0.00    -0.354 N 
ATOM     19  C   UNL A   1      44.538  30.919  28.220  1.00  0.00     0.074 A 
ATOM     20  C   UNL A   1      43.474  31.830  28.583  1.00  0.00     0.031 C 
ATOM     21  C   UNL A   1      41.508  25.272  27.719  1.00  0.00     0.029 A 
ATOM     22  C   UNL A   1      42.921  25.547  27.485  1.00  0.00     0.049 A 
ATOM     23  H   UNL A   1      43.909  27.371  27.691  1.00  0.00     0.167 HD
ATOM     24  C   UNL A   1      45.836  31.278  28.060  1.00  0.00     0.037 A 
ATOM     25  C   UNL A   1      43.829  24.636  27.086  1.00  0.00     0.037 A 
ATOM     26  C   UNL A   1      46.891  30.361  27.704  1.00  0.00     0.049 A 
ATOM     27  C   UNL A   1      45.255  25.065  26.881  1.00  0.00     0.074 A 
ATOM     28  C   UNL A   1      48.242  30.622  27.550  1.00  0.00     0.029 A 
ATOM     29  N   UNL A   1      46.716  29.011  27.435  1.00  0.00    -0.354 N 
ATOM     30  N   UNL A   1      45.789  26.252  27.043  1.00  0.00    -0.248 NA
ATOM     31  C   UNL A   1      46.203  24.033  26.441  1.00  0.00     0.031 C 
ATOM     32  C   UNL A   1      48.874  29.444  27.138  1.00  0.00     0.029 A 
ATOM     33  C   UNL A   1      47.927  28.432  27.092  1.00  0.00     0.049 A 
ATOM     34  H   UNL A   1      45.855  28.533  27.481  1.00  0.00     0.167 HD
ATOM     35  C   UNL A   1      47.139  26.105  26.747  1.00  0.00     0.074 A 
ATOM     36  C   UNL A   1      47.342  24.711  26.409  1.00  0.00     0.031 C 
ATOM     37  C   UNL A   1      48.120  27.041  26.760  1.00  0.00     0.037 A 
BRANCH  24  38
ATOM     38  C   UNL A   1      46.190  32.731  28.245  1.00  0.00     0.058 A 
ATOM     39  C   UNL A   1      46.636  33.236  29.477  1.00  0.00     0.135 A 
ATOM     40  C   UNL A   1      46.118  33.625  27.163  1.00  0.00     0.135 A 
ATOM     41  F   UNL A   1      46.717  32.432  30.549  1.00  0.00    -0.206 F 
ATOM     42  C   UNL A   1      46.963  34.580  29.638  1.00  0.00     0.059 A 
ATOM     43  C   UNL A   1      46.467  34.966  27.294  1.00  0.00     0.059 A 
ATOM     44  F   UNL A   1      45.704  33.198  25.960  1.00  0.00    -0.206 F 
ATOM     45  C   UNL A   1      46.872  35.438  28.541  1.00  0.00     0.060 A 
BRANCH  45  46
ATOM     46  S   UNL A   1      47.285  37.181  28.773  1.00  0.00     0.124 S 
ATOM     47  O   UNL A   1      47.772  37.543  27.444  1.00  0.00    -0.237 OA
ATOM     48  O   UNL A   1      46.002  37.759  29.156  1.00  0.00    -0.237 OA
ATOM     49  O   UNL A   1      48.297  37.155  29.825  1.00  0.00    -0.744 OA
ENDBRANCH  45  46
ENDBRANCH  24  38
BRANCH  25  50
ATOM     50  C   UNL A   1      43.405  23.231  26.850  1.00  0.00     0.058 A 
ATOM     51  C   UNL A   1      43.310  22.710  25.552  1.00  0.00     0.135 A 
ATOM     52  C   UNL A   1      43.124  22.370  27.923  1.00  0.00     0.135 A 
ATOM     53  F   UNL A   1      43.564  23.495  24.494  1.00  0.00    -0.206 F 
ATOM     54  C   UNL A   1      42.948  21.387  25.324  1.00  0.00     0.059 A 
ATOM     55  C   UNL A   1      42.786  21.036  27.722  1.00  0.00     0.059 A 
ATOM     56  F   UNL A   1      43.214  22.816  29.185  1.00  0.00    -0.206 F 
ATOM     57  C   UNL A   1      42.695  20.556  26.417  1.00  0.00     0.060 A 
BRANCH  57  58
ATOM     58  S   UNL A   1      42.289  18.823  26.111  1.00  0.00     0.124 S 
ATOM     59  O   UNL A   1      43.220  18.488  25.040  1.00  0.00    -0.237 OA
ATOM     60  O   UNL A   1      42.559  18.211  27.408  1.00  0.00    -0.237 OA
ATOM     61  O   UNL A   1      40.880  18.870  25.731  1.00  0.00    -0.744 OA
ENDBRANCH  57  58
ENDBRANCH  25  50
BRANCH  37  62
ATOM     62  C   UNL A   1      49.516  26.584  26.434  1.00  0.00     0.058 A 
ATOM     63  C   UNL A   1      50.335  25.961  27.389  1.00  0.00     0.135 A 
ATOM     64  C   UNL A   1      50.023  26.728  25.131  1.00  0.00     0.135 A 
ATOM     65  F   UNL A   1      49.904  25.806  28.651  1.00  0.00    -0.206 F 
ATOM     66  C   UNL A   1      51.615  25.516  27.070  1.00  0.00     0.059 A 
ATOM     67  C   UNL A   1      51.288  26.266  24.783  1.00  0.00     0.059 A 
ATOM     68  F   UNL A   1      49.279  27.311  24.177  1.00  0.00    -0.206 F 
ATOM     69  C   UNL A   1      52.081  25.670  25.762  1.00  0.00     0.060 A 
BRANCH  69  70
ATOM     70  S   UNL A   1      53.728  25.056  25.353  1.00  0.00     0.124 S 
ATOM     71  O   UNL A   1      53.520  23.612  25.383  1.00  0.00    -0.237 OA
ATOM     72  O   UNL A   1      53.960  25.637  24.034  1.00  0.00    -0.237 OA
ATOM     73  O   UNL A   1      54.566  25.591  26.423  1.00  0.00    -0.744 OA
ENDBRANCH  69  70
ENDBRANCH  37  62
ENDBRANCH  11  12
ENDBRANCH   4   6
ENDBRANCH   1   2
BRANCH   1  74
ATOM     74  C   UNL A   1      33.725  28.899  27.289  1.00  0.00     0.023 C 
BRANCH  74  75
ATOM     75  C   UNL A   1      32.757  29.779  26.492  1.00  0.00     0.023 C 
BRANCH  75  76
ATOM     76  C   UNL A   1      32.576  29.444  25.007  1.00  0.00     0.116 C 
BRANCH  76  77
ATOM     77  N   UNL A   1      31.276  29.825  24.471  1.00  0.00    -0.352 N 
ATOM     78  C   UNL A   1      30.349  29.138  23.718  1.00  0.00     0.251 C 
ATOM     79  H   UNL A   1      31.010  30.747  24.688  1.00  0.00     0.163 HD
ATOM     80  O   UNL A   1      29.348  29.735  23.327  1.00  0.00    -0.269 OA
BRANCH  78  81
ATOM     81  C   UNL A   1      30.541  27.724  23.309  1.00  0.00     0.039 A 
ATOM     82  C   UNL A   1      31.496  27.447  22.321  1.00  0.00     0.014 A 
ATOM     83  C   UNL A   1      29.814  26.669  23.857  1.00  0.00     0.014 A 
ATOM     84  C   UNL A   1      31.877  26.126  22.051  1.00  0.00     0.006 A 
ATOM     85  C   UNL A   1      30.201  25.350  23.591  1.00  0.00     0.006 A 
ATOM     86  C   UNL A   1      31.336  25.076  22.804  1.00  0.00    -0.025 A 
BRANCH  86  87
ATOM     87  C   UNL A   1      32.112  23.780  23.077  1.00  0.00     0.114 C 
ATOM     88  N   UNL A   1      33.470  23.745  22.480  1.00  0.00    -0.378 N 
ATOM     89  C   UNL A   1      32.256  23.544  24.599  1.00  0.00     0.031 C 
ATOM     90  C   UNL A   1      34.617  23.615  23.278  1.00  0.00     0.038 A 
ATOM     91  H   UNL A   1      33.570  23.817  21.503  1.00  0.00     0.161 HD
ATOM     92  C   UNL A   1      33.286  24.565  25.120  1.00  0.00     0.049 C 
ATOM     93  C   UNL A   1      31.086  23.569  25.580  1.00  0.00     0.034 C 
ATOM     94  C   UNL A   1      35.765  22.983  22.795  1.00  0.00     0.027 A 
ATOM     95  C   UNL A   1      34.591  24.004  24.646  1.00  0.00    -0.016 A 
ATOM     96  C   UNL A   1      32.913  24.714  26.551  1.00  0.00    -0.023 C 
ATOM     97  C   UNL A   1      31.683  24.238  26.782  1.00  0.00    -0.030 C 
ATOM     98  C   UNL A   1      36.856  22.747  23.644  1.00  0.00     0.022 A 
ATOM     99  C   UNL A   1      35.697  23.814  25.480  1.00  0.00     0.027 A 
ATOM    100  C   UNL A   1      36.820  23.170  24.975  1.00  0.00     0.041 A 
ATOM    101  Cl  UNL A   1      38.157  22.855  26.012  1.00  0.00    -0.084 Cl
ENDBRANCH  86  87
ENDBRANCH  78  81
ENDBRANCH  76  77
ENDBRANCH  75  76
ENDBRANCH  74  75
ENDBRANCH   1  74
TORSDOF 15
ENDMDL
MODEL 3
REMARK VINA RESULT:     -13.4      1.680      2.221
REMARK SMILES O=C(NCCCCNC(=O)c1ccc([C@H]2Nc3ccc(Cl)cc3[C@@H]3C=CC[C@@H]23)cc1)c1ccc(-c2c3nc(c(-c4c(F)cc(S(=O)(=O)[O-])cc4F)c4ccc([nH]4)c(-c4c(F)cc(S(=O)(=O)[O-])cc4F)c4nc(c(-c5c(F)cc(S(=O)(=O)[O-])cc5F)c5ccc2[nH]5)C=C4)C=C3)cc1
REMARK SMILES IDX 4 1 3 2 1 3 2 4 31 6 32 7 96 8 33 9 95 10 34 11 35 12 36 13
REMARK SMILES IDX 89 14 37 15 94 16 88 17 90 18 38 19 93 20 87 21 86 22 39 24
REMARK SMILES IDX 73 25 52 26 72 27 53 28 56 29 71 30 91 31 54 32 55 33 70 35
REMARK SMILES IDX 92 36 57 37 40 38 41 39 50 40 42 41 43 42 49 43 51 44 44 45
REMARK SMILES IDX 45 46 46 47 47 48 48 49 74 50 75 51 84 52 76 53 77 54 83 55
REMARK SMILES IDX 85 56 78 57 79 58 80 59 81 60 82 61 58 62 59 63 68 64 60 65
REMARK SMILES IDX 61 66 67 67 69 68 62 69 63 70 64 71 65 72 66 73 5 74 6 75
REMARK SMILES IDX 7 76 8 77 9 78 10 80 11 81 12 82 30 83 13 84 29 85 14 86
REMARK SMILES IDX 15 87 16 88 28 89 17 90 24 92 27 93 18 94 23 95 25 96 26 97
REMARK SMILES IDX 19 98 22 99 20 100 21 101
REMARK H PARENT 3 5 90 23 56 34 8 79 16 91
REMARK Flexibility Score: inf
ROOT
ATOM      1  C   UNL A   1      38.695  23.933  26.524  1.00  0.00     0.116 C 
ENDROOT
BRANCH   1   2
ATOM      2  N   UNL A   1      40.089  23.927  26.107  1.00  0.00    -0.352 N 
ATOM      3  O   UNL A   1      42.219  24.622  25.910  1.00  0.00    -0.269 OA
ATOM      4  C   UNL A   1      41.135  24.740  26.481  1.00  0.00     0.251 C 
ATOM      5  H   UNL A   1      40.322  23.229  25.452  1.00  0.00     0.163 HD
BRANCH   4   6
ATOM      6  C   UNL A   1      40.968  25.769  27.535  1.00  0.00     0.039 A 
ATOM      7  C   UNL A   1      41.791  26.896  27.587  1.00  0.00     0.014 A 
ATOM      8  C   UNL A   1      39.944  25.618  28.477  1.00  0.00     0.014 A 
ATOM      9  C   UNL A   1      41.693  27.782  28.660  1.00  0.00     0.010 A 
ATOM     10  C   UNL A   1      39.795  26.554  29.508  1.00  0.00     0.010 A 
ATOM     11  C   UNL A   1      40.691  27.626  29.631  1.00  0.00    -0.014 A 
BRANCH  11  12
ATOM     12  C   UNL A   1      40.572  28.613  30.739  1.00  0.00     0.031 A 
ATOM     13  C   UNL A   1      41.463  28.535  31.950  1.00  0.00     0.074 A 
ATOM     14  C   UNL A   1      39.654  29.597  30.644  1.00  0.00     0.049 A 
ATOM     15  N   UNL A   1      41.486  29.306  33.009  1.00  0.00    -0.248 NA
ATOM     16  C   UNL A   1      42.455  27.448  31.981  1.00  0.00     0.031 C 
ATOM     17  C   UNL A   1      38.725  29.775  29.525  1.00  0.00     0.029 A 
ATOM     18  N   UNL A   1      39.353  30.633  31.491  1.00  0.00    -0.354 N 
ATOM     19  C   UNL A   1      42.478  28.792  33.838  1.00  0.00     0.074 A 
ATOM     20  C   UNL A   1      43.014  27.624  33.171  1.00  0.00     0.031 C 
ATOM     21  C   UNL A   1      37.982  30.870  29.740  1.00  0.00     0.029 A 
ATOM     22  C   UNL A   1      38.335  31.437  31.037  1.00  0.00     0.049 A 
ATOM     23  H   UNL A   1      39.823  30.787  32.343  1.00  0.00     0.167 HD
ATOM     24  C   UNL A   1      42.906  29.256  35.038  1.00  0.00     0.037 A 
ATOM     25  C   UNL A   1      37.731  32.498  31.605  1.00  0.00     0.037 A 
ATOM     26  C   UNL A   1      42.371  30.424  35.691  1.00  0.00     0.049 A 
ATOM     27  C   UNL A   1      38.199  32.973  32.952  1.00  0.00     0.074 A 
ATOM     28  C   UNL A   1      42.760  30.993  36.893  1.00  0.00     0.029 A 
ATOM     29  N   UNL A   1      41.326  31.198  35.208  1.00  0.00    -0.354 N 
ATOM     30  N   UNL A   1      39.160  32.494  33.705  1.00  0.00    -0.248 NA
ATOM     31  C   UNL A   1      37.503  34.131  33.528  1.00  0.00     0.031 C 
ATOM     32  C   UNL A   1      41.917  32.076  37.161  1.00  0.00     0.029 A 
ATOM     33  C   UNL A   1      41.040  32.222  36.097  1.00  0.00     0.049 A 
ATOM     34  H   UNL A   1      40.855  31.043  34.356  1.00  0.00     0.167 HD
ATOM     35  C   UNL A   1      39.201  33.306  34.832  1.00  0.00     0.074 A 
ATOM     36  C   UNL A   1      38.176  34.314  34.656  1.00  0.00     0.031 C 
ATOM     37  C   UNL A   1      40.018  33.224  35.912  1.00  0.00     0.037 A 
BRANCH  24  38
ATOM     38  C   UNL A   1      43.995  28.485  35.739  1.00  0.00     0.058 A 
ATOM     39  C   UNL A   1      45.356  28.762  35.529  1.00  0.00     0.135 A 
ATOM     40  C   UNL A   1      43.672  27.479  36.666  1.00  0.00     0.135 A 
ATOM     41  F   UNL A   1      45.726  29.706  34.650  1.00  0.00    -0.206 F 
ATOM     42  C   UNL A   1      46.355  28.047  36.183  1.00  0.00     0.059 A 
ATOM     43  C   UNL A   1      44.654  26.770  37.353  1.00  0.00     0.059 A 
ATOM     44  F   UNL A   1      42.388  27.174  36.912  1.00  0.00    -0.206 F 
ATOM     45  C   UNL A   1      45.994  27.050  37.091  1.00  0.00     0.060 A 
BRANCH  45  46
ATOM     46  S   UNL A   1      47.303  26.122  37.920  1.00  0.00     0.124 S 
ATOM     47  O   UNL A   1      48.414  27.067  37.856  1.00  0.00    -0.237 OA
ATOM     48  O   UNL A   1      46.737  25.898  39.246  1.00  0.00    -0.237 OA
ATOM     49  O   UNL A   1      47.449  24.927  37.094  1.00  0.00    -0.744 OA
ENDBRANCH  45  46
ENDBRANCH  24  38
BRANCH  25  50
ATOM     50  C   UNL A   1      36.613  33.174  30.895  1.00  0.00     0.058 A 
ATOM     51  C   UNL A   1      35.286  33.019  31.319  1.00  0.00     0.135 A 
ATOM     52  C   UNL A   1      36.857  34.020  29.801  1.00  0.00     0.135 A 
ATOM     53  F   UNL A   1      35.002  32.217  32.356  1.00  0.00    -0.206 F 
ATOM     54  C   UNL A   1      34.238  33.676  30.682  1.00  0.00     0.059 A 
ATOM     55  C   UNL A   1      35.829  34.709  29.165  1.00  0.00     0.059 A 
ATOM     56  F   UNL A   1      38.111  34.213  29.366  1.00  0.00    -0.206 F 
ATOM     57  C   UNL A   1      34.521  34.524  29.610  1.00  0.00     0.060 A 
BRANCH  57  58
ATOM     58  S   UNL A   1      33.161  35.421  28.833  1.00  0.00     0.124 S 
ATOM     59  O   UNL A   1      33.877  36.420  28.049  1.00  0.00    -0.237 OA
ATOM     60  O   UNL A   1      32.495  34.369  28.072  1.00  0.00    -0.237 OA
ATOM     61  O   UNL A   1      32.404  35.935  29.971  1.00  0.00    -0.744 OA
ENDBRANCH  57  58
ENDBRANCH  25  50
BRANCH  37  62
ATOM     62  C   UNL A   1      39.864  34.276  36.976  1.00  0.00     0.058 A 
ATOM     63  C   UNL A   1      40.456  35.544  36.856  1.00  0.00     0.135 A 
ATOM     64  C   UNL A   1      39.073  34.027  38.110  1.00  0.00     0.135 A 
ATOM     65  F   UNL A   1      41.229  35.832  35.798  1.00  0.00    -0.206 F 
ATOM     66  C   UNL A   1      40.285  36.520  37.833  1.00  0.00     0.059 A 
ATOM     67  C   UNL A   1      38.865  34.998  39.085  1.00  0.00     0.059 A 
ATOM     68  F   UNL A   1      38.478  32.834  38.270  1.00  0.00    -0.206 F 
ATOM     69  C   UNL A   1      39.484  36.239  38.943  1.00  0.00     0.060 A 
BRANCH  69  70
ATOM     70  S   UNL A   1      39.241  37.527  40.184  1.00  0.00     0.124 S 
ATOM     71  O   UNL A   1      38.815  36.745  41.340  1.00  0.00    -0.237 OA
ATOM     72  O   UNL A   1      40.570  38.125  40.277  1.00  0.00    -0.237 OA
ATOM     73  O   UNL A   1      38.215  38.381  39.591  1.00  0.00    -0.744 OA
ENDBRANCH  69  70
ENDBRANCH  37  62
ENDBRANCH  11  12
ENDBRANCH   4   6
ENDBRANCH   1   2
BRANCH   1  74
ATOM     74  C   UNL A   1      37.833  22.917  25.781  1.00  0.00     0.023 C 
BRANCH  74  75
ATOM     75  C   UNL A   1      36.801  23.483  24.800  1.00  0.00     0.023 C 
BRANCH  75  76
ATOM     76  C   UNL A   1      35.517  24.066  25.402  1.00  0.00     0.116 C 
BRANCH  76  77
ATOM     77  N   UNL A   1      35.024  23.333  26.561  1.00  0.00    -0.352 N 
ATOM     78  C   UNL A   1      33.751  23.040  26.996  1.00  0.00     0.251 C 
ATOM     79  H   UNL A   1      35.736  22.981  27.142  1.00  0.00     0.163 HD
ATOM     80  O   UNL A   1      33.613  22.459  28.071  1.00  0.00    -0.269 OA
BRANCH  78  81
ATOM     81  C   UNL A   1      32.536  23.451  26.248  1.00  0.00     0.039 A 
ATOM     82  C   UNL A   1      31.899  24.640  26.627  1.00  0.00     0.014 A 
ATOM     83  C   UNL A   1      32.004  22.709  25.196  1.00  0.00     0.014 A 
ATOM     84  C   UNL A   1      30.888  25.192  25.828  1.00  0.00     0.006 A 
ATOM     85  C   UNL A   1      30.998  23.264  24.395  1.00  0.00     0.006 A 
ATOM     86  C   UNL A   1      30.543  24.578  24.618  1.00  0.00    -0.025 A 
BRANCH  86  87
ATOM     87  C   UNL A   1      30.012  25.375  23.418  1.00  0.00     0.114 C 
ATOM     88  N   UNL A   1      28.784  26.159  23.702  1.00  0.00    -0.378 N 
ATOM     89  C   UNL A   1      31.090  26.354  22.898  1.00  0.00     0.031 C 
ATOM     90  C   UNL A   1      28.763  27.556  23.576  1.00  0.00     0.038 A 
ATOM     91  H   UNL A   1      27.967  25.689  23.986  1.00  0.00     0.161 HD
ATOM     92  C   UNL A   1      31.200  27.497  23.926  1.00  0.00     0.049 C 
ATOM     93  C   UNL A   1      32.520  25.943  22.553  1.00  0.00     0.034 C 
ATOM     94  C   UNL A   1      27.591  28.232  23.228  1.00  0.00     0.027 A 
ATOM     95  C   UNL A   1      29.967  28.307  23.668  1.00  0.00    -0.016 A 
ATOM     96  C   UNL A   1      32.584  27.997  23.723  1.00  0.00    -0.023 C 
ATOM     97  C   UNL A   1      33.322  27.113  23.039  1.00  0.00    -0.030 C 
ATOM     98  C   UNL A   1      27.614  29.612  22.982  1.00  0.00     0.022 A 
ATOM     99  C   UNL A   1      29.981  29.690  23.471  1.00  0.00     0.027 A 
ATOM    100  C   UNL A   1      28.802  30.333  23.113  1.00  0.00     0.041 A 
ATOM    101  Cl  UNL A   1      28.822  32.023  22.786  1.00  0.00    -0.084 Cl
ENDBRANCH  86  87
ENDBRANCH  78  81
ENDBRANCH  76  77
ENDBRANCH  75  76
ENDBRANCH  74  75
ENDBRANCH   1  74
TORSDOF 15
ENDMDL
