MODEL 1
REMARK VINA RESULT:     -12.1      0.000      0.000
REMARK SMILES COc1ccc(CCN2C(=O)CC[C@@H](C(=O)NCCCCNC(=O)c3ccc(-c4c5nc(c(-c6c(F)cc(S(=O)(=O)[O-])cc6F)c6ccc([nH]6)c(-c6c(F)cc(S(=O)(=O)[O-])cc6F)c6nc(c(-c7c(F)cc(S(=O)(=O)[O-])cc7F)c7ccc4[nH]7)C=C6)C=C5)cc3)[C@@H]2c2ccc(Cl)cc2)cc1OC
REMARK SMILES IDX 19 1 18 2 17 3 15 4 16 5 14 7 9 8 10 9 91 10 11 11 12 12
REMARK SMILES IDX 13 13 8 14 7 15 6 16 3 17 4 18 100 19 5 20 99 21 2 22 1 23
REMARK SMILES IDX 101 24 102 25 92 26 93 27 98 28 94 29 97 30 95 31 96 32
REMARK SMILES IDX 20 33 21 34 22 35 23 36 24 38 25 39 26 40 90 41 27 42 89 43
REMARK SMILES IDX 28 44 29 45 30 46 83 47 31 48 88 49 82 50 84 51 32 52 87 53
REMARK SMILES IDX 81 54 80 55 33 57 67 58 46 59 66 60 47 61 50 62 65 63 85 64
REMARK SMILES IDX 48 65 49 66 64 68 86 69 51 70 34 71 35 72 44 73 36 74 37 75
REMARK SMILES IDX 43 76 45 77 38 78 39 79 40 80 41 81 42 82 68 83 69 84 78 85
REMARK SMILES IDX 70 86 71 87 77 88 79 89 72 90 73 91 74 92 75 93 76 94 52 95
REMARK SMILES IDX 53 96 62 97 54 98 55 99 61 100 63 101 56 102 57 103 58 104
REMARK SMILES IDX 59 105 60 106
REMARK H PARENT 17 6 22 37 84 56 50 67
REMARK Flexibility Score: inf
ROOT
ATOM      1  C   UNL A   1      34.016  31.831  28.044  1.00  0.00     0.023 C 
ENDROOT
BRANCH   1   2
ATOM      2  C   UNL A   1      34.014  30.549  27.213  1.00  0.00     0.116 C 
BRANCH   2   3
ATOM      3  N   UNL A   1      32.978  29.628  27.657  1.00  0.00    -0.356 N 
ATOM      4  C   UNL A   1      32.368  28.530  27.164  1.00  0.00     0.225 C 
ATOM      5  O   UNL A   1      31.449  28.087  27.871  1.00  0.00    -0.275 OA
ATOM      6  H   UNL A   1      32.634  29.868  28.547  1.00  0.00     0.163 HD
BRANCH   4   7
ATOM      7  C   UNL A   1      32.719  27.753  25.888  1.00  0.00     0.106 C 
ATOM      8  N   UNL A   1      31.186  25.777  25.525  1.00  0.00    -0.335 N 
ATOM      9  C   UNL A   1      30.419  26.482  24.596  1.00  0.00     0.223 C 
ATOM     10  C   UNL A   1      32.520  26.238  25.910  1.00  0.00     0.128 C 
ATOM     11  O   UNL A   1      29.412  25.995  24.078  1.00  0.00    -0.275 OA
ATOM     12  C   UNL A   1      30.758  27.941  24.326  1.00  0.00     0.101 C 
ATOM     13  C   UNL A   1      32.175  28.375  24.619  1.00  0.00     0.026 C 
BRANCH   8  14
ATOM     14  C   UNL A   1      30.693  24.434  25.944  1.00  0.00     0.125 C 
BRANCH  14  15
ATOM     15  C   UNL A   1      31.539  23.474  26.834  1.00  0.00     0.057 C 
BRANCH  15  16
ATOM     16  C   UNL A   1      32.369  22.398  26.162  1.00  0.00    -0.042 A 
ATOM     17  C   UNL A   1      33.798  20.214  25.045  1.00  0.00     0.160 A 
ATOM     18  C   UNL A   1      34.229  20.818  26.225  1.00  0.00     0.051 A 
ATOM     19  C   UNL A   1      32.707  20.774  24.361  1.00  0.00     0.160 A 
ATOM     20  C   UNL A   1      33.557  21.932  26.736  1.00  0.00     0.008 A 
ATOM     21  C   UNL A   1      31.987  21.838  24.937  1.00  0.00     0.054 A 
BRANCH  17  22
ATOM     22  O   UNL A   1      34.343  19.054  24.567  1.00  0.00    -0.493 OA
ATOM     23  C   UNL A   1      35.727  18.829  24.790  1.00  0.00     0.278 C 
ENDBRANCH  17  22
BRANCH  19  24
ATOM     24  O   UNL A   1      32.202  20.369  23.151  1.00  0.00    -0.493 OA
ATOM     25  C   UNL A   1      31.922  21.386  22.193  1.00  0.00     0.278 C 
ENDBRANCH  19  24
ENDBRANCH  15  16
ENDBRANCH  14  15
ENDBRANCH   8  14
BRANCH  10  26
ATOM     26  C   UNL A   1      33.601  25.478  25.110  1.00  0.00    -0.025 A 
ATOM     27  C   UNL A   1      33.386  25.034  23.789  1.00  0.00     0.007 A 
ATOM     28  C   UNL A   1      34.792  25.086  25.747  1.00  0.00     0.007 A 
ATOM     29  C   UNL A   1      34.260  24.130  23.179  1.00  0.00     0.021 A 
ATOM     30  C   UNL A   1      35.669  24.184  25.134  1.00  0.00     0.021 A 
ATOM     31  C   UNL A   1      35.384  23.689  23.865  1.00  0.00     0.041 A 
ATOM     32  Cl  UNL A   1      36.409  22.503  23.155  1.00  0.00    -0.084 Cl
ENDBRANCH  10  26
ENDBRANCH   4   7
ENDBRANCH   2   3
ENDBRANCH   1   2
BRANCH   1  33
ATOM     33  C   UNL A   1      35.350  32.567  28.105  1.00  0.00     0.023 C 
BRANCH  33  34
ATOM     34  C   UNL A   1      36.088  32.458  29.434  1.00  0.00     0.116 C 
BRANCH  34  35
ATOM     35  N   UNL A   1      35.817  31.239  30.186  1.00  0.00    -0.352 N 
ATOM     36  C   UNL A   1      36.667  30.177  30.445  1.00  0.00     0.251 C 
ATOM     37  H   UNL A   1      34.909  31.159  30.558  1.00  0.00     0.163 HD
ATOM     38  O   UNL A   1      36.274  29.198  31.058  1.00  0.00    -0.269 OA
BRANCH  36  39
ATOM     39  C   UNL A   1      38.051  30.224  29.912  1.00  0.00     0.039 A 
ATOM     40  C   UNL A   1      39.114  30.422  30.796  1.00  0.00     0.014 A 
ATOM     41  C   UNL A   1      38.299  29.956  28.566  1.00  0.00     0.014 A 
ATOM     42  C   UNL A   1      40.426  30.228  30.351  1.00  0.00     0.010 A 
ATOM     43  C   UNL A   1      39.591  29.654  28.155  1.00  0.00     0.010 A 
ATOM     44  C   UNL A   1      40.672  29.774  29.044  1.00  0.00    -0.014 A 
BRANCH  44  45
ATOM     45  C   UNL A   1      42.036  29.405  28.578  1.00  0.00     0.031 A 
ATOM     46  C   UNL A   1      42.322  27.992  28.138  1.00  0.00     0.074 A 
ATOM     47  C   UNL A   1      43.041  30.303  28.644  1.00  0.00     0.049 A 
ATOM     48  N   UNL A   1      43.465  27.433  27.838  1.00  0.00    -0.248 NA
ATOM     49  C   UNL A   1      41.172  27.075  28.078  1.00  0.00     0.031 C 
ATOM     50  C   UNL A   1      42.919  31.686  29.117  1.00  0.00     0.029 A 
ATOM     51  N   UNL A   1      44.372  30.184  28.325  1.00  0.00    -0.354 N 
ATOM     52  C   UNL A   1      43.177  26.096  27.589  1.00  0.00     0.074 A 
ATOM     53  C   UNL A   1      41.763  25.915  27.836  1.00  0.00     0.031 C 
ATOM     54  C   UNL A   1      44.113  32.294  29.019  1.00  0.00     0.029 A 
ATOM     55  C   UNL A   1      45.096  31.339  28.519  1.00  0.00     0.049 A 
ATOM     56  H   UNL A   1      44.772  29.350  27.989  1.00  0.00     0.167 HD
ATOM     57  C   UNL A   1      44.003  25.113  27.160  1.00  0.00     0.037 A 
ATOM     58  C   UNL A   1      46.403  31.599  28.317  1.00  0.00     0.037 A 
ATOM     59  C   UNL A   1      45.395  25.309  26.856  1.00  0.00     0.049 A 
ATOM     60  C   UNL A   1      47.295  30.504  27.797  1.00  0.00     0.074 A 
ATOM     61  C   UNL A   1      46.304  24.398  26.349  1.00  0.00     0.029 A 
ATOM     62  N   UNL A   1      46.076  26.507  27.016  1.00  0.00    -0.354 N 
ATOM     63  N   UNL A   1      46.993  29.258  27.520  1.00  0.00    -0.248 NA
ATOM     64  C   UNL A   1      48.703  30.851  27.559  1.00  0.00     0.031 C 
ATOM     65  C   UNL A   1      47.542  25.040  26.225  1.00  0.00     0.029 A 
ATOM     66  C   UNL A   1      47.395  26.359  26.621  1.00  0.00     0.049 A 
ATOM     67  H   UNL A   1      45.680  27.341  27.360  1.00  0.00     0.167 HD
ATOM     68  C   UNL A   1      48.167  28.679  27.050  1.00  0.00     0.074 A 
ATOM     69  C   UNL A   1      49.181  29.713  27.071  1.00  0.00     0.031 C 
ATOM     70  C   UNL A   1      48.385  27.406  26.637  1.00  0.00     0.037 A 
BRANCH  57  71
ATOM     71  C   UNL A   1      43.408  23.744  26.975  1.00  0.00     0.058 A 
ATOM     72  C   UNL A   1      43.009  23.282  25.710  1.00  0.00     0.135 A 
ATOM     73  C   UNL A   1      43.230  22.884  28.071  1.00  0.00     0.135 A 
ATOM     74  F   UNL A   1      43.141  24.069  24.630  1.00  0.00    -0.206 F 
ATOM     75  C   UNL A   1      42.410  22.038  25.545  1.00  0.00     0.059 A 
ATOM     76  C   UNL A   1      42.661  21.623  27.924  1.00  0.00     0.059 A 
ATOM     77  F   UNL A   1      43.596  23.273  29.302  1.00  0.00    -0.206 F 
ATOM     78  C   UNL A   1      42.234  21.218  26.659  1.00  0.00     0.060 A 
BRANCH  78  79
ATOM     79  S   UNL A   1      41.438  19.613  26.433  1.00  0.00     0.124 S 
ATOM     80  O   UNL A   1      42.186  19.077  25.299  1.00  0.00    -0.237 OA
ATOM     81  O   UNL A   1      41.679  18.959  27.715  1.00  0.00    -0.237 OA
ATOM     82  O   UNL A   1      40.047  19.959  26.162  1.00  0.00    -0.744 OA
ENDBRANCH  78  79
ENDBRANCH  57  71
BRANCH  58  83
ATOM     83  C   UNL A   1      46.939  32.965  28.562  1.00  0.00     0.058 A 
ATOM     84  C   UNL A   1      47.417  33.326  29.831  1.00  0.00     0.135 A 
ATOM     85  C   UNL A   1      46.997  33.928  27.545  1.00  0.00     0.135 A 
ATOM     86  F   UNL A   1      47.375  32.442  30.840  1.00  0.00    -0.206 F 
ATOM     87  C   UNL A   1      47.922  34.597  30.087  1.00  0.00     0.059 A 
ATOM     88  C   UNL A   1      47.518  35.200  27.770  1.00  0.00     0.059 A 
ATOM     89  F   UNL A   1      46.567  33.628  26.309  1.00  0.00    -0.206 F 
ATOM     90  C   UNL A   1      47.971  35.527  29.048  1.00  0.00     0.060 A 
BRANCH  90  91
ATOM     91  S   UNL A   1      48.678  37.158  29.377  1.00  0.00     0.124 S 
ATOM     92  O   UNL A   1      48.640  37.206  30.833  1.00  0.00    -0.237 OA
ATOM     93  O   UNL A   1      50.003  37.045  28.774  1.00  0.00    -0.237 OA
ATOM     94  O   UNL A   1      47.761  38.063  28.689  1.00  0.00    -0.744 OA
ENDBRANCH  90  91
ENDBRANCH  58  83
BRANCH  70  95
ATOM     95  C   UNL A   1      49.761  27.068  26.140  1.00  0.00     0.058 A 
ATOM     96  C   UNL A   1      50.771  26.633  27.012  1.00  0.00     0.135 A 
ATOM     97  C   UNL A   1      50.053  27.122  24.768  1.00  0.00     0.135 A 
ATOM     98  F   UNL A   1      50.543  26.570  28.333  1.00  0.00    -0.206 F 
ATOM     99  C   UNL A   1      52.032  26.281  26.541  1.00  0.00     0.059 A 
ATOM    100  C   UNL A   1      51.299  26.752  24.273  1.00  0.00     0.059 A 
ATOM    101  F   UNL A   1      49.117  27.522  23.893  1.00  0.00    -0.206 F 
ATOM    102  C   UNL A   1      52.286  26.342  25.169  1.00  0.00     0.060 A 
BRANCH 102 103
ATOM    103  S   UNL A   1      53.912  25.843  24.565  1.00  0.00     0.124 S 
ATOM    104  O   UNL A   1      53.776  24.391  24.525  1.00  0.00    -0.237 OA
ATOM    105  O   UNL A   1      53.984  26.510  23.269  1.00  0.00    -0.237 OA
ATOM    106  O   UNL A   1      54.824  26.360  25.580  1.00  0.00    -0.744 OA
ENDBRANCH 102 103
ENDBRANCH  70  95
ENDBRANCH  44  45
ENDBRANCH  36  39
ENDBRANCH  34  35
ENDBRANCH  33  34
ENDBRANCH   1  33
TORSDOF 20
ENDMDL
MODEL 2
REMARK VINA RESULT:     -11.5      0.760      7.865
REMARK SMILES COc1ccc(CCN2C(=O)CC[C@@H](C(=O)NCCCCNC(=O)c3ccc(-c4c5nc(c(-c6c(F)cc(S(=O)(=O)[O-])cc6F)c6ccc([nH]6)c(-c6c(F)cc(S(=O)(=O)[O-])cc6F)c6nc(c(-c7c(F)cc(S(=O)(=O)[O-])cc7F)c7ccc4[nH]7)C=C6)C=C5)cc3)[C@@H]2c2ccc(Cl)cc2)cc1OC
REMARK SMILES IDX 19 1 18 2 17 3 15 4 16 5 14 7 9 8 10 9 91 10 11 11 12 12
REMARK SMILES IDX 13 13 8 14 7 15 6 16 3 17 4 18 100 19 5 20 99 21 2 22 1 23
REMARK SMILES IDX 101 24 102 25 92 26 93 27 98 28 94 29 97 30 95 31 96 32
REMARK SMILES IDX 20 33 21 34 22 35 23 36 24 38 25 39 26 40 90 41 27 42 89 43
REMARK SMILES IDX 28 44 29 45 30 46 83 47 31 48 88 49 82 50 84 51 32 52 87 53
REMARK SMILES IDX 81 54 80 55 33 57 67 58 46 59 66 60 47 61 50 62 65 63 85 64
REMARK SMILES IDX 48 65 49 66 64 68 86 69 51 70 34 71 35 72 44 73 36 74 37 75
REMARK SMILES IDX 43 76 45 77 38 78 39 79 40 80 41 81 42 82 68 83 69 84 78 85
REMARK SMILES IDX 70 86 71 87 77 88 79 89 72 90 73 91 74 92 75 93 76 94 52 95
REMARK SMILES IDX 53 96 62 97 54 98 55 99 61 100 63 101 56 102 57 103 58 104
REMARK SMILES IDX 59 105 60 106
REMARK H PARENT 17 6 22 37 84 56 50 67
REMARK Flexibility Score: inf
ROOT
ATOM      1  C   UNL A   1      34.315  31.981  28.158  1.00  0.00     0.023 C 
ENDROOT
BRANCH   1   2
ATOM      2  C   UNL A   1      34.310  30.732  27.279  1.00  0.00     0.116 C 
BRANCH   2   3
ATOM      3  N   UNL A   1      33.146  29.899  27.544  1.00  0.00    -0.356 N 
ATOM      4  C   UNL A   1      32.540  28.847  26.954  1.00  0.00     0.225 C 
ATOM      5  O   UNL A   1      31.485  28.484  27.499  1.00  0.00    -0.275 OA
ATOM      6  H   UNL A   1      32.680  30.174  28.366  1.00  0.00     0.163 HD
BRANCH   4   7
ATOM      7  C   UNL A   1      33.032  28.033  25.749  1.00  0.00     0.106 C 
ATOM      8  N   UNL A   1      31.163  26.739  24.646  1.00  0.00    -0.335 N 
ATOM      9  C   UNL A   1      31.031  27.696  23.639  1.00  0.00     0.223 C 
ATOM     10  C   UNL A   1      32.358  26.687  25.488  1.00  0.00     0.128 C 
ATOM     11  O   UNL A   1      30.161  27.613  22.770  1.00  0.00    -0.275 OA
ATOM     12  C   UNL A   1      31.895  28.948  23.703  1.00  0.00     0.101 C 
ATOM     13  C   UNL A   1      33.187  28.843  24.479  1.00  0.00     0.026 C 
BRANCH   8  14
ATOM     14  C   UNL A   1      30.149  25.647  24.692  1.00  0.00     0.125 C 
BRANCH  14  15
ATOM     15  C   UNL A   1      30.220  24.485  25.729  1.00  0.00     0.057 C 
BRANCH  15  16
ATOM     16  C   UNL A   1      31.083  23.279  25.417  1.00  0.00    -0.042 A 
ATOM     17  C   UNL A   1      32.883  21.181  24.768  1.00  0.00     0.160 A 
ATOM     18  C   UNL A   1      32.078  21.760  23.786  1.00  0.00     0.051 A 
ATOM     19  C   UNL A   1      32.708  21.580  26.103  1.00  0.00     0.160 A 
ATOM     20  C   UNL A   1      31.151  22.748  24.125  1.00  0.00     0.008 A 
ATOM     21  C   UNL A   1      31.835  22.641  26.411  1.00  0.00     0.054 A 
BRANCH  17  22
ATOM     22  O   UNL A   1      33.886  20.299  24.476  1.00  0.00    -0.493 OA
ATOM     23  C   UNL A   1      33.569  18.915  24.456  1.00  0.00     0.278 C 
ENDBRANCH  17  22
BRANCH  19  24
ATOM     24  O   UNL A   1      33.344  21.063  27.204  1.00  0.00    -0.493 OA
ATOM     25  C   UNL A   1      34.470  21.781  27.699  1.00  0.00     0.278 C 
ENDBRANCH  19  24
ENDBRANCH  15  16
ENDBRANCH  14  15
ENDBRANCH   8  14
BRANCH  10  26
ATOM     26  C   UNL A   1      33.338  25.616  24.961  1.00  0.00    -0.025 A 
ATOM     27  C   UNL A   1      34.300  25.004  25.790  1.00  0.00     0.007 A 
ATOM     28  C   UNL A   1      33.379  25.326  23.585  1.00  0.00     0.007 A 
ATOM     29  C   UNL A   1      35.340  24.241  25.249  1.00  0.00     0.021 A 
ATOM     30  C   UNL A   1      34.418  24.559  23.044  1.00  0.00     0.021 A 
ATOM     31  C   UNL A   1      35.408  24.044  23.876  1.00  0.00     0.041 A 
ATOM     32  Cl  UNL A   1      36.739  23.189  23.199  1.00  0.00    -0.084 Cl
ENDBRANCH  10  26
ENDBRANCH   4   7
ENDBRANCH   2   3
ENDBRANCH   1   2
BRANCH   1  33
ATOM     33  C   UNL A   1      35.663  32.683  28.285  1.00  0.00     0.023 C 
BRANCH  33  34
ATOM     34  C   UNL A   1      36.130  32.931  29.714  1.00  0.00     0.116 C 
BRANCH  34  35
ATOM     35  N   UNL A   1      35.858  31.842  30.644  1.00  0.00    -0.352 N 
ATOM     36  C   UNL A   1      36.657  30.756  30.962  1.00  0.00     0.251 C 
ATOM     37  H   UNL A   1      34.990  31.882  31.108  1.00  0.00     0.163 HD
ATOM     38  O   UNL A   1      36.264  29.898  31.735  1.00  0.00    -0.269 OA
BRANCH  36  39
ATOM     39  C   UNL A   1      37.978  30.626  30.300  1.00  0.00     0.039 A 
ATOM     40  C   UNL A   1      39.095  31.226  30.885  1.00  0.00     0.014 A 
ATOM     41  C   UNL A   1      38.126  29.815  29.174  1.00  0.00     0.014 A 
ATOM     42  C   UNL A   1      40.373  30.913  30.413  1.00  0.00     0.010 A 
ATOM     43  C   UNL A   1      39.398  29.418  28.781  1.00  0.00     0.010 A 
ATOM     44  C   UNL A   1      40.540  29.951  29.401  1.00  0.00    -0.014 A 
BRANCH  44  45
ATOM     45  C   UNL A   1      41.883  29.473  28.977  1.00  0.00     0.031 A 
ATOM     46  C   UNL A   1      43.039  30.437  28.918  1.00  0.00     0.074 A 
ATOM     47  C   UNL A   1      42.046  28.203  28.547  1.00  0.00     0.049 A 
ATOM     48  N   UNL A   1      44.244  30.259  28.442  1.00  0.00    -0.248 NA
ATOM     49  C   UNL A   1      42.788  31.799  29.417  1.00  0.00     0.031 C 
ATOM     50  C   UNL A   1      40.995  27.183  28.486  1.00  0.00     0.029 A 
ATOM     51  N   UNL A   1      43.159  27.555  28.068  1.00  0.00    -0.354 N 
ATOM     52  C   UNL A   1      44.879  31.491  28.550  1.00  0.00     0.074 A 
ATOM     53  C   UNL A   1      43.905  32.423  29.078  1.00  0.00     0.031 C 
ATOM     54  C   UNL A   1      41.521  26.032  28.034  1.00  0.00     0.029 A 
ATOM     55  C   UNL A   1      42.934  26.238  27.734  1.00  0.00     0.049 A 
ATOM     56  H   UNL A   1      44.035  27.992  27.971  1.00  0.00     0.167 HD
ATOM     57  C   UNL A   1      46.164  31.814  28.271  1.00  0.00     0.037 A 
ATOM     58  C   UNL A   1      43.772  25.304  27.243  1.00  0.00     0.037 A 
ATOM     59  C   UNL A   1      47.145  30.872  27.805  1.00  0.00     0.049 A 
ATOM     60  C   UNL A   1      45.207  25.672  26.981  1.00  0.00     0.074 A 
ATOM     61  C   UNL A   1      48.491  31.081  27.558  1.00  0.00     0.029 A 
ATOM     62  N   UNL A   1      46.889  29.537  27.530  1.00  0.00    -0.354 N 
ATOM     63  N   UNL A   1      45.801  26.831  27.137  1.00  0.00    -0.248 NA
ATOM     64  C   UNL A   1      46.086  24.606  26.480  1.00  0.00     0.031 C 
ATOM     65  C   UNL A   1      49.043  29.874  27.112  1.00  0.00     0.029 A 
ATOM     66  C   UNL A   1      48.050  28.908  27.114  1.00  0.00     0.049 A 
ATOM     67  H   UNL A   1      46.011  29.100  27.619  1.00  0.00     0.167 HD
ATOM     68  C   UNL A   1      47.130  26.627  26.780  1.00  0.00     0.074 A 
ATOM     69  C   UNL A   1      47.253  25.232  26.409  1.00  0.00     0.031 C 
ATOM     70  C   UNL A   1      48.155  27.515  26.762  1.00  0.00     0.037 A 
BRANCH  57  71
ATOM     71  C   UNL A   1      46.577  33.245  28.488  1.00  0.00     0.058 A 
ATOM     72  C   UNL A   1      46.513  34.192  27.453  1.00  0.00     0.135 A 
ATOM     73  C   UNL A   1      47.047  33.674  29.739  1.00  0.00     0.135 A 
ATOM     74  F   UNL A   1      46.088  33.832  26.232  1.00  0.00    -0.206 F 
ATOM     75  C   UNL A   1      46.944  35.500  27.637  1.00  0.00     0.059 A 
ATOM     76  C   UNL A   1      47.455  34.987  29.955  1.00  0.00     0.059 A 
ATOM     77  F   UNL A   1      47.127  32.811  30.765  1.00  0.00    -0.206 F 
ATOM     78  C   UNL A   1      47.420  35.888  28.890  1.00  0.00     0.060 A 
BRANCH  78  79
ATOM     79  S   UNL A   1      47.995  37.585  29.110  1.00  0.00     0.124 S 
ATOM     80  O   UNL A   1      48.618  37.510  30.428  1.00  0.00    -0.237 OA
ATOM     81  O   UNL A   1      48.909  37.756  27.986  1.00  0.00    -0.237 OA
ATOM     82  O   UNL A   1      46.767  38.370  29.039  1.00  0.00    -0.744 OA
ENDBRANCH  78  79
ENDBRANCH  57  71
BRANCH  58  83
ATOM     83  C   UNL A   1      43.287  23.917  27.008  1.00  0.00     0.058 A 
ATOM     84  C   UNL A   1      43.156  23.017  28.077  1.00  0.00     0.135 A 
ATOM     85  C   UNL A   1      42.936  23.465  25.728  1.00  0.00     0.135 A 
ATOM     86  F   UNL A   1      43.488  23.399  29.320  1.00  0.00    -0.206 F 
ATOM     87  C   UNL A   1      42.706  21.714  27.885  1.00  0.00     0.059 A 
ATOM     88  C   UNL A   1      42.462  22.173  25.512  1.00  0.00     0.059 A 
ATOM     89  F   UNL A   1      43.027  24.292  24.675  1.00  0.00    -0.206 F 
ATOM     90  C   UNL A   1      42.359  21.302  26.597  1.00  0.00     0.060 A 
BRANCH  90  91
ATOM     91  S   UNL A   1      41.725  19.626  26.365  1.00  0.00     0.124 S 
ATOM     92  O   UNL A   1      42.492  19.180  25.208  1.00  0.00    -0.237 OA
ATOM     93  O   UNL A   1      42.059  18.992  27.637  1.00  0.00    -0.237 OA
ATOM     94  O   UNL A   1      40.299  19.838  26.136  1.00  0.00    -0.744 OA
ENDBRANCH  90  91
ENDBRANCH  58  83
BRANCH  70  95
ATOM     95  C   UNL A   1      49.507  26.999  26.362  1.00  0.00     0.058 A 
ATOM     96  C   UNL A   1      50.392  26.449  27.302  1.00  0.00     0.135 A 
ATOM     97  C   UNL A   1      49.895  27.000  25.013  1.00  0.00     0.135 A 
ATOM     98  F   UNL A   1      50.069  26.430  28.605  1.00  0.00    -0.206 F 
ATOM     99  C   UNL A   1      51.626  25.933  26.919  1.00  0.00     0.059 A 
ATOM    100  C   UNL A   1      51.114  26.468  24.606  1.00  0.00     0.059 A 
ATOM    101  F   UNL A   1      49.080  27.506  24.074  1.00  0.00    -0.206 F 
ATOM    102  C   UNL A   1      51.978  25.946  25.568  1.00  0.00     0.060 A 
BRANCH 102 103
ATOM    103  S   UNL A   1      53.564  25.236  25.079  1.00  0.00     0.124 S 
ATOM    104  O   UNL A   1      53.631  25.612  23.671  1.00  0.00    -0.237 OA
ATOM    105  O   UNL A   1      54.502  25.921  25.964  1.00  0.00    -0.237 OA
ATOM    106  O   UNL A   1      53.393  23.811  25.341  1.00  0.00    -0.744 OA
ENDBRANCH 102 103
ENDBRANCH  70  95
ENDBRANCH  44  45
ENDBRANCH  36  39
ENDBRANCH  34  35
ENDBRANCH  33  34
ENDBRANCH   1  33
TORSDOF 20
ENDMDL
MODEL 3
REMARK VINA RESULT:     -10.7      4.914      9.066
REMARK SMILES COc1ccc(CCN2C(=O)CC[C@@H](C(=O)NCCCCNC(=O)c3ccc(-c4c5nc(c(-c6c(F)cc(S(=O)(=O)[O-])cc6F)c6ccc([nH]6)c(-c6c(F)cc(S(=O)(=O)[O-])cc6F)c6nc(c(-c7c(F)cc(S(=O)(=O)[O-])cc7F)c7ccc4[nH]7)C=C6)C=C5)cc3)[C@@H]2c2ccc(Cl)cc2)cc1OC
REMARK SMILES IDX 19 1 18 2 17 3 15 4 16 5 14 7 9 8 10 9 91 10 11 11 12 12
REMARK SMILES IDX 13 13 8 14 7 15 6 16 3 17 4 18 100 19 5 20 99 21 2 22 1 23
REMARK SMILES IDX 101 24 102 25 92 26 93 27 98 28 94 29 97 30 95 31 96 32
REMARK SMILES IDX 20 33 21 34 22 35 23 36 24 38 25 39 26 40 90 41 27 42 89 43
REMARK SMILES IDX 28 44 29 45 30 46 83 47 31 48 88 49 82 50 84 51 32 52 87 53
REMARK SMILES IDX 81 54 80 55 33 57 67 58 46 59 66 60 47 61 50 62 65 63 85 64
REMARK SMILES IDX 48 65 49 66 64 68 86 69 51 70 34 71 35 72 44 73 36 74 37 75
REMARK SMILES IDX 43 76 45 77 38 78 39 79 40 80 41 81 42 82 68 83 69 84 78 85
REMARK SMILES IDX 70 86 71 87 77 88 79 89 72 90 73 91 74 92 75 93 76 94 52 95
REMARK SMILES IDX 53 96 62 97 54 98 55 99 61 100 63 101 56 102 57 103 58 104
REMARK SMILES IDX 59 105 60 106
REMARK H PARENT 17 6 22 37 84 56 50 67
REMARK Flexibility Score: inf
ROOT
ATOM      1  C   UNL A   1      32.438  28.415  26.818  1.00  0.00     0.023 C 
ENDROOT
BRANCH   1   2
ATOM      2  C   UNL A   1      31.348  27.362  27.005  1.00  0.00     0.116 C 
BRANCH   2   3
ATOM      3  N   UNL A   1      30.796  26.934  25.729  1.00  0.00    -0.356 N 
ATOM      4  C   UNL A   1      31.279  26.438  24.569  1.00  0.00     0.225 C 
ATOM      5  O   UNL A   1      30.429  26.279  23.680  1.00  0.00    -0.275 OA
ATOM      6  H   UNL A   1      29.817  27.030  25.704  1.00  0.00     0.163 HD
BRANCH   4   7
ATOM      7  C   UNL A   1      32.719  26.003  24.261  1.00  0.00     0.106 C 
ATOM      8  N   UNL A   1      32.806  24.155  22.539  1.00  0.00    -0.335 N 
ATOM      9  C   UNL A   1      33.116  25.056  21.519  1.00  0.00     0.223 C 
ATOM     10  C   UNL A   1      32.954  24.527  23.947  1.00  0.00     0.128 C 
ATOM     11  O   UNL A   1      33.232  24.698  20.345  1.00  0.00    -0.275 OA
ATOM     12  C   UNL A   1      33.170  26.541  21.848  1.00  0.00     0.101 C 
ATOM     13  C   UNL A   1      33.441  26.910  23.287  1.00  0.00     0.026 C 
BRANCH   8  14
ATOM     14  C   UNL A   1      32.528  22.744  22.148  1.00  0.00     0.125 C 
BRANCH  14  15
ATOM     15  C   UNL A   1      31.823  21.736  23.104  1.00  0.00     0.057 C 
BRANCH  15  16
ATOM     16  C   UNL A   1      32.605  20.537  23.607  1.00  0.00    -0.042 A 
ATOM     17  C   UNL A   1      34.185  18.290  24.325  1.00  0.00     0.160 A 
ATOM     18  C   UNL A   1      32.970  18.125  23.659  1.00  0.00     0.051 A 
ATOM     19  C   UNL A   1      34.560  19.581  24.730  1.00  0.00     0.160 A 
ATOM     20  C   UNL A   1      32.169  19.231  23.365  1.00  0.00     0.008 A 
ATOM     21  C   UNL A   1      33.785  20.693  24.344  1.00  0.00     0.054 A 
BRANCH  17  22
ATOM     22  O   UNL A   1      35.061  17.261  24.531  1.00  0.00    -0.493 OA
ATOM     23  C   UNL A   1      34.576  16.096  25.183  1.00  0.00     0.278 C 
ENDBRANCH  17  22
BRANCH  19  24
ATOM     24  O   UNL A   1      35.668  19.921  25.465  1.00  0.00    -0.493 OA
ATOM     25  C   UNL A   1      36.917  19.951  24.778  1.00  0.00     0.278 C 
ENDBRANCH  19  24
ENDBRANCH  15  16
ENDBRANCH  14  15
ENDBRANCH   8  14
BRANCH  10  26
ATOM     26  C   UNL A   1      34.297  24.001  24.500  1.00  0.00    -0.025 A 
ATOM     27  C   UNL A   1      34.516  23.804  25.879  1.00  0.00     0.007 A 
ATOM     28  C   UNL A   1      35.392  23.836  23.634  1.00  0.00     0.007 A 
ATOM     29  C   UNL A   1      35.801  23.583  26.383  1.00  0.00     0.021 A 
ATOM     30  C   UNL A   1      36.678  23.610  24.137  1.00  0.00     0.021 A 
ATOM     31  C   UNL A   1      36.880  23.513  25.511  1.00  0.00     0.041 A 
ATOM     32  Cl  UNL A   1      38.474  23.339  26.134  1.00  0.00    -0.084 Cl
ENDBRANCH  10  26
ENDBRANCH   4   7
ENDBRANCH   2   3
ENDBRANCH   1   2
BRANCH   1  33
ATOM     33  C   UNL A   1      33.865  27.877  26.773  1.00  0.00     0.023 C 
BRANCH  33  34
ATOM     34  C   UNL A   1      34.957  28.937  26.846  1.00  0.00     0.116 C 
BRANCH  34  35
ATOM     35  N   UNL A   1      34.474  30.306  26.973  1.00  0.00    -0.352 N 
ATOM     36  C   UNL A   1      34.930  31.310  27.812  1.00  0.00     0.251 C 
ATOM     37  H   UNL A   1      33.722  30.550  26.385  1.00  0.00     0.163 HD
ATOM     38  O   UNL A   1      34.386  32.401  27.831  1.00  0.00    -0.269 OA
BRANCH  36  39
ATOM     39  C   UNL A   1      36.057  31.014  28.730  1.00  0.00     0.039 A 
ATOM     40  C   UNL A   1      35.968  29.912  29.584  1.00  0.00     0.014 A 
ATOM     41  C   UNL A   1      37.239  31.751  28.657  1.00  0.00     0.014 A 
ATOM     42  C   UNL A   1      37.106  29.480  30.273  1.00  0.00     0.010 A 
ATOM     43  C   UNL A   1      38.392  31.255  29.252  1.00  0.00     0.010 A 
ATOM     44  C   UNL A   1      38.345  30.106  30.058  1.00  0.00    -0.014 A 
BRANCH  44  45
ATOM     45  C   UNL A   1      39.609  29.583  30.647  1.00  0.00     0.031 A 
ATOM     46  C   UNL A   1      40.186  30.231  31.878  1.00  0.00     0.074 A 
ATOM     47  C   UNL A   1      40.291  28.600  30.023  1.00  0.00     0.049 A 
ATOM     48  N   UNL A   1      41.339  30.025  32.459  1.00  0.00    -0.248 NA
ATOM     49  C   UNL A   1      39.377  31.286  32.510  1.00  0.00     0.031 C 
ATOM     50  C   UNL A   1      39.881  27.931  28.784  1.00  0.00     0.029 A 
ATOM     51  N   UNL A   1      41.484  27.996  30.339  1.00  0.00    -0.354 N 
ATOM     52  C   UNL A   1      41.409  30.947  33.498  1.00  0.00     0.074 A 
ATOM     53  C   UNL A   1      40.210  31.754  33.427  1.00  0.00     0.031 C 
ATOM     54  C   UNL A   1      40.785  26.988  28.469  1.00  0.00     0.029 A 
ATOM     55  C   UNL A   1      41.860  27.010  29.456  1.00  0.00     0.049 A 
ATOM     56  H   UNL A   1      42.021  28.247  31.125  1.00  0.00     0.167 HD
ATOM     57  C   UNL A   1      42.363  31.089  34.448  1.00  0.00     0.037 A 
ATOM     58  C   UNL A   1      42.946  26.213  29.443  1.00  0.00     0.037 A 
ATOM     59  C   UNL A   1      43.523  30.246  34.552  1.00  0.00     0.049 A 
ATOM     60  C   UNL A   1      43.973  26.358  30.533  1.00  0.00     0.074 A 
ATOM     61  C   UNL A   1      44.515  30.260  35.517  1.00  0.00     0.029 A 
ATOM     62  N   UNL A   1      43.839  29.224  33.668  1.00  0.00    -0.354 N 
ATOM     63  N   UNL A   1      43.996  27.202  31.536  1.00  0.00    -0.248 NA
ATOM     64  C   UNL A   1      45.120  25.439  30.492  1.00  0.00     0.031 C 
ATOM     65  C   UNL A   1      45.443  29.261  35.202  1.00  0.00     0.029 A 
ATOM     66  C   UNL A   1      45.011  28.602  34.062  1.00  0.00     0.049 A 
ATOM     67  H   UNL A   1      43.307  28.977  32.877  1.00  0.00     0.167 HD
ATOM     68  C   UNL A   1      45.144  26.900  32.261  1.00  0.00     0.074 A 
ATOM     69  C   UNL A   1      45.784  25.788  31.586  1.00  0.00     0.031 C 
ATOM     70  C   UNL A   1      45.624  27.489  33.384  1.00  0.00     0.037 A 
BRANCH  57  71
ATOM     71  C   UNL A   1      42.171  32.186  35.459  1.00  0.00     0.058 A 
ATOM     72  C   UNL A   1      41.322  32.024  36.566  1.00  0.00     0.135 A 
ATOM     73  C   UNL A   1      42.838  33.414  35.320  1.00  0.00     0.135 A 
ATOM     74  F   UNL A   1      40.647  30.877  36.738  1.00  0.00    -0.206 F 
ATOM     75  C   UNL A   1      41.103  33.055  37.472  1.00  0.00     0.059 A 
ATOM     76  C   UNL A   1      42.658  34.450  36.232  1.00  0.00     0.059 A 
ATOM     77  F   UNL A   1      43.664  33.623  34.283  1.00  0.00    -0.206 F 
ATOM     78  C   UNL A   1      41.770  34.267  37.294  1.00  0.00     0.060 A 
BRANCH  78  79
ATOM     79  S   UNL A   1      41.463  35.604  38.467  1.00  0.00     0.124 S 
ATOM     80  O   UNL A   1      40.148  35.237  38.985  1.00  0.00    -0.237 OA
ATOM     81  O   UNL A   1      42.573  35.463  39.403  1.00  0.00    -0.237 OA
ATOM     82  O   UNL A   1      41.497  36.801  37.634  1.00  0.00    -0.744 OA
ENDBRANCH  78  79
ENDBRANCH  57  71
BRANCH  58  83
ATOM     83  C   UNL A   1      43.098  25.175  28.387  1.00  0.00     0.058 A 
ATOM     84  C   UNL A   1      43.577  25.518  27.113  1.00  0.00     0.135 A 
ATOM     85  C   UNL A   1      42.783  23.830  28.625  1.00  0.00     0.135 A 
ATOM     86  F   UNL A   1      43.883  26.794  26.834  1.00  0.00    -0.206 F 
ATOM     87  C   UNL A   1      43.726  24.568  26.108  1.00  0.00     0.059 A 
ATOM     88  C   UNL A   1      42.946  22.855  27.643  1.00  0.00     0.059 A 
ATOM     89  F   UNL A   1      42.337  23.447  29.831  1.00  0.00    -0.206 F 
ATOM     90  C   UNL A   1      43.410  23.237  26.384  1.00  0.00     0.060 A 
BRANCH  90  91
ATOM     91  S   UNL A   1      43.659  22.001  25.090  1.00  0.00     0.124 S 
ATOM     92  O   UNL A   1      42.641  21.013  25.427  1.00  0.00    -0.237 OA
ATOM     93  O   UNL A   1      43.421  22.775  23.875  1.00  0.00    -0.237 OA
ATOM     94  O   UNL A   1      45.042  21.579  25.293  1.00  0.00    -0.744 OA
ENDBRANCH  90  91
ENDBRANCH  58  83
BRANCH  70  95
ATOM     95  C   UNL A   1      46.882  26.921  33.976  1.00  0.00     0.058 A 
ATOM     96  C   UNL A   1      46.850  25.864  34.898  1.00  0.00     0.135 A 
ATOM     97  C   UNL A   1      48.137  27.402  33.568  1.00  0.00     0.135 A 
ATOM     98  F   UNL A   1      45.675  25.374  35.324  1.00  0.00    -0.206 F 
ATOM     99  C   UNL A   1      48.020  25.315  35.411  1.00  0.00     0.059 A 
ATOM    100  C   UNL A   1      49.319  26.851  34.050  1.00  0.00     0.059 A 
ATOM    101  F   UNL A   1      48.221  28.405  32.680  1.00  0.00    -0.206 F 
ATOM    102  C   UNL A   1      49.250  25.814  34.980  1.00  0.00     0.060 A 
BRANCH 102 103
ATOM    103  S   UNL A   1      50.763  25.064  35.620  1.00  0.00     0.124 S 
ATOM    104  O   UNL A   1      51.779  25.695  34.784  1.00  0.00    -0.237 OA
ATOM    105  O   UNL A   1      50.748  25.475  37.021  1.00  0.00    -0.237 OA
ATOM    106  O   UNL A   1      50.557  23.637  35.390  1.00  0.00    -0.744 OA
ENDBRANCH 102 103
ENDBRANCH  70  95
ENDBRANCH  44  45
ENDBRANCH  36  39
ENDBRANCH  34  35
ENDBRANCH  33  34
ENDBRANCH   1  33
TORSDOF 20
ENDMDL
