MODEL 1
REMARK VINA RESULT:     -11.9      0.000      0.000
REMARK SMILES C[C@H]1[C@H](C(=O)NCCCCNC(=O)c2ccc(-c3c4nc(c(-c5c(F)cc(S(=O)(=O)[O-])cc5F)c5ccc([nH]5)c(-c5c(F)cc(S(=O)(=O)[O-])cc5F)c5nc(c(-c6c(F)cc(S(=O)(=O)[O-])cc6F)c6ccc3[nH]6)C=C5)C=C4)cc2)CC[N@@H+]1Cc1ccc(C(F)(F)F)cc1
REMARK SMILES IDX 8 1 7 2 6 3 4 4 5 5 3 7 1 8 2 9 82 10 80 11 81 12 83 14
REMARK SMILES IDX 84 15 85 16 93 17 86 18 92 19 87 20 88 21 89 22 90 23 91 24
REMARK SMILES IDX 9 25 10 26 11 27 12 28 13 30 14 31 15 32 79 33 16 34 78 35
REMARK SMILES IDX 17 36 18 37 19 38 72 39 20 40 77 41 71 42 73 43 21 44 76 45
REMARK SMILES IDX 70 46 69 47 22 49 56 50 35 51 55 52 36 53 39 54 54 55 74 56
REMARK SMILES IDX 37 57 38 58 53 60 75 61 40 62 23 63 24 64 33 65 25 66 26 67
REMARK SMILES IDX 32 68 34 69 27 70 28 71 29 72 30 73 31 74 57 75 58 76 67 77
REMARK SMILES IDX 59 78 60 79 66 80 68 81 61 82 62 83 63 84 64 85 65 86 41 87
REMARK SMILES IDX 42 88 51 89 43 90 44 91 50 92 52 93 45 94 46 95 47 96 48 97
REMARK SMILES IDX 49 98
REMARK H PARENT 6 6 82 13 11 29 73 48 39 59
REMARK Flexibility Score: inf
ROOT
ATOM      1  C   UNL A   1      31.664  29.667  25.646  1.00  0.00     0.023 C 
ENDROOT
BRANCH   1   2
ATOM      2  C   UNL A   1      32.370  29.323  24.329  1.00  0.00     0.116 C 
BRANCH   2   3
ATOM      3  N   UNL A   1      31.452  29.301  23.212  1.00  0.00    -0.356 N 
ATOM      4  C   UNL A   1      30.713  28.295  22.683  1.00  0.00     0.229 C 
ATOM      5  O   UNL A   1      29.966  28.601  21.745  1.00  0.00    -0.275 OA
ATOM      6  H   UNL A   1      31.345  30.168  22.757  1.00  0.00     0.163 HD
BRANCH   4   7
ATOM      7  C   UNL A   1      30.690  26.860  23.202  1.00  0.00     0.142 C 
ATOM      8  C   UNL A   1      32.366  25.255  22.243  1.00  0.00     0.076 C 
ATOM      9  C   UNL A   1      32.007  26.108  23.466  1.00  0.00     0.193 C 
ATOM     10  N   UNL A   1      31.736  25.197  24.603  1.00  0.00    -0.328 N 
ATOM     11  C   UNL A   1      29.878  26.656  24.470  1.00  0.00     0.081 C 
ATOM     12  C   UNL A   1      30.303  25.253  24.877  1.00  0.00     0.263 C 
ATOM     13  H   UNL A   1      31.988  24.250  24.318  1.00  0.00     0.348 HD
BRANCH  10  14
ATOM     14  C   UNL A   1      32.641  25.259  25.767  1.00  0.00     0.299 C 
BRANCH  14  15
ATOM     15  C   UNL A   1      33.867  24.359  25.803  1.00  0.00     0.006 A 
ATOM     16  C   UNL A   1      33.811  23.100  26.414  1.00  0.00     0.010 A 
ATOM     17  C   UNL A   1      35.097  24.754  25.255  1.00  0.00     0.010 A 
ATOM     18  C   UNL A   1      34.887  22.208  26.310  1.00  0.00     0.013 A 
ATOM     19  C   UNL A   1      36.148  23.848  25.097  1.00  0.00     0.013 A 
ATOM     20  C   UNL A   1      36.030  22.543  25.576  1.00  0.00     0.056 A 
BRANCH  20  21
ATOM     21  C   UNL A   1      37.056  21.493  25.228  1.00  0.00     0.416 C 
ATOM     22  F   UNL A   1      38.183  21.560  25.984  1.00  0.00    -0.166 F 
ATOM     23  F   UNL A   1      36.560  20.233  25.412  1.00  0.00    -0.166 F 
ATOM     24  F   UNL A   1      37.463  21.541  23.929  1.00  0.00    -0.166 F 
ENDBRANCH  20  21
ENDBRANCH  14  15
ENDBRANCH  10  14
ENDBRANCH   4   7
ENDBRANCH   2   3
ENDBRANCH   1   2
BRANCH   1  25
ATOM     25  C   UNL A   1      32.026  28.764  26.832  1.00  0.00     0.023 C 
BRANCH  25  26
ATOM     26  C   UNL A   1      33.413  28.994  27.436  1.00  0.00     0.116 C 
BRANCH  26  27
ATOM     27  N   UNL A   1      33.606  30.328  27.981  1.00  0.00    -0.352 N 
ATOM     28  C   UNL A   1      34.756  30.915  28.473  1.00  0.00     0.251 C 
ATOM     29  H   UNL A   1      32.801  30.894  28.004  1.00  0.00     0.163 HD
ATOM     30  O   UNL A   1      34.720  32.066  28.876  1.00  0.00    -0.269 OA
BRANCH  28  31
ATOM     31  C   UNL A   1      36.000  30.116  28.589  1.00  0.00     0.039 A 
ATOM     32  C   UNL A   1      36.836  30.053  27.470  1.00  0.00     0.014 A 
ATOM     33  C   UNL A   1      36.391  29.522  29.790  1.00  0.00     0.014 A 
ATOM     34  C   UNL A   1      38.122  29.528  27.598  1.00  0.00     0.010 A 
ATOM     35  C   UNL A   1      37.695  29.055  29.935  1.00  0.00     0.010 A 
ATOM     36  C   UNL A   1      38.585  29.103  28.853  1.00  0.00    -0.014 A 
BRANCH  36  37
ATOM     37  C   UNL A   1      40.028  28.840  29.075  1.00  0.00     0.031 A 
ATOM     38  C   UNL A   1      40.939  29.910  29.596  1.00  0.00     0.074 A 
ATOM     39  C   UNL A   1      40.521  27.639  28.711  1.00  0.00     0.049 A 
ATOM     40  N   UNL A   1      42.227  29.857  29.813  1.00  0.00    -0.248 NA
ATOM     41  C   UNL A   1      40.331  31.217  29.887  1.00  0.00     0.031 C 
ATOM     42  C   UNL A   1      39.738  26.549  28.118  1.00  0.00     0.029 A 
ATOM     43  N   UNL A   1      41.794  27.132  28.770  1.00  0.00    -0.354 N 
ATOM     44  C   UNL A   1      42.588  31.119  30.265  1.00  0.00     0.074 A 
ATOM     45  C   UNL A   1      41.388  31.931  30.247  1.00  0.00     0.031 C 
ATOM     46  C   UNL A   1      40.542  25.499  27.891  1.00  0.00     0.029 A 
ATOM     47  C   UNL A   1      41.900  25.846  28.294  1.00  0.00     0.049 A 
ATOM     48  H   UNL A   1      42.560  27.640  29.122  1.00  0.00     0.167 HD
ATOM     49  C   UNL A   1      43.805  31.553  30.672  1.00  0.00     0.037 A 
ATOM     50  C   UNL A   1      42.970  25.036  28.193  1.00  0.00     0.037 A 
ATOM     51  C   UNL A   1      44.989  30.732  30.692  1.00  0.00     0.049 A 
ATOM     52  C   UNL A   1      44.303  25.530  28.681  1.00  0.00     0.074 A 
ATOM     53  C   UNL A   1      46.258  31.059  31.136  1.00  0.00     0.029 A 
ATOM     54  N   UNL A   1      45.049  29.420  30.243  1.00  0.00    -0.354 N 
ATOM     55  N   UNL A   1      44.609  26.703  29.181  1.00  0.00    -0.248 NA
ATOM     56  C   UNL A   1      45.429  24.592  28.601  1.00  0.00     0.031 C 
ATOM     57  C   UNL A   1      47.093  29.954  30.928  1.00  0.00     0.029 A 
ATOM     58  C   UNL A   1      46.335  28.927  30.387  1.00  0.00     0.049 A 
ATOM     59  H   UNL A   1      44.288  28.914  29.876  1.00  0.00     0.167 HD
ATOM     60  C   UNL A   1      45.960  26.639  29.495  1.00  0.00     0.074 A 
ATOM     61  C   UNL A   1      46.409  25.307  29.139  1.00  0.00     0.031 C 
ATOM     62  C   UNL A   1      46.758  27.596  30.029  1.00  0.00     0.037 A 
BRANCH  49  63
ATOM     63  C   UNL A   1      43.909  32.979  31.137  1.00  0.00     0.058 A 
ATOM     64  C   UNL A   1      43.708  33.325  32.484  1.00  0.00     0.135 A 
ATOM     65  C   UNL A   1      44.231  34.007  30.238  1.00  0.00     0.135 A 
ATOM     66  F   UNL A   1      43.385  32.382  33.383  1.00  0.00    -0.206 F 
ATOM     67  C   UNL A   1      43.787  34.645  32.915  1.00  0.00     0.059 A 
ATOM     68  C   UNL A   1      44.337  35.332  30.652  1.00  0.00     0.059 A 
ATOM     69  F   UNL A   1      44.434  33.731  28.940  1.00  0.00    -0.206 F 
ATOM     70  C   UNL A   1      44.097  35.643  31.990  1.00  0.00     0.060 A 
BRANCH  70  71
ATOM     71  S   UNL A   1      44.184  37.354  32.561  1.00  0.00     0.124 S 
ATOM     72  O   UNL A   1      43.110  37.383  33.550  1.00  0.00    -0.237 OA
ATOM     73  O   UNL A   1      45.539  37.439  33.095  1.00  0.00    -0.237 OA
ATOM     74  O   UNL A   1      43.941  38.129  31.348  1.00  0.00    -0.744 OA
ENDBRANCH  70  71
ENDBRANCH  49  63
BRANCH  50  75
ATOM     75  C   UNL A   1      42.812  23.664  27.645  1.00  0.00     0.058 A 
ATOM     76  C   UNL A   1      42.539  22.579  28.490  1.00  0.00     0.135 A 
ATOM     77  C   UNL A   1      42.897  23.414  26.266  1.00  0.00     0.135 A 
ATOM     78  F   UNL A   1      42.449  22.769  29.816  1.00  0.00    -0.206 F 
ATOM     79  C   UNL A   1      42.367  21.291  27.993  1.00  0.00     0.059 A 
ATOM     80  C   UNL A   1      42.711  22.138  25.743  1.00  0.00     0.059 A 
ATOM     81  F   UNL A   1      43.136  24.422  25.414  1.00  0.00    -0.206 F 
ATOM     82  C   UNL A   1      42.454  21.082  26.615  1.00  0.00     0.060 A 
BRANCH  82  83
ATOM     83  S   UNL A   1      42.171  19.417  25.971  1.00  0.00     0.124 S 
ATOM     84  O   UNL A   1      42.661  18.592  27.069  1.00  0.00    -0.237 OA
ATOM     85  O   UNL A   1      40.727  19.408  25.761  1.00  0.00    -0.237 OA
ATOM     86  O   UNL A   1      42.974  19.391  24.753  1.00  0.00    -0.744 OA
ENDBRANCH  82  83
ENDBRANCH  50  75
BRANCH  62  87
ATOM     87  C   UNL A   1      48.192  27.228  30.281  1.00  0.00     0.058 A 
ATOM     88  C   UNL A   1      49.206  27.570  29.376  1.00  0.00     0.135 A 
ATOM     89  C   UNL A   1      48.558  26.565  31.463  1.00  0.00     0.135 A 
ATOM     90  F   UNL A   1      48.904  28.197  28.228  1.00  0.00    -0.206 F 
ATOM     91  C   UNL A   1      50.537  27.252  29.625  1.00  0.00     0.059 A 
ATOM     92  C   UNL A   1      49.885  26.255  31.742  1.00  0.00     0.059 A 
ATOM     93  F   UNL A   1      47.623  26.221  32.364  1.00  0.00    -0.206 F 
ATOM     94  C   UNL A   1      50.867  26.594  30.812  1.00  0.00     0.060 A 
BRANCH  94  95
ATOM     95  S   UNL A   1      52.601  26.219  31.144  1.00  0.00     0.124 S 
ATOM     96  O   UNL A   1      52.492  24.984  31.913  1.00  0.00    -0.237 OA
ATOM     97  O   UNL A   1      53.157  26.083  29.802  1.00  0.00    -0.237 OA
ATOM     98  O   UNL A   1      53.063  27.387  31.889  1.00  0.00    -0.744 OA
ENDBRANCH  94  95
ENDBRANCH  62  87
ENDBRANCH  36  37
ENDBRANCH  28  31
ENDBRANCH  26  27
ENDBRANCH  25  26
ENDBRANCH   1  25
TORSDOF 17
ENDMDL
MODEL 2
REMARK VINA RESULT:     -11.6      5.438     10.678
REMARK SMILES C[C@H]1[C@H](C(=O)NCCCCNC(=O)c2ccc(-c3c4nc(c(-c5c(F)cc(S(=O)(=O)[O-])cc5F)c5ccc([nH]5)c(-c5c(F)cc(S(=O)(=O)[O-])cc5F)c5nc(c(-c6c(F)cc(S(=O)(=O)[O-])cc6F)c6ccc3[nH]6)C=C5)C=C4)cc2)CC[N@@H+]1Cc1ccc(C(F)(F)F)cc1
REMARK SMILES IDX 8 1 7 2 6 3 4 4 5 5 3 7 1 8 2 9 82 10 80 11 81 12 83 14
REMARK SMILES IDX 84 15 85 16 93 17 86 18 92 19 87 20 88 21 89 22 90 23 91 24
REMARK SMILES IDX 9 25 10 26 11 27 12 28 13 30 14 31 15 32 79 33 16 34 78 35
REMARK SMILES IDX 17 36 18 37 19 38 72 39 20 40 77 41 71 42 73 43 21 44 76 45
REMARK SMILES IDX 70 46 69 47 22 49 56 50 35 51 55 52 36 53 39 54 54 55 74 56
REMARK SMILES IDX 37 57 38 58 53 60 75 61 40 62 23 63 24 64 33 65 25 66 26 67
REMARK SMILES IDX 32 68 34 69 27 70 28 71 29 72 30 73 31 74 57 75 58 76 67 77
REMARK SMILES IDX 59 78 60 79 66 80 68 81 61 82 62 83 63 84 64 85 65 86 41 87
REMARK SMILES IDX 42 88 51 89 43 90 44 91 50 92 52 93 45 94 46 95 47 96 48 97
REMARK SMILES IDX 49 98
REMARK H PARENT 6 6 82 13 11 29 73 48 39 59
REMARK Flexibility Score: inf
ROOT
ATOM      1  C   UNL A   1      38.293  22.738  26.059  1.00  0.00     0.023 C 
ENDROOT
BRANCH   1   2
ATOM      2  C   UNL A   1      37.444  21.807  25.186  1.00  0.00     0.116 C 
BRANCH   2   3
ATOM      3  N   UNL A   1      36.607  22.542  24.265  1.00  0.00    -0.356 N 
ATOM      4  C   UNL A   1      35.266  22.525  24.069  1.00  0.00     0.229 C 
ATOM      5  O   UNL A   1      34.826  23.321  23.230  1.00  0.00    -0.275 OA
ATOM      6  H   UNL A   1      37.096  23.163  23.678  1.00  0.00     0.163 HD
BRANCH   4   7
ATOM      7  C   UNL A   1      34.278  21.660  24.848  1.00  0.00     0.142 C 
ATOM      8  C   UNL A   1      34.181  21.971  27.337  1.00  0.00     0.076 C 
ATOM      9  C   UNL A   1      33.468  22.262  26.010  1.00  0.00     0.193 C 
ATOM     10  N   UNL A   1      32.169  21.549  26.016  1.00  0.00    -0.328 N 
ATOM     11  C   UNL A   1      33.240  20.954  23.992  1.00  0.00     0.081 C 
ATOM     12  C   UNL A   1      32.264  20.459  25.049  1.00  0.00     0.263 C 
ATOM     13  H   UNL A   1      32.024  21.161  26.948  1.00  0.00     0.348 HD
BRANCH  10  14
ATOM     14  C   UNL A   1      30.937  22.360  25.988  1.00  0.00     0.299 C 
BRANCH  14  15
ATOM     15  C   UNL A   1      30.949  23.705  25.276  1.00  0.00     0.006 A 
ATOM     16  C   UNL A   1      30.816  23.776  23.883  1.00  0.00     0.010 A 
ATOM     17  C   UNL A   1      31.117  24.913  25.969  1.00  0.00     0.010 A 
ATOM     18  C   UNL A   1      30.669  25.014  23.244  1.00  0.00     0.013 A 
ATOM     19  C   UNL A   1      30.910  26.145  25.345  1.00  0.00     0.013 A 
ATOM     20  C   UNL A   1      30.627  26.203  23.979  1.00  0.00     0.056 A 
BRANCH  20  21
ATOM     21  C   UNL A   1      30.189  27.494  23.332  1.00  0.00     0.416 C 
ATOM     22  F   UNL A   1      30.667  27.661  22.071  1.00  0.00    -0.166 F 
ATOM     23  F   UNL A   1      28.829  27.560  23.226  1.00  0.00    -0.166 F 
ATOM     24  F   UNL A   1      30.558  28.604  24.031  1.00  0.00    -0.166 F 
ENDBRANCH  20  21
ENDBRANCH  14  15
ENDBRANCH  10  14
ENDBRANCH   4   7
ENDBRANCH   2   3
ENDBRANCH   1   2
BRANCH   1  25
ATOM     25  C   UNL A   1      39.624  22.145  26.536  1.00  0.00     0.023 C 
BRANCH  25  26
ATOM     26  C   UNL A   1      40.701  23.163  26.919  1.00  0.00     0.116 C 
BRANCH  26  27
ATOM     27  N   UNL A   1      40.877  24.230  25.947  1.00  0.00    -0.352 N 
ATOM     28  C   UNL A   1      41.132  25.572  26.157  1.00  0.00     0.251 C 
ATOM     29  H   UNL A   1      40.801  23.958  25.004  1.00  0.00     0.163 HD
ATOM     30  O   UNL A   1      41.266  26.316  25.200  1.00  0.00    -0.269 OA
BRANCH  28  31
ATOM     31  C   UNL A   1      41.154  26.111  27.538  1.00  0.00     0.039 A 
ATOM     32  C   UNL A   1      42.279  26.843  27.929  1.00  0.00     0.014 A 
ATOM     33  C   UNL A   1      40.063  25.988  28.400  1.00  0.00     0.014 A 
ATOM     34  C   UNL A   1      42.248  27.574  29.117  1.00  0.00     0.010 A 
ATOM     35  C   UNL A   1      40.006  26.766  29.553  1.00  0.00     0.010 A 
ATOM     36  C   UNL A   1      41.078  27.604  29.893  1.00  0.00    -0.014 A 
BRANCH  36  37
ATOM     37  C   UNL A   1      40.915  28.606  30.974  1.00  0.00     0.031 A 
ATOM     38  C   UNL A   1      41.731  28.533  32.228  1.00  0.00     0.074 A 
ATOM     39  C   UNL A   1      39.947  29.536  30.840  1.00  0.00     0.049 A 
ATOM     40  N   UNL A   1      41.689  29.306  33.282  1.00  0.00    -0.248 NA
ATOM     41  C   UNL A   1      42.705  27.435  32.323  1.00  0.00     0.031 C 
ATOM     42  C   UNL A   1      39.038  29.651  29.695  1.00  0.00     0.029 A 
ATOM     43  N   UNL A   1      39.553  30.552  31.674  1.00  0.00    -0.354 N 
ATOM     44  C   UNL A   1      42.626  28.791  34.167  1.00  0.00     0.074 A 
ATOM     45  C   UNL A   1      43.189  27.610  33.545  1.00  0.00     0.031 C 
ATOM     46  C   UNL A   1      38.212  30.690  29.888  1.00  0.00     0.029 A 
ATOM     47  C   UNL A   1      38.510  31.299  31.179  1.00  0.00     0.049 A 
ATOM     48  H   UNL A   1      39.978  30.731  32.543  1.00  0.00     0.167 HD
ATOM     49  C   UNL A   1      42.991  29.271  35.380  1.00  0.00     0.037 A 
ATOM     50  C   UNL A   1      37.864  32.357  31.705  1.00  0.00     0.037 A 
ATOM     51  C   UNL A   1      42.428  30.450  35.985  1.00  0.00     0.049 A 
ATOM     52  C   UNL A   1      38.310  32.888  33.038  1.00  0.00     0.074 A 
ATOM     53  C   UNL A   1      42.765  31.051  37.185  1.00  0.00     0.029 A 
ATOM     54  N   UNL A   1      41.402  31.208  35.435  1.00  0.00    -0.354 N 
ATOM     55  N   UNL A   1      39.255  32.435  33.827  1.00  0.00    -0.248 NA
ATOM     56  C   UNL A   1      37.613  34.076  33.547  1.00  0.00     0.031 C 
ATOM     57  C   UNL A   1      41.924  32.154  37.375  1.00  0.00     0.029 A 
ATOM     58  C   UNL A   1      41.086  32.262  36.276  1.00  0.00     0.049 A 
ATOM     59  H   UNL A   1      40.964  31.022  34.573  1.00  0.00     0.167 HD
ATOM     60  C   UNL A   1      39.280  33.294  34.918  1.00  0.00     0.074 A 
ATOM     61  C   UNL A   1      38.265  34.302  34.681  1.00  0.00     0.031 C 
ATOM     62  C   UNL A   1      40.073  33.254  36.017  1.00  0.00     0.037 A 
BRANCH  49  63
ATOM     63  C   UNL A   1      44.059  28.519  36.127  1.00  0.00     0.058 A 
ATOM     64  C   UNL A   1      45.414  28.874  36.018  1.00  0.00     0.135 A 
ATOM     65  C   UNL A   1      43.728  27.448  36.971  1.00  0.00     0.135 A 
ATOM     66  F   UNL A   1      45.786  29.882  35.214  1.00  0.00    -0.206 F 
ATOM     67  C   UNL A   1      46.406  28.171  36.693  1.00  0.00     0.059 A 
ATOM     68  C   UNL A   1      44.702  26.745  37.674  1.00  0.00     0.059 A 
ATOM     69  F   UNL A   1      42.448  27.069  37.112  1.00  0.00    -0.206 F 
ATOM     70  C   UNL A   1      46.041  27.104  37.515  1.00  0.00     0.060 A 
BRANCH  70  71
ATOM     71  S   UNL A   1      47.340  26.191  38.376  1.00  0.00     0.124 S 
ATOM     72  O   UNL A   1      46.740  26.013  39.696  1.00  0.00    -0.237 OA
ATOM     73  O   UNL A   1      47.463  24.983  37.570  1.00  0.00    -0.237 OA
ATOM     74  O   UNL A   1      48.483  27.097  38.324  1.00  0.00    -0.744 OA
ENDBRANCH  70  71
ENDBRANCH  49  63
BRANCH  50  75
ATOM     75  C   UNL A   1      36.760  33.002  30.950  1.00  0.00     0.058 A 
ATOM     76  C   UNL A   1      35.421  32.791  31.313  1.00  0.00     0.135 A 
ATOM     77  C   UNL A   1      37.017  33.865  29.874  1.00  0.00     0.135 A 
ATOM     78  F   UNL A   1      35.126  31.973  32.335  1.00  0.00    -0.206 F 
ATOM     79  C   UNL A   1      34.375  33.403  30.631  1.00  0.00     0.059 A 
ATOM     80  C   UNL A   1      35.989  34.504  29.188  1.00  0.00     0.059 A 
ATOM     81  F   UNL A   1      38.282  34.116  29.501  1.00  0.00    -0.206 F 
ATOM     82  C   UNL A   1      34.671  34.260  29.568  1.00  0.00     0.060 A 
BRANCH  82  83
ATOM     83  S   UNL A   1      33.309  35.098  28.725  1.00  0.00     0.124 S 
ATOM     84  O   UNL A   1      34.021  36.109  27.954  1.00  0.00    -0.237 OA
ATOM     85  O   UNL A   1      32.709  34.014  27.955  1.00  0.00    -0.237 OA
ATOM     86  O   UNL A   1      32.494  35.600  29.827  1.00  0.00    -0.744 OA
ENDBRANCH  82  83
ENDBRANCH  50  75
BRANCH  62  87
ATOM     87  C   UNL A   1      39.886  34.343  37.034  1.00  0.00     0.058 A 
ATOM     88  C   UNL A   1      38.946  34.227  38.068  1.00  0.00     0.135 A 
ATOM     89  C   UNL A   1      40.689  35.494  36.998  1.00  0.00     0.135 A 
ATOM     90  F   UNL A   1      38.150  33.148  38.139  1.00  0.00    -0.206 F 
ATOM     91  C   UNL A   1      38.795  35.224  39.025  1.00  0.00     0.059 A 
ATOM     92  C   UNL A   1      40.569  36.495  37.957  1.00  0.00     0.059 A 
ATOM     93  F   UNL A   1      41.608  35.649  36.031  1.00  0.00    -0.206 F 
ATOM     94  C   UNL A   1      39.611  36.355  38.961  1.00  0.00     0.060 A 
BRANCH  94  95
ATOM     95  S   UNL A   1      39.433  37.628  40.229  1.00  0.00     0.124 S 
ATOM     96  O   UNL A   1      39.417  36.826  41.448  1.00  0.00    -0.237 OA
ATOM     97  O   UNL A   1      40.623  38.447  40.024  1.00  0.00    -0.237 OA
ATOM     98  O   UNL A   1      38.170  38.274  39.884  1.00  0.00    -0.744 OA
ENDBRANCH  94  95
ENDBRANCH  62  87
ENDBRANCH  36  37
ENDBRANCH  28  31
ENDBRANCH  26  27
ENDBRANCH  25  26
ENDBRANCH   1  25
TORSDOF 17
ENDMDL
MODEL 3
REMARK VINA RESULT:     -11.5      1.609      2.419
REMARK SMILES C[C@H]1[C@H](C(=O)NCCCCNC(=O)c2ccc(-c3c4nc(c(-c5c(F)cc(S(=O)(=O)[O-])cc5F)c5ccc([nH]5)c(-c5c(F)cc(S(=O)(=O)[O-])cc5F)c5nc(c(-c6c(F)cc(S(=O)(=O)[O-])cc6F)c6ccc3[nH]6)C=C5)C=C4)cc2)CC[N@@H+]1Cc1ccc(C(F)(F)F)cc1
REMARK SMILES IDX 8 1 7 2 6 3 4 4 5 5 3 7 1 8 2 9 82 10 80 11 81 12 83 14
REMARK SMILES IDX 84 15 85 16 93 17 86 18 92 19 87 20 88 21 89 22 90 23 91 24
REMARK SMILES IDX 9 25 10 26 11 27 12 28 13 30 14 31 15 32 79 33 16 34 78 35
REMARK SMILES IDX 17 36 18 37 19 38 72 39 20 40 77 41 71 42 73 43 21 44 76 45
REMARK SMILES IDX 70 46 69 47 22 49 56 50 35 51 55 52 36 53 39 54 54 55 74 56
REMARK SMILES IDX 37 57 38 58 53 60 75 61 40 62 23 63 24 64 33 65 25 66 26 67
REMARK SMILES IDX 32 68 34 69 27 70 28 71 29 72 30 73 31 74 57 75 58 76 67 77
REMARK SMILES IDX 59 78 60 79 66 80 68 81 61 82 62 83 63 84 64 85 65 86 41 87
REMARK SMILES IDX 42 88 51 89 43 90 44 91 50 92 52 93 45 94 46 95 47 96 48 97
REMARK SMILES IDX 49 98
REMARK H PARENT 6 6 82 13 11 29 73 48 39 59
REMARK Flexibility Score: inf
ROOT
ATOM      1  C   UNL A   1      32.315  29.560  25.086  1.00  0.00     0.023 C 
ENDROOT
BRANCH   1   2
ATOM      2  C   UNL A   1      32.111  28.654  23.866  1.00  0.00     0.116 C 
BRANCH   2   3
ATOM      3  N   UNL A   1      30.982  27.767  24.033  1.00  0.00    -0.356 N 
ATOM      4  C   UNL A   1      30.901  26.414  24.030  1.00  0.00     0.229 C 
ATOM      5  O   UNL A   1      29.785  25.932  24.258  1.00  0.00    -0.275 OA
ATOM      6  H   UNL A   1      30.121  28.225  24.174  1.00  0.00     0.163 HD
BRANCH   4   7
ATOM      7  C   UNL A   1      32.084  25.467  23.840  1.00  0.00     0.142 C 
ATOM      8  C   UNL A   1      33.939  25.580  25.528  1.00  0.00     0.076 C 
ATOM      9  C   UNL A   1      32.725  24.772  25.055  1.00  0.00     0.193 C 
ATOM     10  N   UNL A   1      33.204  23.457  24.567  1.00  0.00    -0.328 N 
ATOM     11  C   UNL A   1      31.844  24.344  22.846  1.00  0.00     0.081 C 
ATOM     12  C   UNL A   1      33.040  23.442  23.117  1.00  0.00     0.263 C 
ATOM     13  H   UNL A   1      34.195  23.376  24.795  1.00  0.00     0.348 HD
BRANCH  10  14
ATOM     14  C   UNL A   1      32.773  22.251  25.300  1.00  0.00     0.299 C 
BRANCH  14  15
ATOM     15  C   UNL A   1      33.172  20.881  24.774  1.00  0.00     0.006 A 
ATOM     16  C   UNL A   1      34.467  20.385  24.982  1.00  0.00     0.010 A 
ATOM     17  C   UNL A   1      32.284  20.074  24.047  1.00  0.00     0.010 A 
ATOM     18  C   UNL A   1      34.788  19.065  24.639  1.00  0.00     0.013 A 
ATOM     19  C   UNL A   1      32.582  18.741  23.759  1.00  0.00     0.013 A 
ATOM     20  C   UNL A   1      33.823  18.205  24.105  1.00  0.00     0.056 A 
BRANCH  20  21
ATOM     21  C   UNL A   1      34.085  16.723  24.001  1.00  0.00     0.416 C 
ATOM     22  F   UNL A   1      35.063  16.283  24.835  1.00  0.00    -0.166 F 
ATOM     23  F   UNL A   1      32.972  15.998  24.319  1.00  0.00    -0.166 F 
ATOM     24  F   UNL A   1      34.441  16.321  22.749  1.00  0.00    -0.166 F 
ENDBRANCH  20  21
ENDBRANCH  14  15
ENDBRANCH  10  14
ENDBRANCH   4   7
ENDBRANCH   2   3
ENDBRANCH   1   2
BRANCH   1  25
ATOM     25  C   UNL A   1      32.108  28.876  26.443  1.00  0.00     0.023 C 
BRANCH  25  26
ATOM     26  C   UNL A   1      33.260  29.023  27.439  1.00  0.00     0.116 C 
BRANCH  26  27
ATOM     27  N   UNL A   1      33.476  30.387  27.895  1.00  0.00    -0.352 N 
ATOM     28  C   UNL A   1      34.636  30.984  28.350  1.00  0.00     0.251 C 
ATOM     29  H   UNL A   1      32.681  30.967  27.879  1.00  0.00     0.163 HD
ATOM     30  O   UNL A   1      34.620  32.160  28.675  1.00  0.00    -0.269 OA
BRANCH  28  31
ATOM     31  C   UNL A   1      35.865  30.172  28.522  1.00  0.00     0.039 A 
ATOM     32  C   UNL A   1      36.732  30.071  27.430  1.00  0.00     0.014 A 
ATOM     33  C   UNL A   1      36.213  29.603  29.748  1.00  0.00     0.014 A 
ATOM     34  C   UNL A   1      38.007  29.533  27.608  1.00  0.00     0.010 A 
ATOM     35  C   UNL A   1      37.506  29.124  29.942  1.00  0.00     0.010 A 
ATOM     36  C   UNL A   1      38.428  29.133  28.886  1.00  0.00    -0.014 A 
BRANCH  36  37
ATOM     37  C   UNL A   1      39.860  28.858  29.157  1.00  0.00     0.031 A 
ATOM     38  C   UNL A   1      40.757  29.912  29.731  1.00  0.00     0.074 A 
ATOM     39  C   UNL A   1      40.360  27.660  28.789  1.00  0.00     0.049 A 
ATOM     40  N   UNL A   1      42.036  29.847  29.995  1.00  0.00    -0.248 NA
ATOM     41  C   UNL A   1      40.145  31.217  30.024  1.00  0.00     0.031 C 
ATOM     42  C   UNL A   1      39.593  26.586  28.147  1.00  0.00     0.029 A 
ATOM     43  N   UNL A   1      41.627  27.145  28.886  1.00  0.00    -0.354 N 
ATOM     44  C   UNL A   1      42.385  31.098  30.484  1.00  0.00     0.074 A 
ATOM     45  C   UNL A   1      41.192  31.918  30.436  1.00  0.00     0.031 C 
ATOM     46  C   UNL A   1      40.399  25.536  27.931  1.00  0.00     0.029 A 
ATOM     47  C   UNL A   1      41.743  25.867  28.390  1.00  0.00     0.049 A 
ATOM     48  H   UNL A   1      42.382  27.641  29.275  1.00  0.00     0.167 HD
ATOM     49  C   UNL A   1      43.589  31.517  30.944  1.00  0.00     0.037 A 
ATOM     50  C   UNL A   1      42.812  25.052  28.313  1.00  0.00     0.037 A 
ATOM     51  C   UNL A   1      44.767  30.689  30.993  1.00  0.00     0.049 A 
ATOM     52  C   UNL A   1      44.128  25.530  28.859  1.00  0.00     0.074 A 
ATOM     53  C   UNL A   1      46.021  31.000  31.489  1.00  0.00     0.029 A 
ATOM     54  N   UNL A   1      44.837  29.385  30.521  1.00  0.00    -0.354 N 
ATOM     55  N   UNL A   1      44.422  26.691  29.393  1.00  0.00    -0.248 NA
ATOM     56  C   UNL A   1      45.252  24.587  28.804  1.00  0.00     0.031 C 
ATOM     57  C   UNL A   1      46.856  29.894  31.292  1.00  0.00     0.029 A 
ATOM     58  C   UNL A   1      46.114  28.882  30.704  1.00  0.00     0.049 A 
ATOM     59  H   UNL A   1      44.088  28.891  30.117  1.00  0.00     0.167 HD
ATOM     60  C   UNL A   1      45.760  26.613  29.755  1.00  0.00     0.074 A 
ATOM     61  C   UNL A   1      46.215  25.285  29.392  1.00  0.00     0.031 C 
ATOM     62  C   UNL A   1      46.543  27.555  30.337  1.00  0.00     0.037 A 
BRANCH  49  63
ATOM     63  C   UNL A   1      43.684  32.933  31.439  1.00  0.00     0.058 A 
ATOM     64  C   UNL A   1      43.311  33.276  32.750  1.00  0.00     0.135 A 
ATOM     65  C   UNL A   1      44.166  33.956  30.608  1.00  0.00     0.135 A 
ATOM     66  F   UNL A   1      42.831  32.339  33.583  1.00  0.00    -0.206 F 
ATOM     67  C   UNL A   1      43.382  34.588  33.207  1.00  0.00     0.059 A 
ATOM     68  C   UNL A   1      44.266  35.272  31.051  1.00  0.00     0.059 A 
ATOM     69  F   UNL A   1      44.536  33.683  29.347  1.00  0.00    -0.206 F 
ATOM     70  C   UNL A   1      43.855  35.580  32.348  1.00  0.00     0.060 A 
BRANCH  70  71
ATOM     71  S   UNL A   1      43.929  37.281  32.949  1.00  0.00     0.124 S 
ATOM     72  O   UNL A   1      43.685  38.033  31.721  1.00  0.00    -0.237 OA
ATOM     73  O   UNL A   1      42.854  37.314  33.935  1.00  0.00    -0.237 OA
ATOM     74  O   UNL A   1      45.279  37.391  33.494  1.00  0.00    -0.744 OA
ENDBRANCH  70  71
ENDBRANCH  49  63
BRANCH  50  75
ATOM     75  C   UNL A   1      42.667  23.692  27.734  1.00  0.00     0.058 A 
ATOM     76  C   UNL A   1      42.768  23.485  26.350  1.00  0.00     0.135 A 
ATOM     77  C   UNL A   1      42.458  22.569  28.549  1.00  0.00     0.135 A 
ATOM     78  F   UNL A   1      42.966  24.529  25.530  1.00  0.00    -0.206 F 
ATOM     79  C   UNL A   1      42.656  22.217  25.792  1.00  0.00     0.059 A 
ATOM     80  C   UNL A   1      42.362  21.287  28.016  1.00  0.00     0.059 A 
ATOM     81  F   UNL A   1      42.376  22.712  29.881  1.00  0.00    -0.206 F 
ATOM     82  C   UNL A   1      42.454  21.122  26.635  1.00  0.00     0.060 A 
BRANCH  82  83
ATOM     83  S   UNL A   1      42.368  19.470  25.908  1.00  0.00     0.124 S 
ATOM     84  O   UNL A   1      40.950  19.366  25.585  1.00  0.00    -0.237 OA
ATOM     85  O   UNL A   1      43.275  19.586  24.770  1.00  0.00    -0.237 OA
ATOM     86  O   UNL A   1      42.837  18.607  26.987  1.00  0.00    -0.744 OA
ENDBRANCH  82  83
ENDBRANCH  50  75
BRANCH  62  87
ATOM     87  C   UNL A   1      47.964  27.174  30.635  1.00  0.00     0.058 A 
ATOM     88  C   UNL A   1      48.311  26.504  31.817  1.00  0.00     0.135 A 
ATOM     89  C   UNL A   1      48.982  27.443  29.706  1.00  0.00     0.135 A 
ATOM     90  F   UNL A   1      47.374  26.232  32.739  1.00  0.00    -0.206 F 
ATOM     91  C   UNL A   1      49.624  26.127  32.078  1.00  0.00     0.059 A 
ATOM     92  C   UNL A   1      50.298  27.057  29.937  1.00  0.00     0.059 A 
ATOM     93  F   UNL A   1      48.698  28.077  28.557  1.00  0.00    -0.206 F 
ATOM     94  C   UNL A   1      50.611  26.409  31.131  1.00  0.00     0.060 A 
BRANCH  94  95
ATOM     95  S   UNL A   1      52.306  25.883  31.462  1.00  0.00     0.124 S 
ATOM     96  O   UNL A   1      52.098  24.541  31.994  1.00  0.00    -0.237 OA
ATOM     97  O   UNL A   1      52.922  25.953  30.141  1.00  0.00    -0.237 OA
ATOM     98  O   UNL A   1      52.786  26.874  32.421  1.00  0.00    -0.744 OA
ENDBRANCH  94  95
ENDBRANCH  62  87
ENDBRANCH  36  37
ENDBRANCH  28  31
ENDBRANCH  26  27
ENDBRANCH  25  26
ENDBRANCH   1  25
TORSDOF 17
ENDMDL
