MODEL 1
REMARK VINA RESULT:     -10.6      0.000      0.000
REMARK SMILES O=C(COc1cccc(C(=O)NCCCCNC(=O)c2ccc(-c3c4nc(c(-c5c(F)cc(S(=O)(=O)[O-])cc5F)c5ccc([nH]5)c(-c5c(F)cc(S(=O)(=O)[O-])cc5F)c5nc(c(-c6c(F)cc(S(=O)(=O)[O-])cc6F)c6ccc3[nH]6)C=C5)C=C4)cc2)c1)NCCc1cccs1
REMARK SMILES IDX 13 1 12 2 10 3 11 4 9 6 5 7 6 8 86 9 7 10 8 11 4 12 3 13
REMARK SMILES IDX 2 14 1 15 87 16 88 18 89 19 90 20 91 21 94 22 92 23 93 24
REMARK SMILES IDX 14 25 15 26 16 27 17 28 18 29 19 31 20 32 21 33 85 34 22 35
REMARK SMILES IDX 84 36 23 37 24 38 25 39 78 40 26 41 83 42 77 43 79 44 27 45
REMARK SMILES IDX 82 46 76 47 75 48 28 50 62 51 41 52 61 53 42 54 45 55 60 56
REMARK SMILES IDX 80 57 43 58 44 59 59 61 81 62 46 63 29 64 30 65 39 66 31 67
REMARK SMILES IDX 32 68 38 69 40 70 33 71 34 72 35 73 36 74 37 75 63 76 64 77
REMARK SMILES IDX 73 78 65 79 66 80 72 81 74 82 67 83 68 84 69 85 70 86 71 87
REMARK SMILES IDX 47 88 48 89 57 90 49 91 50 92 56 93 58 94 51 95 52 96 53 97
REMARK SMILES IDX 54 98 55 99
REMARK H PARENT 12 5 87 17 17 30 79 49 45 60
REMARK Flexibility Score: inf
ROOT
ATOM      1  C   UNL A   1      33.290  29.097  25.131  1.00  0.00     0.116 C 
ENDROOT
BRANCH   1   2
ATOM      2  N   UNL A   1      33.771  28.983  23.761  1.00  0.00    -0.352 N 
ATOM      3  C   UNL A   1      33.703  28.057  22.758  1.00  0.00     0.251 C 
ATOM      4  O   UNL A   1      34.306  28.330  21.716  1.00  0.00    -0.269 OA
ATOM      5  H   UNL A   1      34.278  29.781  23.488  1.00  0.00     0.163 HD
BRANCH   3   6
ATOM      6  C   UNL A   1      33.009  26.742  22.842  1.00  0.00     0.043 A 
ATOM      7  C   UNL A   1      31.379  25.173  23.731  1.00  0.00     0.120 A 
ATOM      8  C   UNL A   1      31.893  24.173  22.902  1.00  0.00     0.046 A 
ATOM      9  C   UNL A   1      31.898  26.470  23.645  1.00  0.00     0.060 A 
ATOM     10  C   UNL A   1      32.929  24.452  22.015  1.00  0.00     0.005 A 
ATOM     11  C   UNL A   1      33.498  25.724  22.004  1.00  0.00     0.014 A 
BRANCH   7  12
ATOM     12  O   UNL A   1      30.417  24.744  24.608  1.00  0.00    -0.484 OA
BRANCH  12  13
ATOM     13  C   UNL A   1      30.778  23.815  25.620  1.00  0.00     0.329 C 
BRANCH  13  14
ATOM     14  C   UNL A   1      32.089  24.051  26.377  1.00  0.00     0.257 C 
ATOM     15  O   UNL A   1      32.225  25.000  27.148  1.00  0.00    -0.271 OA
ATOM     16  N   UNL A   1      33.098  23.152  26.109  1.00  0.00    -0.353 N 
ATOM     17  H   UNL A   1      32.898  22.342  25.586  1.00  0.00     0.163 HD
BRANCH  16  18
ATOM     18  C   UNL A   1      34.453  23.377  26.586  1.00  0.00     0.121 C 
BRANCH  18  19
ATOM     19  C   UNL A   1      35.388  24.046  25.580  1.00  0.00     0.068 C 
BRANCH  19  20
ATOM     20  C   UNL A   1      36.795  23.568  25.793  1.00  0.00     0.006 A 
ATOM     21  C   UNL A   1      37.832  24.215  26.431  1.00  0.00     0.015 A 
ATOM     22  S   UNL A   1      37.251  22.001  25.268  1.00  0.00    -0.149 S 
ATOM     23  C   UNL A   1      38.990  23.394  26.539  1.00  0.00     0.012 A 
ATOM     24  C   UNL A   1      38.807  22.161  25.954  1.00  0.00     0.065 A 
ENDBRANCH  19  20
ENDBRANCH  18  19
ENDBRANCH  16  18
ENDBRANCH  13  14
ENDBRANCH  12  13
ENDBRANCH   7  12
ENDBRANCH   3   6
ENDBRANCH   1   2
BRANCH   1  25
ATOM     25  C   UNL A   1      34.350  28.691  26.151  1.00  0.00     0.023 C 
BRANCH  25  26
ATOM     26  C   UNL A   1      34.878  29.763  27.118  1.00  0.00     0.023 C 
BRANCH  26  27
ATOM     27  C   UNL A   1      35.837  29.393  28.245  1.00  0.00     0.116 C 
BRANCH  27  28
ATOM     28  N   UNL A   1      35.559  30.025  29.528  1.00  0.00    -0.352 N 
ATOM     29  C   UNL A   1      36.455  30.271  30.553  1.00  0.00     0.251 C 
ATOM     30  H   UNL A   1      34.630  30.311  29.682  1.00  0.00     0.163 HD
ATOM     31  O   UNL A   1      36.062  30.612  31.663  1.00  0.00    -0.269 OA
BRANCH  29  32
ATOM     32  C   UNL A   1      37.903  30.108  30.282  1.00  0.00     0.039 A 
ATOM     33  C   UNL A   1      38.737  29.507  31.227  1.00  0.00     0.014 A 
ATOM     34  C   UNL A   1      38.411  30.491  29.038  1.00  0.00     0.014 A 
ATOM     35  C   UNL A   1      40.058  29.196  30.880  1.00  0.00     0.010 A 
ATOM     36  C   UNL A   1      39.688  30.095  28.664  1.00  0.00     0.010 A 
ATOM     37  C   UNL A   1      40.527  29.436  29.576  1.00  0.00    -0.014 A 
BRANCH  37  38
ATOM     38  C   UNL A   1      41.875  29.000  29.121  1.00  0.00     0.031 A 
ATOM     39  C   UNL A   1      42.994  30.005  29.015  1.00  0.00     0.074 A 
ATOM     40  C   UNL A   1      42.065  27.736  28.692  1.00  0.00     0.049 A 
ATOM     41  N   UNL A   1      44.189  29.863  28.505  1.00  0.00    -0.248 NA
ATOM     42  C   UNL A   1      42.712  31.363  29.511  1.00  0.00     0.031 C 
ATOM     43  C   UNL A   1      41.047  26.682  28.672  1.00  0.00     0.029 A 
ATOM     44  N   UNL A   1      43.177  27.125  28.166  1.00  0.00    -0.354 N 
ATOM     45  C   UNL A   1      44.789  31.115  28.589  1.00  0.00     0.074 A 
ATOM     46  C   UNL A   1      43.806  32.016  29.149  1.00  0.00     0.031 C 
ATOM     47  C   UNL A   1      41.587  25.553  28.185  1.00  0.00     0.029 A 
ATOM     48  C   UNL A   1      42.976  25.808  27.820  1.00  0.00     0.049 A 
ATOM     49  H   UNL A   1      44.039  27.585  28.048  1.00  0.00     0.167 HD
ATOM     50  C   UNL A   1      46.051  31.476  28.257  1.00  0.00     0.037 A 
ATOM     51  C   UNL A   1      43.812  24.910  27.263  1.00  0.00     0.037 A 
ATOM     52  C   UNL A   1      47.041  30.565  27.747  1.00  0.00     0.049 A 
ATOM     53  C   UNL A   1      45.223  25.324  26.938  1.00  0.00     0.074 A 
ATOM     54  C   UNL A   1      48.370  30.815  27.451  1.00  0.00     0.029 A 
ATOM     55  N   UNL A   1      46.813  29.226  27.464  1.00  0.00    -0.354 N 
ATOM     56  N   UNL A   1      45.791  26.497  27.085  1.00  0.00    -0.248 NA
ATOM     57  C   UNL A   1      46.107  24.292  26.379  1.00  0.00     0.031 C 
ATOM     58  C   UNL A   1      48.938  29.634  26.961  1.00  0.00     0.029 A 
ATOM     59  C   UNL A   1      47.973  28.639  26.988  1.00  0.00     0.049 A 
ATOM     60  H   UNL A   1      45.953  28.763  27.584  1.00  0.00     0.167 HD
ATOM     61  C   UNL A   1      47.105  26.338  26.661  1.00  0.00     0.074 A 
ATOM     62  C   UNL A   1      47.251  24.953  26.262  1.00  0.00     0.031 C 
ATOM     63  C   UNL A   1      48.102  27.255  26.606  1.00  0.00     0.037 A 
BRANCH  50  64
ATOM     64  C   UNL A   1      46.437  32.917  28.456  1.00  0.00     0.058 A 
ATOM     65  C   UNL A   1      46.285  33.867  27.433  1.00  0.00     0.135 A 
ATOM     66  C   UNL A   1      46.942  33.359  29.689  1.00  0.00     0.135 A 
ATOM     67  F   UNL A   1      45.821  33.495  26.229  1.00  0.00    -0.206 F 
ATOM     68  C   UNL A   1      46.655  35.195  27.612  1.00  0.00     0.059 A 
ATOM     69  C   UNL A   1      47.292  34.690  29.900  1.00  0.00     0.059 A 
ATOM     70  F   UNL A   1      47.107  32.495  30.703  1.00  0.00    -0.206 F 
ATOM     71  C   UNL A   1      47.160  35.597  28.848  1.00  0.00     0.060 A 
BRANCH  71  72
ATOM     72  S   UNL A   1      47.636  37.326  29.065  1.00  0.00     0.124 S 
ATOM     73  O   UNL A   1      47.248  37.896  27.777  1.00  0.00    -0.237 OA
ATOM     74  O   UNL A   1      46.826  37.733  30.207  1.00  0.00    -0.237 OA
ATOM     75  O   UNL A   1      49.073  37.254  29.312  1.00  0.00    -0.744 OA
ENDBRANCH  71  72
ENDBRANCH  50  64
BRANCH  51  76
ATOM     76  C   UNL A   1      43.350  23.519  27.008  1.00  0.00     0.058 A 
ATOM     77  C   UNL A   1      43.016  23.102  25.711  1.00  0.00     0.135 A 
ATOM     78  C   UNL A   1      43.246  22.579  28.044  1.00  0.00     0.135 A 
ATOM     79  F   UNL A   1      43.093  23.967  24.688  1.00  0.00    -0.206 F 
ATOM     80  C   UNL A   1      42.581  21.806  25.451  1.00  0.00     0.059 A 
ATOM     81  C   UNL A   1      42.836  21.270  27.805  1.00  0.00     0.059 A 
ATOM     82  F   UNL A   1      43.570  22.923  29.300  1.00  0.00    -0.206 F 
ATOM     83  C   UNL A   1      42.496  20.896  26.505  1.00  0.00     0.060 A 
BRANCH  83  84
ATOM     84  S   UNL A   1      41.980  19.202  26.148  1.00  0.00     0.124 S 
ATOM     85  O   UNL A   1      42.775  18.896  24.965  1.00  0.00    -0.237 OA
ATOM     86  O   UNL A   1      42.358  18.501  27.372  1.00  0.00    -0.237 OA
ATOM     87  O   UNL A   1      40.542  19.331  25.929  1.00  0.00    -0.744 OA
ENDBRANCH  83  84
ENDBRANCH  51  76
BRANCH  63  88
ATOM     88  C   UNL A   1      49.449  26.786  26.132  1.00  0.00     0.058 A 
ATOM     89  C   UNL A   1      49.853  26.936  24.798  1.00  0.00     0.135 A 
ATOM     90  C   UNL A   1      50.366  26.232  27.040  1.00  0.00     0.135 A 
ATOM     91  F   UNL A   1      49.011  27.454  23.890  1.00  0.00    -0.206 F 
ATOM     92  C   UNL A   1      51.115  26.534  24.373  1.00  0.00     0.059 A 
ATOM     93  C   UNL A   1      51.642  25.846  26.642  1.00  0.00     0.059 A 
ATOM     94  F   UNL A   1      50.031  26.077  28.330  1.00  0.00    -0.206 F 
ATOM     95  C   UNL A   1      52.004  25.991  25.304  1.00  0.00     0.060 A 
BRANCH  95  96
ATOM     96  S   UNL A   1      53.653  25.508  24.750  1.00  0.00     0.124 S 
ATOM     97  O   UNL A   1      53.552  24.052  24.765  1.00  0.00    -0.237 OA
ATOM     98  O   UNL A   1      53.732  26.123  23.428  1.00  0.00    -0.237 OA
ATOM     99  O   UNL A   1      54.534  26.088  25.758  1.00  0.00    -0.744 OA
ENDBRANCH  95  96
ENDBRANCH  63  88
ENDBRANCH  37  38
ENDBRANCH  29  32
ENDBRANCH  27  28
ENDBRANCH  26  27
ENDBRANCH  25  26
ENDBRANCH   1  25
TORSDOF 20
ENDMDL
MODEL 2
REMARK VINA RESULT:     -10.6      1.835      2.769
REMARK SMILES O=C(COc1cccc(C(=O)NCCCCNC(=O)c2ccc(-c3c4nc(c(-c5c(F)cc(S(=O)(=O)[O-])cc5F)c5ccc([nH]5)c(-c5c(F)cc(S(=O)(=O)[O-])cc5F)c5nc(c(-c6c(F)cc(S(=O)(=O)[O-])cc6F)c6ccc3[nH]6)C=C5)C=C4)cc2)c1)NCCc1cccs1
REMARK SMILES IDX 13 1 12 2 10 3 11 4 9 6 5 7 6 8 86 9 7 10 8 11 4 12 3 13
REMARK SMILES IDX 2 14 1 15 87 16 88 18 89 19 90 20 91 21 94 22 92 23 93 24
REMARK SMILES IDX 14 25 15 26 16 27 17 28 18 29 19 31 20 32 21 33 85 34 22 35
REMARK SMILES IDX 84 36 23 37 24 38 25 39 78 40 26 41 83 42 77 43 79 44 27 45
REMARK SMILES IDX 82 46 76 47 75 48 28 50 62 51 41 52 61 53 42 54 45 55 60 56
REMARK SMILES IDX 80 57 43 58 44 59 59 61 81 62 46 63 29 64 30 65 39 66 31 67
REMARK SMILES IDX 32 68 38 69 40 70 33 71 34 72 35 73 36 74 37 75 63 76 64 77
REMARK SMILES IDX 73 78 65 79 66 80 72 81 74 82 67 83 68 84 69 85 70 86 71 87
REMARK SMILES IDX 47 88 48 89 57 90 49 91 50 92 56 93 58 94 51 95 52 96 53 97
REMARK SMILES IDX 54 98 55 99
REMARK H PARENT 12 5 87 17 17 30 79 49 45 60
REMARK Flexibility Score: inf
ROOT
ATOM      1  C   UNL A   1      33.985  29.001  26.002  1.00  0.00     0.116 C 
ENDROOT
BRANCH   1   2
ATOM      2  N   UNL A   1      33.505  29.222  24.645  1.00  0.00    -0.352 N 
ATOM      3  C   UNL A   1      32.489  28.752  23.861  1.00  0.00     0.251 C 
ATOM      4  O   UNL A   1      32.448  29.173  22.701  1.00  0.00    -0.269 OA
ATOM      5  H   UNL A   1      34.059  29.882  24.168  1.00  0.00     0.163 HD
BRANCH   3   6
ATOM      6  C   UNL A   1      31.472  27.748  24.278  1.00  0.00     0.043 A 
ATOM      7  C   UNL A   1      30.559  26.015  25.718  1.00  0.00     0.120 A 
ATOM      8  C   UNL A   1      29.483  25.856  24.840  1.00  0.00     0.046 A 
ATOM      9  C   UNL A   1      31.511  27.008  25.464  1.00  0.00     0.060 A 
ATOM     10  C   UNL A   1      29.367  26.660  23.710  1.00  0.00     0.005 A 
ATOM     11  C   UNL A   1      30.370  27.583  23.420  1.00  0.00     0.014 A 
BRANCH   7  12
ATOM     12  O   UNL A   1      30.590  25.109  26.745  1.00  0.00    -0.484 OA
BRANCH  12  13
ATOM     13  C   UNL A   1      30.484  23.726  26.443  1.00  0.00     0.329 C 
BRANCH  13  14
ATOM     14  C   UNL A   1      31.776  22.951  26.160  1.00  0.00     0.257 C 
ATOM     15  O   UNL A   1      32.881  23.473  26.298  1.00  0.00    -0.271 OA
ATOM     16  N   UNL A   1      31.606  21.657  25.718  1.00  0.00    -0.353 N 
ATOM     17  H   UNL A   1      30.711  21.249  25.748  1.00  0.00     0.163 HD
BRANCH  16  18
ATOM     18  C   UNL A   1      32.727  20.884  25.208  1.00  0.00     0.121 C 
BRANCH  18  19
ATOM     19  C   UNL A   1      32.380  19.909  24.084  1.00  0.00     0.068 C 
BRANCH  19  20
ATOM     20  C   UNL A   1      32.725  18.507  24.497  1.00  0.00     0.006 A 
ATOM     21  C   UNL A   1      32.623  17.933  25.746  1.00  0.00     0.015 A 
ATOM     22  S   UNL A   1      33.263  17.381  23.321  1.00  0.00    -0.149 S 
ATOM     23  C   UNL A   1      32.933  16.543  25.723  1.00  0.00     0.012 A 
ATOM     24  C   UNL A   1      33.289  16.113  24.464  1.00  0.00     0.065 A 
ENDBRANCH  19  20
ENDBRANCH  18  19
ENDBRANCH  16  18
ENDBRANCH  13  14
ENDBRANCH  12  13
ENDBRANCH   7  12
ENDBRANCH   3   6
ENDBRANCH   1   2
BRANCH   1  25
ATOM     25  C   UNL A   1      33.186  29.794  27.033  1.00  0.00     0.023 C 
BRANCH  25  26
ATOM     26  C   UNL A   1      33.886  30.950  27.766  1.00  0.00     0.023 C 
BRANCH  26  27
ATOM     27  C   UNL A   1      35.265  30.758  28.389  1.00  0.00     0.116 C 
BRANCH  27  28
ATOM     28  N   UNL A   1      35.459  31.407  29.678  1.00  0.00    -0.352 N 
ATOM     29  C   UNL A   1      36.525  31.248  30.545  1.00  0.00     0.251 C 
ATOM     30  H   UNL A   1      34.752  32.030  29.964  1.00  0.00     0.163 HD
ATOM     31  O   UNL A   1      36.474  31.681  31.691  1.00  0.00    -0.269 OA
BRANCH  29  32
ATOM     32  C   UNL A   1      37.732  30.537  30.060  1.00  0.00     0.039 A 
ATOM     33  C   UNL A   1      38.081  30.576  28.709  1.00  0.00     0.014 A 
ATOM     34  C   UNL A   1      38.560  29.893  30.983  1.00  0.00     0.014 A 
ATOM     35  C   UNL A   1      39.318  30.057  28.303  1.00  0.00     0.010 A 
ATOM     36  C   UNL A   1      39.823  29.467  30.595  1.00  0.00     0.010 A 
ATOM     37  C   UNL A   1      40.223  29.549  29.252  1.00  0.00    -0.014 A 
BRANCH  37  38
ATOM     38  C   UNL A   1      41.599  29.114  28.887  1.00  0.00     0.031 A 
ATOM     39  C   UNL A   1      42.716  30.124  28.833  1.00  0.00     0.074 A 
ATOM     40  C   UNL A   1      41.820  27.844  28.491  1.00  0.00     0.049 A 
ATOM     41  N   UNL A   1      43.941  29.980  28.398  1.00  0.00    -0.248 NA
ATOM     42  C   UNL A   1      42.398  31.488  29.288  1.00  0.00     0.031 C 
ATOM     43  C   UNL A   1      40.810  26.784  28.426  1.00  0.00     0.029 A 
ATOM     44  N   UNL A   1      42.965  27.232  28.043  1.00  0.00    -0.354 N 
ATOM     45  C   UNL A   1      44.528  31.237  28.498  1.00  0.00     0.074 A 
ATOM     46  C   UNL A   1      43.509  32.142  28.983  1.00  0.00     0.031 C 
ATOM     47  C   UNL A   1      41.385  25.651  27.991  1.00  0.00     0.029 A 
ATOM     48  C   UNL A   1      42.792  25.908  27.706  1.00  0.00     0.049 A 
ATOM     49  H   UNL A   1      43.830  27.695  27.970  1.00  0.00     0.167 HD
ATOM     50  C   UNL A   1      45.807  31.600  28.237  1.00  0.00     0.037 A 
ATOM     51  C   UNL A   1      43.665  25.007  27.216  1.00  0.00     0.037 A 
ATOM     52  C   UNL A   1      46.830  30.687  27.803  1.00  0.00     0.049 A 
ATOM     53  C   UNL A   1      45.090  25.424  26.970  1.00  0.00     0.074 A 
ATOM     54  C   UNL A   1      48.173  30.940  27.584  1.00  0.00     0.029 A 
ATOM     55  N   UNL A   1      46.626  29.343  27.528  1.00  0.00    -0.354 N 
ATOM     56  N   UNL A   1      45.642  26.602  27.132  1.00  0.00    -0.248 NA
ATOM     57  C   UNL A   1      46.012  24.388  26.482  1.00  0.00     0.031 C 
ATOM     58  C   UNL A   1      48.776  29.756  27.148  1.00  0.00     0.029 A 
ATOM     59  C   UNL A   1      47.816  28.755  27.132  1.00  0.00     0.049 A 
ATOM     60  H   UNL A   1      45.763  28.877  27.603  1.00  0.00     0.167 HD
ATOM     61  C   UNL A   1      46.981  26.444  26.791  1.00  0.00     0.074 A 
ATOM     62  C   UNL A   1      47.158  25.054  26.424  1.00  0.00     0.031 C 
ATOM     63  C   UNL A   1      47.975  27.366  26.782  1.00  0.00     0.037 A 
BRANCH  50  64
ATOM     64  C   UNL A   1      46.173  33.047  28.436  1.00  0.00     0.058 A 
ATOM     65  C   UNL A   1      46.618  33.528  29.678  1.00  0.00     0.135 A 
ATOM     66  C   UNL A   1      46.100  33.957  27.370  1.00  0.00     0.135 A 
ATOM     67  F   UNL A   1      46.692  32.705  30.736  1.00  0.00    -0.206 F 
ATOM     68  C   UNL A   1      46.942  34.868  29.866  1.00  0.00     0.059 A 
ATOM     69  C   UNL A   1      46.447  35.296  27.528  1.00  0.00     0.059 A 
ATOM     70  F   UNL A   1      45.682  33.551  26.161  1.00  0.00    -0.206 F 
ATOM     71  C   UNL A   1      46.851  35.745  28.785  1.00  0.00     0.060 A 
BRANCH  71  72
ATOM     72  S   UNL A   1      47.276  37.480  29.045  1.00  0.00     0.124 S 
ATOM     73  O   UNL A   1      48.164  37.734  27.915  1.00  0.00    -0.237 OA
ATOM     74  O   UNL A   1      45.972  38.133  28.985  1.00  0.00    -0.237 OA
ATOM     75  O   UNL A   1      47.914  37.482  30.358  1.00  0.00    -0.744 OA
ENDBRANCH  71  72
ENDBRANCH  50  64
BRANCH  51  76
ATOM     76  C   UNL A   1      43.225  23.609  26.956  1.00  0.00     0.058 A 
ATOM     77  C   UNL A   1      43.039  22.708  28.016  1.00  0.00     0.135 A 
ATOM     78  C   UNL A   1      42.970  23.150  25.655  1.00  0.00     0.135 A 
ATOM     79  F   UNL A   1      43.277  23.099  29.277  1.00  0.00    -0.206 F 
ATOM     80  C   UNL A   1      42.629  21.397  27.795  1.00  0.00     0.059 A 
ATOM     81  C   UNL A   1      42.537  21.850  25.412  1.00  0.00     0.059 A 
ATOM     82  F   UNL A   1      43.116  23.977  24.609  1.00  0.00    -0.206 F 
ATOM     83  C   UNL A   1      42.378  20.978  26.488  1.00  0.00     0.060 A 
BRANCH  83  84
ATOM     84  S   UNL A   1      41.797  19.289  26.218  1.00  0.00     0.124 S 
ATOM     85  O   UNL A   1      42.109  18.662  27.497  1.00  0.00    -0.237 OA
ATOM     86  O   UNL A   1      40.380  19.493  25.934  1.00  0.00    -0.237 OA
ATOM     87  O   UNL A   1      42.596  18.839  25.081  1.00  0.00    -0.744 OA
ENDBRANCH  83  84
ENDBRANCH  51  76
BRANCH  63  88
ATOM     88  C   UNL A   1      49.350  26.898  26.398  1.00  0.00     0.058 A 
ATOM     89  C   UNL A   1      50.180  26.228  27.308  1.00  0.00     0.135 A 
ATOM     90  C   UNL A   1      49.818  27.074  25.085  1.00  0.00     0.135 A 
ATOM     91  F   UNL A   1      49.782  26.041  28.576  1.00  0.00    -0.206 F 
ATOM     92  C   UNL A   1      51.438  25.765  26.936  1.00  0.00     0.059 A 
ATOM     93  C   UNL A   1      51.063  26.597  24.686  1.00  0.00     0.059 A 
ATOM     94  F   UNL A   1      49.058  27.700  24.174  1.00  0.00    -0.206 F 
ATOM     95  C   UNL A   1      51.870  25.952  25.621  1.00  0.00     0.060 A 
BRANCH  95  96
ATOM     96  S   UNL A   1      53.488  25.313  25.140  1.00  0.00     0.124 S 
ATOM     97  O   UNL A   1      53.483  25.556  23.701  1.00  0.00    -0.237 OA
ATOM     98  O   UNL A   1      54.400  26.146  25.919  1.00  0.00    -0.237 OA
ATOM     99  O   UNL A   1      53.432  23.911  25.540  1.00  0.00    -0.744 OA
ENDBRANCH  95  96
ENDBRANCH  63  88
ENDBRANCH  37  38
ENDBRANCH  29  32
ENDBRANCH  27  28
ENDBRANCH  26  27
ENDBRANCH  25  26
ENDBRANCH   1  25
TORSDOF 20
ENDMDL
MODEL 3
REMARK VINA RESULT:     -10.5      1.478      2.371
REMARK SMILES O=C(COc1cccc(C(=O)NCCCCNC(=O)c2ccc(-c3c4nc(c(-c5c(F)cc(S(=O)(=O)[O-])cc5F)c5ccc([nH]5)c(-c5c(F)cc(S(=O)(=O)[O-])cc5F)c5nc(c(-c6c(F)cc(S(=O)(=O)[O-])cc6F)c6ccc3[nH]6)C=C5)C=C4)cc2)c1)NCCc1cccs1
REMARK SMILES IDX 13 1 12 2 10 3 11 4 9 6 5 7 6 8 86 9 7 10 8 11 4 12 3 13
REMARK SMILES IDX 2 14 1 15 87 16 88 18 89 19 90 20 91 21 94 22 92 23 93 24
REMARK SMILES IDX 14 25 15 26 16 27 17 28 18 29 19 31 20 32 21 33 85 34 22 35
REMARK SMILES IDX 84 36 23 37 24 38 25 39 78 40 26 41 83 42 77 43 79 44 27 45
REMARK SMILES IDX 82 46 76 47 75 48 28 50 62 51 41 52 61 53 42 54 45 55 60 56
REMARK SMILES IDX 80 57 43 58 44 59 59 61 81 62 46 63 29 64 30 65 39 66 31 67
REMARK SMILES IDX 32 68 38 69 40 70 33 71 34 72 35 73 36 74 37 75 63 76 64 77
REMARK SMILES IDX 73 78 65 79 66 80 72 81 74 82 67 83 68 84 69 85 70 86 71 87
REMARK SMILES IDX 47 88 48 89 57 90 49 91 50 92 56 93 58 94 51 95 52 96 53 97
REMARK SMILES IDX 54 98 55 99
REMARK H PARENT 12 5 87 17 17 30 79 49 45 60
REMARK Flexibility Score: inf
ROOT
ATOM      1  C   UNL A   1      32.969  28.590  27.016  1.00  0.00     0.116 C 
ENDROOT
BRANCH   1   2
ATOM      2  N   UNL A   1      32.354  29.894  26.812  1.00  0.00    -0.352 N 
ATOM      3  C   UNL A   1      31.490  30.457  25.915  1.00  0.00     0.251 C 
ATOM      4  O   UNL A   1      31.240  31.656  26.068  1.00  0.00    -0.269 OA
ATOM      5  H   UNL A   1      32.636  30.539  27.501  1.00  0.00     0.163 HD
BRANCH   3   6
ATOM      6  C   UNL A   1      30.874  29.756  24.754  1.00  0.00     0.043 A 
ATOM      7  C   UNL A   1      30.475  27.848  23.302  1.00  0.00     0.120 A 
ATOM      8  C   UNL A   1      29.683  28.648  22.473  1.00  0.00     0.046 A 
ATOM      9  C   UNL A   1      31.010  28.393  24.473  1.00  0.00     0.060 A 
ATOM     10  C   UNL A   1      29.445  29.981  22.794  1.00  0.00     0.005 A 
ATOM     11  C   UNL A   1      30.058  30.536  23.916  1.00  0.00     0.014 A 
BRANCH   7  12
ATOM     12  O   UNL A   1      30.689  26.580  22.828  1.00  0.00    -0.484 OA
BRANCH  12  13
ATOM     13  C   UNL A   1      31.664  26.383  21.814  1.00  0.00     0.329 C 
BRANCH  13  14
ATOM     14  C   UNL A   1      32.708  25.280  22.026  1.00  0.00     0.257 C 
ATOM     15  O   UNL A   1      33.912  25.505  21.915  1.00  0.00    -0.271 OA
ATOM     16  N   UNL A   1      32.201  24.032  22.315  1.00  0.00    -0.353 N 
ATOM     17  H   UNL A   1      31.243  23.934  22.518  1.00  0.00     0.163 HD
BRANCH  16  18
ATOM     18  C   UNL A   1      33.056  22.857  22.326  1.00  0.00     0.121 C 
BRANCH  18  19
ATOM     19  C   UNL A   1      33.304  22.251  23.706  1.00  0.00     0.068 C 
BRANCH  19  20
ATOM     20  C   UNL A   1      34.775  22.249  24.008  1.00  0.00     0.006 A 
ATOM     21  C   UNL A   1      35.774  22.985  23.407  1.00  0.00     0.015 A 
ATOM     22  S   UNL A   1      35.379  21.287  25.292  1.00  0.00    -0.149 S 
ATOM     23  C   UNL A   1      37.033  22.800  24.045  1.00  0.00     0.012 A 
ATOM     24  C   UNL A   1      36.958  21.908  25.091  1.00  0.00     0.065 A 
ENDBRANCH  19  20
ENDBRANCH  18  19
ENDBRANCH  16  18
ENDBRANCH  13  14
ENDBRANCH  12  13
ENDBRANCH   7  12
ENDBRANCH   3   6
ENDBRANCH   1   2
BRANCH   1  25
ATOM     25  C   UNL A   1      34.485  28.634  26.850  1.00  0.00     0.023 C 
BRANCH  25  26
ATOM     26  C   UNL A   1      35.267  29.731  27.591  1.00  0.00     0.023 C 
BRANCH  26  27
ATOM     27  C   UNL A   1      36.062  29.407  28.852  1.00  0.00     0.116 C 
BRANCH  27  28
ATOM     28  N   UNL A   1      35.844  30.312  29.972  1.00  0.00    -0.352 N 
ATOM     29  C   UNL A   1      36.793  30.802  30.850  1.00  0.00     0.251 C 
ATOM     30  H   UNL A   1      34.917  30.608  30.120  1.00  0.00     0.163 HD
ATOM     31  O   UNL A   1      36.459  31.383  31.878  1.00  0.00    -0.269 OA
BRANCH  29  32
ATOM     32  C   UNL A   1      38.226  30.607  30.526  1.00  0.00     0.039 A 
ATOM     33  C   UNL A   1      39.111  30.120  31.490  1.00  0.00     0.014 A 
ATOM     34  C   UNL A   1      38.667  30.841  29.221  1.00  0.00     0.014 A 
ATOM     35  C   UNL A   1      40.414  29.769  31.114  1.00  0.00     0.010 A 
ATOM     36  C   UNL A   1      39.926  30.403  28.830  1.00  0.00     0.010 A 
ATOM     37  C   UNL A   1      40.814  29.855  29.768  1.00  0.00    -0.014 A 
BRANCH  37  38
ATOM     38  C   UNL A   1      42.139  29.367  29.299  1.00  0.00     0.031 A 
ATOM     39  C   UNL A   1      43.299  30.324  29.197  1.00  0.00     0.074 A 
ATOM     40  C   UNL A   1      42.272  28.101  28.853  1.00  0.00     0.049 A 
ATOM     41  N   UNL A   1      44.484  30.138  28.676  1.00  0.00    -0.248 NA
ATOM     42  C   UNL A   1      43.079  31.687  29.711  1.00  0.00     0.031 C 
ATOM     43  C   UNL A   1      41.209  27.092  28.827  1.00  0.00     0.029 A 
ATOM     44  N   UNL A   1      43.353  27.450  28.311  1.00  0.00    -0.354 N 
ATOM     45  C   UNL A   1      45.137  31.362  28.771  1.00  0.00     0.074 A 
ATOM     46  C   UNL A   1      44.197  32.297  29.349  1.00  0.00     0.031 C 
ATOM     47  C   UNL A   1      41.697  25.948  28.323  1.00  0.00     0.029 A 
ATOM     48  C   UNL A   1      43.093  26.147  27.950  1.00  0.00     0.049 A 
ATOM     49  H   UNL A   1      44.233  27.875  28.193  1.00  0.00     0.167 HD
ATOM     50  C   UNL A   1      46.411  31.673  28.435  1.00  0.00     0.037 A 
ATOM     51  C   UNL A   1      43.887  25.222  27.376  1.00  0.00     0.037 A 
ATOM     52  C   UNL A   1      47.358  30.727  27.906  1.00  0.00     0.049 A 
ATOM     53  C   UNL A   1      45.311  25.579  27.046  1.00  0.00     0.074 A 
ATOM     54  C   UNL A   1      48.694  30.923  27.604  1.00  0.00     0.029 A 
ATOM     55  N   UNL A   1      47.071  29.403  27.609  1.00  0.00    -0.354 N 
ATOM     56  N   UNL A   1      45.930  26.725  27.203  1.00  0.00    -0.248 NA
ATOM     57  C   UNL A   1      46.147  24.517  26.468  1.00  0.00     0.031 C 
ATOM     58  C   UNL A   1      49.208  29.726  27.095  1.00  0.00     0.029 A 
ATOM     59  C   UNL A   1      48.201  28.772  27.117  1.00  0.00     0.049 A 
ATOM     60  H   UNL A   1      46.192  28.975  27.729  1.00  0.00     0.167 HD
ATOM     61  C   UNL A   1      47.234  26.515  26.768  1.00  0.00     0.074 A 
ATOM     62  C   UNL A   1      47.318  25.130  26.351  1.00  0.00     0.031 C 
ATOM     63  C   UNL A   1      48.268  27.389  26.717  1.00  0.00     0.037 A 
BRANCH  50  64
ATOM     64  C   UNL A   1      46.860  33.093  28.649  1.00  0.00     0.058 A 
ATOM     65  C   UNL A   1      46.742  34.061  27.638  1.00  0.00     0.135 A 
ATOM     66  C   UNL A   1      47.392  33.498  29.883  1.00  0.00     0.135 A 
ATOM     67  F   UNL A   1      46.254  33.725  26.434  1.00  0.00    -0.206 F 
ATOM     68  C   UNL A   1      47.170  35.371  27.830  1.00  0.00     0.059 A 
ATOM     69  C   UNL A   1      47.800  34.810  30.107  1.00  0.00     0.059 A 
ATOM     70  F   UNL A   1      47.527  32.615  30.885  1.00  0.00    -0.206 F 
ATOM     71  C   UNL A   1      47.700  35.735  29.068  1.00  0.00     0.060 A 
BRANCH  71  72
ATOM     72  S   UNL A   1      48.251  37.439  29.302  1.00  0.00     0.124 S 
ATOM     73  O   UNL A   1      48.764  37.392  30.668  1.00  0.00    -0.237 OA
ATOM     74  O   UNL A   1      49.254  37.589  28.254  1.00  0.00    -0.237 OA
ATOM     75  O   UNL A   1      47.032  38.219  29.116  1.00  0.00    -0.744 OA
ENDBRANCH  71  72
ENDBRANCH  50  64
BRANCH  51  76
ATOM     76  C   UNL A   1      43.363  23.855  27.108  1.00  0.00     0.058 A 
ATOM     77  C   UNL A   1      43.256  22.913  28.142  1.00  0.00     0.135 A 
ATOM     78  C   UNL A   1      42.948  23.467  25.825  1.00  0.00     0.135 A 
ATOM     79  F   UNL A   1      43.646  23.236  29.386  1.00  0.00    -0.206 F 
ATOM     80  C   UNL A   1      42.770  21.630  27.914  1.00  0.00     0.059 A 
ATOM     81  C   UNL A   1      42.437  22.196  25.576  1.00  0.00     0.059 A 
ATOM     82  F   UNL A   1      43.014  24.336  24.805  1.00  0.00    -0.206 F 
ATOM     83  C   UNL A   1      42.360  21.281  26.626  1.00  0.00     0.060 A 
BRANCH  83  84
ATOM     84  S   UNL A   1      41.683  19.630  26.350  1.00  0.00     0.124 S 
ATOM     85  O   UNL A   1      42.074  18.943  27.576  1.00  0.00    -0.237 OA
ATOM     86  O   UNL A   1      40.257  19.904  26.198  1.00  0.00    -0.237 OA
ATOM     87  O   UNL A   1      42.361  19.190  25.134  1.00  0.00    -0.744 OA
ENDBRANCH  83  84
ENDBRANCH  51  76
BRANCH  63  88
ATOM     88  C   UNL A   1      49.591  26.869  26.228  1.00  0.00     0.058 A 
ATOM     89  C   UNL A   1      49.965  26.961  24.880  1.00  0.00     0.135 A 
ATOM     90  C   UNL A   1      50.516  26.324  27.133  1.00  0.00     0.135 A 
ATOM     91  F   UNL A   1      49.113  27.469  23.974  1.00  0.00    -0.206 F 
ATOM     92  C   UNL A   1      51.205  26.512  24.439  1.00  0.00     0.059 A 
ATOM     93  C   UNL A   1      51.772  25.890  26.718  1.00  0.00     0.059 A 
ATOM     94  F   UNL A   1      50.210  26.222  28.435  1.00  0.00    -0.206 F 
ATOM     95  C   UNL A   1      52.103  25.979  25.367  1.00  0.00     0.060 A 
BRANCH  95  96
ATOM     96  S   UNL A   1      53.725  25.434  24.791  1.00  0.00     0.124 S 
ATOM     97  O   UNL A   1      53.798  26.068  23.478  1.00  0.00    -0.237 OA
ATOM     98  O   UNL A   1      54.619  25.980  25.808  1.00  0.00    -0.237 OA
ATOM     99  O   UNL A   1      53.611  23.980  24.781  1.00  0.00    -0.744 OA
ENDBRANCH  95  96
ENDBRANCH  63  88
ENDBRANCH  37  38
ENDBRANCH  29  32
ENDBRANCH  27  28
ENDBRANCH  26  27
ENDBRANCH  25  26
ENDBRANCH   1  25
TORSDOF 20
ENDMDL
