MODEL 1
REMARK VINA RESULT:     -12.5      0.000      0.000
REMARK SMILES CC1(C)[C@H](C(=O)Nc2ccc(NC(=O)C[NH+]3CCCCC3)cc2)[C@@H]1C(=O)NCCCCNC(=O)c1ccc(-c2c3nc(c(-c4c(F)cc(S(=O)(=O)[O-])cc4F)c4ccc([nH]4)c(-c4c(F)cc(S(=O)(=O)[O-])cc4F)c4nc(c(-c5c(F)cc(S(=O)(=O)[O-])cc5F)c5ccc2[nH]5)C=C4)C=C3)cc1
REMARK SMILES IDX 28 1 27 2 25 3 26 4 24 6 1 7 2 8 3 9 4 10 5 11 6 12 7 13
REMARK SMILES IDX 8 15 9 16 23 17 10 18 22 19 11 20 12 21 13 22 14 24 15 25
REMARK SMILES IDX 16 26 17 27 21 28 18 30 20 31 19 32 29 33 30 34 31 35 32 36
REMARK SMILES IDX 33 37 34 39 35 40 36 41 100 42 37 43 99 44 38 45 39 46 40 47
REMARK SMILES IDX 93 48 41 49 98 50 92 51 94 52 42 53 97 54 91 55 90 56 43 58
REMARK SMILES IDX 77 59 56 60 76 61 57 62 60 63 75 64 95 65 58 66 59 67 74 69
REMARK SMILES IDX 96 70 61 71 44 72 45 73 54 74 46 75 47 76 53 77 55 78 48 79
REMARK SMILES IDX 49 80 50 81 51 82 52 83 78 84 79 85 88 86 80 87 81 88 87 89
REMARK SMILES IDX 89 90 82 91 83 92 84 93 85 94 86 95 62 96 63 97 72 98 64 99
REMARK SMILES IDX 65 100 71 101 73 102 66 103 67 104 68 105 69 106 70 107
REMARK H PARENT 27 5 7 14 12 23 16 29 32 38 94 57 60 68
REMARK Flexibility Score: inf
ROOT
ATOM      1  C   UNL A   1      33.981  29.540  27.028  1.00  0.00     0.116 C 
ENDROOT
BRANCH   1   2
ATOM      2  N   UNL A   1      34.056  29.588  25.583  1.00  0.00    -0.356 N 
ATOM      3  C   UNL A   1      33.096  29.234  24.668  1.00  0.00     0.224 C 
ATOM      4  O   UNL A   1      33.326  29.335  23.473  1.00  0.00    -0.275 OA
ATOM      5  H   UNL A   1      34.905  29.917  25.208  1.00  0.00     0.163 HD
BRANCH   3   6
ATOM      6  C   UNL A   1      31.866  28.577  25.161  1.00  0.00     0.098 C 
ATOM      7  C   UNL A   1      30.946  26.742  26.773  1.00  0.00     0.013 C 
ATOM      8  C   UNL A   1      31.777  27.092  25.549  1.00  0.00    -0.011 C 
ATOM      9  C   UNL A   1      32.947  26.171  25.407  1.00  0.00     0.013 C 
ATOM     10  C   UNL A   1      30.981  27.637  24.383  1.00  0.00     0.098 C 
BRANCH  10  11
ATOM     11  C   UNL A   1      30.951  27.390  22.912  1.00  0.00     0.228 C 
ATOM     12  O   UNL A   1      30.617  28.359  22.222  1.00  0.00    -0.274 OA
ATOM     13  N   UNL A   1      31.438  26.321  22.211  1.00  0.00    -0.326 N 
ATOM     14  H   UNL A   1      31.700  26.541  21.288  1.00  0.00     0.169 HD
BRANCH  13  15
ATOM     15  C   UNL A   1      31.639  24.991  22.540  1.00  0.00     0.041 A 
ATOM     16  C   UNL A   1      32.787  24.368  22.071  1.00  0.00     0.028 A 
ATOM     17  C   UNL A   1      30.676  24.242  23.200  1.00  0.00     0.028 A 
ATOM     18  C   UNL A   1      33.083  23.068  22.469  1.00  0.00     0.028 A 
ATOM     19  C   UNL A   1      30.950  22.915  23.554  1.00  0.00     0.028 A 
ATOM     20  C   UNL A   1      32.170  22.322  23.208  1.00  0.00     0.041 A 
BRANCH  20  21
ATOM     21  N   UNL A   1      32.415  21.021  23.678  1.00  0.00    -0.321 N 
ATOM     22  C   UNL A   1      32.861  20.541  24.883  1.00  0.00     0.279 C 
ATOM     23  H   UNL A   1      32.232  20.317  23.014  1.00  0.00     0.170 HD
ATOM     24  O   UNL A   1      32.797  19.318  25.068  1.00  0.00    -0.268 OA
BRANCH  22  25
ATOM     25  C   UNL A   1      33.461  21.455  25.962  1.00  0.00     0.363 C 
BRANCH  25  26
ATOM     26  N   UNL A   1      34.687  22.104  25.468  1.00  0.00    -0.327 N 
ATOM     27  C   UNL A   1      35.118  23.232  26.293  1.00  0.00     0.262 C 
ATOM     28  C   UNL A   1      35.780  21.146  25.263  1.00  0.00     0.262 C 
ATOM     29  H   UNL A   1      34.439  22.488  24.557  1.00  0.00     0.348 HD
ATOM     30  C   UNL A   1      36.212  24.001  25.549  1.00  0.00     0.062 C 
ATOM     31  C   UNL A   1      36.935  21.821  24.521  1.00  0.00     0.062 C 
ATOM     32  C   UNL A   1      37.396  23.095  25.225  1.00  0.00     0.012 C 
ENDBRANCH  25  26
ENDBRANCH  22  25
ENDBRANCH  20  21
ENDBRANCH  13  15
ENDBRANCH  10  11
ENDBRANCH   3   6
ENDBRANCH   1   2
BRANCH   1  33
ATOM     33  C   UNL A   1      33.480  30.844  27.640  1.00  0.00     0.023 C 
BRANCH  33  34
ATOM     34  C   UNL A   1      34.496  31.987  27.711  1.00  0.00     0.023 C 
BRANCH  34  35
ATOM     35  C   UNL A   1      35.816  31.682  28.415  1.00  0.00     0.116 C 
BRANCH  35  36
ATOM     36  N   UNL A   1      35.650  31.163  29.760  1.00  0.00    -0.352 N 
ATOM     37  C   UNL A   1      36.487  30.372  30.510  1.00  0.00     0.251 C 
ATOM     38  H   UNL A   1      34.808  31.417  30.204  1.00  0.00     0.163 HD
ATOM     39  O   UNL A   1      36.098  29.952  31.597  1.00  0.00    -0.269 OA
BRANCH  37  40
ATOM     40  C   UNL A   1      37.832  29.997  30.014  1.00  0.00     0.039 A 
ATOM     41  C   UNL A   1      38.840  29.742  30.950  1.00  0.00     0.014 A 
ATOM     42  C   UNL A   1      38.122  29.928  28.649  1.00  0.00     0.014 A 
ATOM     43  C   UNL A   1      40.118  29.374  30.519  1.00  0.00     0.010 A 
ATOM     44  C   UNL A   1      39.376  29.489  28.222  1.00  0.00     0.010 A 
ATOM     45  C   UNL A   1      40.393  29.222  29.152  1.00  0.00    -0.014 A 
BRANCH  45  46
ATOM     46  C   UNL A   1      41.749  28.826  28.682  1.00  0.00     0.031 A 
ATOM     47  C   UNL A   1      42.847  29.854  28.595  1.00  0.00     0.074 A 
ATOM     48  C   UNL A   1      41.988  27.554  28.300  1.00  0.00     0.049 A 
ATOM     49  N   UNL A   1      44.079  29.715  28.176  1.00  0.00    -0.248 NA
ATOM     50  C   UNL A   1      42.508  31.225  29.007  1.00  0.00     0.031 C 
ATOM     51  C   UNL A   1      41.000  26.473  28.291  1.00  0.00     0.029 A 
ATOM     52  N   UNL A   1      43.136  26.957  27.843  1.00  0.00    -0.354 N 
ATOM     53  C   UNL A   1      44.654  30.979  28.259  1.00  0.00     0.074 A 
ATOM     54  C   UNL A   1      43.619  31.883  28.712  1.00  0.00     0.031 C 
ATOM     55  C   UNL A   1      41.591  25.341  27.873  1.00  0.00     0.029 A 
ATOM     56  C   UNL A   1      42.989  25.620  27.559  1.00  0.00     0.049 A 
ATOM     57  H   UNL A   1      43.985  27.441  27.728  1.00  0.00     0.167 HD
ATOM     58  C   UNL A   1      45.933  31.351  28.008  1.00  0.00     0.037 A 
ATOM     59  C   UNL A   1      43.880  24.718  27.102  1.00  0.00     0.037 A 
ATOM     60  C   UNL A   1      46.971  30.443  27.592  1.00  0.00     0.049 A 
ATOM     61  C   UNL A   1      45.303  25.147  26.859  1.00  0.00     0.074 A 
ATOM     62  C   UNL A   1      48.308  30.714  27.356  1.00  0.00     0.029 A 
ATOM     63  N   UNL A   1      46.790  29.088  27.359  1.00  0.00    -0.354 N 
ATOM     64  N   UNL A   1      45.840  26.337  26.992  1.00  0.00    -0.248 NA
ATOM     65  C   UNL A   1      46.246  24.107  26.421  1.00  0.00     0.031 C 
ATOM     66  C   UNL A   1      48.929  29.528  26.949  1.00  0.00     0.029 A 
ATOM     67  C   UNL A   1      47.990  28.509  26.977  1.00  0.00     0.049 A 
ATOM     68  H   UNL A   1      45.937  28.608  27.450  1.00  0.00     0.167 HD
ATOM     69  C   UNL A   1      47.189  26.180  26.691  1.00  0.00     0.074 A 
ATOM     70  C   UNL A   1      47.387  24.781  26.376  1.00  0.00     0.031 C 
ATOM     71  C   UNL A   1      48.176  27.110  26.685  1.00  0.00     0.037 A 
BRANCH  58  72
ATOM     72  C   UNL A   1      46.282  32.803  28.187  1.00  0.00     0.058 A 
ATOM     73  C   UNL A   1      46.083  33.740  27.160  1.00  0.00     0.135 A 
ATOM     74  C   UNL A   1      46.803  33.269  29.405  1.00  0.00     0.135 A 
ATOM     75  F   UNL A   1      45.603  33.348  25.969  1.00  0.00    -0.206 F 
ATOM     76  C   UNL A   1      46.420  35.080  27.321  1.00  0.00     0.059 A 
ATOM     77  C   UNL A   1      47.121  34.611  29.599  1.00  0.00     0.059 A 
ATOM     78  F   UNL A   1      47.014  32.417  30.421  1.00  0.00    -0.206 F 
ATOM     79  C   UNL A   1      46.942  35.505  28.544  1.00  0.00     0.060 A 
BRANCH  79  80
ATOM     80  S   UNL A   1      47.383  37.244  28.736  1.00  0.00     0.124 S 
ATOM     81  O   UNL A   1      48.598  37.326  27.929  1.00  0.00    -0.237 OA
ATOM     82  O   UNL A   1      46.215  37.927  28.190  1.00  0.00    -0.237 OA
ATOM     83  O   UNL A   1      47.576  37.389  30.175  1.00  0.00    -0.744 OA
ENDBRANCH  79  80
ENDBRANCH  58  72
BRANCH  59  84
ATOM     84  C   UNL A   1      43.465  23.306  26.884  1.00  0.00     0.058 A 
ATOM     85  C   UNL A   1      43.296  22.794  25.588  1.00  0.00     0.135 A 
ATOM     86  C   UNL A   1      43.234  22.439  27.963  1.00  0.00     0.135 A 
ATOM     87  F   UNL A   1      43.501  23.586  24.524  1.00  0.00    -0.206 F 
ATOM     88  C   UNL A   1      42.894  21.481  25.369  1.00  0.00     0.059 A 
ATOM     89  C   UNL A   1      42.855  21.115  27.769  1.00  0.00     0.059 A 
ATOM     90  F   UNL A   1      43.399  22.875  29.222  1.00  0.00    -0.206 F 
ATOM     91  C   UNL A   1      42.677  20.648  26.467  1.00  0.00     0.060 A 
BRANCH  91  92
ATOM     92  S   UNL A   1      42.200  18.931  26.171  1.00  0.00     0.124 S 
ATOM     93  O   UNL A   1      42.426  18.335  27.483  1.00  0.00    -0.237 OA
ATOM     94  O   UNL A   1      40.806  19.065  25.762  1.00  0.00    -0.237 OA
ATOM     95  O   UNL A   1      43.116  18.506  25.117  1.00  0.00    -0.744 OA
ENDBRANCH  91  92
ENDBRANCH  59  84
BRANCH  71  96
ATOM     96  C   UNL A   1      49.572  26.638  26.383  1.00  0.00     0.058 A 
ATOM     97  C   UNL A   1      50.110  26.686  25.088  1.00  0.00     0.135 A 
ATOM     98  C   UNL A   1      50.395  26.162  27.417  1.00  0.00     0.135 A 
ATOM     99  F   UNL A   1      49.365  27.130  24.063  1.00  0.00    -0.206 F 
ATOM    100  C   UNL A   1      51.404  26.250  24.823  1.00  0.00     0.059 A 
ATOM    101  C   UNL A   1      51.700  25.747  27.180  1.00  0.00     0.059 A 
ATOM    102  F   UNL A   1      49.932  26.107  28.678  1.00  0.00    -0.206 F 
ATOM    103  C   UNL A   1      52.190  25.779  25.876  1.00  0.00     0.060 A 
BRANCH 103 104
ATOM    104  S   UNL A   1      53.875  25.230  25.524  1.00  0.00     0.124 S 
ATOM    105  O   UNL A   1      54.396  25.003  26.868  1.00  0.00    -0.237 OA
ATOM    106  O   UNL A   1      53.653  24.032  24.720  1.00  0.00    -0.237 OA
ATOM    107  O   UNL A   1      54.457  26.360  24.806  1.00  0.00    -0.744 OA
ENDBRANCH 103 104
ENDBRANCH  71  96
ENDBRANCH  45  46
ENDBRANCH  37  40
ENDBRANCH  35  36
ENDBRANCH  34  35
ENDBRANCH  33  34
ENDBRANCH   1  33
TORSDOF 19
ENDMDL
MODEL 2
REMARK VINA RESULT:     -11.8      5.907      8.067
REMARK SMILES CC1(C)[C@H](C(=O)Nc2ccc(NC(=O)C[NH+]3CCCCC3)cc2)[C@@H]1C(=O)NCCCCNC(=O)c1ccc(-c2c3nc(c(-c4c(F)cc(S(=O)(=O)[O-])cc4F)c4ccc([nH]4)c(-c4c(F)cc(S(=O)(=O)[O-])cc4F)c4nc(c(-c5c(F)cc(S(=O)(=O)[O-])cc5F)c5ccc2[nH]5)C=C4)C=C3)cc1
REMARK SMILES IDX 28 1 27 2 25 3 26 4 24 6 1 7 2 8 3 9 4 10 5 11 6 12 7 13
REMARK SMILES IDX 8 15 9 16 23 17 10 18 22 19 11 20 12 21 13 22 14 24 15 25
REMARK SMILES IDX 16 26 17 27 21 28 18 30 20 31 19 32 29 33 30 34 31 35 32 36
REMARK SMILES IDX 33 37 34 39 35 40 36 41 100 42 37 43 99 44 38 45 39 46 40 47
REMARK SMILES IDX 93 48 41 49 98 50 92 51 94 52 42 53 97 54 91 55 90 56 43 58
REMARK SMILES IDX 77 59 56 60 76 61 57 62 60 63 75 64 95 65 58 66 59 67 74 69
REMARK SMILES IDX 96 70 61 71 44 72 45 73 54 74 46 75 47 76 53 77 55 78 48 79
REMARK SMILES IDX 49 80 50 81 51 82 52 83 78 84 79 85 88 86 80 87 81 88 87 89
REMARK SMILES IDX 89 90 82 91 83 92 84 93 85 94 86 95 62 96 63 97 72 98 64 99
REMARK SMILES IDX 65 100 71 101 73 102 66 103 67 104 68 105 69 106 70 107
REMARK H PARENT 27 5 7 14 12 23 16 29 32 38 94 57 60 68
REMARK Flexibility Score: inf
ROOT
ATOM      1  C   UNL A   1      33.923  29.674  27.181  1.00  0.00     0.116 C 
ENDROOT
BRANCH   1   2
ATOM      2  N   UNL A   1      34.054  29.680  25.739  1.00  0.00    -0.356 N 
ATOM      3  C   UNL A   1      33.147  29.254  24.800  1.00  0.00     0.224 C 
ATOM      4  O   UNL A   1      33.420  29.328  23.612  1.00  0.00    -0.275 OA
ATOM      5  H   UNL A   1      34.903  30.034  25.387  1.00  0.00     0.163 HD
BRANCH   3   6
ATOM      6  C   UNL A   1      31.927  28.561  25.267  1.00  0.00     0.098 C 
ATOM      7  C   UNL A   1      31.027  26.718  26.882  1.00  0.00     0.013 C 
ATOM      8  C   UNL A   1      31.881  27.080  25.678  1.00  0.00    -0.011 C 
ATOM      9  C   UNL A   1      33.088  26.200  25.586  1.00  0.00     0.013 C 
ATOM     10  C   UNL A   1      31.101  27.576  24.480  1.00  0.00     0.098 C 
BRANCH  10  11
ATOM     11  C   UNL A   1      31.125  27.305  23.013  1.00  0.00     0.228 C 
ATOM     12  O   UNL A   1      30.839  28.269  22.294  1.00  0.00    -0.274 OA
ATOM     13  N   UNL A   1      31.618  26.214  22.349  1.00  0.00    -0.326 N 
ATOM     14  H   UNL A   1      31.921  26.414  21.434  1.00  0.00     0.169 HD
BRANCH  13  15
ATOM     15  C   UNL A   1      31.778  24.886  22.707  1.00  0.00     0.041 A 
ATOM     16  C   UNL A   1      32.902  24.217  22.247  1.00  0.00     0.028 A 
ATOM     17  C   UNL A   1      30.794  24.184  23.388  1.00  0.00     0.028 A 
ATOM     18  C   UNL A   1      33.158  22.917  22.673  1.00  0.00     0.028 A 
ATOM     19  C   UNL A   1      31.028  22.857  23.771  1.00  0.00     0.028 A 
ATOM     20  C   UNL A   1      32.226  22.218  23.433  1.00  0.00     0.041 A 
BRANCH  20  21
ATOM     21  N   UNL A   1      32.431  20.920  23.931  1.00  0.00    -0.321 N 
ATOM     22  C   UNL A   1      32.810  20.451  25.162  1.00  0.00     0.279 C 
ATOM     23  H   UNL A   1      32.273  20.210  23.268  1.00  0.00     0.170 HD
ATOM     24  O   UNL A   1      32.722  19.232  25.360  1.00  0.00    -0.268 OA
BRANCH  22  25
ATOM     25  C   UNL A   1      33.367  21.373  26.259  1.00  0.00     0.363 C 
BRANCH  25  26
ATOM     26  N   UNL A   1      34.797  21.640  26.034  1.00  0.00    -0.327 N 
ATOM     27  C   UNL A   1      35.382  20.805  24.984  1.00  0.00     0.262 C 
ATOM     28  C   UNL A   1      35.068  23.062  25.796  1.00  0.00     0.262 C 
ATOM     29  H   UNL A   1      35.259  21.378  26.904  1.00  0.00     0.348 HD
ATOM     30  C   UNL A   1      36.905  20.953  25.026  1.00  0.00     0.062 C 
ATOM     31  C   UNL A   1      36.576  23.318  25.817  1.00  0.00     0.062 C 
ATOM     32  C   UNL A   1      37.321  22.408  24.844  1.00  0.00     0.012 C 
ENDBRANCH  25  26
ENDBRANCH  22  25
ENDBRANCH  20  21
ENDBRANCH  13  15
ENDBRANCH  10  11
ENDBRANCH   3   6
ENDBRANCH   1   2
BRANCH   1  33
ATOM     33  C   UNL A   1      34.125  31.054  27.801  1.00  0.00     0.023 C 
BRANCH  33  34
ATOM     34  C   UNL A   1      32.946  32.023  27.680  1.00  0.00     0.023 C 
BRANCH  34  35
ATOM     35  C   UNL A   1      33.255  33.401  27.101  1.00  0.00     0.116 C 
BRANCH  35  36
ATOM     36  N   UNL A   1      32.780  34.497  27.925  1.00  0.00    -0.352 N 
ATOM     37  C   UNL A   1      33.202  34.917  29.163  1.00  0.00     0.251 C 
ATOM     38  H   UNL A   1      32.041  35.021  27.537  1.00  0.00     0.163 HD
ATOM     39  O   UNL A   1      32.580  35.809  29.736  1.00  0.00    -0.269 OA
BRANCH  37  40
ATOM     40  C   UNL A   1      34.372  34.293  29.825  1.00  0.00     0.039 A 
ATOM     41  C   UNL A   1      34.147  33.439  30.910  1.00  0.00     0.014 A 
ATOM     42  C   UNL A   1      35.680  34.562  29.416  1.00  0.00     0.014 A 
ATOM     43  C   UNL A   1      35.225  32.823  31.551  1.00  0.00     0.010 A 
ATOM     44  C   UNL A   1      36.750  33.890  30.009  1.00  0.00     0.010 A 
ATOM     45  C   UNL A   1      36.536  33.023  31.092  1.00  0.00    -0.014 A 
BRANCH  45  46
ATOM     46  C   UNL A   1      37.691  32.369  31.764  1.00  0.00     0.031 A 
ATOM     47  C   UNL A   1      38.177  32.877  33.097  1.00  0.00     0.074 A 
ATOM     48  C   UNL A   1      38.329  31.341  31.166  1.00  0.00     0.049 A 
ATOM     49  N   UNL A   1      39.187  32.468  33.821  1.00  0.00    -0.248 NA
ATOM     50  C   UNL A   1      37.448  34.015  33.680  1.00  0.00     0.031 C 
ATOM     51  C   UNL A   1      37.989  30.783  29.855  1.00  0.00     0.029 A 
ATOM     52  N   UNL A   1      39.397  30.586  31.580  1.00  0.00    -0.354 N 
ATOM     53  C   UNL A   1      39.224  33.304  34.931  1.00  0.00     0.074 A 
ATOM     54  C   UNL A   1      38.171  34.281  34.757  1.00  0.00     0.031 C 
ATOM     55  C   UNL A   1      38.818  29.760  29.585  1.00  0.00     0.029 A 
ATOM     56  C   UNL A   1      39.762  29.606  30.686  1.00  0.00     0.049 A 
ATOM     57  H   UNL A   1      39.859  30.732  32.437  1.00  0.00     0.167 HD
ATOM     58  C   UNL A   1      40.039  33.249  36.012  1.00  0.00     0.037 A 
ATOM     59  C   UNL A   1      40.744  28.685  30.749  1.00  0.00     0.037 A 
ATOM     60  C   UNL A   1      41.063  32.254  36.202  1.00  0.00     0.049 A 
ATOM     61  C   UNL A   1      41.619  28.623  31.974  1.00  0.00     0.074 A 
ATOM     62  C   UNL A   1      41.911  32.086  37.283  1.00  0.00     0.029 A 
ATOM     63  N   UNL A   1      41.371  31.253  35.293  1.00  0.00    -0.354 N 
ATOM     64  N   UNL A   1      41.605  29.392  33.037  1.00  0.00    -0.248 NA
ATOM     65  C   UNL A   1      42.631  27.558  32.015  1.00  0.00     0.031 C 
ATOM     66  C   UNL A   1      42.754  31.002  37.014  1.00  0.00     0.029 A 
ATOM     67  C   UNL A   1      42.399  30.466  35.786  1.00  0.00     0.049 A 
ATOM     68  H   UNL A   1      40.926  31.120  34.426  1.00  0.00     0.167 HD
ATOM     69  C   UNL A   1      42.578  28.880  33.888  1.00  0.00     0.074 A 
ATOM     70  C   UNL A   1      43.157  27.734  33.219  1.00  0.00     0.031 C 
ATOM     71  C   UNL A   1      42.953  29.315  35.117  1.00  0.00     0.037 A 
BRANCH  58  72
ATOM     72  C   UNL A   1      39.850  34.293  37.080  1.00  0.00     0.058 A 
ATOM     73  C   UNL A   1      39.029  34.062  38.197  1.00  0.00     0.135 A 
ATOM     74  C   UNL A   1      40.510  35.529  36.998  1.00  0.00     0.135 A 
ATOM     75  F   UNL A   1      38.361  32.904  38.318  1.00  0.00    -0.206 F 
ATOM     76  C   UNL A   1      38.842  35.032  39.175  1.00  0.00     0.059 A 
ATOM     77  C   UNL A   1      40.361  36.504  37.980  1.00  0.00     0.059 A 
ATOM     78  F   UNL A   1      41.307  35.803  35.952  1.00  0.00    -0.206 F 
ATOM     79  C   UNL A   1      39.510  36.252  39.056  1.00  0.00     0.060 A 
BRANCH  79  80
ATOM     80  S   UNL A   1      39.252  37.506  40.329  1.00  0.00     0.124 S 
ATOM     81  O   UNL A   1      38.893  36.680  41.479  1.00  0.00    -0.237 OA
ATOM     82  O   UNL A   1      40.557  38.155  40.399  1.00  0.00    -0.237 OA
ATOM     83  O   UNL A   1      38.174  38.325  39.785  1.00  0.00    -0.744 OA
ENDBRANCH  79  80
ENDBRANCH  58  72
BRANCH  59  84
ATOM     84  C   UNL A   1      40.926  27.714  29.637  1.00  0.00     0.058 A 
ATOM     85  C   UNL A   1      39.991  26.691  29.412  1.00  0.00     0.135 A 
ATOM     86  C   UNL A   1      42.031  27.790  28.776  1.00  0.00     0.135 A 
ATOM     87  F   UNL A   1      38.920  26.574  30.212  1.00  0.00    -0.206 F 
ATOM     88  C   UNL A   1      40.155  25.766  28.386  1.00  0.00     0.059 A 
ATOM     89  C   UNL A   1      42.204  26.892  27.727  1.00  0.00     0.059 A 
ATOM     90  F   UNL A   1      42.944  28.761  28.938  1.00  0.00    -0.206 F 
ATOM     91  C   UNL A   1      41.265  25.876  27.547  1.00  0.00     0.060 A 
BRANCH  91  92
ATOM     92  S   UNL A   1      41.446  24.699  26.189  1.00  0.00     0.124 S 
ATOM     93  O   UNL A   1      42.767  24.144  26.456  1.00  0.00    -0.237 OA
ATOM     94  O   UNL A   1      40.318  23.799  26.410  1.00  0.00    -0.237 OA
ATOM     95  O   UNL A   1      41.341  25.541  25.000  1.00  0.00    -0.744 OA
ENDBRANCH  91  92
ENDBRANCH  59  84
BRANCH  71  96
ATOM     96  C   UNL A   1      43.999  28.518  35.846  1.00  0.00     0.058 A 
ATOM     97  C   UNL A   1      45.368  28.805  35.730  1.00  0.00     0.135 A 
ATOM     98  C   UNL A   1      43.619  27.471  36.702  1.00  0.00     0.135 A 
ATOM     99  F   UNL A   1      45.785  29.793  34.923  1.00  0.00    -0.206 F 
ATOM    100  C   UNL A   1      46.325  28.061  36.414  1.00  0.00     0.059 A 
ATOM    101  C   UNL A   1      44.557  26.733  37.416  1.00  0.00     0.059 A 
ATOM    102  F   UNL A   1      42.320  27.164  36.859  1.00  0.00    -0.206 F 
ATOM    103  C   UNL A   1      45.909  27.026  37.252  1.00  0.00     0.060 A 
BRANCH 103 104
ATOM    104  S   UNL A   1      47.159  26.077  38.146  1.00  0.00     0.124 S 
ATOM    105  O   UNL A   1      48.368  26.842  37.860  1.00  0.00    -0.237 OA
ATOM    106  O   UNL A   1      46.678  26.143  39.523  1.00  0.00    -0.237 OA
ATOM    107  O   UNL A   1      47.089  24.756  37.527  1.00  0.00    -0.744 OA
ENDBRANCH 103 104
ENDBRANCH  71  96
ENDBRANCH  45  46
ENDBRANCH  37  40
ENDBRANCH  35  36
ENDBRANCH  34  35
ENDBRANCH  33  34
ENDBRANCH   1  33
TORSDOF 19
ENDMDL
MODEL 3
REMARK VINA RESULT:     -11.5      6.260     12.060
REMARK SMILES CC1(C)[C@H](C(=O)Nc2ccc(NC(=O)C[NH+]3CCCCC3)cc2)[C@@H]1C(=O)NCCCCNC(=O)c1ccc(-c2c3nc(c(-c4c(F)cc(S(=O)(=O)[O-])cc4F)c4ccc([nH]4)c(-c4c(F)cc(S(=O)(=O)[O-])cc4F)c4nc(c(-c5c(F)cc(S(=O)(=O)[O-])cc5F)c5ccc2[nH]5)C=C4)C=C3)cc1
REMARK SMILES IDX 28 1 27 2 25 3 26 4 24 6 1 7 2 8 3 9 4 10 5 11 6 12 7 13
REMARK SMILES IDX 8 15 9 16 23 17 10 18 22 19 11 20 12 21 13 22 14 24 15 25
REMARK SMILES IDX 16 26 17 27 21 28 18 30 20 31 19 32 29 33 30 34 31 35 32 36
REMARK SMILES IDX 33 37 34 39 35 40 36 41 100 42 37 43 99 44 38 45 39 46 40 47
REMARK SMILES IDX 93 48 41 49 98 50 92 51 94 52 42 53 97 54 91 55 90 56 43 58
REMARK SMILES IDX 77 59 56 60 76 61 57 62 60 63 75 64 95 65 58 66 59 67 74 69
REMARK SMILES IDX 96 70 61 71 44 72 45 73 54 74 46 75 47 76 53 77 55 78 48 79
REMARK SMILES IDX 49 80 50 81 51 82 52 83 78 84 79 85 88 86 80 87 81 88 87 89
REMARK SMILES IDX 89 90 82 91 83 92 84 93 85 94 86 95 62 96 63 97 72 98 64 99
REMARK SMILES IDX 65 100 71 101 73 102 66 103 67 104 68 105 69 106 70 107
REMARK H PARENT 27 5 7 14 12 23 16 29 32 38 94 57 60 68
REMARK Flexibility Score: inf
ROOT
ATOM      1  C   UNL A   1      39.066  21.768  25.755  1.00  0.00     0.116 C 
ENDROOT
BRANCH   1   2
ATOM      2  N   UNL A   1      38.124  20.759  25.320  1.00  0.00    -0.356 N 
ATOM      3  C   UNL A   1      36.758  20.855  25.219  1.00  0.00     0.224 C 
ATOM      4  O   UNL A   1      36.105  19.898  24.833  1.00  0.00    -0.275 OA
ATOM      5  H   UNL A   1      38.512  19.891  25.064  1.00  0.00     0.163 HD
BRANCH   3   6
ATOM      6  C   UNL A   1      36.100  22.072  25.745  1.00  0.00     0.098 C 
ATOM      7  C   UNL A   1      34.105  22.945  27.183  1.00  0.00     0.013 C 
ATOM      8  C   UNL A   1      34.582  22.216  25.938  1.00  0.00    -0.011 C 
ATOM      9  C   UNL A   1      33.633  21.126  25.552  1.00  0.00     0.013 C 
ATOM     10  C   UNL A   1      35.323  23.085  24.945  1.00  0.00     0.098 C 
BRANCH  10  11
ATOM     11  C   UNL A   1      35.285  23.272  23.466  1.00  0.00     0.228 C 
ATOM     12  O   UNL A   1      36.324  22.967  22.870  1.00  0.00    -0.274 OA
ATOM     13  N   UNL A   1      34.210  23.528  22.659  1.00  0.00    -0.326 N 
ATOM     14  H   UNL A   1      34.319  23.196  21.738  1.00  0.00     0.169 HD
BRANCH  13  15
ATOM     15  C   UNL A   1      32.996  24.159  22.878  1.00  0.00     0.041 A 
ATOM     16  C   UNL A   1      31.891  23.369  23.159  1.00  0.00     0.028 A 
ATOM     17  C   UNL A   1      32.833  25.524  22.694  1.00  0.00     0.028 A 
ATOM     18  C   UNL A   1      30.679  23.966  23.495  1.00  0.00     0.028 A 
ATOM     19  C   UNL A   1      31.598  26.119  22.979  1.00  0.00     0.028 A 
ATOM     20  C   UNL A   1      30.513  25.344  23.404  1.00  0.00     0.041 A 
BRANCH  20  21
ATOM     21  N   UNL A   1      29.334  26.019  23.763  1.00  0.00    -0.321 N 
ATOM     22  C   UNL A   1      28.861  27.272  23.470  1.00  0.00     0.279 C 
ATOM     23  H   UNL A   1      28.732  25.491  24.335  1.00  0.00     0.170 HD
ATOM     24  O   UNL A   1      27.687  27.524  23.775  1.00  0.00    -0.268 OA
BRANCH  22  25
ATOM     25  C   UNL A   1      29.742  28.357  22.828  1.00  0.00     0.363 C 
BRANCH  25  26
ATOM     26  N   UNL A   1      28.978  29.603  22.648  1.00  0.00    -0.327 N 
ATOM     27  C   UNL A   1      29.237  30.595  23.691  1.00  0.00     0.262 C 
ATOM     28  C   UNL A   1      29.159  30.178  21.310  1.00  0.00     0.262 C 
ATOM     29  H   UNL A   1      27.999  29.334  22.739  1.00  0.00     0.348 HD
ATOM     30  C   UNL A   1      28.202  31.716  23.575  1.00  0.00     0.062 C 
ATOM     31  C   UNL A   1      28.163  31.318  21.091  1.00  0.00     0.062 C 
ATOM     32  C   UNL A   1      28.249  32.367  22.197  1.00  0.00     0.012 C 
ENDBRANCH  25  26
ENDBRANCH  22  25
ENDBRANCH  20  21
ENDBRANCH  13  15
ENDBRANCH  10  11
ENDBRANCH   3   6
ENDBRANCH   1   2
BRANCH   1  33
ATOM     33  C   UNL A   1      40.091  21.233  26.751  1.00  0.00     0.023 C 
BRANCH  33  34
ATOM     34  C   UNL A   1      41.500  21.824  26.648  1.00  0.00     0.023 C 
BRANCH  34  35
ATOM     35  C   UNL A   1      41.643  23.305  26.987  1.00  0.00     0.116 C 
BRANCH  35  36
ATOM     36  N   UNL A   1      42.009  24.129  25.849  1.00  0.00    -0.352 N 
ATOM     37  C   UNL A   1      42.052  25.497  25.728  1.00  0.00     0.251 C 
ATOM     38  H   UNL A   1      42.267  23.630  25.040  1.00  0.00     0.163 HD
ATOM     39  O   UNL A   1      42.286  25.992  24.628  1.00  0.00    -0.269 OA
BRANCH  37  40
ATOM     40  C   UNL A   1      41.792  26.377  26.892  1.00  0.00     0.039 A 
ATOM     41  C   UNL A   1      40.741  26.048  27.754  1.00  0.00     0.014 A 
ATOM     42  C   UNL A   1      42.542  27.532  27.124  1.00  0.00     0.014 A 
ATOM     43  C   UNL A   1      40.474  26.848  28.869  1.00  0.00     0.010 A 
ATOM     44  C   UNL A   1      42.322  28.289  28.276  1.00  0.00     0.010 A 
ATOM     45  C   UNL A   1      41.277  27.963  29.154  1.00  0.00    -0.014 A 
BRANCH  45  46
ATOM     46  C   UNL A   1      41.004  28.819  30.341  1.00  0.00     0.031 A 
ATOM     47  C   UNL A   1      41.829  28.661  31.591  1.00  0.00     0.074 A 
ATOM     48  C   UNL A   1      39.996  29.715  30.311  1.00  0.00     0.049 A 
ATOM     49  N   UNL A   1      41.722  29.283  32.738  1.00  0.00    -0.248 NA
ATOM     50  C   UNL A   1      42.897  27.649  31.559  1.00  0.00     0.031 C 
ATOM     51  C   UNL A   1      39.092  29.936  29.179  1.00  0.00     0.029 A 
ATOM     52  N   UNL A   1      39.559  30.605  31.261  1.00  0.00    -0.354 N 
ATOM     53  C   UNL A   1      42.694  28.728  33.564  1.00  0.00     0.074 A 
ATOM     54  C   UNL A   1      43.342  27.680  32.807  1.00  0.00     0.031 C 
ATOM     55  C   UNL A   1      38.226  30.914  29.493  1.00  0.00     0.029 A 
ATOM     56  C   UNL A   1      38.493  31.371  30.853  1.00  0.00     0.049 A 
ATOM     57  H   UNL A   1      39.971  30.687  32.151  1.00  0.00     0.167 HD
ATOM     58  C   UNL A   1      43.037  29.077  34.828  1.00  0.00     0.037 A 
ATOM     59  C   UNL A   1      37.809  32.336  31.500  1.00  0.00     0.037 A 
ATOM     60  C   UNL A   1      42.416  30.146  35.567  1.00  0.00     0.049 A 
ATOM     61  C   UNL A   1      38.227  32.728  32.892  1.00  0.00     0.074 A 
ATOM     62  C   UNL A   1      42.722  30.606  36.837  1.00  0.00     0.029 A 
ATOM     63  N   UNL A   1      41.368  30.926  35.102  1.00  0.00    -0.354 N 
ATOM     64  N   UNL A   1      39.183  32.226  33.638  1.00  0.00    -0.248 NA
ATOM     65  C   UNL A   1      37.487  33.829  33.524  1.00  0.00     0.031 C 
ATOM     66  C   UNL A   1      41.839  31.645  37.151  1.00  0.00     0.029 A 
ATOM     67  C   UNL A   1      41.013  31.862  36.059  1.00  0.00     0.049 A 
ATOM     68  H   UNL A   1      40.940  30.830  34.221  1.00  0.00     0.167 HD
ATOM     69  C   UNL A   1      39.182  32.975  34.810  1.00  0.00     0.074 A 
ATOM     70  C   UNL A   1      38.136  33.966  34.672  1.00  0.00     0.031 C 
ATOM     71  C   UNL A   1      39.982  32.856  35.900  1.00  0.00     0.037 A 
BRANCH  58  72
ATOM     72  C   UNL A   1      44.143  28.300  35.487  1.00  0.00     0.058 A 
ATOM     73  C   UNL A   1      43.880  27.154  36.258  1.00  0.00     0.135 A 
ATOM     74  C   UNL A   1      45.483  28.690  35.332  1.00  0.00     0.135 A 
ATOM     75  F   UNL A   1      42.617  26.746  36.453  1.00  0.00    -0.206 F 
ATOM     76  C   UNL A   1      44.902  26.446  36.880  1.00  0.00     0.059 A 
ATOM     77  C   UNL A   1      46.525  27.978  35.921  1.00  0.00     0.059 A 
ATOM     78  F   UNL A   1      45.792  29.776  34.607  1.00  0.00    -0.206 F 
ATOM     79  C   UNL A   1      46.222  26.867  36.708  1.00  0.00     0.060 A 
BRANCH  79  80
ATOM     80  S   UNL A   1      47.537  25.942  37.528  1.00  0.00     0.124 S 
ATOM     81  O   UNL A   1      48.361  27.023  38.063  1.00  0.00    -0.237 OA
ATOM     82  O   UNL A   1      46.801  25.159  38.515  1.00  0.00    -0.237 OA
ATOM     83  O   UNL A   1      48.139  25.174  36.443  1.00  0.00    -0.744 OA
ENDBRANCH  79  80
ENDBRANCH  58  72
BRANCH  59  84
ATOM     84  C   UNL A   1      36.683  33.032  30.821  1.00  0.00     0.058 A 
ATOM     85  C   UNL A   1      36.919  34.112  29.955  1.00  0.00     0.135 A 
ATOM     86  C   UNL A   1      35.352  32.633  31.020  1.00  0.00     0.135 A 
ATOM     87  F   UNL A   1      38.174  34.534  29.737  1.00  0.00    -0.206 F 
ATOM     88  C   UNL A   1      35.876  34.783  29.326  1.00  0.00     0.059 A 
ATOM     89  C   UNL A   1      34.295  33.273  30.382  1.00  0.00     0.059 A 
ATOM     90  F   UNL A   1      35.075  31.595  31.824  1.00  0.00    -0.206 F 
ATOM     91  C   UNL A   1      34.566  34.355  29.544  1.00  0.00     0.060 A 
BRANCH  91  92
ATOM     92  S   UNL A   1      33.221  35.203  28.686  1.00  0.00     0.124 S 
ATOM     93  O   UNL A   1      32.534  35.857  29.794  1.00  0.00    -0.237 OA
ATOM     94  O   UNL A   1      33.945  36.083  27.774  1.00  0.00    -0.237 OA
ATOM     95  O   UNL A   1      32.493  34.112  28.045  1.00  0.00    -0.744 OA
ENDBRANCH  91  92
ENDBRANCH  59  84
BRANCH  71  96
ATOM     96  C   UNL A   1      39.798  33.859  37.006  1.00  0.00     0.058 A 
ATOM     97  C   UNL A   1      38.963  33.608  38.106  1.00  0.00     0.135 A 
ATOM     98  C   UNL A   1      40.500  35.075  36.980  1.00  0.00     0.135 A 
ATOM     99  F   UNL A   1      38.267  32.462  38.179  1.00  0.00    -0.206 F 
ATOM    100  C   UNL A   1      38.806  34.542  39.125  1.00  0.00     0.059 A 
ATOM    101  C   UNL A   1      40.379  36.011  38.001  1.00  0.00     0.059 A 
ATOM    102  F   UNL A   1      41.323  35.358  35.956  1.00  0.00    -0.206 F 
ATOM    103  C   UNL A   1      39.516  35.742  39.061  1.00  0.00     0.060 A 
BRANCH 103 104
ATOM    104  S   UNL A   1      39.316  36.941  40.397  1.00  0.00     0.124 S 
ATOM    105  O   UNL A   1      38.539  36.175  41.365  1.00  0.00    -0.237 OA
ATOM    106  O   UNL A   1      40.697  37.224  40.775  1.00  0.00    -0.237 OA
ATOM    107  O   UNL A   1      38.609  38.047  39.757  1.00  0.00    -0.744 OA
ENDBRANCH 103 104
ENDBRANCH  71  96
ENDBRANCH  45  46
ENDBRANCH  37  40
ENDBRANCH  35  36
ENDBRANCH  34  35
ENDBRANCH  33  34
ENDBRANCH   1  33
TORSDOF 19
ENDMDL
