MODEL 1
REMARK VINA RESULT:     -13.9      0.000      0.000
REMARK SMILES Cc1ccc(C)c(-c2cc(C(=O)NCCCCNC(=O)c3ccc(-c4c5nc(c(-c6c(F)cc(S(=O)(=O)[O-])cc6F)c6ccc([nH]6)c(-c6c(F)cc(S(=O)(=O)[O-])cc6F)c6nc(c(-c7c(F)cc(S(=O)(=O)[O-])cc7F)c7ccc4[nH]7)C=C6)C=C5)cc3)c3cc(C)ccc3n2)c1
REMARK SMILES IDX 16 1 15 2 14 3 13 4 11 5 12 6 10 8 8 9 9 10 94 11 93 12
REMARK SMILES IDX 87 13 92 14 88 15 91 16 89 17 90 18 7 19 1 20 2 21 3 22
REMARK SMILES IDX 95 23 4 24 5 25 6 26 17 27 18 28 19 29 20 31 21 32 22 33
REMARK SMILES IDX 86 34 23 35 85 36 24 37 25 38 26 39 79 40 27 41 84 42 78 43
REMARK SMILES IDX 80 44 28 45 83 46 77 47 76 48 29 50 63 51 42 52 62 53 43 54
REMARK SMILES IDX 46 55 61 56 81 57 44 58 45 59 60 61 82 62 47 63 30 64 31 65
REMARK SMILES IDX 40 66 32 67 33 68 39 69 41 70 34 71 35 72 36 73 37 74 38 75
REMARK SMILES IDX 64 76 65 77 74 78 66 79 67 80 73 81 75 82 68 83 69 84 70 85
REMARK SMILES IDX 71 86 72 87 48 88 49 89 58 90 50 91 51 92 57 93 59 94 52 95
REMARK SMILES IDX 53 96 54 97 55 98 56 99
REMARK H PARENT 13 7 18 30 80 49 46 60
REMARK Flexibility Score: inf
ROOT
ATOM      1  C   UNL A   1      39.683  22.232  26.654  1.00  0.00     0.023 C 
ENDROOT
BRANCH   1   2
ATOM      2  C   UNL A   1      38.896  23.542  26.773  1.00  0.00     0.023 C 
BRANCH   2   3
ATOM      3  C   UNL A   1      37.610  23.760  25.984  1.00  0.00     0.116 C 
BRANCH   3   4
ATOM      4  N   UNL A   1      37.536  23.363  24.589  1.00  0.00    -0.352 N 
ATOM      5  C   UNL A   1      36.434  23.224  23.747  1.00  0.00     0.252 C 
ATOM      6  O   UNL A   1      36.659  22.946  22.569  1.00  0.00    -0.269 OA
ATOM      7  H   UNL A   1      38.403  23.156  24.172  1.00  0.00     0.163 HD
BRANCH   5   8
ATOM      8  C   UNL A   1      35.000  23.265  24.205  1.00  0.00     0.051 A 
ATOM      9  C   UNL A   1      33.034  24.630  24.437  1.00  0.00     0.072 A 
ATOM     10  C   UNL A   1      34.403  24.536  24.230  1.00  0.00     0.043 A 
ATOM     11  N   UNL A   1      32.243  23.533  24.475  1.00  0.00    -0.248 NA
ATOM     12  C   UNL A   1      32.817  22.324  24.512  1.00  0.00     0.072 A 
ATOM     13  C   UNL A   1      34.209  22.143  24.526  1.00  0.00     0.013 A 
ATOM     14  C   UNL A   1      32.001  21.201  24.506  1.00  0.00     0.029 A 
ATOM     15  C   UNL A   1      34.709  20.856  24.821  1.00  0.00     0.014 A 
ATOM     16  C   UNL A   1      32.529  19.908  24.539  1.00  0.00     0.005 A 
ATOM     17  C   UNL A   1      33.896  19.726  24.720  1.00  0.00    -0.050 A 
ATOM     18  C   UNL A   1      34.522  18.367  24.624  1.00  0.00     0.044 C 
BRANCH   9  19
ATOM     19  C   UNL A   1      32.340  25.910  24.666  1.00  0.00     0.003 A 
ATOM     20  C   UNL A   1      31.486  28.208  27.618  1.00  0.00     0.044 C 
ATOM     21  C   UNL A   1      31.594  27.659  26.226  1.00  0.00    -0.050 A 
ATOM     22  C   UNL A   1      31.033  28.367  25.162  1.00  0.00     0.004 A 
ATOM     23  C   UNL A   1      32.245  26.441  25.970  1.00  0.00     0.014 A 
ATOM     24  C   UNL A   1      31.115  27.865  23.866  1.00  0.00     0.004 A 
ATOM     25  C   UNL A   1      31.754  26.640  23.603  1.00  0.00    -0.042 A 
ATOM     26  C   UNL A   1      31.774  26.175  22.168  1.00  0.00     0.045 C 
ENDBRANCH   9  19
ENDBRANCH   5   8
ENDBRANCH   3   4
ENDBRANCH   2   3
ENDBRANCH   1   2
BRANCH   1  27
ATOM     27  C   UNL A   1      41.080  22.140  27.266  1.00  0.00     0.116 C 
BRANCH  27  28
ATOM     28  N   UNL A   1      42.207  22.352  26.338  1.00  0.00    -0.352 N 
ATOM     29  C   UNL A   1      42.610  23.519  25.690  1.00  0.00     0.251 C 
ATOM     30  H   UNL A   1      42.753  21.555  26.150  1.00  0.00     0.163 HD
ATOM     31  O   UNL A   1      43.232  23.438  24.621  1.00  0.00    -0.269 OA
BRANCH  29  32
ATOM     32  C   UNL A   1      42.322  24.848  26.272  1.00  0.00     0.039 A 
ATOM     33  C   UNL A   1      41.426  25.789  25.753  1.00  0.00     0.014 A 
ATOM     34  C   UNL A   1      42.998  25.163  27.430  1.00  0.00     0.014 A 
ATOM     35  C   UNL A   1      41.273  27.008  26.431  1.00  0.00     0.010 A 
ATOM     36  C   UNL A   1      42.468  26.075  28.279  1.00  0.00     0.010 A 
ATOM     37  C   UNL A   1      41.839  27.146  27.705  1.00  0.00    -0.014 A 
BRANCH  37  38
ATOM     38  C   UNL A   1      41.684  28.301  28.575  1.00  0.00     0.031 A 
ATOM     39  C   UNL A   1      42.775  29.271  28.386  1.00  0.00     0.074 A 
ATOM     40  C   UNL A   1      40.549  28.623  29.242  1.00  0.00     0.049 A 
ATOM     41  N   UNL A   1      43.853  29.359  29.087  1.00  0.00    -0.248 NA
ATOM     42  C   UNL A   1      42.813  30.038  27.128  1.00  0.00     0.031 C 
ATOM     43  C   UNL A   1      39.231  27.974  29.197  1.00  0.00     0.029 A 
ATOM     44  N   UNL A   1      40.318  29.683  30.069  1.00  0.00    -0.354 N 
ATOM     45  C   UNL A   1      44.547  30.423  28.534  1.00  0.00     0.074 A 
ATOM     46  C   UNL A   1      44.041  30.561  27.196  1.00  0.00     0.031 C 
ATOM     47  C   UNL A   1      38.310  28.761  29.804  1.00  0.00     0.029 A 
ATOM     48  C   UNL A   1      38.982  29.897  30.410  1.00  0.00     0.049 A 
ATOM     49  H   UNL A   1      41.045  30.257  30.402  1.00  0.00     0.167 HD
ATOM     50  C   UNL A   1      45.213  31.300  29.334  1.00  0.00     0.037 A 
ATOM     51  C   UNL A   1      38.484  30.949  31.120  1.00  0.00     0.037 A 
ATOM     52  C   UNL A   1      45.301  30.782  30.684  1.00  0.00     0.049 A 
ATOM     53  C   UNL A   1      39.630  31.547  31.858  1.00  0.00     0.074 A 
ATOM     54  C   UNL A   1      45.779  29.612  31.246  1.00  0.00     0.029 A 
ATOM     55  N   UNL A   1      44.457  31.331  31.621  1.00  0.00    -0.354 N 
ATOM     56  N   UNL A   1      40.272  30.945  32.822  1.00  0.00    -0.248 NA
ATOM     57  C   UNL A   1      40.362  32.621  31.204  1.00  0.00     0.031 C 
ATOM     58  C   UNL A   1      44.846  29.284  32.273  1.00  0.00     0.029 A 
ATOM     59  C   UNL A   1      43.905  30.312  32.354  1.00  0.00     0.049 A 
ATOM     60  H   UNL A   1      44.280  32.292  31.745  1.00  0.00     0.167 HD
ATOM     61  C   UNL A   1      41.608  31.243  32.598  1.00  0.00     0.074 A 
ATOM     62  C   UNL A   1      41.593  32.351  31.645  1.00  0.00     0.031 C 
ATOM     63  C   UNL A   1      42.595  30.375  32.970  1.00  0.00     0.037 A 
BRANCH  50  64
ATOM     64  C   UNL A   1      45.414  32.770  29.028  1.00  0.00     0.058 A 
ATOM     65  C   UNL A   1      44.272  33.571  28.821  1.00  0.00     0.135 A 
ATOM     66  C   UNL A   1      46.644  33.375  28.682  1.00  0.00     0.135 A 
ATOM     67  F   UNL A   1      43.047  33.107  29.114  1.00  0.00    -0.206 F 
ATOM     68  C   UNL A   1      44.338  34.836  28.240  1.00  0.00     0.059 A 
ATOM     69  C   UNL A   1      46.737  34.658  28.155  1.00  0.00     0.059 A 
ATOM     70  F   UNL A   1      47.817  32.739  28.749  1.00  0.00    -0.206 F 
ATOM     71  C   UNL A   1      45.577  35.366  27.901  1.00  0.00     0.060 A 
BRANCH  71  72
ATOM     72  S   UNL A   1      45.663  36.969  27.093  1.00  0.00     0.124 S 
ATOM     73  O   UNL A   1      46.445  36.652  25.903  1.00  0.00    -0.237 OA
ATOM     74  O   UNL A   1      44.253  37.269  26.874  1.00  0.00    -0.237 OA
ATOM     75  O   UNL A   1      46.330  37.808  28.085  1.00  0.00    -0.744 OA
ENDBRANCH  71  72
ENDBRANCH  50  64
BRANCH  51  76
ATOM     76  C   UNL A   1      37.180  31.669  30.992  1.00  0.00     0.058 A 
ATOM     77  C   UNL A   1      36.187  31.564  31.989  1.00  0.00     0.135 A 
ATOM     78  C   UNL A   1      37.003  32.710  30.061  1.00  0.00     0.135 A 
ATOM     79  F   UNL A   1      36.271  30.610  32.929  1.00  0.00    -0.206 F 
ATOM     80  C   UNL A   1      35.130  32.478  32.100  1.00  0.00     0.059 A 
ATOM     81  C   UNL A   1      35.951  33.627  30.145  1.00  0.00     0.059 A 
ATOM     82  F   UNL A   1      37.905  32.928  29.095  1.00  0.00    -0.206 F 
ATOM     83  C   UNL A   1      35.036  33.526  31.186  1.00  0.00     0.060 A 
BRANCH  83  84
ATOM     84  S   UNL A   1      33.800  34.824  31.445  1.00  0.00     0.124 S 
ATOM     85  O   UNL A   1      32.991  34.265  32.523  1.00  0.00    -0.237 OA
ATOM     86  O   UNL A   1      34.626  35.972  31.802  1.00  0.00    -0.237 OA
ATOM     87  O   UNL A   1      33.132  34.922  30.150  1.00  0.00    -0.744 OA
ENDBRANCH  83  84
ENDBRANCH  51  76
BRANCH  63  88
ATOM     88  C   UNL A   1      42.261  29.279  33.953  1.00  0.00     0.058 A 
ATOM     89  C   UNL A   1      41.703  28.030  33.625  1.00  0.00     0.135 A 
ATOM     90  C   UNL A   1      42.674  29.463  35.283  1.00  0.00     0.135 A 
ATOM     91  F   UNL A   1      41.371  27.729  32.362  1.00  0.00    -0.206 F 
ATOM     92  C   UNL A   1      41.531  27.028  34.586  1.00  0.00     0.059 A 
ATOM     93  C   UNL A   1      42.546  28.468  36.246  1.00  0.00     0.059 A 
ATOM     94  F   UNL A   1      43.263  30.614  35.650  1.00  0.00    -0.206 F 
ATOM     95  C   UNL A   1      41.960  27.257  35.894  1.00  0.00     0.060 A 
BRANCH  95  96
ATOM     96  S   UNL A   1      41.807  25.941  37.122  1.00  0.00     0.124 S 
ATOM     97  O   UNL A   1      42.806  26.326  38.113  1.00  0.00    -0.237 OA
ATOM     98  O   UNL A   1      40.414  26.060  37.544  1.00  0.00    -0.237 OA
ATOM     99  O   UNL A   1      42.114  24.729  36.365  1.00  0.00    -0.744 OA
ENDBRANCH  95  96
ENDBRANCH  63  88
ENDBRANCH  37  38
ENDBRANCH  29  32
ENDBRANCH  27  28
ENDBRANCH   1  27
TORSDOF 15
ENDMDL
MODEL 2
REMARK VINA RESULT:     -13.8      0.788      1.273
REMARK SMILES Cc1ccc(C)c(-c2cc(C(=O)NCCCCNC(=O)c3ccc(-c4c5nc(c(-c6c(F)cc(S(=O)(=O)[O-])cc6F)c6ccc([nH]6)c(-c6c(F)cc(S(=O)(=O)[O-])cc6F)c6nc(c(-c7c(F)cc(S(=O)(=O)[O-])cc7F)c7ccc4[nH]7)C=C6)C=C5)cc3)c3cc(C)ccc3n2)c1
REMARK SMILES IDX 16 1 15 2 14 3 13 4 11 5 12 6 10 8 8 9 9 10 94 11 93 12
REMARK SMILES IDX 87 13 92 14 88 15 91 16 89 17 90 18 7 19 1 20 2 21 3 22
REMARK SMILES IDX 95 23 4 24 5 25 6 26 17 27 18 28 19 29 20 31 21 32 22 33
REMARK SMILES IDX 86 34 23 35 85 36 24 37 25 38 26 39 79 40 27 41 84 42 78 43
REMARK SMILES IDX 80 44 28 45 83 46 77 47 76 48 29 50 63 51 42 52 62 53 43 54
REMARK SMILES IDX 46 55 61 56 81 57 44 58 45 59 60 61 82 62 47 63 30 64 31 65
REMARK SMILES IDX 40 66 32 67 33 68 39 69 41 70 34 71 35 72 36 73 37 74 38 75
REMARK SMILES IDX 64 76 65 77 74 78 66 79 67 80 73 81 75 82 68 83 69 84 70 85
REMARK SMILES IDX 71 86 72 87 48 88 49 89 58 90 50 91 51 92 57 93 59 94 52 95
REMARK SMILES IDX 53 96 54 97 55 98 56 99
REMARK H PARENT 13 7 18 30 80 49 46 60
REMARK Flexibility Score: inf
ROOT
ATOM      1  C   UNL A   1      39.964  21.981  26.520  1.00  0.00     0.023 C 
ENDROOT
BRANCH   1   2
ATOM      2  C   UNL A   1      39.067  23.206  26.729  1.00  0.00     0.023 C 
BRANCH   2   3
ATOM      3  C   UNL A   1      37.727  23.329  26.013  1.00  0.00     0.116 C 
BRANCH   3   4
ATOM      4  N   UNL A   1      37.642  23.099  24.582  1.00  0.00    -0.352 N 
ATOM      5  C   UNL A   1      36.541  23.117  23.728  1.00  0.00     0.252 C 
ATOM      6  O   UNL A   1      36.761  22.965  22.526  1.00  0.00    -0.269 OA
ATOM      7  H   UNL A   1      38.501  22.896  24.145  1.00  0.00     0.163 HD
BRANCH   5   8
ATOM      8  C   UNL A   1      35.108  23.182  24.185  1.00  0.00     0.051 A 
ATOM      9  C   UNL A   1      33.168  24.582  24.428  1.00  0.00     0.072 A 
ATOM     10  C   UNL A   1      34.536  24.464  24.221  1.00  0.00     0.043 A 
ATOM     11  N   UNL A   1      32.356  23.500  24.456  1.00  0.00    -0.248 NA
ATOM     12  C   UNL A   1      32.907  22.280  24.482  1.00  0.00     0.072 A 
ATOM     13  C   UNL A   1      34.295  22.072  24.496  1.00  0.00     0.013 A 
ATOM     14  C   UNL A   1      32.069  21.173  24.465  1.00  0.00     0.029 A 
ATOM     15  C   UNL A   1      34.770  20.773  24.779  1.00  0.00     0.014 A 
ATOM     16  C   UNL A   1      32.572  19.870  24.487  1.00  0.00     0.005 A 
ATOM     17  C   UNL A   1      33.936  19.660  24.667  1.00  0.00    -0.050 A 
ATOM     18  C   UNL A   1      34.534  18.290  24.560  1.00  0.00     0.044 C 
BRANCH   9  19
ATOM     19  C   UNL A   1      32.499  25.874  24.669  1.00  0.00     0.003 A 
ATOM     20  C   UNL A   1      31.673  28.152  27.642  1.00  0.00     0.044 C 
ATOM     21  C   UNL A   1      31.779  27.618  26.245  1.00  0.00    -0.050 A 
ATOM     22  C   UNL A   1      31.239  28.350  25.186  1.00  0.00     0.004 A 
ATOM     23  C   UNL A   1      32.407  26.391  25.978  1.00  0.00     0.014 A 
ATOM     24  C   UNL A   1      31.319  27.862  23.885  1.00  0.00     0.004 A 
ATOM     25  C   UNL A   1      31.935  26.628  23.611  1.00  0.00    -0.042 A 
ATOM     26  C   UNL A   1      31.955  26.179  22.171  1.00  0.00     0.045 C 
ENDBRANCH   9  19
ENDBRANCH   5   8
ENDBRANCH   3   4
ENDBRANCH   2   3
ENDBRANCH   1   2
BRANCH   1  27
ATOM     27  C   UNL A   1      41.322  21.919  27.219  1.00  0.00     0.116 C 
BRANCH  27  28
ATOM     28  N   UNL A   1      42.502  22.105  26.355  1.00  0.00    -0.352 N 
ATOM     29  C   UNL A   1      42.916  23.238  25.655  1.00  0.00     0.251 C 
ATOM     30  H   UNL A   1      43.082  21.315  26.259  1.00  0.00     0.163 HD
ATOM     31  O   UNL A   1      43.611  23.106  24.637  1.00  0.00    -0.269 OA
BRANCH  29  32
ATOM     32  C   UNL A   1      42.552  24.593  26.123  1.00  0.00     0.039 A 
ATOM     33  C   UNL A   1      41.649  25.458  25.495  1.00  0.00     0.014 A 
ATOM     34  C   UNL A   1      43.159  25.018  27.284  1.00  0.00     0.014 A 
ATOM     35  C   UNL A   1      41.419  26.715  26.073  1.00  0.00     0.010 A 
ATOM     36  C   UNL A   1      42.555  25.967  28.038  1.00  0.00     0.010 A 
ATOM     37  C   UNL A   1      41.917  26.968  27.358  1.00  0.00    -0.014 A 
BRANCH  37  38
ATOM     38  C   UNL A   1      41.678  28.175  28.132  1.00  0.00     0.031 A 
ATOM     39  C   UNL A   1      42.724  29.184  27.897  1.00  0.00     0.074 A 
ATOM     40  C   UNL A   1      40.509  28.487  28.744  1.00  0.00     0.049 A 
ATOM     41  N   UNL A   1      43.774  29.382  28.617  1.00  0.00    -0.248 NA
ATOM     42  C   UNL A   1      42.760  29.855  26.586  1.00  0.00     0.031 C 
ATOM     43  C   UNL A   1      39.227  27.767  28.715  1.00  0.00     0.029 A 
ATOM     44  N   UNL A   1      40.200  29.592  29.480  1.00  0.00    -0.354 N 
ATOM     45  C   UNL A   1      44.429  30.436  28.001  1.00  0.00     0.074 A 
ATOM     46  C   UNL A   1      43.957  30.445  26.644  1.00  0.00     0.031 C 
ATOM     47  C   UNL A   1      38.249  28.549  29.236  1.00  0.00     0.029 A 
ATOM     48  C   UNL A   1      38.845  29.761  29.769  1.00  0.00     0.049 A 
ATOM     49  H   UNL A   1      40.886  30.228  29.787  1.00  0.00     0.167 HD
ATOM     50  C   UNL A   1      45.027  31.406  28.748  1.00  0.00     0.037 A 
ATOM     51  C   UNL A   1      38.274  30.836  30.383  1.00  0.00     0.037 A 
ATOM     52  C   UNL A   1      45.101  30.996  30.136  1.00  0.00     0.049 A 
ATOM     53  C   UNL A   1      39.366  31.548  31.102  1.00  0.00     0.074 A 
ATOM     54  C   UNL A   1      45.621  29.899  30.799  1.00  0.00     0.029 A 
ATOM     55  N   UNL A   1      44.203  31.570  31.006  1.00  0.00    -0.354 N 
ATOM     56  N   UNL A   1      40.009  31.055  32.125  1.00  0.00    -0.248 NA
ATOM     57  C   UNL A   1      40.062  32.607  30.385  1.00  0.00     0.031 C 
ATOM     58  C   UNL A   1      44.675  29.601  31.824  1.00  0.00     0.029 A 
ATOM     59  C   UNL A   1      43.681  30.581  31.801  1.00  0.00     0.049 A 
ATOM     60  H   UNL A   1      43.973  32.526  31.051  1.00  0.00     0.167 HD
ATOM     61  C   UNL A   1      41.334  31.406  31.913  1.00  0.00     0.074 A 
ATOM     62  C   UNL A   1      41.291  32.436  30.877  1.00  0.00     0.031 C 
ATOM     63  C   UNL A   1      42.352  30.621  32.376  1.00  0.00     0.037 A 
BRANCH  50  64
ATOM     64  C   UNL A   1      45.162  32.856  28.335  1.00  0.00     0.058 A 
ATOM     65  C   UNL A   1      46.457  33.410  28.257  1.00  0.00     0.135 A 
ATOM     66  C   UNL A   1      44.103  33.790  28.257  1.00  0.00     0.135 A 
ATOM     67  F   UNL A   1      47.543  32.623  28.316  1.00  0.00    -0.206 F 
ATOM     68  C   UNL A   1      46.683  34.784  28.192  1.00  0.00     0.059 A 
ATOM     69  C   UNL A   1      44.306  35.159  28.134  1.00  0.00     0.059 A 
ATOM     70  F   UNL A   1      42.817  33.450  28.382  1.00  0.00    -0.206 F 
ATOM     71  C   UNL A   1      45.598  35.651  28.142  1.00  0.00     0.060 A 
BRANCH  71  72
ATOM     72  S   UNL A   1      45.884  37.425  28.123  1.00  0.00     0.124 S 
ATOM     73  O   UNL A   1      46.211  37.651  26.719  1.00  0.00    -0.237 OA
ATOM     74  O   UNL A   1      44.596  37.940  28.573  1.00  0.00    -0.237 OA
ATOM     75  O   UNL A   1      46.985  37.596  29.066  1.00  0.00    -0.744 OA
ENDBRANCH  71  72
ENDBRANCH  50  64
BRANCH  51  76
ATOM     76  C   UNL A   1      36.940  31.474  30.166  1.00  0.00     0.058 A 
ATOM     77  C   UNL A   1      36.277  32.153  31.211  1.00  0.00     0.135 A 
ATOM     78  C   UNL A   1      36.436  31.705  28.873  1.00  0.00     0.135 A 
ATOM     79  F   UNL A   1      36.688  32.007  32.480  1.00  0.00    -0.206 F 
ATOM     80  C   UNL A   1      35.232  33.059  30.979  1.00  0.00     0.059 A 
ATOM     81  C   UNL A   1      35.388  32.595  28.617  1.00  0.00     0.059 A 
ATOM     82  F   UNL A   1      37.012  31.145  27.801  1.00  0.00    -0.206 F 
ATOM     83  C   UNL A   1      34.812  33.295  29.671  1.00  0.00     0.060 A 
BRANCH  83  84
ATOM     84  S   UNL A   1      33.612  34.611  29.346  1.00  0.00     0.124 S 
ATOM     85  O   UNL A   1      33.089  34.884  30.681  1.00  0.00    -0.237 OA
ATOM     86  O   UNL A   1      34.447  35.656  28.765  1.00  0.00    -0.237 OA
ATOM     87  O   UNL A   1      32.667  33.990  28.421  1.00  0.00    -0.744 OA
ENDBRANCH  83  84
ENDBRANCH  51  76
BRANCH  63  88
ATOM     88  C   UNL A   1      42.045  29.587  33.433  1.00  0.00     0.058 A 
ATOM     89  C   UNL A   1      41.511  28.307  33.191  1.00  0.00     0.135 A 
ATOM     90  C   UNL A   1      42.460  29.868  34.744  1.00  0.00     0.135 A 
ATOM     91  F   UNL A   1      41.181  27.917  31.953  1.00  0.00    -0.206 F 
ATOM     92  C   UNL A   1      41.365  27.369  34.218  1.00  0.00     0.059 A 
ATOM     93  C   UNL A   1      42.357  28.937  35.772  1.00  0.00     0.059 A 
ATOM     94  F   UNL A   1      43.027  31.052  35.031  1.00  0.00    -0.206 F 
ATOM     95  C   UNL A   1      41.795  27.693  35.505  1.00  0.00     0.060 A 
BRANCH  95  96
ATOM     96  S   UNL A   1      41.674  26.459  36.819  1.00  0.00     0.124 S 
ATOM     97  O   UNL A   1      40.417  26.819  37.465  1.00  0.00    -0.237 OA
ATOM     98  O   UNL A   1      41.668  25.202  36.075  1.00  0.00    -0.237 OA
ATOM     99  O   UNL A   1      42.875  26.691  37.618  1.00  0.00    -0.744 OA
ENDBRANCH  95  96
ENDBRANCH  63  88
ENDBRANCH  37  38
ENDBRANCH  29  32
ENDBRANCH  27  28
ENDBRANCH   1  27
TORSDOF 15
ENDMDL
MODEL 3
REMARK VINA RESULT:     -13.5      1.498      2.245
REMARK SMILES Cc1ccc(C)c(-c2cc(C(=O)NCCCCNC(=O)c3ccc(-c4c5nc(c(-c6c(F)cc(S(=O)(=O)[O-])cc6F)c6ccc([nH]6)c(-c6c(F)cc(S(=O)(=O)[O-])cc6F)c6nc(c(-c7c(F)cc(S(=O)(=O)[O-])cc7F)c7ccc4[nH]7)C=C6)C=C5)cc3)c3cc(C)ccc3n2)c1
REMARK SMILES IDX 16 1 15 2 14 3 13 4 11 5 12 6 10 8 8 9 9 10 94 11 93 12
REMARK SMILES IDX 87 13 92 14 88 15 91 16 89 17 90 18 7 19 1 20 2 21 3 22
REMARK SMILES IDX 95 23 4 24 5 25 6 26 17 27 18 28 19 29 20 31 21 32 22 33
REMARK SMILES IDX 86 34 23 35 85 36 24 37 25 38 26 39 79 40 27 41 84 42 78 43
REMARK SMILES IDX 80 44 28 45 83 46 77 47 76 48 29 50 63 51 42 52 62 53 43 54
REMARK SMILES IDX 46 55 61 56 81 57 44 58 45 59 60 61 82 62 47 63 30 64 31 65
REMARK SMILES IDX 40 66 32 67 33 68 39 69 41 70 34 71 35 72 36 73 37 74 38 75
REMARK SMILES IDX 64 76 65 77 74 78 66 79 67 80 73 81 75 82 68 83 69 84 70 85
REMARK SMILES IDX 71 86 72 87 48 88 49 89 58 90 50 91 51 92 57 93 59 94 52 95
REMARK SMILES IDX 53 96 54 97 55 98 56 99
REMARK H PARENT 13 7 18 30 80 49 46 60
REMARK Flexibility Score: inf
ROOT
ATOM      1  C   UNL A   1      39.646  20.962  25.940  1.00  0.00     0.023 C 
ENDROOT
BRANCH   1   2
ATOM      2  C   UNL A   1      39.016  22.251  26.480  1.00  0.00     0.023 C 
BRANCH   2   3
ATOM      3  C   UNL A   1      37.778  22.854  25.825  1.00  0.00     0.116 C 
BRANCH   3   4
ATOM      4  N   UNL A   1      37.633  22.829  24.380  1.00  0.00    -0.352 N 
ATOM      5  C   UNL A   1      36.506  23.013  23.582  1.00  0.00     0.252 C 
ATOM      6  O   UNL A   1      36.677  23.021  22.363  1.00  0.00    -0.269 OA
ATOM      7  H   UNL A   1      38.466  22.653  23.885  1.00  0.00     0.163 HD
BRANCH   5   8
ATOM      8  C   UNL A   1      35.094  23.073  24.101  1.00  0.00     0.051 A 
ATOM      9  C   UNL A   1      33.156  24.463  24.412  1.00  0.00     0.072 A 
ATOM     10  C   UNL A   1      34.513  24.351  24.146  1.00  0.00     0.043 A 
ATOM     11  N   UNL A   1      32.354  23.375  24.490  1.00  0.00    -0.248 NA
ATOM     12  C   UNL A   1      32.915  22.159  24.508  1.00  0.00     0.072 A 
ATOM     13  C   UNL A   1      34.305  21.962  24.463  1.00  0.00     0.013 A 
ATOM     14  C   UNL A   1      32.087  21.047  24.544  1.00  0.00     0.029 A 
ATOM     15  C   UNL A   1      34.801  20.671  24.742  1.00  0.00     0.014 A 
ATOM     16  C   UNL A   1      32.600  19.748  24.561  1.00  0.00     0.005 A 
ATOM     17  C   UNL A   1      33.972  19.550  24.683  1.00  0.00    -0.050 A 
ATOM     18  C   UNL A   1      34.576  18.183  24.567  1.00  0.00     0.044 C 
BRANCH   9  19
ATOM     19  C   UNL A   1      32.488  25.753  24.664  1.00  0.00     0.003 A 
ATOM     20  C   UNL A   1      31.763  28.059  27.643  1.00  0.00     0.044 C 
ATOM     21  C   UNL A   1      31.818  27.510  26.248  1.00  0.00    -0.050 A 
ATOM     22  C   UNL A   1      31.232  28.226  25.204  1.00  0.00     0.004 A 
ATOM     23  C   UNL A   1      32.443  26.283  25.971  1.00  0.00     0.014 A 
ATOM     24  C   UNL A   1      31.264  27.725  23.906  1.00  0.00     0.004 A 
ATOM     25  C   UNL A   1      31.877  26.491  23.621  1.00  0.00    -0.042 A 
ATOM     26  C   UNL A   1      31.843  26.027  22.187  1.00  0.00     0.045 C 
ENDBRANCH   9  19
ENDBRANCH   5   8
ENDBRANCH   3   4
ENDBRANCH   2   3
ENDBRANCH   1   2
BRANCH   1  27
ATOM     27  C   UNL A   1      40.769  20.291  26.729  1.00  0.00     0.116 C 
BRANCH  27  28
ATOM     28  N   UNL A   1      42.110  20.345  26.117  1.00  0.00    -0.352 N 
ATOM     29  C   UNL A   1      42.931  21.448  25.884  1.00  0.00     0.251 C 
ATOM     30  H   UNL A   1      42.477  19.478  25.832  1.00  0.00     0.163 HD
ATOM     31  O   UNL A   1      43.765  21.405  24.967  1.00  0.00    -0.269 OA
BRANCH  29  32
ATOM     32  C   UNL A   1      42.835  22.657  26.731  1.00  0.00     0.039 A 
ATOM     33  C   UNL A   1      43.381  22.801  28.011  1.00  0.00     0.014 A 
ATOM     34  C   UNL A   1      42.153  23.724  26.189  1.00  0.00     0.014 A 
ATOM     35  C   UNL A   1      43.194  24.020  28.681  1.00  0.00     0.010 A 
ATOM     36  C   UNL A   1      42.426  24.976  26.629  1.00  0.00     0.010 A 
ATOM     37  C   UNL A   1      42.675  25.109  27.967  1.00  0.00    -0.014 A 
BRANCH  37  38
ATOM     38  C   UNL A   1      42.519  26.459  28.486  1.00  0.00     0.031 A 
ATOM     39  C   UNL A   1      43.575  27.355  27.987  1.00  0.00     0.074 A 
ATOM     40  C   UNL A   1      41.401  26.935  29.084  1.00  0.00     0.049 A 
ATOM     41  N   UNL A   1      44.674  27.655  28.589  1.00  0.00    -0.248 NA
ATOM     42  C   UNL A   1      43.545  27.740  26.564  1.00  0.00     0.031 C 
ATOM     43  C   UNL A   1      40.101  26.277  29.279  1.00  0.00     0.029 A 
ATOM     44  N   UNL A   1      41.169  28.180  29.591  1.00  0.00    -0.354 N 
ATOM     45  C   UNL A   1      45.317  28.532  27.730  1.00  0.00     0.074 A 
ATOM     46  C   UNL A   1      44.759  28.281  26.431  1.00  0.00     0.031 C 
ATOM     47  C   UNL A   1      39.180  27.187  29.681  1.00  0.00     0.029 A 
ATOM     48  C   UNL A   1      39.842  28.459  29.916  1.00  0.00     0.049 A 
ATOM     49  H   UNL A   1      41.891  28.837  29.719  1.00  0.00     0.167 HD
ATOM     50  C   UNL A   1      45.987  29.611  28.224  1.00  0.00     0.037 A 
ATOM     51  C   UNL A   1      39.340  29.659  30.324  1.00  0.00     0.037 A 
ATOM     52  C   UNL A   1      46.139  29.493  29.660  1.00  0.00     0.049 A 
ATOM     53  C   UNL A   1      40.495  30.459  30.816  1.00  0.00     0.074 A 
ATOM     54  C   UNL A   1      46.670  28.536  30.506  1.00  0.00     0.029 A 
ATOM     55  N   UNL A   1      45.314  30.269  30.442  1.00  0.00    -0.354 N 
ATOM     56  N   UNL A   1      41.188  30.163  31.881  1.00  0.00    -0.248 NA
ATOM     57  C   UNL A   1      41.172  31.320  29.856  1.00  0.00     0.031 C 
ATOM     58  C   UNL A   1      45.784  28.494  31.623  1.00  0.00     0.029 A 
ATOM     59  C   UNL A   1      44.818  29.487  31.454  1.00  0.00     0.049 A 
ATOM     60  H   UNL A   1      45.115  31.222  30.300  1.00  0.00     0.167 HD
ATOM     61  C   UNL A   1      42.506  30.409  31.525  1.00  0.00     0.074 A 
ATOM     62  C   UNL A   1      42.425  31.205  30.302  1.00  0.00     0.031 C 
ATOM     63  C   UNL A   1      43.530  29.697  32.083  1.00  0.00     0.037 A 
BRANCH  50  64
ATOM     64  C   UNL A   1      46.135  30.938  27.512  1.00  0.00     0.058 A 
ATOM     65  C   UNL A   1      47.436  31.434  27.286  1.00  0.00     0.135 A 
ATOM     66  C   UNL A   1      45.091  31.859  27.266  1.00  0.00     0.135 A 
ATOM     67  F   UNL A   1      48.510  30.652  27.482  1.00  0.00    -0.206 F 
ATOM     68  C   UNL A   1      47.685  32.757  26.927  1.00  0.00     0.059 A 
ATOM     69  C   UNL A   1      45.314  33.167  26.852  1.00  0.00     0.059 A 
ATOM     70  F   UNL A   1      43.803  31.582  27.492  1.00  0.00    -0.206 F 
ATOM     71  C   UNL A   1      46.614  33.619  26.723  1.00  0.00     0.060 A 
BRANCH  71  72
ATOM     72  S   UNL A   1      46.929  35.343  26.324  1.00  0.00     0.124 S 
ATOM     73  O   UNL A   1      45.627  35.766  25.820  1.00  0.00    -0.237 OA
ATOM     74  O   UNL A   1      47.323  35.883  27.620  1.00  0.00    -0.237 OA
ATOM     75  O   UNL A   1      47.998  35.266  25.332  1.00  0.00    -0.744 OA
ENDBRANCH  71  72
ENDBRANCH  50  64
BRANCH  51  76
ATOM     76  C   UNL A   1      38.013  30.292  30.056  1.00  0.00     0.058 A 
ATOM     77  C   UNL A   1      37.264  30.885  31.094  1.00  0.00     0.135 A 
ATOM     78  C   UNL A   1      37.598  30.606  28.748  1.00  0.00     0.135 A 
ATOM     79  F   UNL A   1      37.585  30.656  32.377  1.00  0.00    -0.206 F 
ATOM     80  C   UNL A   1      36.220  31.790  30.850  1.00  0.00     0.059 A 
ATOM     81  C   UNL A   1      36.554  31.497  28.479  1.00  0.00     0.059 A 
ATOM     82  F   UNL A   1      38.261  30.132  27.685  1.00  0.00    -0.206 F 
ATOM     83  C   UNL A   1      35.891  32.112  29.535  1.00  0.00     0.060 A 
BRANCH  83  84
ATOM     84  S   UNL A   1      34.691  33.431  29.216  1.00  0.00     0.124 S 
ATOM     85  O   UNL A   1      34.060  33.592  30.522  1.00  0.00    -0.237 OA
ATOM     86  O   UNL A   1      35.547  34.530  28.783  1.00  0.00    -0.237 OA
ATOM     87  O   UNL A   1      33.835  32.867  28.175  1.00  0.00    -0.744 OA
ENDBRANCH  83  84
ENDBRANCH  51  76
BRANCH  63  88
ATOM     88  C   UNL A   1      43.263  28.915  33.347  1.00  0.00     0.058 A 
ATOM     89  C   UNL A   1      43.196  29.457  34.643  1.00  0.00     0.135 A 
ATOM     90  C   UNL A   1      42.911  27.564  33.202  1.00  0.00     0.135 A 
ATOM     91  F   UNL A   1      43.418  30.761  34.862  1.00  0.00    -0.206 F 
ATOM     92  C   UNL A   1      42.830  28.678  35.746  1.00  0.00     0.059 A 
ATOM     93  C   UNL A   1      42.511  26.780  34.278  1.00  0.00     0.059 A 
ATOM     94  F   UNL A   1      42.903  26.998  31.982  1.00  0.00    -0.206 F 
ATOM     95  C   UNL A   1      42.486  27.340  35.551  1.00  0.00     0.060 A 
BRANCH  95  96
ATOM     96  S   UNL A   1      41.944  26.348  36.961  1.00  0.00     0.124 S 
ATOM     97  O   UNL A   1      40.690  26.995  37.328  1.00  0.00    -0.237 OA
ATOM     98  O   UNL A   1      41.825  25.012  36.383  1.00  0.00    -0.237 OA
ATOM     99  O   UNL A   1      43.031  26.503  37.925  1.00  0.00    -0.744 OA
ENDBRANCH  95  96
ENDBRANCH  63  88
ENDBRANCH  37  38
ENDBRANCH  29  32
ENDBRANCH  27  28
ENDBRANCH   1  27
TORSDOF 15
ENDMDL
