MODEL 1
REMARK VINA RESULT:     -13.7      0.000      0.000
REMARK SMILES Cc1ccccc1OCc1nc2cc(C(=O)NCCCCNC(=O)c3ccc(-c4c5nc(c(-c6c(F)cc(S(=O)(=O)[O-])cc6F)c6ccc([nH]6)c(-c6c(F)cc(S(=O)(=O)[O-])cc6F)c6nc(c(-c7c(F)cc(S(=O)(=O)[O-])cc7F)c7ccc4[nH]7)C=C6)C=C5)cc3)ccc2n1C[C@H](C)O
REMARK SMILES IDX 19 1 18 2 17 3 15 4 16 5 14 7 10 8 11 9 94 10 12 11 93 12
REMARK SMILES IDX 13 13 92 14 91 15 9 16 8 17 7 18 1 19 2 20 3 21 4 22 6 23
REMARK SMILES IDX 5 24 95 25 96 26 97 27 98 28 20 30 21 31 22 32 23 33 24 35
REMARK SMILES IDX 25 36 26 37 90 38 27 39 89 40 28 41 29 42 30 43 83 44 31 45
REMARK SMILES IDX 88 46 82 47 84 48 32 49 87 50 81 51 80 52 33 54 67 55 46 56
REMARK SMILES IDX 66 57 47 58 50 59 65 60 85 61 48 62 49 63 64 65 86 66 51 67
REMARK SMILES IDX 34 68 35 69 44 70 36 71 37 72 43 73 45 74 38 75 39 76 40 77
REMARK SMILES IDX 41 78 42 79 68 80 69 81 78 82 70 83 71 84 77 85 79 86 72 87
REMARK SMILES IDX 73 88 74 89 75 90 76 91 52 92 53 93 62 94 54 95 55 96 61 97
REMARK SMILES IDX 63 98 56 99 57 100 58 101 59 102 60 103
REMARK H PARENT 17 6 98 29 22 34 84 53 50 64
REMARK Flexibility Score: inf
ROOT
ATOM      1  C   UNL A   1      36.407  21.403  25.757  1.00  0.00     0.023 C 
ENDROOT
BRANCH   1   2
ATOM      2  C   UNL A   1      35.270  21.035  24.796  1.00  0.00     0.116 C 
BRANCH   2   3
ATOM      3  N   UNL A   1      34.785  19.668  25.014  1.00  0.00    -0.352 N 
ATOM      4  C   UNL A   1      33.482  19.211  24.951  1.00  0.00     0.251 C 
ATOM      5  O   UNL A   1      33.175  18.050  25.181  1.00  0.00    -0.269 OA
ATOM      6  H   UNL A   1      35.469  18.996  25.230  1.00  0.00     0.163 HD
BRANCH   4   7
ATOM      7  C   UNL A   1      32.481  20.187  24.490  1.00  0.00     0.042 A 
ATOM      8  C   UNL A   1      31.254  24.460  24.490  1.00  0.00     0.148 A 
ATOM      9  N   UNL A   1      31.247  23.557  25.463  1.00  0.00    -0.229 NA
ATOM     10  N   UNL A   1      32.007  23.983  23.443  1.00  0.00    -0.322 N 
ATOM     11  C   UNL A   1      31.691  22.398  24.868  1.00  0.00     0.090 A 
ATOM     12  C   UNL A   1      31.898  22.608  23.509  1.00  0.00     0.068 A 
ATOM     13  C   UNL A   1      32.004  21.145  25.402  1.00  0.00     0.044 A 
ATOM     14  C   UNL A   1      32.147  21.604  22.573  1.00  0.00     0.029 A 
ATOM     15  C   UNL A   1      32.423  20.351  23.101  1.00  0.00     0.016 A 
BRANCH   8  16
ATOM     16  C   UNL A   1      30.337  25.627  24.321  1.00  0.00     0.304 C 
BRANCH  16  17
ATOM     17  O   UNL A   1      31.181  26.787  24.508  1.00  0.00    -0.485 OA
BRANCH  17  18
ATOM     18  C   UNL A   1      30.588  27.982  24.205  1.00  0.00     0.122 A 
ATOM     19  C   UNL A   1      32.285  29.234  25.653  1.00  0.00     0.048 C 
ATOM     20  C   UNL A   1      31.117  29.182  24.713  1.00  0.00    -0.009 A 
ATOM     21  C   UNL A   1      30.501  30.394  24.365  1.00  0.00     0.007 A 
ATOM     22  C   UNL A   1      29.440  30.417  23.462  1.00  0.00     0.001 A 
ATOM     23  C   UNL A   1      29.535  28.008  23.289  1.00  0.00     0.047 A 
ATOM     24  C   UNL A   1      28.969  29.227  22.912  1.00  0.00     0.004 A 
ENDBRANCH  17  18
ENDBRANCH  16  17
ENDBRANCH   8  16
BRANCH  10  25
ATOM     25  C   UNL A   1      33.176  24.609  22.835  1.00  0.00     0.155 C 
BRANCH  25  26
ATOM     26  C   UNL A   1      33.046  25.100  21.394  1.00  0.00     0.131 C 
ATOM     27  C   UNL A   1      31.749  25.880  21.225  1.00  0.00     0.040 C 
BRANCH  26  28
ATOM     28  O   UNL A   1      33.087  23.985  20.506  1.00  0.00    -0.392 OA
ATOM     29  H   UNL A   1      32.568  24.184  19.711  1.00  0.00     0.211 HD
ENDBRANCH  26  28
ENDBRANCH  25  26
ENDBRANCH  10  25
ENDBRANCH   4   7
ENDBRANCH   2   3
ENDBRANCH   1   2
BRANCH   1  30
ATOM     30  C   UNL A   1      36.424  22.888  26.115  1.00  0.00     0.023 C 
BRANCH  30  31
ATOM     31  C   UNL A   1      37.804  23.500  25.902  1.00  0.00     0.116 C 
BRANCH  31  32
ATOM     32  N   UNL A   1      38.808  23.050  26.845  1.00  0.00    -0.352 N 
ATOM     33  C   UNL A   1      39.785  23.810  27.466  1.00  0.00     0.251 C 
ATOM     34  H   UNL A   1      38.794  22.091  27.069  1.00  0.00     0.163 HD
ATOM     35  O   UNL A   1      40.793  23.304  27.926  1.00  0.00    -0.269 OA
BRANCH  33  36
ATOM     36  C   UNL A   1      39.482  25.242  27.700  1.00  0.00     0.039 A 
ATOM     37  C   UNL A   1      40.031  26.165  26.799  1.00  0.00     0.014 A 
ATOM     38  C   UNL A   1      38.906  25.671  28.891  1.00  0.00     0.014 A 
ATOM     39  C   UNL A   1      40.165  27.500  27.174  1.00  0.00     0.010 A 
ATOM     40  C   UNL A   1      39.129  26.969  29.301  1.00  0.00     0.010 A 
ATOM     41  C   UNL A   1      39.795  27.874  28.462  1.00  0.00    -0.014 A 
BRANCH  41  42
ATOM     42  C   UNL A   1      40.072  29.172  29.065  1.00  0.00     0.031 A 
ATOM     43  C   UNL A   1      39.030  30.225  29.033  1.00  0.00     0.074 A 
ATOM     44  C   UNL A   1      41.194  29.346  29.794  1.00  0.00     0.049 A 
ATOM     45  N   UNL A   1      39.189  31.443  29.424  1.00  0.00    -0.248 NA
ATOM     46  C   UNL A   1      37.705  29.977  28.474  1.00  0.00     0.031 C 
ATOM     47  C   UNL A   1      41.424  30.349  30.830  1.00  0.00     0.029 A 
ATOM     48  N   UNL A   1      42.440  28.763  29.607  1.00  0.00    -0.354 N 
ATOM     49  C   UNL A   1      37.956  32.062  29.424  1.00  0.00     0.074 A 
ATOM     50  C   UNL A   1      37.087  31.129  28.751  1.00  0.00     0.031 C 
ATOM     51  C   UNL A   1      42.744  30.468  31.038  1.00  0.00     0.029 A 
ATOM     52  C   UNL A   1      43.413  29.686  30.010  1.00  0.00     0.049 A 
ATOM     53  H   UNL A   1      42.610  27.861  29.253  1.00  0.00     0.167 HD
ATOM     54  C   UNL A   1      37.812  33.239  30.103  1.00  0.00     0.037 A 
ATOM     55  C   UNL A   1      44.316  30.211  29.127  1.00  0.00     0.037 A 
ATOM     56  C   UNL A   1      39.124  33.757  30.506  1.00  0.00     0.049 A 
ATOM     57  C   UNL A   1      44.215  31.713  28.984  1.00  0.00     0.074 A 
ATOM     58  C   UNL A   1      39.830  33.721  31.698  1.00  0.00     0.029 A 
ATOM     59  N   UNL A   1      40.028  34.164  29.527  1.00  0.00    -0.354 N 
ATOM     60  N   UNL A   1      43.151  32.407  29.285  1.00  0.00    -0.248 NA
ATOM     61  C   UNL A   1      45.313  32.551  28.513  1.00  0.00     0.031 C 
ATOM     62  C   UNL A   1      41.185  34.034  31.415  1.00  0.00     0.029 A 
ATOM     63  C   UNL A   1      41.298  34.288  30.057  1.00  0.00     0.049 A 
ATOM     64  H   UNL A   1      39.794  34.339  28.587  1.00  0.00     0.167 HD
ATOM     65  C   UNL A   1      43.384  33.736  29.039  1.00  0.00     0.074 A 
ATOM     66  C   UNL A   1      44.762  33.774  28.581  1.00  0.00     0.031 C 
ATOM     67  C   UNL A   1      42.427  34.693  29.226  1.00  0.00     0.037 A 
BRANCH  54  68
ATOM     68  C   UNL A   1      36.491  33.795  30.636  1.00  0.00     0.058 A 
ATOM     69  C   UNL A   1      35.497  34.262  29.742  1.00  0.00     0.135 A 
ATOM     70  C   UNL A   1      36.164  33.987  31.994  1.00  0.00     0.135 A 
ATOM     71  F   UNL A   1      35.608  34.087  28.419  1.00  0.00    -0.206 F 
ATOM     72  C   UNL A   1      34.344  34.943  30.156  1.00  0.00     0.059 A 
ATOM     73  C   UNL A   1      35.040  34.696  32.432  1.00  0.00     0.059 A 
ATOM     74  F   UNL A   1      36.886  33.460  32.984  1.00  0.00    -0.206 F 
ATOM     75  C   UNL A   1      34.139  35.186  31.506  1.00  0.00     0.060 A 
BRANCH  75  76
ATOM     76  S   UNL A   1      32.693  36.120  32.034  1.00  0.00     0.124 S 
ATOM     77  O   UNL A   1      33.251  36.992  33.063  1.00  0.00    -0.237 OA
ATOM     78  O   UNL A   1      32.281  36.776  30.797  1.00  0.00    -0.237 OA
ATOM     79  O   UNL A   1      31.781  35.090  32.525  1.00  0.00    -0.744 OA
ENDBRANCH  75  76
ENDBRANCH  54  68
BRANCH  55  80
ATOM     80  C   UNL A   1      44.717  29.262  28.048  1.00  0.00     0.058 A 
ATOM     81  C   UNL A   1      45.627  28.244  28.385  1.00  0.00     0.135 A 
ATOM     82  C   UNL A   1      43.885  29.039  26.942  1.00  0.00     0.135 A 
ATOM     83  F   UNL A   1      46.513  28.431  29.374  1.00  0.00    -0.206 F 
ATOM     84  C   UNL A   1      45.551  26.978  27.822  1.00  0.00     0.059 A 
ATOM     85  C   UNL A   1      43.814  27.782  26.337  1.00  0.00     0.059 A 
ATOM     86  F   UNL A   1      43.018  29.983  26.547  1.00  0.00    -0.206 F 
ATOM     87  C   UNL A   1      44.580  26.738  26.856  1.00  0.00     0.060 A 
BRANCH  87  88
ATOM     88  S   UNL A   1      44.209  25.017  26.449  1.00  0.00     0.124 S 
ATOM     89  O   UNL A   1      45.429  24.594  25.770  1.00  0.00    -0.237 OA
ATOM     90  O   UNL A   1      43.995  24.455  27.781  1.00  0.00    -0.237 OA
ATOM     91  O   UNL A   1      43.022  25.124  25.609  1.00  0.00    -0.744 OA
ENDBRANCH  87  88
ENDBRANCH  55  80
BRANCH  67  92
ATOM     92  C   UNL A   1      42.504  36.121  28.729  1.00  0.00     0.058 A 
ATOM     93  C   UNL A   1      43.124  37.166  29.437  1.00  0.00     0.135 A 
ATOM     94  C   UNL A   1      42.071  36.453  27.421  1.00  0.00     0.135 A 
ATOM     95  F   UNL A   1      43.694  36.960  30.632  1.00  0.00    -0.206 F 
ATOM     96  C   UNL A   1      43.234  38.461  28.926  1.00  0.00     0.059 A 
ATOM     97  C   UNL A   1      42.224  37.723  26.868  1.00  0.00     0.059 A 
ATOM     98  F   UNL A   1      41.494  35.542  26.623  1.00  0.00    -0.206 F 
ATOM     99  C   UNL A   1      42.783  38.731  27.640  1.00  0.00     0.060 A 
BRANCH  99 100
ATOM    100  S   UNL A   1      42.990  40.381  26.946  1.00  0.00     0.124 S 
ATOM    101  O   UNL A   1      41.612  40.732  26.616  1.00  0.00    -0.237 OA
ATOM    102  O   UNL A   1      43.582  41.128  28.052  1.00  0.00    -0.237 OA
ATOM    103  O   UNL A   1      43.877  40.154  25.809  1.00  0.00    -0.744 OA
ENDBRANCH  99 100
ENDBRANCH  67  92
ENDBRANCH  41  42
ENDBRANCH  33  36
ENDBRANCH  31  32
ENDBRANCH  30  31
ENDBRANCH   1  30
TORSDOF 20
ENDMDL
MODEL 2
REMARK VINA RESULT:     -13.5      4.571     11.313
REMARK SMILES Cc1ccccc1OCc1nc2cc(C(=O)NCCCCNC(=O)c3ccc(-c4c5nc(c(-c6c(F)cc(S(=O)(=O)[O-])cc6F)c6ccc([nH]6)c(-c6c(F)cc(S(=O)(=O)[O-])cc6F)c6nc(c(-c7c(F)cc(S(=O)(=O)[O-])cc7F)c7ccc4[nH]7)C=C6)C=C5)cc3)ccc2n1C[C@H](C)O
REMARK SMILES IDX 19 1 18 2 17 3 15 4 16 5 14 7 10 8 11 9 94 10 12 11 93 12
REMARK SMILES IDX 13 13 92 14 91 15 9 16 8 17 7 18 1 19 2 20 3 21 4 22 6 23
REMARK SMILES IDX 5 24 95 25 96 26 97 27 98 28 20 30 21 31 22 32 23 33 24 35
REMARK SMILES IDX 25 36 26 37 90 38 27 39 89 40 28 41 29 42 30 43 83 44 31 45
REMARK SMILES IDX 88 46 82 47 84 48 32 49 87 50 81 51 80 52 33 54 67 55 46 56
REMARK SMILES IDX 66 57 47 58 50 59 65 60 85 61 48 62 49 63 64 65 86 66 51 67
REMARK SMILES IDX 34 68 35 69 44 70 36 71 37 72 43 73 45 74 38 75 39 76 40 77
REMARK SMILES IDX 41 78 42 79 68 80 69 81 78 82 70 83 71 84 77 85 79 86 72 87
REMARK SMILES IDX 73 88 74 89 75 90 76 91 52 92 53 93 62 94 54 95 55 96 61 97
REMARK SMILES IDX 63 98 56 99 57 100 58 101 59 102 60 103
REMARK H PARENT 17 6 98 29 22 34 84 53 50 64
REMARK Flexibility Score: inf
ROOT
ATOM      1  C   UNL A   1      32.281  30.051  25.604  1.00  0.00     0.023 C 
ENDROOT
BRANCH   1   2
ATOM      2  C   UNL A   1      31.046  29.251  25.169  1.00  0.00     0.116 C 
BRANCH   2   3
ATOM      3  N   UNL A   1      30.484  29.746  23.908  1.00  0.00    -0.352 N 
ATOM      4  C   UNL A   1      30.635  29.208  22.644  1.00  0.00     0.251 C 
ATOM      5  O   UNL A   1      30.147  29.717  21.645  1.00  0.00    -0.269 OA
ATOM      6  H   UNL A   1      29.933  30.558  23.970  1.00  0.00     0.163 HD
BRANCH   4   7
ATOM      7  C   UNL A   1      31.340  27.918  22.576  1.00  0.00     0.042 A 
ATOM      8  C   UNL A   1      34.215  25.198  24.599  1.00  0.00     0.148 A 
ATOM      9  N   UNL A   1      34.407  26.360  23.988  1.00  0.00    -0.229 NA
ATOM     10  N   UNL A   1      32.868  25.021  24.812  1.00  0.00    -0.322 N 
ATOM     11  C   UNL A   1      33.164  26.715  23.513  1.00  0.00     0.090 A 
ATOM     12  C   UNL A   1      32.242  25.712  23.794  1.00  0.00     0.068 A 
ATOM     13  C   UNL A   1      32.709  27.880  22.891  1.00  0.00     0.044 A 
ATOM     14  C   UNL A   1      30.947  25.650  23.280  1.00  0.00     0.029 A 
ATOM     15  C   UNL A   1      30.506  26.794  22.631  1.00  0.00     0.016 A 
BRANCH   8  16
ATOM     16  C   UNL A   1      35.179  24.063  24.726  1.00  0.00     0.304 C 
BRANCH  16  17
ATOM     17  O   UNL A   1      35.003  23.294  23.514  1.00  0.00    -0.485 OA
BRANCH  17  18
ATOM     18  C   UNL A   1      34.231  22.174  23.653  1.00  0.00     0.122 A 
ATOM     19  C   UNL A   1      35.874  21.207  25.359  1.00  0.00     0.048 C 
ATOM     20  C   UNL A   1      34.605  21.166  24.560  1.00  0.00    -0.009 A 
ATOM     21  C   UNL A   1      33.780  20.039  24.699  1.00  0.00     0.007 A 
ATOM     22  C   UNL A   1      32.568  19.960  24.017  1.00  0.00     0.001 A 
ATOM     23  C   UNL A   1      33.008  22.100  22.984  1.00  0.00     0.047 A 
ATOM     24  C   UNL A   1      32.174  20.997  23.174  1.00  0.00     0.004 A 
ENDBRANCH  17  18
ENDBRANCH  16  17
ENDBRANCH   8  16
BRANCH  10  25
ATOM     25  C   UNL A   1      32.194  24.801  26.088  1.00  0.00     0.155 C 
BRANCH  25  26
ATOM     26  C   UNL A   1      31.913  23.357  26.499  1.00  0.00     0.131 C 
ATOM     27  C   UNL A   1      30.625  22.871  25.849  1.00  0.00     0.040 C 
BRANCH  26  28
ATOM     28  O   UNL A   1      31.828  23.276  27.920  1.00  0.00    -0.392 OA
ATOM     29  H   UNL A   1      30.910  23.425  28.199  1.00  0.00     0.211 HD
ENDBRANCH  26  28
ENDBRANCH  25  26
ENDBRANCH  10  25
ENDBRANCH   4   7
ENDBRANCH   2   3
ENDBRANCH   1   2
BRANCH   1  30
ATOM     30  C   UNL A   1      32.810  29.628  26.974  1.00  0.00     0.023 C 
BRANCH  30  31
ATOM     31  C   UNL A   1      34.330  29.515  26.977  1.00  0.00     0.116 C 
BRANCH  31  32
ATOM     32  N   UNL A   1      35.019  30.764  27.231  1.00  0.00    -0.352 N 
ATOM     33  C   UNL A   1      36.156  30.960  27.998  1.00  0.00     0.251 C 
ATOM     34  H   UNL A   1      34.635  31.567  26.809  1.00  0.00     0.163 HD
ATOM     35  O   UNL A   1      36.436  32.053  28.459  1.00  0.00    -0.269 OA
BRANCH  33  36
ATOM     36  C   UNL A   1      37.109  29.829  28.099  1.00  0.00     0.039 A 
ATOM     37  C   UNL A   1      37.074  29.069  29.276  1.00  0.00     0.014 A 
ATOM     38  C   UNL A   1      38.156  29.688  27.194  1.00  0.00     0.014 A 
ATOM     39  C   UNL A   1      38.179  28.300  29.635  1.00  0.00     0.010 A 
ATOM     40  C   UNL A   1      39.286  29.007  27.597  1.00  0.00     0.010 A 
ATOM     41  C   UNL A   1      39.316  28.348  28.834  1.00  0.00    -0.014 A 
BRANCH  41  42
ATOM     42  C   UNL A   1      40.609  27.775  29.188  1.00  0.00     0.031 A 
ATOM     43  C   UNL A   1      40.930  26.392  28.763  1.00  0.00     0.074 A 
ATOM     44  C   UNL A   1      41.560  28.557  29.739  1.00  0.00     0.049 A 
ATOM     45  N   UNL A   1      41.983  25.733  29.107  1.00  0.00    -0.248 NA
ATOM     46  C   UNL A   1      40.016  25.609  27.939  1.00  0.00     0.031 C 
ATOM     47  C   UNL A   1      43.002  28.330  29.725  1.00  0.00     0.029 A 
ATOM     48  N   UNL A   1      41.395  29.632  30.601  1.00  0.00    -0.354 N 
ATOM     49  C   UNL A   1      42.028  24.570  28.366  1.00  0.00     0.074 A 
ATOM     50  C   UNL A   1      40.742  24.511  27.716  1.00  0.00     0.031 C 
ATOM     51  C   UNL A   1      43.571  29.077  30.684  1.00  0.00     0.029 A 
ATOM     52  C   UNL A   1      42.494  29.661  31.469  1.00  0.00     0.049 A 
ATOM     53  H   UNL A   1      40.640  30.263  30.603  1.00  0.00     0.167 HD
ATOM     54  C   UNL A   1      43.201  23.871  28.310  1.00  0.00     0.037 A 
ATOM     55  C   UNL A   1      42.351  29.475  32.816  1.00  0.00     0.037 A 
ATOM     56  C   UNL A   1      44.150  24.392  29.300  1.00  0.00     0.049 A 
ATOM     57  C   UNL A   1      43.091  28.263  33.338  1.00  0.00     0.074 A 
ATOM     58  C   UNL A   1      45.229  25.257  29.212  1.00  0.00     0.029 A 
ATOM     59  N   UNL A   1      43.865  24.257  30.656  1.00  0.00    -0.354 N 
ATOM     60  N   UNL A   1      43.454  27.252  32.596  1.00  0.00    -0.248 NA
ATOM     61  C   UNL A   1      43.499  28.109  34.731  1.00  0.00     0.031 C 
ATOM     62  C   UNL A   1      45.541  25.703  30.523  1.00  0.00     0.029 A 
ATOM     63  C   UNL A   1      44.672  25.088  31.410  1.00  0.00     0.049 A 
ATOM     64  H   UNL A   1      43.182  23.652  31.028  1.00  0.00     0.167 HD
ATOM     65  C   UNL A   1      44.100  26.323  33.371  1.00  0.00     0.074 A 
ATOM     66  C   UNL A   1      44.123  26.919  34.694  1.00  0.00     0.031 C 
ATOM     67  C   UNL A   1      44.557  25.139  32.864  1.00  0.00     0.037 A 
BRANCH  54  68
ATOM     68  C   UNL A   1      43.597  22.898  27.198  1.00  0.00     0.058 A 
ATOM     69  C   UNL A   1      42.888  21.686  27.022  1.00  0.00     0.135 A 
ATOM     70  C   UNL A   1      44.704  23.036  26.336  1.00  0.00     0.135 A 
ATOM     71  F   UNL A   1      41.763  21.426  27.702  1.00  0.00    -0.206 F 
ATOM     72  C   UNL A   1      43.299  20.670  26.147  1.00  0.00     0.059 A 
ATOM     73  C   UNL A   1      45.157  22.024  25.482  1.00  0.00     0.059 A 
ATOM     74  F   UNL A   1      45.388  24.176  26.230  1.00  0.00    -0.206 F 
ATOM     75  C   UNL A   1      44.458  20.835  25.403  1.00  0.00     0.060 A 
BRANCH  75  76
ATOM     76  S   UNL A   1      45.025  19.504  24.331  1.00  0.00     0.124 S 
ATOM     77  O   UNL A   1      44.444  18.327  24.970  1.00  0.00    -0.237 OA
ATOM     78  O   UNL A   1      44.451  19.879  23.043  1.00  0.00    -0.237 OA
ATOM     79  O   UNL A   1      46.481  19.596  24.413  1.00  0.00    -0.744 OA
ENDBRANCH  75  76
ENDBRANCH  54  68
BRANCH  55  80
ATOM     80  C   UNL A   1      41.069  30.008  33.361  1.00  0.00     0.058 A 
ATOM     81  C   UNL A   1      40.981  31.396  33.569  1.00  0.00     0.135 A 
ATOM     82  C   UNL A   1      39.867  29.308  33.185  1.00  0.00     0.135 A 
ATOM     83  F   UNL A   1      42.085  32.110  33.834  1.00  0.00    -0.206 F 
ATOM     84  C   UNL A   1      39.799  32.094  33.366  1.00  0.00     0.059 A 
ATOM     85  C   UNL A   1      38.658  29.986  33.011  1.00  0.00     0.059 A 
ATOM     86  F   UNL A   1      39.878  27.978  33.016  1.00  0.00    -0.206 F 
ATOM     87  C   UNL A   1      38.661  31.381  33.004  1.00  0.00     0.060 A 
BRANCH  87  88
ATOM     88  S   UNL A   1      37.265  32.313  32.335  1.00  0.00     0.124 S 
ATOM     89  O   UNL A   1      36.377  31.249  31.881  1.00  0.00    -0.237 OA
ATOM     90  O   UNL A   1      36.824  33.045  33.521  1.00  0.00    -0.237 OA
ATOM     91  O   UNL A   1      37.877  33.118  31.286  1.00  0.00    -0.744 OA
ENDBRANCH  87  88
ENDBRANCH  55  80
BRANCH  67  92
ATOM     92  C   UNL A   1      45.026  23.955  33.683  1.00  0.00     0.058 A 
ATOM     93  C   UNL A   1      44.183  22.913  34.110  1.00  0.00     0.135 A 
ATOM     94  C   UNL A   1      46.406  23.760  33.943  1.00  0.00     0.135 A 
ATOM     95  F   UNL A   1      42.876  22.907  33.818  1.00  0.00    -0.206 F 
ATOM     96  C   UNL A   1      44.656  21.802  34.813  1.00  0.00     0.059 A 
ATOM     97  C   UNL A   1      46.906  22.630  34.589  1.00  0.00     0.059 A 
ATOM     98  F   UNL A   1      47.324  24.658  33.559  1.00  0.00    -0.206 F 
ATOM     99  C   UNL A   1      46.018  21.668  35.047  1.00  0.00     0.060 A 
BRANCH  99 100
ATOM    100  S   UNL A   1      46.642  20.201  35.886  1.00  0.00     0.124 S 
ATOM    101  O   UNL A   1      45.608  19.980  36.892  1.00  0.00    -0.237 OA
ATOM    102  O   UNL A   1      46.699  19.211  34.814  1.00  0.00    -0.237 OA
ATOM    103  O   UNL A   1      47.939  20.635  36.395  1.00  0.00    -0.744 OA
ENDBRANCH  99 100
ENDBRANCH  67  92
ENDBRANCH  41  42
ENDBRANCH  33  36
ENDBRANCH  31  32
ENDBRANCH  30  31
ENDBRANCH   1  30
TORSDOF 20
ENDMDL
MODEL 3
REMARK VINA RESULT:     -12.7      4.514     10.975
REMARK SMILES Cc1ccccc1OCc1nc2cc(C(=O)NCCCCNC(=O)c3ccc(-c4c5nc(c(-c6c(F)cc(S(=O)(=O)[O-])cc6F)c6ccc([nH]6)c(-c6c(F)cc(S(=O)(=O)[O-])cc6F)c6nc(c(-c7c(F)cc(S(=O)(=O)[O-])cc7F)c7ccc4[nH]7)C=C6)C=C5)cc3)ccc2n1C[C@H](C)O
REMARK SMILES IDX 19 1 18 2 17 3 15 4 16 5 14 7 10 8 11 9 94 10 12 11 93 12
REMARK SMILES IDX 13 13 92 14 91 15 9 16 8 17 7 18 1 19 2 20 3 21 4 22 6 23
REMARK SMILES IDX 5 24 95 25 96 26 97 27 98 28 20 30 21 31 22 32 23 33 24 35
REMARK SMILES IDX 25 36 26 37 90 38 27 39 89 40 28 41 29 42 30 43 83 44 31 45
REMARK SMILES IDX 88 46 82 47 84 48 32 49 87 50 81 51 80 52 33 54 67 55 46 56
REMARK SMILES IDX 66 57 47 58 50 59 65 60 85 61 48 62 49 63 64 65 86 66 51 67
REMARK SMILES IDX 34 68 35 69 44 70 36 71 37 72 43 73 45 74 38 75 39 76 40 77
REMARK SMILES IDX 41 78 42 79 68 80 69 81 78 82 70 83 71 84 77 85 79 86 72 87
REMARK SMILES IDX 73 88 74 89 75 90 76 91 52 92 53 93 62 94 54 95 55 96 61 97
REMARK SMILES IDX 63 98 56 99 57 100 58 101 59 102 60 103
REMARK H PARENT 17 6 98 29 22 34 84 53 50 64
REMARK Flexibility Score: inf
ROOT
ATOM      1  C   UNL A   1      31.824  30.497  25.322  1.00  0.00     0.023 C 
ENDROOT
BRANCH   1   2
ATOM      2  C   UNL A   1      30.325  30.648  25.036  1.00  0.00     0.116 C 
BRANCH   2   3
ATOM      3  N   UNL A   1      29.986  30.277  23.658  1.00  0.00    -0.352 N 
ATOM      4  C   UNL A   1      30.332  29.123  22.982  1.00  0.00     0.251 C 
ATOM      5  O   UNL A   1      30.023  28.920  21.816  1.00  0.00    -0.269 OA
ATOM      6  H   UNL A   1      29.445  30.927  23.156  1.00  0.00     0.163 HD
BRANCH   4   7
ATOM      7  C   UNL A   1      31.018  28.092  23.779  1.00  0.00     0.042 A 
ATOM      8  C   UNL A   1      30.721  24.027  25.551  1.00  0.00     0.148 A 
ATOM      9  N   UNL A   1      30.114  25.161  25.879  1.00  0.00    -0.229 NA
ATOM     10  N   UNL A   1      31.305  24.174  24.315  1.00  0.00    -0.322 N 
ATOM     11  C   UNL A   1      30.631  26.098  25.013  1.00  0.00     0.090 A 
ATOM     12  C   UNL A   1      31.605  25.516  24.208  1.00  0.00     0.068 A 
ATOM     13  C   UNL A   1      30.300  27.437  24.794  1.00  0.00     0.044 A 
ATOM     14  C   UNL A   1      32.471  26.218  23.369  1.00  0.00     0.029 A 
ATOM     15  C   UNL A   1      32.164  27.557  23.178  1.00  0.00     0.016 A 
BRANCH   8  16
ATOM     16  C   UNL A   1      31.079  22.889  26.451  1.00  0.00     0.304 C 
BRANCH  16  17
ATOM     17  O   UNL A   1      32.452  23.140  26.832  1.00  0.00    -0.485 OA
BRANCH  17  18
ATOM     18  C   UNL A   1      33.383  22.448  26.108  1.00  0.00     0.122 A 
ATOM     19  C   UNL A   1      34.794  24.563  25.830  1.00  0.00     0.048 C 
ATOM     20  C   UNL A   1      34.540  23.097  25.641  1.00  0.00    -0.009 A 
ATOM     21  C   UNL A   1      35.488  22.355  24.921  1.00  0.00     0.007 A 
ATOM     22  C   UNL A   1      35.332  20.981  24.748  1.00  0.00     0.001 A 
ATOM     23  C   UNL A   1      33.236  21.069  25.948  1.00  0.00     0.047 A 
ATOM     24  C   UNL A   1      34.215  20.337  25.275  1.00  0.00     0.004 A 
ENDBRANCH  17  18
ENDBRANCH  16  17
ENDBRANCH   8  16
BRANCH  10  25
ATOM     25  C   UNL A   1      31.070  23.366  23.123  1.00  0.00     0.155 C 
BRANCH  25  26
ATOM     26  C   UNL A   1      32.121  22.317  22.762  1.00  0.00     0.131 C 
ATOM     27  C   UNL A   1      33.281  22.974  22.027  1.00  0.00     0.040 C 
BRANCH  26  28
ATOM     28  O   UNL A   1      31.521  21.301  21.960  1.00  0.00    -0.392 OA
ATOM     29  H   UNL A   1      31.735  20.429  22.329  1.00  0.00     0.211 HD
ENDBRANCH  26  28
ENDBRANCH  25  26
ENDBRANCH  10  25
ENDBRANCH   4   7
ENDBRANCH   2   3
ENDBRANCH   1   2
BRANCH   1  30
ATOM     30  C   UNL A   1      32.110  29.966  26.725  1.00  0.00     0.023 C 
BRANCH  30  31
ATOM     31  C   UNL A   1      33.607  29.858  26.989  1.00  0.00     0.116 C 
BRANCH  31  32
ATOM     32  N   UNL A   1      34.276  31.131  27.160  1.00  0.00    -0.352 N 
ATOM     33  C   UNL A   1      35.411  31.396  27.909  1.00  0.00     0.251 C 
ATOM     34  H   UNL A   1      33.878  31.899  26.688  1.00  0.00     0.163 HD
ATOM     35  O   UNL A   1      35.673  32.521  28.298  1.00  0.00    -0.269 OA
BRANCH  33  36
ATOM     36  C   UNL A   1      36.383  30.290  28.081  1.00  0.00     0.039 A 
ATOM     37  C   UNL A   1      36.450  29.691  29.346  1.00  0.00     0.014 A 
ATOM     38  C   UNL A   1      37.357  30.033  27.122  1.00  0.00     0.014 A 
ATOM     39  C   UNL A   1      37.589  28.978  29.713  1.00  0.00     0.010 A 
ATOM     40  C   UNL A   1      38.524  29.414  27.519  1.00  0.00     0.010 A 
ATOM     41  C   UNL A   1      38.658  28.923  28.826  1.00  0.00    -0.014 A 
BRANCH  41  42
ATOM     42  C   UNL A   1      39.982  28.404  29.148  1.00  0.00     0.031 A 
ATOM     43  C   UNL A   1      40.310  26.996  28.820  1.00  0.00     0.074 A 
ATOM     44  C   UNL A   1      40.946  29.246  29.575  1.00  0.00     0.049 A 
ATOM     45  N   UNL A   1      41.395  26.387  29.154  1.00  0.00    -0.248 NA
ATOM     46  C   UNL A   1      39.367  26.132  28.119  1.00  0.00     0.031 C 
ATOM     47  C   UNL A   1      42.390  29.044  29.494  1.00  0.00     0.029 A 
ATOM     48  N   UNL A   1      40.808  30.386  30.354  1.00  0.00    -0.354 N 
ATOM     49  C   UNL A   1      41.423  25.167  28.510  1.00  0.00     0.074 A 
ATOM     50  C   UNL A   1      40.103  25.031  27.945  1.00  0.00     0.031 C 
ATOM     51  C   UNL A   1      42.997  29.878  30.353  1.00  0.00     0.029 A 
ATOM     52  C   UNL A   1      41.954  30.506  31.149  1.00  0.00     0.049 A 
ATOM     53  H   UNL A   1      40.040  31.002  30.349  1.00  0.00     0.167 HD
ATOM     54  C   UNL A   1      42.605  24.486  28.442  1.00  0.00     0.037 A 
ATOM     55  C   UNL A   1      41.894  30.431  32.514  1.00  0.00     0.037 A 
ATOM     56  C   UNL A   1      43.598  25.104  29.327  1.00  0.00     0.049 A 
ATOM     57  C   UNL A   1      42.690  29.280  33.088  1.00  0.00     0.074 A 
ATOM     58  C   UNL A   1      44.651  25.978  29.104  1.00  0.00     0.029 A 
ATOM     59  N   UNL A   1      43.396  25.078  30.705  1.00  0.00    -0.354 N 
ATOM     60  N   UNL A   1      43.032  28.217  32.412  1.00  0.00    -0.248 NA
ATOM     61  C   UNL A   1      43.181  29.250  34.462  1.00  0.00     0.031 C 
ATOM     62  C   UNL A   1      45.028  26.537  30.352  1.00  0.00     0.029 A 
ATOM     63  C   UNL A   1      44.226  25.984  31.338  1.00  0.00     0.049 A 
ATOM     64  H   UNL A   1      42.750  24.495  31.165  1.00  0.00     0.167 HD
ATOM     65  C   UNL A   1      43.743  27.367  33.220  1.00  0.00     0.074 A 
ATOM     66  C   UNL A   1      43.829  28.073  34.487  1.00  0.00     0.031 C 
ATOM     67  C   UNL A   1      44.195  26.153  32.786  1.00  0.00     0.037 A 
BRANCH  54  68
ATOM     68  C   UNL A   1      42.958  23.431  27.392  1.00  0.00     0.058 A 
ATOM     69  C   UNL A   1      42.343  22.156  27.424  1.00  0.00     0.135 A 
ATOM     70  C   UNL A   1      43.944  23.557  26.393  1.00  0.00     0.135 A 
ATOM     71  F   UNL A   1      41.330  21.888  28.258  1.00  0.00    -0.206 F 
ATOM     72  C   UNL A   1      42.741  21.086  26.612  1.00  0.00     0.059 A 
ATOM     73  C   UNL A   1      44.386  22.496  25.595  1.00  0.00     0.059 A 
ATOM     74  F   UNL A   1      44.509  24.727  26.092  1.00  0.00    -0.206 F 
ATOM     75  C   UNL A   1      43.790  21.255  25.720  1.00  0.00     0.060 A 
BRANCH  75  76
ATOM     76  S   UNL A   1      44.348  19.862  24.724  1.00  0.00     0.124 S 
ATOM     77  O   UNL A   1      45.547  19.437  25.439  1.00  0.00    -0.237 OA
ATOM     78  O   UNL A   1      43.207  18.955  24.796  1.00  0.00    -0.237 OA
ATOM     79  O   UNL A   1      44.589  20.456  23.411  1.00  0.00    -0.744 OA
ENDBRANCH  75  76
ENDBRANCH  54  68
BRANCH  55  80
ATOM     80  C   UNL A   1      40.634  30.986  33.088  1.00  0.00     0.058 A 
ATOM     81  C   UNL A   1      39.734  30.078  33.673  1.00  0.00     0.135 A 
ATOM     82  C   UNL A   1      40.564  32.321  33.510  1.00  0.00     0.135 A 
ATOM     83  F   UNL A   1      39.687  28.806  33.249  1.00  0.00    -0.206 F 
ATOM     84  C   UNL A   1      38.978  30.411  34.788  1.00  0.00     0.059 A 
ATOM     85  C   UNL A   1      39.786  32.689  34.610  1.00  0.00     0.059 A 
ATOM     86  F   UNL A   1      41.371  33.245  32.968  1.00  0.00    -0.206 F 
ATOM     87  C   UNL A   1      39.079  31.701  35.297  1.00  0.00     0.060 A 
BRANCH  87  88
ATOM     88  S   UNL A   1      38.443  31.998  36.962  1.00  0.00     0.124 S 
ATOM     89  O   UNL A   1      37.696  33.239  36.787  1.00  0.00    -0.237 OA
ATOM     90  O   UNL A   1      37.637  30.797  37.171  1.00  0.00    -0.237 OA
ATOM     91  O   UNL A   1      39.654  32.096  37.767  1.00  0.00    -0.744 OA
ENDBRANCH  87  88
ENDBRANCH  55  80
BRANCH  67  92
ATOM     92  C   UNL A   1      44.738  25.050  33.671  1.00  0.00     0.058 A 
ATOM     93  C   UNL A   1      43.934  24.235  34.488  1.00  0.00     0.135 A 
ATOM     94  C   UNL A   1      46.104  24.681  33.606  1.00  0.00     0.135 A 
ATOM     95  F   UNL A   1      42.605  24.391  34.543  1.00  0.00    -0.206 F 
ATOM     96  C   UNL A   1      44.456  23.184  35.247  1.00  0.00     0.059 A 
ATOM     97  C   UNL A   1      46.634  23.600  34.309  1.00  0.00     0.059 A 
ATOM     98  F   UNL A   1      46.975  25.352  32.838  1.00  0.00    -0.206 F 
ATOM     99  C   UNL A   1      45.806  22.872  35.151  1.00  0.00     0.060 A 
BRANCH  99 100
ATOM    100  S   UNL A   1      46.470  21.472  36.070  1.00  0.00     0.124 S 
ATOM    101  O   UNL A   1      46.157  21.852  37.444  1.00  0.00    -0.237 OA
ATOM    102  O   UNL A   1      45.708  20.344  35.540  1.00  0.00    -0.237 OA
ATOM    103  O   UNL A   1      47.885  21.482  35.714  1.00  0.00    -0.744 OA
ENDBRANCH  99 100
ENDBRANCH  67  92
ENDBRANCH  41  42
ENDBRANCH  33  36
ENDBRANCH  31  32
ENDBRANCH  30  31
ENDBRANCH   1  30
TORSDOF 20
ENDMDL
