MODEL 1
REMARK VINA RESULT:     -13.9      0.000      0.000
REMARK SMILES Cc1cc(NC(=O)c2ccc(Br)cc2N)ccc1C(=O)NCCCCNC(=O)c1ccc(-c2c3nc(c(-c4c(F)cc(S(=O)(=O)[O-])cc4F)c4ccc([nH]4)c(-c4c(F)cc(S(=O)(=O)[O-])cc4F)c4nc(c(-c5c(F)cc(S(=O)(=O)[O-])cc5F)c5ccc2[nH]5)C=C4)C=C3)cc1
REMARK SMILES IDX 23 1 22 2 21 3 19 4 20 5 18 7 1 8 2 9 3 10 4 11 17 12 16 13
REMARK SMILES IDX 5 14 6 15 7 17 8 18 9 19 14 20 10 21 13 22 11 23 12 24 15 25
REMARK SMILES IDX 24 28 25 29 26 30 27 31 28 33 29 34 30 35 94 36 31 37 93 38
REMARK SMILES IDX 32 39 33 40 34 41 87 42 35 43 92 44 86 45 88 46 36 47 91 48
REMARK SMILES IDX 85 49 84 50 37 52 71 53 50 54 70 55 51 56 54 57 69 58 89 59
REMARK SMILES IDX 52 60 53 61 68 63 90 64 55 65 38 66 39 67 48 68 40 69 41 70
REMARK SMILES IDX 47 71 49 72 42 73 43 74 44 75 45 76 46 77 72 78 73 79 82 80
REMARK SMILES IDX 74 81 75 82 81 83 83 84 76 85 77 86 78 87 79 88 80 89 56 90
REMARK SMILES IDX 57 91 66 92 58 93 59 94 65 95 67 96 60 97 61 98 62 99 63 100
REMARK SMILES IDX 64 101
REMARK H PARENT 21 6 5 16 15 26 15 27 26 32 88 51 54 62
REMARK Flexibility Score: inf
ROOT
ATOM      1  C   UNL A   1      33.068  29.883  25.671  1.00  0.00     0.023 C 
ENDROOT
BRANCH   1   2
ATOM      2  C   UNL A   1      32.921  29.383  24.225  1.00  0.00     0.116 C 
BRANCH   2   3
ATOM      3  N   UNL A   1      31.521  29.340  23.852  1.00  0.00    -0.352 N 
ATOM      4  C   UNL A   1      30.552  28.376  23.825  1.00  0.00     0.251 C 
ATOM      5  O   UNL A   1      29.473  28.740  23.341  1.00  0.00    -0.269 OA
ATOM      6  H   UNL A   1      31.187  30.214  23.544  1.00  0.00     0.163 HD
BRANCH   4   7
ATOM      7  C   UNL A   1      30.621  26.981  24.388  1.00  0.00     0.042 A 
ATOM      8  C   UNL A   1      31.108  27.341  26.926  1.00  0.00     0.045 C 
ATOM      9  C   UNL A   1      30.831  26.524  25.704  1.00  0.00    -0.036 A 
ATOM     10  C   UNL A   1      30.863  25.134  25.949  1.00  0.00     0.030 A 
ATOM     11  C   UNL A   1      30.737  24.187  24.940  1.00  0.00     0.041 A 
ATOM     12  C   UNL A   1      30.565  25.990  23.370  1.00  0.00     0.016 A 
ATOM     13  C   UNL A   1      30.658  24.618  23.629  1.00  0.00     0.027 A 
BRANCH  11  14
ATOM     14  N   UNL A   1      30.682  22.815  25.218  1.00  0.00    -0.322 N 
ATOM     15  C   UNL A   1      31.726  21.906  25.258  1.00  0.00     0.257 C 
ATOM     16  H   UNL A   1      29.789  22.450  25.410  1.00  0.00     0.170 HD
ATOM     17  O   UNL A   1      31.491  20.701  25.162  1.00  0.00    -0.269 OA
BRANCH  15  18
ATOM     18  C   UNL A   1      33.130  22.356  25.491  1.00  0.00     0.063 A 
ATOM     19  C   UNL A   1      33.856  22.755  24.355  1.00  0.00     0.017 A 
ATOM     20  C   UNL A   1      33.739  22.373  26.768  1.00  0.00     0.045 A 
ATOM     21  C   UNL A   1      35.187  23.155  24.472  1.00  0.00     0.016 A 
ATOM     22  C   UNL A   1      35.085  22.759  26.858  1.00  0.00     0.042 A 
ATOM     23  C   UNL A   1      35.798  23.141  25.721  1.00  0.00     0.020 A 
ATOM     24  Br  UNL A   1      37.632  23.567  25.864  1.00  0.00    -0.051 Br
BRANCH  20  25
ATOM     25  N   UNL A   1      33.137  21.863  27.920  1.00  0.00    -0.398 N 
ATOM     26  H   UNL A   1      32.248  22.184  28.193  1.00  0.00     0.156 HD
ATOM     27  H   UNL A   1      33.603  21.183  28.458  1.00  0.00     0.156 HD
ENDBRANCH  20  25
ENDBRANCH  15  18
ENDBRANCH  11  14
ENDBRANCH   4   7
ENDBRANCH   2   3
ENDBRANCH   1   2
BRANCH   1  28
ATOM     28  C   UNL A   1      34.251  29.317  26.445  1.00  0.00     0.023 C 
BRANCH  28  29
ATOM     29  C   UNL A   1      34.372  29.921  27.830  1.00  0.00     0.116 C 
BRANCH  29  30
ATOM     30  N   UNL A   1      35.243  31.086  27.908  1.00  0.00    -0.352 N 
ATOM     31  C   UNL A   1      36.572  31.118  28.301  1.00  0.00     0.251 C 
ATOM     32  H   UNL A   1      34.842  31.949  27.651  1.00  0.00     0.163 HD
ATOM     33  O   UNL A   1      37.151  32.171  28.542  1.00  0.00    -0.269 OA
BRANCH  31  34
ATOM     34  C   UNL A   1      37.300  29.830  28.317  1.00  0.00     0.039 A 
ATOM     35  C   UNL A   1      37.355  29.136  29.530  1.00  0.00     0.014 A 
ATOM     36  C   UNL A   1      38.179  29.532  27.282  1.00  0.00     0.014 A 
ATOM     37  C   UNL A   1      38.438  28.302  29.789  1.00  0.00     0.010 A 
ATOM     38  C   UNL A   1      39.318  28.819  27.589  1.00  0.00     0.010 A 
ATOM     39  C   UNL A   1      39.472  28.241  28.859  1.00  0.00    -0.014 A 
BRANCH  39  40
ATOM     40  C   UNL A   1      40.787  27.666  29.128  1.00  0.00     0.031 A 
ATOM     41  C   UNL A   1      41.060  26.262  28.743  1.00  0.00     0.074 A 
ATOM     42  C   UNL A   1      41.786  28.451  29.588  1.00  0.00     0.049 A 
ATOM     43  N   UNL A   1      42.091  25.579  29.108  1.00  0.00    -0.248 NA
ATOM     44  C   UNL A   1      40.121  25.483  27.945  1.00  0.00     0.031 C 
ATOM     45  C   UNL A   1      43.219  28.177  29.533  1.00  0.00     0.029 A 
ATOM     46  N   UNL A   1      41.686  29.588  30.387  1.00  0.00    -0.354 N 
ATOM     47  C   UNL A   1      42.110  24.409  28.378  1.00  0.00     0.074 A 
ATOM     48  C   UNL A   1      40.816  24.363  27.745  1.00  0.00     0.031 C 
ATOM     49  C   UNL A   1      43.848  28.954  30.428  1.00  0.00     0.029 A 
ATOM     50  C   UNL A   1      42.827  29.632  31.207  1.00  0.00     0.049 A 
ATOM     51  H   UNL A   1      40.950  30.242  30.379  1.00  0.00     0.167 HD
ATOM     52  C   UNL A   1      43.276  23.703  28.298  1.00  0.00     0.037 A 
ATOM     53  C   UNL A   1      42.714  29.535  32.566  1.00  0.00     0.037 A 
ATOM     54  C   UNL A   1      44.246  24.215  29.275  1.00  0.00     0.049 A 
ATOM     55  C   UNL A   1      43.353  28.298  33.156  1.00  0.00     0.074 A 
ATOM     56  C   UNL A   1      45.344  25.052  29.172  1.00  0.00     0.029 A 
ATOM     57  N   UNL A   1      43.960  24.115  30.635  1.00  0.00    -0.354 N 
ATOM     58  N   UNL A   1      43.729  27.265  32.452  1.00  0.00    -0.248 NA
ATOM     59  C   UNL A   1      43.612  28.118  34.582  1.00  0.00     0.031 C 
ATOM     60  C   UNL A   1      45.653  25.534  30.470  1.00  0.00     0.029 A 
ATOM     61  C   UNL A   1      44.767  24.966  31.369  1.00  0.00     0.049 A 
ATOM     62  H   UNL A   1      43.277  23.520  31.021  1.00  0.00     0.167 HD
ATOM     63  C   UNL A   1      44.217  26.291  33.283  1.00  0.00     0.074 A 
ATOM     64  C   UNL A   1      44.154  26.887  34.605  1.00  0.00     0.031 C 
ATOM     65  C   UNL A   1      44.619  25.071  32.815  1.00  0.00     0.037 A 
BRANCH  52  66
ATOM     66  C   UNL A   1      43.648  22.764  27.151  1.00  0.00     0.058 A 
ATOM     67  C   UNL A   1      42.933  21.558  26.953  1.00  0.00     0.135 A 
ATOM     68  C   UNL A   1      44.749  22.915  26.281  1.00  0.00     0.135 A 
ATOM     69  F   UNL A   1      41.802  21.297  27.623  1.00  0.00    -0.206 F 
ATOM     70  C   UNL A   1      43.343  20.554  26.065  1.00  0.00     0.059 A 
ATOM     71  C   UNL A   1      45.200  21.915  25.413  1.00  0.00     0.059 A 
ATOM     72  F   UNL A   1      45.427  24.058  26.180  1.00  0.00    -0.206 F 
ATOM     73  C   UNL A   1      44.503  20.726  25.324  1.00  0.00     0.060 A 
BRANCH  73  74
ATOM     74  S   UNL A   1      45.075  19.405  24.243  1.00  0.00     0.124 S 
ATOM     75  O   UNL A   1      46.523  19.577  24.290  1.00  0.00    -0.237 OA
ATOM     76  O   UNL A   1      44.552  18.216  24.909  1.00  0.00    -0.237 OA
ATOM     77  O   UNL A   1      44.455  19.721  22.959  1.00  0.00    -0.744 OA
ENDBRANCH  73  74
ENDBRANCH  52  66
BRANCH  53  78
ATOM     78  C   UNL A   1      41.516  30.245  33.098  1.00  0.00     0.058 A 
ATOM     79  C   UNL A   1      41.603  31.646  33.190  1.00  0.00     0.135 A 
ATOM     80  C   UNL A   1      40.236  29.678  33.030  1.00  0.00     0.135 A 
ATOM     81  F   UNL A   1      42.806  32.233  33.269  1.00  0.00    -0.206 F 
ATOM     82  C   UNL A   1      40.492  32.463  33.027  1.00  0.00     0.059 A 
ATOM     83  C   UNL A   1      39.102  30.480  32.873  1.00  0.00     0.059 A 
ATOM     84  F   UNL A   1      40.089  28.348  32.943  1.00  0.00    -0.206 F 
ATOM     85  C   UNL A   1      39.258  31.865  32.788  1.00  0.00     0.060 A 
BRANCH  85  86
ATOM     86  S   UNL A   1      37.936  32.917  32.143  1.00  0.00     0.124 S 
ATOM     87  O   UNL A   1      38.608  33.622  31.056  1.00  0.00    -0.237 OA
ATOM     88  O   UNL A   1      36.952  31.915  31.734  1.00  0.00    -0.237 OA
ATOM     89  O   UNL A   1      37.568  33.733  33.293  1.00  0.00    -0.744 OA
ENDBRANCH  85  86
ENDBRANCH  53  78
BRANCH  65  90
ATOM     90  C   UNL A   1      44.982  23.882  33.673  1.00  0.00     0.058 A 
ATOM     91  C   UNL A   1      44.086  22.856  34.017  1.00  0.00     0.135 A 
ATOM     92  C   UNL A   1      46.328  23.674  34.065  1.00  0.00     0.135 A 
ATOM     93  F   UNL A   1      42.807  22.885  33.613  1.00  0.00    -0.206 F 
ATOM     94  C   UNL A   1      44.478  21.734  34.751  1.00  0.00     0.059 A 
ATOM     95  C   UNL A   1      46.750  22.537  34.747  1.00  0.00     0.059 A 
ATOM     96  F   UNL A   1      47.283  24.572  33.780  1.00  0.00    -0.206 F 
ATOM     97  C   UNL A   1      45.814  21.583  35.111  1.00  0.00     0.060 A 
BRANCH  97  98
ATOM     98  S   UNL A   1      46.346  20.108  36.002  1.00  0.00     0.124 S 
ATOM     99  O   UNL A   1      45.920  20.422  37.362  1.00  0.00    -0.237 OA
ATOM    100  O   UNL A   1      45.602  19.040  35.340  1.00  0.00    -0.237 OA
ATOM    101  O   UNL A   1      47.787  20.089  35.777  1.00  0.00    -0.744 OA
ENDBRANCH  97  98
ENDBRANCH  65  90
ENDBRANCH  39  40
ENDBRANCH  31  34
ENDBRANCH  29  30
ENDBRANCH  28  29
ENDBRANCH   1  28
TORSDOF 17
ENDMDL
MODEL 2
REMARK VINA RESULT:     -13.5      4.732     11.249
REMARK SMILES Cc1cc(NC(=O)c2ccc(Br)cc2N)ccc1C(=O)NCCCCNC(=O)c1ccc(-c2c3nc(c(-c4c(F)cc(S(=O)(=O)[O-])cc4F)c4ccc([nH]4)c(-c4c(F)cc(S(=O)(=O)[O-])cc4F)c4nc(c(-c5c(F)cc(S(=O)(=O)[O-])cc5F)c5ccc2[nH]5)C=C4)C=C3)cc1
REMARK SMILES IDX 23 1 22 2 21 3 19 4 20 5 18 7 1 8 2 9 3 10 4 11 17 12 16 13
REMARK SMILES IDX 5 14 6 15 7 17 8 18 9 19 14 20 10 21 13 22 11 23 12 24 15 25
REMARK SMILES IDX 24 28 25 29 26 30 27 31 28 33 29 34 30 35 94 36 31 37 93 38
REMARK SMILES IDX 32 39 33 40 34 41 87 42 35 43 92 44 86 45 88 46 36 47 91 48
REMARK SMILES IDX 85 49 84 50 37 52 71 53 50 54 70 55 51 56 54 57 69 58 89 59
REMARK SMILES IDX 52 60 53 61 68 63 90 64 55 65 38 66 39 67 48 68 40 69 41 70
REMARK SMILES IDX 47 71 49 72 42 73 43 74 44 75 45 76 46 77 72 78 73 79 82 80
REMARK SMILES IDX 74 81 75 82 81 83 83 84 76 85 77 86 78 87 79 88 80 89 56 90
REMARK SMILES IDX 57 91 66 92 58 93 59 94 65 95 67 96 60 97 61 98 62 99 63 100
REMARK SMILES IDX 64 101
REMARK H PARENT 21 6 5 16 15 26 15 27 26 32 88 51 54 62
REMARK Flexibility Score: inf
ROOT
ATOM      1  C   UNL A   1      36.755  21.115  25.374  1.00  0.00     0.023 C 
ENDROOT
BRANCH   1   2
ATOM      2  C   UNL A   1      35.480  21.684  26.019  1.00  0.00     0.116 C 
BRANCH   2   3
ATOM      3  N   UNL A   1      34.371  20.773  25.821  1.00  0.00    -0.352 N 
ATOM      4  C   UNL A   1      33.093  20.886  25.351  1.00  0.00     0.251 C 
ATOM      5  O   UNL A   1      32.419  19.851  25.429  1.00  0.00    -0.269 OA
ATOM      6  H   UNL A   1      34.591  19.850  26.088  1.00  0.00     0.163 HD
BRANCH   4   7
ATOM      7  C   UNL A   1      32.457  22.075  24.680  1.00  0.00     0.042 A 
ATOM      8  C   UNL A   1      30.559  22.792  26.320  1.00  0.00     0.045 C 
ATOM      9  C   UNL A   1      31.398  22.909  25.088  1.00  0.00    -0.036 A 
ATOM     10  C   UNL A   1      30.988  23.960  24.238  1.00  0.00     0.030 A 
ATOM     11  C   UNL A   1      31.558  24.188  22.992  1.00  0.00     0.041 A 
ATOM     12  C   UNL A   1      32.971  22.288  23.372  1.00  0.00     0.016 A 
ATOM     13  C   UNL A   1      32.509  23.301  22.524  1.00  0.00     0.027 A 
BRANCH  11  14
ATOM     14  N   UNL A   1      31.197  25.290  22.205  1.00  0.00    -0.322 N 
ATOM     15  C   UNL A   1      31.133  26.623  22.574  1.00  0.00     0.257 C 
ATOM     16  H   UNL A   1      30.960  25.092  21.271  1.00  0.00     0.170 HD
ATOM     17  O   UNL A   1      30.473  27.413  21.900  1.00  0.00    -0.269 OA
BRANCH  15  18
ATOM     18  C   UNL A   1      31.915  27.137  23.738  1.00  0.00     0.063 A 
ATOM     19  C   UNL A   1      31.190  27.387  24.917  1.00  0.00     0.017 A 
ATOM     20  C   UNL A   1      33.305  27.393  23.688  1.00  0.00     0.045 A 
ATOM     21  C   UNL A   1      31.830  27.905  26.042  1.00  0.00     0.016 A 
ATOM     22  C   UNL A   1      33.923  27.934  24.826  1.00  0.00     0.042 A 
ATOM     23  C   UNL A   1      33.190  28.189  25.986  1.00  0.00     0.020 A 
ATOM     24  Br  UNL A   1      34.033  29.000  27.467  1.00  0.00    -0.051 Br
BRANCH  20  25
ATOM     25  N   UNL A   1      34.067  27.306  22.521  1.00  0.00    -0.398 N 
ATOM     26  H   UNL A   1      33.646  27.017  21.680  1.00  0.00     0.156 HD
ATOM     27  H   UNL A   1      35.025  27.533  22.541  1.00  0.00     0.156 HD
ENDBRANCH  20  25
ENDBRANCH  15  18
ENDBRANCH  11  14
ENDBRANCH   4   7
ENDBRANCH   2   3
ENDBRANCH   1   2
BRANCH   1  28
ATOM     28  C   UNL A   1      37.843  22.134  25.060  1.00  0.00     0.023 C 
BRANCH  28  29
ATOM     29  C   UNL A   1      38.075  23.096  26.208  1.00  0.00     0.116 C 
BRANCH  29  30
ATOM     30  N   UNL A   1      39.316  22.877  26.940  1.00  0.00    -0.352 N 
ATOM     31  C   UNL A   1      40.157  23.839  27.478  1.00  0.00     0.251 C 
ATOM     32  H   UNL A   1      39.588  21.939  27.067  1.00  0.00     0.163 HD
ATOM     33  O   UNL A   1      41.282  23.564  27.879  1.00  0.00    -0.269 OA
BRANCH  31  34
ATOM     34  C   UNL A   1      39.602  25.200  27.645  1.00  0.00     0.039 A 
ATOM     35  C   UNL A   1      40.079  26.200  26.791  1.00  0.00     0.014 A 
ATOM     36  C   UNL A   1      38.932  25.523  28.820  1.00  0.00     0.014 A 
ATOM     37  C   UNL A   1      40.087  27.521  27.227  1.00  0.00     0.010 A 
ATOM     38  C   UNL A   1      39.067  26.805  29.307  1.00  0.00     0.010 A 
ATOM     39  C   UNL A   1      39.686  27.797  28.531  1.00  0.00    -0.014 A 
BRANCH  39  40
ATOM     40  C   UNL A   1      39.931  29.063  29.216  1.00  0.00     0.031 A 
ATOM     41  C   UNL A   1      38.928  30.148  29.121  1.00  0.00     0.074 A 
ATOM     42  C   UNL A   1      40.990  29.188  30.045  1.00  0.00     0.049 A 
ATOM     43  N   UNL A   1      39.115  31.368  29.496  1.00  0.00    -0.248 NA
ATOM     44  C   UNL A   1      37.619  29.940  28.512  1.00  0.00     0.031 C 
ATOM     45  C   UNL A   1      41.175  30.185  31.096  1.00  0.00     0.029 A 
ATOM     46  N   UNL A   1      42.222  28.541  29.969  1.00  0.00    -0.354 N 
ATOM     47  C   UNL A   1      37.898  32.017  29.462  1.00  0.00     0.074 A 
ATOM     48  C   UNL A   1      37.029  31.110  28.755  1.00  0.00     0.031 C 
ATOM     49  C   UNL A   1      42.477  30.253  31.412  1.00  0.00     0.029 A 
ATOM     50  C   UNL A   1      43.198  29.425  30.460  1.00  0.00     0.049 A 
ATOM     51  H   UNL A   1      42.380  27.629  29.633  1.00  0.00     0.167 HD
ATOM     52  C   UNL A   1      37.755  33.182  30.161  1.00  0.00     0.037 A 
ATOM     53  C   UNL A   1      44.193  29.889  29.645  1.00  0.00     0.037 A 
ATOM     54  C   UNL A   1      39.068  33.669  30.606  1.00  0.00     0.049 A 
ATOM     55  C   UNL A   1      44.151  31.381  29.400  1.00  0.00     0.074 A 
ATOM     56  C   UNL A   1      39.735  33.623  31.819  1.00  0.00     0.029 A 
ATOM     57  N   UNL A   1      40.016  34.038  29.654  1.00  0.00    -0.354 N 
ATOM     58  N   UNL A   1      43.125  32.138  29.682  1.00  0.00    -0.248 NA
ATOM     59  C   UNL A   1      45.252  32.140  28.813  1.00  0.00     0.031 C 
ATOM     60  C   UNL A   1      41.111  33.867  31.573  1.00  0.00     0.029 A 
ATOM     61  C   UNL A   1      41.278  34.097  30.218  1.00  0.00     0.049 A 
ATOM     62  H   UNL A   1      39.815  34.230  28.710  1.00  0.00     0.167 HD
ATOM     63  C   UNL A   1      43.378  33.426  29.290  1.00  0.00     0.074 A 
ATOM     64  C   UNL A   1      44.737  33.382  28.783  1.00  0.00     0.031 C 
ATOM     65  C   UNL A   1      42.444  34.417  29.404  1.00  0.00     0.037 A 
BRANCH  52  66
ATOM     66  C   UNL A   1      36.428  33.717  30.698  1.00  0.00     0.058 A 
ATOM     67  C   UNL A   1      35.443  34.212  29.809  1.00  0.00     0.135 A 
ATOM     68  C   UNL A   1      36.092  33.881  32.059  1.00  0.00     0.135 A 
ATOM     69  F   UNL A   1      35.554  34.049  28.483  1.00  0.00    -0.206 F 
ATOM     70  C   UNL A   1      34.303  34.907  30.231  1.00  0.00     0.059 A 
ATOM     71  C   UNL A   1      34.979  34.601  32.505  1.00  0.00     0.059 A 
ATOM     72  F   UNL A   1      36.792  33.314  33.041  1.00  0.00    -0.206 F 
ATOM     73  C   UNL A   1      34.096  35.130  31.584  1.00  0.00     0.060 A 
BRANCH  73  74
ATOM     74  S   UNL A   1      32.672  36.091  32.123  1.00  0.00     0.124 S 
ATOM     75  O   UNL A   1      33.235  36.891  33.204  1.00  0.00    -0.237 OA
ATOM     76  O   UNL A   1      32.316  36.818  30.909  1.00  0.00    -0.237 OA
ATOM     77  O   UNL A   1      31.711  35.073  32.541  1.00  0.00    -0.744 OA
ENDBRANCH  73  74
ENDBRANCH  52  66
BRANCH  53  78
ATOM     78  C   UNL A   1      44.688  28.855  28.693  1.00  0.00     0.058 A 
ATOM     79  C   UNL A   1      44.214  28.938  27.371  1.00  0.00     0.135 A 
ATOM     80  C   UNL A   1      45.894  28.176  28.908  1.00  0.00     0.135 A 
ATOM     81  F   UNL A   1      43.058  29.568  27.117  1.00  0.00    -0.206 F 
ATOM     82  C   UNL A   1      44.988  28.542  26.288  1.00  0.00     0.059 A 
ATOM     83  C   UNL A   1      46.687  27.761  27.835  1.00  0.00     0.059 A 
ATOM     84  F   UNL A   1      46.395  28.062  30.147  1.00  0.00    -0.206 F 
ATOM     85  C   UNL A   1      46.258  28.028  26.533  1.00  0.00     0.060 A 
BRANCH  85  86
ATOM     86  S   UNL A   1      47.403  27.941  25.135  1.00  0.00     0.124 S 
ATOM     87  O   UNL A   1      48.575  28.639  25.655  1.00  0.00    -0.237 OA
ATOM     88  O   UNL A   1      47.547  26.495  24.976  1.00  0.00    -0.237 OA
ATOM     89  O   UNL A   1      46.681  28.626  24.070  1.00  0.00    -0.744 OA
ENDBRANCH  85  86
ENDBRANCH  53  78
BRANCH  65  90
ATOM     90  C   UNL A   1      42.568  35.806  28.824  1.00  0.00     0.058 A 
ATOM     91  C   UNL A   1      41.936  36.225  27.641  1.00  0.00     0.135 A 
ATOM     92  C   UNL A   1      43.239  36.821  29.550  1.00  0.00     0.135 A 
ATOM     93  F   UNL A   1      41.180  35.383  26.920  1.00  0.00    -0.206 F 
ATOM     94  C   UNL A   1      42.014  37.540  27.176  1.00  0.00     0.059 A 
ATOM     95  C   UNL A   1      43.282  38.148  29.133  1.00  0.00     0.059 A 
ATOM     96  F   UNL A   1      43.868  36.552  30.705  1.00  0.00    -0.206 F 
ATOM     97  C   UNL A   1      42.689  38.496  27.930  1.00  0.00     0.060 A 
BRANCH  97  98
ATOM     98  S   UNL A   1      42.742  40.210  27.373  1.00  0.00     0.124 S 
ATOM     99  O   UNL A   1      43.312  40.876  28.540  1.00  0.00    -0.237 OA
ATOM    100  O   UNL A   1      43.607  40.146  26.199  1.00  0.00    -0.237 OA
ATOM    101  O   UNL A   1      41.342  40.509  27.093  1.00  0.00    -0.744 OA
ENDBRANCH  97  98
ENDBRANCH  65  90
ENDBRANCH  39  40
ENDBRANCH  31  34
ENDBRANCH  29  30
ENDBRANCH  28  29
ENDBRANCH   1  28
TORSDOF 17
ENDMDL
MODEL 3
REMARK VINA RESULT:     -13.3      4.334     11.249
REMARK SMILES Cc1cc(NC(=O)c2ccc(Br)cc2N)ccc1C(=O)NCCCCNC(=O)c1ccc(-c2c3nc(c(-c4c(F)cc(S(=O)(=O)[O-])cc4F)c4ccc([nH]4)c(-c4c(F)cc(S(=O)(=O)[O-])cc4F)c4nc(c(-c5c(F)cc(S(=O)(=O)[O-])cc5F)c5ccc2[nH]5)C=C4)C=C3)cc1
REMARK SMILES IDX 23 1 22 2 21 3 19 4 20 5 18 7 1 8 2 9 3 10 4 11 17 12 16 13
REMARK SMILES IDX 5 14 6 15 7 17 8 18 9 19 14 20 10 21 13 22 11 23 12 24 15 25
REMARK SMILES IDX 24 28 25 29 26 30 27 31 28 33 29 34 30 35 94 36 31 37 93 38
REMARK SMILES IDX 32 39 33 40 34 41 87 42 35 43 92 44 86 45 88 46 36 47 91 48
REMARK SMILES IDX 85 49 84 50 37 52 71 53 50 54 70 55 51 56 54 57 69 58 89 59
REMARK SMILES IDX 52 60 53 61 68 63 90 64 55 65 38 66 39 67 48 68 40 69 41 70
REMARK SMILES IDX 47 71 49 72 42 73 43 74 44 75 45 76 46 77 72 78 73 79 82 80
REMARK SMILES IDX 74 81 75 82 81 83 83 84 76 85 77 86 78 87 79 88 80 89 56 90
REMARK SMILES IDX 57 91 66 92 58 93 59 94 65 95 67 96 60 97 61 98 62 99 63 100
REMARK SMILES IDX 64 101
REMARK H PARENT 21 6 5 16 15 26 15 27 26 32 88 51 54 62
REMARK Flexibility Score: inf
ROOT
ATOM      1  C   UNL A   1      36.899  21.086  25.592  1.00  0.00     0.023 C 
ENDROOT
BRANCH   1   2
ATOM      2  C   UNL A   1      35.550  21.608  26.112  1.00  0.00     0.116 C 
BRANCH   2   3
ATOM      3  N   UNL A   1      34.512  20.623  25.883  1.00  0.00    -0.352 N 
ATOM      4  C   UNL A   1      33.224  20.657  25.427  1.00  0.00     0.251 C 
ATOM      5  O   UNL A   1      32.632  19.571  25.466  1.00  0.00    -0.269 OA
ATOM      6  H   UNL A   1      34.804  19.710  26.110  1.00  0.00     0.163 HD
BRANCH   4   7
ATOM      7  C   UNL A   1      32.491  21.821  24.813  1.00  0.00     0.042 A 
ATOM      8  C   UNL A   1      34.053  22.607  22.877  1.00  0.00     0.045 C 
ATOM      9  C   UNL A   1      32.816  22.643  23.717  1.00  0.00    -0.036 A 
ATOM     10  C   UNL A   1      31.938  23.691  23.362  1.00  0.00     0.030 A 
ATOM     11  C   UNL A   1      30.779  23.976  24.073  1.00  0.00     0.041 A 
ATOM     12  C   UNL A   1      31.337  22.181  25.562  1.00  0.00     0.016 A 
ATOM     13  C   UNL A   1      30.512  23.260  25.226  1.00  0.00     0.027 A 
BRANCH  11  14
ATOM     14  N   UNL A   1      29.877  24.962  23.651  1.00  0.00    -0.322 N 
ATOM     15  C   UNL A   1      29.773  26.272  24.086  1.00  0.00     0.257 C 
ATOM     16  H   UNL A   1      29.237  24.689  22.956  1.00  0.00     0.170 HD
ATOM     17  O   UNL A   1      28.732  26.899  23.892  1.00  0.00    -0.269 OA
BRANCH  15  18
ATOM     18  C   UNL A   1      30.932  26.965  24.723  1.00  0.00     0.063 A 
ATOM     19  C   UNL A   1      30.951  26.988  26.129  1.00  0.00     0.017 A 
ATOM     20  C   UNL A   1      31.961  27.597  23.985  1.00  0.00     0.045 A 
ATOM     21  C   UNL A   1      31.975  27.646  26.810  1.00  0.00     0.016 A 
ATOM     22  C   UNL A   1      32.968  28.271  24.692  1.00  0.00     0.042 A 
ATOM     23  C   UNL A   1      32.970  28.296  26.087  1.00  0.00     0.020 A 
ATOM     24  Br  UNL A   1      34.289  29.287  27.004  1.00  0.00    -0.051 Br
BRANCH  20  25
ATOM     25  N   UNL A   1      31.941  27.741  22.597  1.00  0.00    -0.398 N 
ATOM     26  H   UNL A   1      32.737  28.080  22.127  1.00  0.00     0.156 HD
ATOM     27  H   UNL A   1      31.131  27.505  22.089  1.00  0.00     0.156 HD
ENDBRANCH  20  25
ENDBRANCH  15  18
ENDBRANCH  11  14
ENDBRANCH   4   7
ENDBRANCH   2   3
ENDBRANCH   1   2
BRANCH   1  28
ATOM     28  C   UNL A   1      37.851  22.147  25.057  1.00  0.00     0.023 C 
BRANCH  28  29
ATOM     29  C   UNL A   1      38.147  23.223  26.084  1.00  0.00     0.116 C 
BRANCH  29  30
ATOM     30  N   UNL A   1      39.309  22.957  26.921  1.00  0.00    -0.352 N 
ATOM     31  C   UNL A   1      40.166  23.885  27.491  1.00  0.00     0.251 C 
ATOM     32  H   UNL A   1      39.508  22.009  27.103  1.00  0.00     0.163 HD
ATOM     33  O   UNL A   1      41.235  23.557  27.993  1.00  0.00    -0.269 OA
BRANCH  31  34
ATOM     34  C   UNL A   1      39.690  25.284  27.564  1.00  0.00     0.039 A 
ATOM     35  C   UNL A   1      40.328  26.225  26.749  1.00  0.00     0.014 A 
ATOM     36  C   UNL A   1      38.914  25.684  28.647  1.00  0.00     0.014 A 
ATOM     37  C   UNL A   1      40.376  27.555  27.155  1.00  0.00     0.010 A 
ATOM     38  C   UNL A   1      39.080  26.969  29.118  1.00  0.00     0.010 A 
ATOM     39  C   UNL A   1      39.850  27.895  28.398  1.00  0.00    -0.014 A 
BRANCH  39  40
ATOM     40  C   UNL A   1      40.101  29.161  29.079  1.00  0.00     0.031 A 
ATOM     41  C   UNL A   1      39.084  30.237  29.016  1.00  0.00     0.074 A 
ATOM     42  C   UNL A   1      41.182  29.296  29.878  1.00  0.00     0.049 A 
ATOM     43  N   UNL A   1      39.269  31.457  29.389  1.00  0.00    -0.248 NA
ATOM     44  C   UNL A   1      37.761  30.016  28.444  1.00  0.00     0.031 C 
ATOM     45  C   UNL A   1      41.387  30.292  30.925  1.00  0.00     0.029 A 
ATOM     46  N   UNL A   1      42.418  28.662  29.765  1.00  0.00    -0.354 N 
ATOM     47  C   UNL A   1      38.045  32.094  29.391  1.00  0.00     0.074 A 
ATOM     48  C   UNL A   1      37.166  31.180  28.707  1.00  0.00     0.031 C 
ATOM     49  C   UNL A   1      42.696  30.373  31.204  1.00  0.00     0.029 A 
ATOM     50  C   UNL A   1      43.398  29.555  30.230  1.00  0.00     0.049 A 
ATOM     51  H   UNL A   1      42.575  27.753  29.421  1.00  0.00     0.167 HD
ATOM     52  C   UNL A   1      37.910  33.255  30.097  1.00  0.00     0.037 A 
ATOM     53  C   UNL A   1      44.364  30.032  29.388  1.00  0.00     0.037 A 
ATOM     54  C   UNL A   1      39.230  33.755  30.506  1.00  0.00     0.049 A 
ATOM     55  C   UNL A   1      44.299  31.523  29.149  1.00  0.00     0.074 A 
ATOM     56  C   UNL A   1      39.932  33.712  31.699  1.00  0.00     0.029 A 
ATOM     57  N   UNL A   1      40.146  34.137  29.529  1.00  0.00    -0.354 N 
ATOM     58  N   UNL A   1      43.275  32.269  29.462  1.00  0.00    -0.248 NA
ATOM     59  C   UNL A   1      45.376  32.295  28.532  1.00  0.00     0.031 C 
ATOM     60  C   UNL A   1      41.298  33.972  31.414  1.00  0.00     0.029 A 
ATOM     61  C   UNL A   1      41.423  34.207  30.056  1.00  0.00     0.049 A 
ATOM     62  H   UNL A   1      39.917  34.329  28.591  1.00  0.00     0.167 HD
ATOM     63  C   UNL A   1      43.503  33.561  29.067  1.00  0.00     0.074 A 
ATOM     64  C   UNL A   1      44.847  33.532  28.520  1.00  0.00     0.031 C 
ATOM     65  C   UNL A   1      42.562  34.541  29.210  1.00  0.00     0.037 A 
BRANCH  52  66
ATOM     66  C   UNL A   1      36.593  33.775  30.674  1.00  0.00     0.058 A 
ATOM     67  C   UNL A   1      35.552  34.197  29.812  1.00  0.00     0.135 A 
ATOM     68  C   UNL A   1      36.318  33.994  32.040  1.00  0.00     0.135 A 
ATOM     69  F   UNL A   1      35.604  33.974  28.492  1.00  0.00    -0.206 F 
ATOM     70  C   UNL A   1      34.411  34.876  30.257  1.00  0.00     0.059 A 
ATOM     71  C   UNL A   1      35.204  34.700  32.507  1.00  0.00     0.059 A 
ATOM     72  F   UNL A   1      37.082  33.495  33.012  1.00  0.00    -0.206 F 
ATOM     73  C   UNL A   1      34.262  35.157  31.607  1.00  0.00     0.060 A 
BRANCH  73  74
ATOM     74  S   UNL A   1      32.834  36.100  32.170  1.00  0.00     0.124 S 
ATOM     75  O   UNL A   1      31.893  35.044  32.527  1.00  0.00    -0.237 OA
ATOM     76  O   UNL A   1      33.390  36.861  33.284  1.00  0.00    -0.237 OA
ATOM     77  O   UNL A   1      32.463  36.891  31.000  1.00  0.00    -0.744 OA
ENDBRANCH  73  74
ENDBRANCH  52  66
BRANCH  53  78
ATOM     78  C   UNL A   1      44.842  29.005  28.419  1.00  0.00     0.058 A 
ATOM     79  C   UNL A   1      45.771  28.065  28.904  1.00  0.00     0.135 A 
ATOM     80  C   UNL A   1      44.088  28.650  27.294  1.00  0.00     0.135 A 
ATOM     81  F   UNL A   1      46.524  28.365  29.971  1.00  0.00    -0.206 F 
ATOM     82  C   UNL A   1      45.816  26.764  28.423  1.00  0.00     0.059 A 
ATOM     83  C   UNL A   1      44.122  27.348  26.787  1.00  0.00     0.059 A 
ATOM     84  F   UNL A   1      43.189  29.505  26.784  1.00  0.00    -0.206 F 
ATOM     85  C   UNL A   1      44.927  26.396  27.417  1.00  0.00     0.060 A 
BRANCH  85  86
ATOM     86  S   UNL A   1      44.690  24.628  27.122  1.00  0.00     0.124 S 
ATOM     87  O   UNL A   1      43.602  24.622  26.150  1.00  0.00    -0.237 OA
ATOM     88  O   UNL A   1      46.003  24.248  26.604  1.00  0.00    -0.237 OA
ATOM     89  O   UNL A   1      44.358  24.111  28.444  1.00  0.00    -0.744 OA
ENDBRANCH  85  86
ENDBRANCH  53  78
BRANCH  65  90
ATOM     90  C   UNL A   1      42.655  35.933  28.630  1.00  0.00     0.058 A 
ATOM     91  C   UNL A   1      42.233  36.276  27.335  1.00  0.00     0.135 A 
ATOM     92  C   UNL A   1      43.056  37.017  29.449  1.00  0.00     0.135 A 
ATOM     93  F   UNL A   1      41.731  35.355  26.500  1.00  0.00    -0.206 F 
ATOM     94  C   UNL A   1      42.266  37.590  26.860  1.00  0.00     0.059 A 
ATOM     95  C   UNL A   1      43.044  38.340  29.015  1.00  0.00     0.059 A 
ATOM     96  F   UNL A   1      43.464  36.823  30.713  1.00  0.00    -0.206 F 
ATOM     97  C   UNL A   1      42.672  38.616  27.708  1.00  0.00     0.060 A 
BRANCH  97  98
ATOM     98  S   UNL A   1      42.658  40.323  27.129  1.00  0.00     0.124 S 
ATOM     99  O   UNL A   1      41.226  40.601  27.082  1.00  0.00    -0.237 OA
ATOM    100  O   UNL A   1      43.403  41.028  28.169  1.00  0.00    -0.237 OA
ATOM    101  O   UNL A   1      43.330  40.239  25.836  1.00  0.00    -0.744 OA
ENDBRANCH  97  98
ENDBRANCH  65  90
ENDBRANCH  39  40
ENDBRANCH  31  34
ENDBRANCH  29  30
ENDBRANCH  28  29
ENDBRANCH   1  28
TORSDOF 17
ENDMDL
