MODEL 1
REMARK VINA RESULT:     -10.4      0.000      0.000
REMARK SMILES COc1cccc(O[C@@H](C)c2nnc(SCC(=O)NCCCCNC(=O)c3ccc(-c4c5nc(c(-c6c(F)cc(S(=O)(=O)[O-])cc6F)c6ccc([nH]6)c(-c6c(F)cc(S(=O)(=O)[O-])cc6F)c6nc(c(-c7c(F)cc(S(=O)(=O)[O-])cc7F)c7ccc4[nH]7)C=C6)C=C5)cc3)n2C)c1
REMARK SMILES IDX 20 1 19 2 17 3 18 4 16 6 15 7 14 8 11 9 12 10 93 11 13 12
REMARK SMILES IDX 94 13 9 14 10 15 8 16 7 17 3 18 4 19 95 20 5 21 6 22 2 23
REMARK SMILES IDX 1 24 21 25 22 26 23 27 24 28 25 29 26 31 27 32 28 33 92 34
REMARK SMILES IDX 29 35 91 36 30 37 31 38 32 39 85 40 33 41 90 42 84 43 86 44
REMARK SMILES IDX 34 45 89 46 83 47 82 48 35 50 69 51 48 52 68 53 49 54 52 55
REMARK SMILES IDX 67 56 87 57 50 58 51 59 66 61 88 62 53 63 36 64 37 65 46 66
REMARK SMILES IDX 38 67 39 68 45 69 47 70 40 71 41 72 42 73 43 74 44 75 70 76
REMARK SMILES IDX 71 77 80 78 72 79 73 80 79 81 81 82 74 83 75 84 76 85 77 86
REMARK SMILES IDX 78 87 54 88 55 89 64 90 56 91 57 92 63 93 65 94 58 95 59 96
REMARK SMILES IDX 60 97 61 98 62 99
REMARK H PARENT 19 5 24 30 86 49 52 60
REMARK Flexibility Score: inf
ROOT
ATOM      1  C   UNL A   1      33.812  21.634  27.031  1.00  0.00     0.116 C 
ENDROOT
BRANCH   1   2
ATOM      2  N   UNL A   1      34.342  20.619  26.139  1.00  0.00    -0.355 N 
ATOM      3  C   UNL A   1      33.728  19.982  25.109  1.00  0.00     0.230 C 
ATOM      4  O   UNL A   1      34.333  19.077  24.530  1.00  0.00    -0.274 OA
ATOM      5  H   UNL A   1      35.277  20.358  26.304  1.00  0.00     0.163 HD
BRANCH   3   6
ATOM      6  C   UNL A   1      32.359  20.414  24.644  1.00  0.00     0.178 C 
BRANCH   6   7
ATOM      7  S   UNL A   1      32.279  21.137  23.001  1.00  0.00    -0.076 SA
BRANCH   7   8
ATOM      8  C   UNL A   1      32.992  22.710  23.068  1.00  0.00     0.191 A 
ATOM      9  C   UNL A   1      33.187  24.900  23.117  1.00  0.00     0.174 A 
ATOM     10  N   UNL A   1      34.152  24.398  22.365  1.00  0.00    -0.130 NA
ATOM     11  N   UNL A   1      32.480  23.837  23.663  1.00  0.00    -0.306 N 
ATOM     12  N   UNL A   1      34.018  23.039  22.320  1.00  0.00    -0.123 NA
ATOM     13  C   UNL A   1      31.428  23.910  24.639  1.00  0.00     0.154 C 
BRANCH   9  14
ATOM     14  C   UNL A   1      32.977  26.382  23.294  1.00  0.00     0.238 C 
ATOM     15  C   UNL A   1      33.086  27.327  22.109  1.00  0.00     0.062 C 
BRANCH  14  16
ATOM     16  O   UNL A   1      33.723  26.884  24.424  1.00  0.00    -0.483 OA
BRANCH  16  17
ATOM     17  C   UNL A   1      33.214  27.741  25.357  1.00  0.00     0.124 A 
ATOM     18  C   UNL A   1      33.054  29.789  26.652  1.00  0.00     0.122 A 
ATOM     19  C   UNL A   1      32.042  29.226  27.427  1.00  0.00     0.046 A 
ATOM     20  C   UNL A   1      33.641  29.039  25.626  1.00  0.00     0.092 A 
ATOM     21  C   UNL A   1      31.594  27.935  27.158  1.00  0.00     0.008 A 
ATOM     22  C   UNL A   1      32.180  27.200  26.127  1.00  0.00     0.047 A 
BRANCH  18  23
ATOM     23  O   UNL A   1      33.428  31.055  27.012  1.00  0.00    -0.497 OA
ATOM     24  C   UNL A   1      34.342  31.144  28.099  1.00  0.00     0.278 C 
ENDBRANCH  18  23
ENDBRANCH  16  17
ENDBRANCH  14  16
ENDBRANCH   9  14
ENDBRANCH   7   8
ENDBRANCH   6   7
ENDBRANCH   3   6
ENDBRANCH   1   2
BRANCH   1  25
ATOM     25  C   UNL A   1      34.517  22.974  26.836  1.00  0.00     0.023 C 
BRANCH  25  26
ATOM     26  C   UNL A   1      35.447  23.045  25.621  1.00  0.00     0.023 C 
BRANCH  26  27
ATOM     27  C   UNL A   1      36.769  23.774  25.844  1.00  0.00     0.116 C 
BRANCH  27  28
ATOM     28  N   UNL A   1      37.909  22.875  25.927  1.00  0.00    -0.352 N 
ATOM     29  C   UNL A   1      39.170  23.117  26.414  1.00  0.00     0.251 C 
ATOM     30  H   UNL A   1      37.754  21.964  25.587  1.00  0.00     0.163 HD
ATOM     31  O   UNL A   1      40.045  22.264  26.300  1.00  0.00    -0.269 OA
BRANCH  29  32
ATOM     32  C   UNL A   1      39.479  24.420  27.043  1.00  0.00     0.039 A 
ATOM     33  C   UNL A   1      39.046  24.653  28.352  1.00  0.00     0.014 A 
ATOM     34  C   UNL A   1      40.202  25.398  26.356  1.00  0.00     0.014 A 
ATOM     35  C   UNL A   1      39.399  25.842  28.995  1.00  0.00     0.010 A 
ATOM     36  C   UNL A   1      40.609  26.551  27.022  1.00  0.00     0.010 A 
ATOM     37  C   UNL A   1      40.214  26.784  28.348  1.00  0.00    -0.014 A 
BRANCH  37  38
ATOM     38  C   UNL A   1      40.677  28.011  29.047  1.00  0.00     0.031 A 
ATOM     39  C   UNL A   1      42.056  28.070  29.644  1.00  0.00     0.074 A 
ATOM     40  C   UNL A   1      39.825  29.042  29.215  1.00  0.00     0.049 A 
ATOM     41  N   UNL A   1      42.609  29.019  30.353  1.00  0.00    -0.248 NA
ATOM     42  C   UNL A   1      42.914  26.893  29.441  1.00  0.00     0.031 C 
ATOM     43  C   UNL A   1      38.443  29.082  28.735  1.00  0.00     0.029 A 
ATOM     44  N   UNL A   1      39.991  30.247  29.851  1.00  0.00    -0.354 N 
ATOM     45  C   UNL A   1      43.870  28.547  30.700  1.00  0.00     0.074 A 
ATOM     46  C   UNL A   1      43.979  27.208  30.163  1.00  0.00     0.031 C 
ATOM     47  C   UNL A   1      37.891  30.255  29.082  1.00  0.00     0.029 A 
ATOM     48  C   UNL A   1      38.866  31.036  29.838  1.00  0.00     0.049 A 
ATOM     49  H   UNL A   1      40.836  30.520  30.276  1.00  0.00     0.167 HD
ATOM     50  C   UNL A   1      44.852  29.179  31.388  1.00  0.00     0.037 A 
ATOM     51  C   UNL A   1      38.638  32.248  30.382  1.00  0.00     0.037 A 
ATOM     52  C   UNL A   1      44.744  30.522  31.897  1.00  0.00     0.049 A 
ATOM     53  C   UNL A   1      39.748  32.942  31.122  1.00  0.00     0.074 A 
ATOM     54  C   UNL A   1      45.709  31.280  32.536  1.00  0.00     0.029 A 
ATOM     55  N   UNL A   1      43.599  31.305  31.832  1.00  0.00    -0.354 N 
ATOM     56  N   UNL A   1      40.962  32.513  31.374  1.00  0.00    -0.248 NA
ATOM     57  C   UNL A   1      39.462  34.285  31.643  1.00  0.00     0.031 C 
ATOM     58  C   UNL A   1      45.135  32.504  32.900  1.00  0.00     0.029 A 
ATOM     59  C   UNL A   1      43.826  32.528  32.442  1.00  0.00     0.049 A 
ATOM     60  H   UNL A   1      42.752  31.031  31.414  1.00  0.00     0.167 HD
ATOM     61  C   UNL A   1      41.592  33.542  32.066  1.00  0.00     0.074 A 
ATOM     62  C   UNL A   1      40.628  34.616  32.183  1.00  0.00     0.031 C 
ATOM     63  C   UNL A   1      42.856  33.590  32.555  1.00  0.00     0.037 A 
BRANCH  50  64
ATOM     64  C   UNL A   1      46.124  28.415  31.634  1.00  0.00     0.058 A 
ATOM     65  C   UNL A   1      46.316  27.651  32.798  1.00  0.00     0.135 A 
ATOM     66  C   UNL A   1      47.168  28.445  30.694  1.00  0.00     0.135 A 
ATOM     67  F   UNL A   1      45.358  27.596  33.736  1.00  0.00    -0.206 F 
ATOM     68  C   UNL A   1      47.513  26.985  33.043  1.00  0.00     0.059 A 
ATOM     69  C   UNL A   1      48.362  27.762  30.904  1.00  0.00     0.059 A 
ATOM     70  F   UNL A   1      47.037  29.155  29.562  1.00  0.00    -0.206 F 
ATOM     71  C   UNL A   1      48.533  27.054  32.093  1.00  0.00     0.060 A 
BRANCH  71  72
ATOM     72  S   UNL A   1      50.093  26.212  32.438  1.00  0.00     0.124 S 
ATOM     73  O   UNL A   1      50.994  26.877  31.502  1.00  0.00    -0.237 OA
ATOM     74  O   UNL A   1      50.309  26.516  33.850  1.00  0.00    -0.237 OA
ATOM     75  O   UNL A   1      49.798  24.814  32.140  1.00  0.00    -0.744 OA
ENDBRANCH  71  72
ENDBRANCH  50  64
BRANCH  51  76
ATOM     76  C   UNL A   1      37.305  32.884  30.216  1.00  0.00     0.058 A 
ATOM     77  C   UNL A   1      36.302  32.719  31.182  1.00  0.00     0.135 A 
ATOM     78  C   UNL A   1      37.028  33.715  29.119  1.00  0.00     0.135 A 
ATOM     79  F   UNL A   1      36.518  31.928  32.244  1.00  0.00    -0.206 F 
ATOM     80  C   UNL A   1      35.072  33.358  31.070  1.00  0.00     0.059 A 
ATOM     81  C   UNL A   1      35.813  34.382  28.997  1.00  0.00     0.059 A 
ATOM     82  F   UNL A   1      37.961  33.917  28.176  1.00  0.00    -0.206 F 
ATOM     83  C   UNL A   1      34.840  34.195  29.977  1.00  0.00     0.060 A 
BRANCH  83  84
ATOM     84  S   UNL A   1      33.270  35.085  29.886  1.00  0.00     0.124 S 
ATOM     85  O   UNL A   1      33.707  36.410  29.463  1.00  0.00    -0.237 OA
ATOM     86  O   UNL A   1      32.535  34.308  28.894  1.00  0.00    -0.237 OA
ATOM     87  O   UNL A   1      32.755  34.994  31.249  1.00  0.00    -0.744 OA
ENDBRANCH  83  84
ENDBRANCH  51  76
BRANCH  63  88
ATOM     88  C   UNL A   1      43.283  34.854  33.248  1.00  0.00     0.058 A 
ATOM     89  C   UNL A   1      43.177  35.004  34.640  1.00  0.00     0.135 A 
ATOM     90  C   UNL A   1      43.861  35.905  32.517  1.00  0.00     0.135 A 
ATOM     91  F   UNL A   1      42.626  34.033  35.385  1.00  0.00    -0.206 F 
ATOM     92  C   UNL A   1      43.614  36.161  35.281  1.00  0.00     0.059 A 
ATOM     93  C   UNL A   1      44.327  37.058  33.140  1.00  0.00     0.059 A 
ATOM     94  F   UNL A   1      43.994  35.808  31.185  1.00  0.00    -0.206 F 
ATOM     95  C   UNL A   1      44.190  37.181  34.522  1.00  0.00     0.060 A 
BRANCH  95  96
ATOM     96  S   UNL A   1      44.790  38.657  35.370  1.00  0.00     0.124 S 
ATOM     97  O   UNL A   1      46.136  38.786  34.822  1.00  0.00    -0.237 OA
ATOM     98  O   UNL A   1      43.833  39.675  34.945  1.00  0.00    -0.237 OA
ATOM     99  O   UNL A   1      44.719  38.291  36.781  1.00  0.00    -0.744 OA
ENDBRANCH  95  96
ENDBRANCH  63  88
ENDBRANCH  37  38
ENDBRANCH  29  32
ENDBRANCH  27  28
ENDBRANCH  26  27
ENDBRANCH  25  26
ENDBRANCH   1  25
TORSDOF 20
ENDMDL
MODEL 2
REMARK VINA RESULT:     -10.2      4.946      7.110
REMARK SMILES COc1cccc(O[C@@H](C)c2nnc(SCC(=O)NCCCCNC(=O)c3ccc(-c4c5nc(c(-c6c(F)cc(S(=O)(=O)[O-])cc6F)c6ccc([nH]6)c(-c6c(F)cc(S(=O)(=O)[O-])cc6F)c6nc(c(-c7c(F)cc(S(=O)(=O)[O-])cc7F)c7ccc4[nH]7)C=C6)C=C5)cc3)n2C)c1
REMARK SMILES IDX 20 1 19 2 17 3 18 4 16 6 15 7 14 8 11 9 12 10 93 11 13 12
REMARK SMILES IDX 94 13 9 14 10 15 8 16 7 17 3 18 4 19 95 20 5 21 6 22 2 23
REMARK SMILES IDX 1 24 21 25 22 26 23 27 24 28 25 29 26 31 27 32 28 33 92 34
REMARK SMILES IDX 29 35 91 36 30 37 31 38 32 39 85 40 33 41 90 42 84 43 86 44
REMARK SMILES IDX 34 45 89 46 83 47 82 48 35 50 69 51 48 52 68 53 49 54 52 55
REMARK SMILES IDX 67 56 87 57 50 58 51 59 66 61 88 62 53 63 36 64 37 65 46 66
REMARK SMILES IDX 38 67 39 68 45 69 47 70 40 71 41 72 42 73 43 74 44 75 70 76
REMARK SMILES IDX 71 77 80 78 72 79 73 80 79 81 81 82 74 83 75 84 76 85 77 86
REMARK SMILES IDX 78 87 54 88 55 89 64 90 56 91 57 92 63 93 65 94 58 95 59 96
REMARK SMILES IDX 60 97 61 98 62 99
REMARK H PARENT 19 5 24 30 86 49 52 60
REMARK Flexibility Score: inf
ROOT
ATOM      1  C   UNL A   1      41.919  20.114  26.147  1.00  0.00     0.116 C 
ENDROOT
BRANCH   1   2
ATOM      2  N   UNL A   1      42.967  19.162  25.830  1.00  0.00    -0.355 N 
ATOM      3  C   UNL A   1      44.064  19.328  25.046  1.00  0.00     0.230 C 
ATOM      4  O   UNL A   1      44.789  18.354  24.832  1.00  0.00    -0.274 OA
ATOM      5  H   UNL A   1      42.870  18.273  26.243  1.00  0.00     0.163 HD
BRANCH   3   6
ATOM      6  C   UNL A   1      44.420  20.688  24.500  1.00  0.00     0.178 C 
BRANCH   6   7
ATOM      7  S   UNL A   1      45.434  21.722  25.565  1.00  0.00    -0.076 SA
BRANCH   7   8
ATOM      8  C   UNL A   1      45.099  23.376  25.190  1.00  0.00     0.191 A 
ATOM      9  C   UNL A   1      45.175  25.573  25.246  1.00  0.00     0.174 A 
ATOM     10  N   UNL A   1      43.921  25.190  25.078  1.00  0.00    -0.130 NA
ATOM     11  N   UNL A   1      45.972  24.436  25.226  1.00  0.00    -0.306 N 
ATOM     12  N   UNL A   1      43.873  23.824  25.063  1.00  0.00    -0.123 NA
ATOM     13  C   UNL A   1      47.408  24.387  25.248  1.00  0.00     0.154 C 
BRANCH   9  14
ATOM     14  C   UNL A   1      45.572  27.018  25.414  1.00  0.00     0.238 C 
ATOM     15  C   UNL A   1      46.485  27.693  24.404  1.00  0.00     0.062 C 
BRANCH  14  16
ATOM     16  O   UNL A   1      46.009  27.285  26.764  1.00  0.00    -0.483 OA
BRANCH  16  17
ATOM     17  C   UNL A   1      45.471  28.250  27.565  1.00  0.00     0.124 A 
ATOM     18  C   UNL A   1      44.401  30.363  28.101  1.00  0.00     0.122 A 
ATOM     19  C   UNL A   1      44.558  30.104  29.461  1.00  0.00     0.046 A 
ATOM     20  C   UNL A   1      44.867  29.438  27.160  1.00  0.00     0.092 A 
ATOM     21  C   UNL A   1      45.144  28.913  29.881  1.00  0.00     0.008 A 
ATOM     22  C   UNL A   1      45.597  27.993  28.934  1.00  0.00     0.047 A 
BRANCH  18  23
ATOM     23  O   UNL A   1      43.828  31.570  27.799  1.00  0.00    -0.497 OA
ATOM     24  C   UNL A   1      44.069  32.058  26.485  1.00  0.00     0.278 C 
ENDBRANCH  18  23
ENDBRANCH  16  17
ENDBRANCH  14  16
ENDBRANCH   9  14
ENDBRANCH   7   8
ENDBRANCH   6   7
ENDBRANCH   3   6
ENDBRANCH   1   2
BRANCH   1  25
ATOM     25  C   UNL A   1      42.004  20.579  27.598  1.00  0.00     0.023 C 
BRANCH  25  26
ATOM     26  C   UNL A   1      42.265  22.076  27.783  1.00  0.00     0.023 C 
BRANCH  26  27
ATOM     27  C   UNL A   1      41.030  22.972  27.731  1.00  0.00     0.116 C 
BRANCH  27  28
ATOM     28  N   UNL A   1      40.939  23.747  26.503  1.00  0.00    -0.352 N 
ATOM     29  C   UNL A   1      40.767  25.100  26.343  1.00  0.00     0.251 C 
ATOM     30  H   UNL A   1      41.012  23.228  25.670  1.00  0.00     0.163 HD
ATOM     31  O   UNL A   1      40.599  25.567  25.221  1.00  0.00    -0.269 OA
BRANCH  29  32
ATOM     32  C   UNL A   1      40.749  25.985  27.528  1.00  0.00     0.039 A 
ATOM     33  C   UNL A   1      41.815  26.868  27.723  1.00  0.00     0.014 A 
ATOM     34  C   UNL A   1      39.683  25.958  28.431  1.00  0.00     0.014 A 
ATOM     35  C   UNL A   1      41.779  27.772  28.787  1.00  0.00     0.010 A 
ATOM     36  C   UNL A   1      39.618  26.904  29.451  1.00  0.00     0.010 A 
ATOM     37  C   UNL A   1      40.663  27.822  29.638  1.00  0.00    -0.014 A 
BRANCH  37  38
ATOM     38  C   UNL A   1      40.564  28.837  30.719  1.00  0.00     0.031 A 
ATOM     39  C   UNL A   1      41.436  28.732  31.940  1.00  0.00     0.074 A 
ATOM     40  C   UNL A   1      39.630  29.805  30.638  1.00  0.00     0.049 A 
ATOM     41  N   UNL A   1      41.441  29.473  33.017  1.00  0.00    -0.248 NA
ATOM     42  C   UNL A   1      42.410  27.630  31.964  1.00  0.00     0.031 C 
ATOM     43  C   UNL A   1      38.685  29.977  29.534  1.00  0.00     0.029 A 
ATOM     44  N   UNL A   1      39.311  30.817  31.509  1.00  0.00    -0.354 N 
ATOM     45  C   UNL A   1      42.400  28.917  33.856  1.00  0.00     0.074 A 
ATOM     46  C   UNL A   1      42.920  27.748  33.181  1.00  0.00     0.031 C 
ATOM     47  C   UNL A   1      37.901  31.036  29.787  1.00  0.00     0.029 A 
ATOM     48  C   UNL A   1      38.263  31.598  31.086  1.00  0.00     0.049 A 
ATOM     49  H   UNL A   1      39.788  30.968  32.357  1.00  0.00     0.167 HD
ATOM     50  C   UNL A   1      42.819  29.350  35.069  1.00  0.00     0.037 A 
ATOM     51  C   UNL A   1      37.652  32.643  31.678  1.00  0.00     0.037 A 
ATOM     52  C   UNL A   1      42.313  30.530  35.723  1.00  0.00     0.049 A 
ATOM     53  C   UNL A   1      38.147  33.123  33.014  1.00  0.00     0.074 A 
ATOM     54  C   UNL A   1      42.728  31.098  36.914  1.00  0.00     0.029 A 
ATOM     55  N   UNL A   1      41.275  31.318  35.245  1.00  0.00    -0.354 N 
ATOM     56  N   UNL A   1      39.109  32.632  33.759  1.00  0.00    -0.248 NA
ATOM     57  C   UNL A   1      37.483  34.302  33.586  1.00  0.00     0.031 C 
ATOM     58  C   UNL A   1      41.911  32.203  37.181  1.00  0.00     0.029 A 
ATOM     59  C   UNL A   1      41.019  32.353  36.129  1.00  0.00     0.049 A 
ATOM     60  H   UNL A   1      40.793  31.164  34.401  1.00  0.00     0.167 HD
ATOM     61  C   UNL A   1      39.179  33.454  34.879  1.00  0.00     0.074 A 
ATOM     62  C   UNL A   1      38.170  34.478  34.707  1.00  0.00     0.031 C 
ATOM     63  C   UNL A   1      40.008  33.366  35.949  1.00  0.00     0.037 A 
BRANCH  50  64
ATOM     64  C   UNL A   1      43.873  28.535  35.768  1.00  0.00     0.058 A 
ATOM     65  C   UNL A   1      45.243  28.747  35.543  1.00  0.00     0.135 A 
ATOM     66  C   UNL A   1      43.509  27.528  36.676  1.00  0.00     0.135 A 
ATOM     67  F   UNL A   1      45.649  29.688  34.677  1.00  0.00    -0.206 F 
ATOM     68  C   UNL A   1      46.212  27.958  36.156  1.00  0.00     0.059 A 
ATOM     69  C   UNL A   1      44.461  26.747  37.324  1.00  0.00     0.059 A 
ATOM     70  F   UNL A   1      42.213  27.284  36.933  1.00  0.00    -0.206 F 
ATOM     71  C   UNL A   1      45.810  26.955  37.039  1.00  0.00     0.060 A 
BRANCH  71  72
ATOM     72  S   UNL A   1      47.076  25.918  37.802  1.00  0.00     0.124 S 
ATOM     73  O   UNL A   1      47.926  25.608  36.657  1.00  0.00    -0.237 OA
ATOM     74  O   UNL A   1      47.658  26.813  38.798  1.00  0.00    -0.237 OA
ATOM     75  O   UNL A   1      46.316  24.795  38.342  1.00  0.00    -0.744 OA
ENDBRANCH  71  72
ENDBRANCH  50  64
BRANCH  51  76
ATOM     76  C   UNL A   1      36.521  33.315  30.987  1.00  0.00     0.058 A 
ATOM     77  C   UNL A   1      35.218  33.246  31.500  1.00  0.00     0.135 A 
ATOM     78  C   UNL A   1      36.730  34.089  29.834  1.00  0.00     0.135 A 
ATOM     79  F   UNL A   1      34.968  32.513  32.596  1.00  0.00    -0.206 F 
ATOM     80  C   UNL A   1      34.161  33.921  30.898  1.00  0.00     0.059 A 
ATOM     81  C   UNL A   1      35.693  34.790  29.226  1.00  0.00     0.059 A 
ATOM     82  F   UNL A   1      37.962  34.199  29.313  1.00  0.00    -0.206 F 
ATOM     83  C   UNL A   1      34.411  34.698  29.766  1.00  0.00     0.060 A 
BRANCH  83  84
ATOM     84  S   UNL A   1      33.047  35.637  29.043  1.00  0.00     0.124 S 
ATOM     85  O   UNL A   1      32.440  34.645  28.164  1.00  0.00    -0.237 OA
ATOM     86  O   UNL A   1      32.272  36.006  30.222  1.00  0.00    -0.237 OA
ATOM     87  O   UNL A   1      33.722  36.746  28.374  1.00  0.00    -0.744 OA
ENDBRANCH  83  84
ENDBRANCH  51  76
BRANCH  63  88
ATOM     88  C   UNL A   1      39.877  34.419  37.015  1.00  0.00     0.058 A 
ATOM     89  C   UNL A   1      40.554  35.645  36.929  1.00  0.00     0.135 A 
ATOM     90  C   UNL A   1      39.015  34.220  38.107  1.00  0.00     0.135 A 
ATOM     91  F   UNL A   1      41.395  35.883  35.909  1.00  0.00    -0.206 F 
ATOM     92  C   UNL A   1      40.395  36.632  37.897  1.00  0.00     0.059 A 
ATOM     93  C   UNL A   1      38.823  35.203  39.073  1.00  0.00     0.059 A 
ATOM     94  F   UNL A   1      38.337  33.069  38.233  1.00  0.00    -0.206 F 
ATOM     95  C   UNL A   1      39.524  36.402  38.965  1.00  0.00     0.060 A 
BRANCH  95  96
ATOM     96  S   UNL A   1      39.295  37.707  40.191  1.00  0.00     0.124 S 
ATOM     97  O   UNL A   1      38.994  36.933  41.391  1.00  0.00    -0.237 OA
ATOM     98  O   UNL A   1      40.591  38.379  40.180  1.00  0.00    -0.237 OA
ATOM     99  O   UNL A   1      38.187  38.489  39.653  1.00  0.00    -0.744 OA
ENDBRANCH  95  96
ENDBRANCH  63  88
ENDBRANCH  37  38
ENDBRANCH  29  32
ENDBRANCH  27  28
ENDBRANCH  26  27
ENDBRANCH  25  26
ENDBRANCH   1  25
TORSDOF 20
ENDMDL
MODEL 3
REMARK VINA RESULT:     -10.2      4.483     10.221
REMARK SMILES COc1cccc(O[C@@H](C)c2nnc(SCC(=O)NCCCCNC(=O)c3ccc(-c4c5nc(c(-c6c(F)cc(S(=O)(=O)[O-])cc6F)c6ccc([nH]6)c(-c6c(F)cc(S(=O)(=O)[O-])cc6F)c6nc(c(-c7c(F)cc(S(=O)(=O)[O-])cc7F)c7ccc4[nH]7)C=C6)C=C5)cc3)n2C)c1
REMARK SMILES IDX 20 1 19 2 17 3 18 4 16 6 15 7 14 8 11 9 12 10 93 11 13 12
REMARK SMILES IDX 94 13 9 14 10 15 8 16 7 17 3 18 4 19 95 20 5 21 6 22 2 23
REMARK SMILES IDX 1 24 21 25 22 26 23 27 24 28 25 29 26 31 27 32 28 33 92 34
REMARK SMILES IDX 29 35 91 36 30 37 31 38 32 39 85 40 33 41 90 42 84 43 86 44
REMARK SMILES IDX 34 45 89 46 83 47 82 48 35 50 69 51 48 52 68 53 49 54 52 55
REMARK SMILES IDX 67 56 87 57 50 58 51 59 66 61 88 62 53 63 36 64 37 65 46 66
REMARK SMILES IDX 38 67 39 68 45 69 47 70 40 71 41 72 42 73 43 74 44 75 70 76
REMARK SMILES IDX 71 77 80 78 72 79 73 80 79 81 81 82 74 83 75 84 76 85 77 86
REMARK SMILES IDX 78 87 54 88 55 89 64 90 56 91 57 92 63 93 65 94 58 95 59 96
REMARK SMILES IDX 60 97 61 98 62 99
REMARK H PARENT 19 5 24 30 86 49 52 60
REMARK Flexibility Score: inf
ROOT
ATOM      1  C   UNL A   1      33.465  30.094  26.751  1.00  0.00     0.116 C 
ENDROOT
BRANCH   1   2
ATOM      2  N   UNL A   1      32.561  29.315  27.576  1.00  0.00    -0.355 N 
ATOM      3  C   UNL A   1      31.722  28.311  27.212  1.00  0.00     0.230 C 
ATOM      4  O   UNL A   1      30.963  27.838  28.061  1.00  0.00    -0.274 OA
ATOM      5  H   UNL A   1      32.556  29.546  28.533  1.00  0.00     0.163 HD
BRANCH   3   6
ATOM      6  C   UNL A   1      31.761  27.746  25.813  1.00  0.00     0.178 C 
BRANCH   6   7
ATOM      7  S   UNL A   1      30.708  26.321  25.512  1.00  0.00    -0.076 SA
BRANCH   7   8
ATOM      8  C   UNL A   1      31.523  24.913  26.095  1.00  0.00     0.191 A 
ATOM      9  C   UNL A   1      32.435  22.912  26.141  1.00  0.00     0.174 A 
ATOM     10  N   UNL A   1      31.796  23.121  27.280  1.00  0.00    -0.130 NA
ATOM     11  N   UNL A   1      32.361  24.080  25.394  1.00  0.00    -0.306 N 
ATOM     12  N   UNL A   1      31.214  24.357  27.241  1.00  0.00    -0.123 NA
ATOM     13  C   UNL A   1      33.020  24.350  24.146  1.00  0.00     0.154 C 
BRANCH   9  14
ATOM     14  C   UNL A   1      33.100  21.601  25.807  1.00  0.00     0.238 C 
ATOM     15  C   UNL A   1      34.528  21.568  25.287  1.00  0.00     0.062 C 
BRANCH  14  16
ATOM     16  O   UNL A   1      32.238  20.769  25.002  1.00  0.00    -0.483 OA
BRANCH  16  17
ATOM     17  C   UNL A   1      32.539  19.491  24.630  1.00  0.00     0.124 A 
ATOM     18  C   UNL A   1      33.325  17.211  24.915  1.00  0.00     0.122 A 
ATOM     19  C   UNL A   1      33.182  16.984  23.548  1.00  0.00     0.046 A 
ATOM     20  C   UNL A   1      33.011  18.467  25.447  1.00  0.00     0.092 A 
ATOM     21  C   UNL A   1      32.694  17.993  22.721  1.00  0.00     0.008 A 
ATOM     22  C   UNL A   1      32.375  19.239  23.264  1.00  0.00     0.047 A 
BRANCH  18  23
ATOM     23  O   UNL A   1      33.828  16.158  25.631  1.00  0.00    -0.497 OA
ATOM     24  C   UNL A   1      35.119  15.705  25.242  1.00  0.00     0.278 C 
ENDBRANCH  18  23
ENDBRANCH  16  17
ENDBRANCH  14  16
ENDBRANCH   9  14
ENDBRANCH   7   8
ENDBRANCH   6   7
ENDBRANCH   3   6
ENDBRANCH   1   2
BRANCH   1  25
ATOM     25  C   UNL A   1      34.865  29.484  26.725  1.00  0.00     0.023 C 
BRANCH  25  26
ATOM     26  C   UNL A   1      35.528  29.328  28.096  1.00  0.00     0.023 C 
BRANCH  26  27
ATOM     27  C   UNL A   1      35.817  30.629  28.840  1.00  0.00     0.116 C 
BRANCH  27  28
ATOM     28  N   UNL A   1      35.797  30.475  30.287  1.00  0.00    -0.352 N 
ATOM     29  C   UNL A   1      36.824  30.151  31.138  1.00  0.00     0.251 C 
ATOM     30  H   UNL A   1      34.923  30.626  30.715  1.00  0.00     0.163 HD
ATOM     31  O   UNL A   1      36.594  29.955  32.328  1.00  0.00    -0.269 OA
BRANCH  29  32
ATOM     32  C   UNL A   1      38.199  30.004  30.612  1.00  0.00     0.039 A 
ATOM     33  C   UNL A   1      39.151  29.345  31.395  1.00  0.00     0.014 A 
ATOM     34  C   UNL A   1      38.543  30.498  29.351  1.00  0.00     0.014 A 
ATOM     35  C   UNL A   1      40.431  29.120  30.883  1.00  0.00     0.010 A 
ATOM     36  C   UNL A   1      39.797  30.213  28.817  1.00  0.00     0.010 A 
ATOM     37  C   UNL A   1      40.753  29.520  29.577  1.00  0.00    -0.014 A 
BRANCH  37  38
ATOM     38  C   UNL A   1      42.078  29.210  28.981  1.00  0.00     0.031 A 
ATOM     39  C   UNL A   1      42.370  27.831  28.457  1.00  0.00     0.074 A 
ATOM     40  C   UNL A   1      43.047  30.147  28.987  1.00  0.00     0.049 A 
ATOM     41  N   UNL A   1      43.486  27.349  27.973  1.00  0.00    -0.248 NA
ATOM     42  C   UNL A   1      41.269  26.856  28.512  1.00  0.00     0.031 C 
ATOM     43  C   UNL A   1      42.906  31.503  29.520  1.00  0.00     0.029 A 
ATOM     44  N   UNL A   1      44.345  30.097  28.545  1.00  0.00    -0.354 N 
ATOM     45  C   UNL A   1      43.230  26.013  27.687  1.00  0.00     0.074 A 
ATOM     46  C   UNL A   1      41.868  25.750  28.097  1.00  0.00     0.031 C 
ATOM     47  C   UNL A   1      44.066  32.159  29.365  1.00  0.00     0.029 A 
ATOM     48  C   UNL A   1      45.043  31.262  28.754  1.00  0.00     0.049 A 
ATOM     49  H   UNL A   1      44.740  29.301  28.121  1.00  0.00     0.167 HD
ATOM     50  C   UNL A   1      44.050  25.096  27.120  1.00  0.00     0.037 A 
ATOM     51  C   UNL A   1      46.328  31.574  28.492  1.00  0.00     0.037 A 
ATOM     52  C   UNL A   1      45.397  25.374  26.692  1.00  0.00     0.049 A 
ATOM     53  C   UNL A   1      47.216  30.550  27.841  1.00  0.00     0.074 A 
ATOM     54  C   UNL A   1      46.281  24.536  26.035  1.00  0.00     0.029 A 
ATOM     55  N   UNL A   1      46.058  26.579  26.886  1.00  0.00    -0.354 N 
ATOM     56  N   UNL A   1      46.934  29.313  27.505  1.00  0.00    -0.248 NA
ATOM     57  C   UNL A   1      48.589  30.962  27.526  1.00  0.00     0.031 C 
ATOM     58  C   UNL A   1      47.492  25.218  25.872  1.00  0.00     0.029 A 
ATOM     59  C   UNL A   1      47.347  26.499  26.384  1.00  0.00     0.049 A 
ATOM     60  H   UNL A   1      45.668  27.373  27.317  1.00  0.00     0.167 HD
ATOM     61  C   UNL A   1      48.090  28.805  26.921  1.00  0.00     0.074 A 
ATOM     62  C   UNL A   1      49.069  29.873  26.940  1.00  0.00     0.031 C 
ATOM     63  C   UNL A   1      48.315  27.569  26.412  1.00  0.00     0.037 A 
BRANCH  50  64
ATOM     64  C   UNL A   1      43.509  23.703  26.940  1.00  0.00     0.058 A 
ATOM     65  C   UNL A   1      43.113  23.220  25.682  1.00  0.00     0.135 A 
ATOM     66  C   UNL A   1      43.386  22.838  28.039  1.00  0.00     0.135 A 
ATOM     67  F   UNL A   1      43.198  24.007  24.597  1.00  0.00    -0.206 F 
ATOM     68  C   UNL A   1      42.569  21.948  25.528  1.00  0.00     0.059 A 
ATOM     69  C   UNL A   1      42.874  21.551  27.905  1.00  0.00     0.059 A 
ATOM     70  F   UNL A   1      43.754  23.246  29.265  1.00  0.00    -0.206 F 
ATOM     71  C   UNL A   1      42.446  21.125  26.648  1.00  0.00     0.060 A 
BRANCH  71  72
ATOM     72  S   UNL A   1      41.709  19.490  26.440  1.00  0.00     0.124 S 
ATOM     73  O   UNL A   1      42.267  19.081  25.155  1.00  0.00    -0.237 OA
ATOM     74  O   UNL A   1      42.211  18.768  27.606  1.00  0.00    -0.237 OA
ATOM     75  O   UNL A   1      40.274  19.759  26.445  1.00  0.00    -0.744 OA
ENDBRANCH  71  72
ENDBRANCH  50  64
BRANCH  51  76
ATOM     76  C   UNL A   1      46.833  32.931  28.828  1.00  0.00     0.058 A 
ATOM     77  C   UNL A   1      46.719  33.989  27.915  1.00  0.00     0.135 A 
ATOM     78  C   UNL A   1      47.385  33.210  30.088  1.00  0.00     0.135 A 
ATOM     79  F   UNL A   1      46.203  33.769  26.696  1.00  0.00    -0.206 F 
ATOM     80  C   UNL A   1      47.131  35.277  28.238  1.00  0.00     0.059 A 
ATOM     81  C   UNL A   1      47.785  34.495  30.442  1.00  0.00     0.059 A 
ATOM     82  F   UNL A   1      47.502  32.234  31.001  1.00  0.00    -0.206 F 
ATOM     83  C   UNL A   1      47.655  35.522  29.509  1.00  0.00     0.060 A 
BRANCH  83  84
ATOM     84  S   UNL A   1      48.108  37.216  29.946  1.00  0.00     0.124 S 
ATOM     85  O   UNL A   1      49.510  37.256  29.549  1.00  0.00    -0.237 OA
ATOM     86  O   UNL A   1      47.189  37.999  29.127  1.00  0.00    -0.237 OA
ATOM     87  O   UNL A   1      47.856  37.269  31.383  1.00  0.00    -0.744 OA
ENDBRANCH  83  84
ENDBRANCH  51  76
BRANCH  63  88
ATOM     88  C   UNL A   1      49.667  27.301  25.813  1.00  0.00     0.058 A 
ATOM     89  C   UNL A   1      50.755  26.893  26.600  1.00  0.00     0.135 A 
ATOM     90  C   UNL A   1      49.862  27.398  24.424  1.00  0.00     0.135 A 
ATOM     91  F   UNL A   1      50.626  26.793  27.932  1.00  0.00    -0.206 F 
ATOM     92  C   UNL A   1      51.995  26.606  26.034  1.00  0.00     0.059 A 
ATOM     93  C   UNL A   1      51.084  27.091  23.835  1.00  0.00     0.059 A 
ATOM     94  F   UNL A   1      48.851  27.775  23.625  1.00  0.00    -0.206 F 
ATOM     95  C   UNL A   1      52.148  26.705  24.649  1.00  0.00     0.060 A 
BRANCH  95  96
ATOM     96  S   UNL A   1      53.747  26.290  23.923  1.00  0.00     0.124 S 
ATOM     97  O   UNL A   1      53.395  26.104  22.520  1.00  0.00    -0.237 OA
ATOM     98  O   UNL A   1      54.546  27.475  24.224  1.00  0.00    -0.237 OA
ATOM     99  O   UNL A   1      54.141  25.080  24.639  1.00  0.00    -0.744 OA
ENDBRANCH  95  96
ENDBRANCH  63  88
ENDBRANCH  37  38
ENDBRANCH  29  32
ENDBRANCH  27  28
ENDBRANCH  26  27
ENDBRANCH  25  26
ENDBRANCH   1  25
TORSDOF 20
ENDMDL
