MODEL 1
REMARK VINA RESULT:     -11.3      0.000      0.000
REMARK SMILES C[C@@H]1SCCC[C@H]1[N@H+]1CCC[C@H](CCC(=O)NCCCCNC(=O)c2ccc(-c3c4nc(c(-c5c(F)cc(S(=O)(=O)[O-])cc5F)c5ccc([nH]5)c(-c5c(F)cc(S(=O)(=O)[O-])cc5F)c5nc(c(-c6c(F)cc(S(=O)(=O)[O-])cc6F)c6ccc3[nH]6)C=C5)C=C4)cc2)C1
REMARK SMILES IDX 19 1 18 2 17 3 15 4 16 5 14 7 13 8 12 9 8 10 9 11 91 12
REMARK SMILES IDX 10 14 11 15 7 16 1 17 2 18 3 19 4 20 6 21 5 22 20 23 21 24
REMARK SMILES IDX 22 25 23 26 24 28 25 29 26 30 90 31 27 32 89 33 28 34 29 35
REMARK SMILES IDX 30 36 83 37 31 38 88 39 82 40 84 41 32 42 87 43 81 44 80 45
REMARK SMILES IDX 33 47 67 48 46 49 66 50 47 51 50 52 65 53 85 54 48 55 49 56
REMARK SMILES IDX 64 58 86 59 51 60 34 61 35 62 44 63 36 64 37 65 43 66 45 67
REMARK SMILES IDX 38 68 39 69 40 70 41 71 42 72 68 73 69 74 78 75 70 76 71 77
REMARK SMILES IDX 77 78 79 79 72 80 73 81 74 82 75 83 76 84 52 85 53 86 62 87
REMARK SMILES IDX 54 88 55 89 61 90 63 91 56 92 57 93 58 94 59 95 60 96
REMARK H PARENT 17 6 8 13 22 27 84 46 50 57
REMARK Flexibility Score: inf
ROOT
ATOM      1  C   UNL A   1      35.049  22.876  26.574  1.00  0.00     0.023 C 
ENDROOT
BRANCH   1   2
ATOM      2  C   UNL A   1      33.955  21.938  27.099  1.00  0.00     0.116 C 
BRANCH   2   3
ATOM      3  N   UNL A   1      34.030  20.684  26.349  1.00  0.00    -0.356 N 
ATOM      4  C   UNL A   1      33.209  20.091  25.440  1.00  0.00     0.220 C 
ATOM      5  O   UNL A   1      33.364  18.885  25.233  1.00  0.00    -0.275 OA
ATOM      6  H   UNL A   1      34.843  20.162  26.539  1.00  0.00     0.163 HD
BRANCH   4   7
ATOM      7  C   UNL A   1      32.157  20.865  24.663  1.00  0.00     0.100 C 
BRANCH   7   8
ATOM      8  C   UNL A   1      32.746  21.718  23.524  1.00  0.00     0.019 C 
BRANCH   8   9
ATOM      9  C   UNL A   1      32.721  23.267  23.691  1.00  0.00     0.045 C 
ATOM     10  N   UNL A   1      31.220  25.297  23.135  1.00  0.00    -0.331 N 
ATOM     11  C   UNL A   1      32.270  25.778  22.249  1.00  0.00     0.262 C 
ATOM     12  C   UNL A   1      31.351  23.860  23.350  1.00  0.00     0.265 C 
ATOM     13  H   UNL A   1      30.399  25.531  22.577  1.00  0.00     0.348 HD
ATOM     14  C   UNL A   1      33.683  25.394  22.673  1.00  0.00     0.062 C 
ATOM     15  C   UNL A   1      33.824  23.883  22.808  1.00  0.00     0.015 C 
BRANCH  10  16
ATOM     16  C   UNL A   1      30.769  26.049  24.324  1.00  0.00     0.196 C 
ATOM     17  C   UNL A   1      31.430  27.122  26.506  1.00  0.00     0.026 C 
ATOM     18  C   UNL A   1      31.712  27.070  24.989  1.00  0.00     0.101 C 
ATOM     19  S   UNL A   1      31.618  28.815  24.417  1.00  0.00    -0.153 SA
ATOM     20  C   UNL A   1      30.314  28.805  23.145  1.00  0.00     0.070 C 
ATOM     21  C   UNL A   1      29.364  26.636  24.178  1.00  0.00     0.067 C 
ATOM     22  C   UNL A   1      29.218  27.748  23.163  1.00  0.00     0.017 C 
ENDBRANCH  10  16
ENDBRANCH   8   9
ENDBRANCH   7   8
ENDBRANCH   4   7
ENDBRANCH   2   3
ENDBRANCH   1   2
BRANCH   1  23
ATOM     23  C   UNL A   1      36.070  22.399  25.531  1.00  0.00     0.023 C 
BRANCH  23  24
ATOM     24  C   UNL A   1      37.295  23.249  25.229  1.00  0.00     0.116 C 
BRANCH  24  25
ATOM     25  N   UNL A   1      38.560  22.545  25.431  1.00  0.00    -0.352 N 
ATOM     26  C   UNL A   1      39.679  22.981  26.119  1.00  0.00     0.251 C 
ATOM     27  H   UNL A   1      38.623  21.650  25.027  1.00  0.00     0.163 HD
ATOM     28  O   UNL A   1      40.720  22.331  26.162  1.00  0.00    -0.269 OA
BRANCH  26  29
ATOM     29  C   UNL A   1      39.682  24.300  26.765  1.00  0.00     0.039 A 
ATOM     30  C   UNL A   1      39.085  24.415  28.026  1.00  0.00     0.014 A 
ATOM     31  C   UNL A   1      40.332  25.382  26.179  1.00  0.00     0.014 A 
ATOM     32  C   UNL A   1      39.265  25.578  28.762  1.00  0.00     0.010 A 
ATOM     33  C   UNL A   1      40.599  26.499  26.953  1.00  0.00     0.010 A 
ATOM     34  C   UNL A   1      40.090  26.592  28.258  1.00  0.00    -0.014 A 
BRANCH  34  35
ATOM     35  C   UNL A   1      40.475  27.754  29.088  1.00  0.00     0.031 A 
ATOM     36  C   UNL A   1      41.751  27.699  29.873  1.00  0.00     0.074 A 
ATOM     37  C   UNL A   1      39.615  28.784  29.212  1.00  0.00     0.049 A 
ATOM     38  N   UNL A   1      42.186  28.511  30.796  1.00  0.00    -0.248 NA
ATOM     39  C   UNL A   1      42.629  26.545  29.618  1.00  0.00     0.031 C 
ATOM     40  C   UNL A   1      38.320  28.898  28.534  1.00  0.00     0.029 A 
ATOM     41  N   UNL A   1      39.690  29.926  29.965  1.00  0.00    -0.354 N 
ATOM     42  C   UNL A   1      43.367  27.947  31.262  1.00  0.00     0.074 A 
ATOM     43  C   UNL A   1      43.551  26.698  30.557  1.00  0.00     0.031 C 
ATOM     44  C   UNL A   1      37.740  30.060  28.876  1.00  0.00     0.029 A 
ATOM     45  C   UNL A   1      38.596  30.749  29.833  1.00  0.00     0.049 A 
ATOM     46  H   UNL A   1      40.456  30.138  30.546  1.00  0.00     0.167 HD
ATOM     47  C   UNL A   1      44.228  28.444  32.180  1.00  0.00     0.037 A 
ATOM     48  C   UNL A   1      38.319  31.924  30.426  1.00  0.00     0.037 A 
ATOM     49  C   UNL A   1      44.045  29.714  32.827  1.00  0.00     0.049 A 
ATOM     50  C   UNL A   1      39.320  32.483  31.400  1.00  0.00     0.074 A 
ATOM     51  C   UNL A   1      44.872  30.351  33.733  1.00  0.00     0.029 A 
ATOM     52  N   UNL A   1      42.957  30.552  32.618  1.00  0.00    -0.354 N 
ATOM     53  N   UNL A   1      40.450  31.954  31.809  1.00  0.00    -0.248 NA
ATOM     54  C   UNL A   1      39.016  33.792  31.988  1.00  0.00     0.031 C 
ATOM     55  C   UNL A   1      44.275  31.566  34.087  1.00  0.00     0.029 A 
ATOM     56  C   UNL A   1      43.091  31.701  33.375  1.00  0.00     0.049 A 
ATOM     57  H   UNL A   1      42.200  30.356  32.019  1.00  0.00     0.167 HD
ATOM     58  C   UNL A   1      41.005  32.877  32.685  1.00  0.00     0.074 A 
ATOM     59  C   UNL A   1      40.090  34.001  32.737  1.00  0.00     0.031 C 
ATOM     60  C   UNL A   1      42.163  32.805  33.388  1.00  0.00     0.037 A 
BRANCH  47  61
ATOM     61  C   UNL A   1      45.434  27.611  32.514  1.00  0.00     0.058 A 
ATOM     62  C   UNL A   1      46.616  27.690  31.759  1.00  0.00     0.135 A 
ATOM     63  C   UNL A   1      45.405  26.706  33.587  1.00  0.00     0.135 A 
ATOM     64  F   UNL A   1      46.692  28.523  30.707  1.00  0.00    -0.206 F 
ATOM     65  C   UNL A   1      47.708  26.872  32.025  1.00  0.00     0.059 A 
ATOM     66  C   UNL A   1      46.498  25.897  33.891  1.00  0.00     0.059 A 
ATOM     67  F   UNL A   1      44.300  26.585  34.339  1.00  0.00    -0.206 F 
ATOM     68  C   UNL A   1      47.637  25.973  33.091  1.00  0.00     0.060 A 
BRANCH  68  69
ATOM     69  S   UNL A   1      49.054  24.902  33.413  1.00  0.00     0.124 S 
ATOM     70  O   UNL A   1      49.822  25.713  34.353  1.00  0.00    -0.237 OA
ATOM     71  O   UNL A   1      48.426  23.709  33.972  1.00  0.00    -0.237 OA
ATOM     72  O   UNL A   1      49.654  24.731  32.093  1.00  0.00    -0.744 OA
ENDBRANCH  68  69
ENDBRANCH  47  61
BRANCH  48  73
ATOM     73  C   UNL A   1      37.072  32.659  30.086  1.00  0.00     0.058 A 
ATOM     74  C   UNL A   1      35.883  32.416  30.792  1.00  0.00     0.135 A 
ATOM     75  C   UNL A   1      37.043  33.638  29.080  1.00  0.00     0.135 A 
ATOM     76  F   UNL A   1      35.859  31.490  31.763  1.00  0.00    -0.206 F 
ATOM     77  C   UNL A   1      34.708  33.102  30.503  1.00  0.00     0.059 A 
ATOM     78  C   UNL A   1      35.885  34.354  28.788  1.00  0.00     0.059 A 
ATOM     79  F   UNL A   1      38.158  33.926  28.392  1.00  0.00    -0.206 F 
ATOM     80  C   UNL A   1      34.719  34.071  29.499  1.00  0.00     0.060 A 
BRANCH  80  81
ATOM     81  S   UNL A   1      33.200  34.992  29.168  1.00  0.00     0.124 S 
ATOM     82  O   UNL A   1      33.727  36.258  28.674  1.00  0.00    -0.237 OA
ATOM     83  O   UNL A   1      32.537  34.147  28.180  1.00  0.00    -0.237 OA
ATOM     84  O   UNL A   1      32.549  35.044  30.473  1.00  0.00    -0.744 OA
ENDBRANCH  80  81
ENDBRANCH  48  73
BRANCH  60  85
ATOM     85  C   UNL A   1      42.517  33.988  34.239  1.00  0.00     0.058 A 
ATOM     86  C   UNL A   1      42.085  34.089  35.569  1.00  0.00     0.135 A 
ATOM     87  C   UNL A   1      43.343  35.003  33.732  1.00  0.00     0.135 A 
ATOM     88  F   UNL A   1      41.285  33.146  36.095  1.00  0.00    -0.206 F 
ATOM     89  C   UNL A   1      42.447  35.168  36.366  1.00  0.00     0.059 A 
ATOM     90  C   UNL A   1      43.738  36.078  34.518  1.00  0.00     0.059 A 
ATOM     91  F   UNL A   1      43.788  34.943  32.466  1.00  0.00    -0.206 F 
ATOM     92  C   UNL A   1      43.276  36.157  35.831  1.00  0.00     0.060 A 
BRANCH  92  93
ATOM     93  S   UNL A   1      43.775  37.532  36.887  1.00  0.00     0.124 S 
ATOM     94  O   UNL A   1      42.700  37.550  37.873  1.00  0.00    -0.237 OA
ATOM     95  O   UNL A   1      45.078  37.095  37.377  1.00  0.00    -0.237 OA
ATOM     96  O   UNL A   1      43.806  38.668  35.971  1.00  0.00    -0.744 OA
ENDBRANCH  92  93
ENDBRANCH  60  85
ENDBRANCH  34  35
ENDBRANCH  26  29
ENDBRANCH  24  25
ENDBRANCH  23  24
ENDBRANCH   1  23
TORSDOF 17
ENDMDL
MODEL 2
REMARK VINA RESULT:     -10.8      0.912      1.924
REMARK SMILES C[C@@H]1SCCC[C@H]1[N@H+]1CCC[C@H](CCC(=O)NCCCCNC(=O)c2ccc(-c3c4nc(c(-c5c(F)cc(S(=O)(=O)[O-])cc5F)c5ccc([nH]5)c(-c5c(F)cc(S(=O)(=O)[O-])cc5F)c5nc(c(-c6c(F)cc(S(=O)(=O)[O-])cc6F)c6ccc3[nH]6)C=C5)C=C4)cc2)C1
REMARK SMILES IDX 19 1 18 2 17 3 15 4 16 5 14 7 13 8 12 9 8 10 9 11 91 12
REMARK SMILES IDX 10 14 11 15 7 16 1 17 2 18 3 19 4 20 6 21 5 22 20 23 21 24
REMARK SMILES IDX 22 25 23 26 24 28 25 29 26 30 90 31 27 32 89 33 28 34 29 35
REMARK SMILES IDX 30 36 83 37 31 38 88 39 82 40 84 41 32 42 87 43 81 44 80 45
REMARK SMILES IDX 33 47 67 48 46 49 66 50 47 51 50 52 65 53 85 54 48 55 49 56
REMARK SMILES IDX 64 58 86 59 51 60 34 61 35 62 44 63 36 64 37 65 43 66 45 67
REMARK SMILES IDX 38 68 39 69 40 70 41 71 42 72 68 73 69 74 78 75 70 76 71 77
REMARK SMILES IDX 77 78 79 79 72 80 73 81 74 82 75 83 76 84 52 85 53 86 62 87
REMARK SMILES IDX 54 88 55 89 61 90 63 91 56 92 57 93 58 94 59 95 60 96
REMARK H PARENT 17 6 8 13 22 27 84 46 50 57
REMARK Flexibility Score: inf
ROOT
ATOM      1  C   UNL A   1      36.003  21.671  24.207  1.00  0.00     0.023 C 
ENDROOT
BRANCH   1   2
ATOM      2  C   UNL A   1      35.426  20.946  25.430  1.00  0.00     0.116 C 
BRANCH   2   3
ATOM      3  N   UNL A   1      34.663  19.791  24.958  1.00  0.00    -0.356 N 
ATOM      4  C   UNL A   1      33.334  19.498  24.937  1.00  0.00     0.220 C 
ATOM      5  O   UNL A   1      33.013  18.315  24.792  1.00  0.00    -0.275 OA
ATOM      6  H   UNL A   1      35.226  19.079  24.576  1.00  0.00     0.163 HD
BRANCH   4   7
ATOM      7  C   UNL A   1      32.260  20.568  25.044  1.00  0.00     0.100 C 
BRANCH   7   8
ATOM      8  C   UNL A   1      32.327  21.613  23.916  1.00  0.00     0.019 C 
BRANCH   8   9
ATOM      9  C   UNL A   1      32.182  23.114  24.308  1.00  0.00     0.045 C 
ATOM     10  N   UNL A   1      33.267  25.407  23.809  1.00  0.00    -0.331 N 
ATOM     11  C   UNL A   1      33.687  25.464  25.201  1.00  0.00     0.262 C 
ATOM     12  C   UNL A   1      33.018  24.027  23.406  1.00  0.00     0.265 C 
ATOM     13  H   UNL A   1      34.094  25.798  23.360  1.00  0.00     0.348 HD
ATOM     14  C   UNL A   1      32.759  24.748  26.175  1.00  0.00     0.062 C 
ATOM     15  C   UNL A   1      32.580  23.285  25.787  1.00  0.00     0.015 C 
BRANCH  10  16
ATOM     16  C   UNL A   1      32.337  26.389  23.213  1.00  0.00     0.196 C 
ATOM     17  C   UNL A   1      30.008  27.348  23.218  1.00  0.00     0.026 C 
ATOM     18  C   UNL A   1      31.247  27.042  24.084  1.00  0.00     0.101 C 
ATOM     19  S   UNL A   1      31.661  28.627  24.920  1.00  0.00    -0.153 SA
ATOM     20  C   UNL A   1      33.371  28.981  24.401  1.00  0.00     0.070 C 
ATOM     21  C   UNL A   1      33.035  27.443  22.351  1.00  0.00     0.067 C 
ATOM     22  C   UNL A   1      33.919  28.421  23.095  1.00  0.00     0.017 C 
ENDBRANCH  10  16
ENDBRANCH   8   9
ENDBRANCH   7   8
ENDBRANCH   4   7
ENDBRANCH   2   3
ENDBRANCH   1   2
BRANCH   1  23
ATOM     23  C   UNL A   1      36.457  23.135  24.294  1.00  0.00     0.023 C 
BRANCH  23  24
ATOM     24  C   UNL A   1      37.272  23.604  25.490  1.00  0.00     0.116 C 
BRANCH  24  25
ATOM     25  N   UNL A   1      38.524  22.870  25.668  1.00  0.00    -0.352 N 
ATOM     26  C   UNL A   1      39.666  23.281  26.333  1.00  0.00     0.251 C 
ATOM     27  H   UNL A   1      38.559  21.973  25.266  1.00  0.00     0.163 HD
ATOM     28  O   UNL A   1      40.693  22.608  26.357  1.00  0.00    -0.269 OA
BRANCH  26  29
ATOM     29  C   UNL A   1      39.713  24.601  26.977  1.00  0.00     0.039 A 
ATOM     30  C   UNL A   1      39.146  24.732  28.249  1.00  0.00     0.014 A 
ATOM     31  C   UNL A   1      40.375  25.668  26.373  1.00  0.00     0.014 A 
ATOM     32  C   UNL A   1      39.368  25.893  28.979  1.00  0.00     0.010 A 
ATOM     33  C   UNL A   1      40.683  26.779  27.139  1.00  0.00     0.010 A 
ATOM     34  C   UNL A   1      40.205  26.887  28.455  1.00  0.00    -0.014 A 
BRANCH  34  35
ATOM     35  C   UNL A   1      40.633  28.041  29.274  1.00  0.00     0.031 A 
ATOM     36  C   UNL A   1      41.952  27.983  29.983  1.00  0.00     0.074 A 
ATOM     37  C   UNL A   1      39.778  29.067  29.458  1.00  0.00     0.049 A 
ATOM     38  N   UNL A   1      42.437  28.786  30.888  1.00  0.00    -0.248 NA
ATOM     39  C   UNL A   1      42.818  26.834  29.666  1.00  0.00     0.031 C 
ATOM     40  C   UNL A   1      38.446  29.184  28.856  1.00  0.00     0.029 A 
ATOM     41  N   UNL A   1      39.894  30.202  30.217  1.00  0.00    -0.354 N 
ATOM     42  C   UNL A   1      43.645  28.221  31.280  1.00  0.00     0.074 A 
ATOM     43  C   UNL A   1      43.791  26.980  30.552  1.00  0.00     0.031 C 
ATOM     44  C   UNL A   1      37.884  30.339  29.243  1.00  0.00     0.029 A 
ATOM     45  C   UNL A   1      38.792  31.021  30.156  1.00  0.00     0.049 A 
ATOM     46  H   UNL A   1      40.691  30.410  30.755  1.00  0.00     0.167 HD
ATOM     47  C   UNL A   1      44.556  28.712  32.151  1.00  0.00     0.037 A 
ATOM     48  C   UNL A   1      38.545  32.190  30.777  1.00  0.00     0.037 A 
ATOM     49  C   UNL A   1      44.407  29.975  32.821  1.00  0.00     0.049 A 
ATOM     50  C   UNL A   1      39.599  32.742  31.697  1.00  0.00     0.074 A 
ATOM     51  C   UNL A   1      45.283  30.605  33.684  1.00  0.00     0.029 A 
ATOM     52  N   UNL A   1      43.305  30.811  32.684  1.00  0.00    -0.354 N 
ATOM     53  N   UNL A   1      40.752  32.212  32.035  1.00  0.00    -0.248 NA
ATOM     54  C   UNL A   1      39.325  34.044  32.315  1.00  0.00     0.031 C 
ATOM     55  C   UNL A   1      44.703  31.814  34.085  1.00  0.00     0.029 A 
ATOM     56  C   UNL A   1      43.480  31.953  33.444  1.00  0.00     0.049 A 
ATOM     57  H   UNL A   1      42.516  30.619  32.127  1.00  0.00     0.167 HD
ATOM     58  C   UNL A   1      41.354  33.128  32.888  1.00  0.00     0.074 A 
ATOM     59  C   UNL A   1      40.441  34.249  33.003  1.00  0.00     0.031 C 
ATOM     60  C   UNL A   1      42.551  33.053  33.522  1.00  0.00     0.037 A 
BRANCH  47  61
ATOM     61  C   UNL A   1      45.781  27.880  32.407  1.00  0.00     0.058 A 
ATOM     62  C   UNL A   1      46.899  27.935  31.558  1.00  0.00     0.135 A 
ATOM     63  C   UNL A   1      45.835  27.000  33.499  1.00  0.00     0.135 A 
ATOM     64  F   UNL A   1      46.894  28.743  30.484  1.00  0.00    -0.206 F 
ATOM     65  C   UNL A   1      48.006  27.117  31.755  1.00  0.00     0.059 A 
ATOM     66  C   UNL A   1      46.945  26.192  33.733  1.00  0.00     0.059 A 
ATOM     67  F   UNL A   1      44.794  26.902  34.341  1.00  0.00    -0.206 F 
ATOM     68  C   UNL A   1      48.017  26.243  32.843  1.00  0.00     0.060 A 
BRANCH  68  69
ATOM     69  S   UNL A   1      49.451  25.171  33.075  1.00  0.00     0.124 S 
ATOM     70  O   UNL A   1      48.862  24.055  33.808  1.00  0.00    -0.237 OA
ATOM     71  O   UNL A   1      49.854  24.885  31.702  1.00  0.00    -0.237 OA
ATOM     72  O   UNL A   1      50.376  26.005  33.836  1.00  0.00    -0.744 OA
ENDBRANCH  68  69
ENDBRANCH  47  61
BRANCH  48  73
ATOM     73  C   UNL A   1      37.279  32.924  30.517  1.00  0.00     0.058 A 
ATOM     74  C   UNL A   1      37.122  33.688  29.350  1.00  0.00     0.135 A 
ATOM     75  C   UNL A   1      36.191  32.855  31.402  1.00  0.00     0.135 A 
ATOM     76  F   UNL A   1      38.132  33.785  28.473  1.00  0.00    -0.206 F 
ATOM     77  C   UNL A   1      35.941  34.371  29.078  1.00  0.00     0.059 A 
ATOM     78  C   UNL A   1      34.991  33.512  31.140  1.00  0.00     0.059 A 
ATOM     79  F   UNL A   1      36.281  32.119  32.520  1.00  0.00    -0.206 F 
ATOM     80  C   UNL A   1      34.879  34.276  29.978  1.00  0.00     0.060 A 
BRANCH  80  81
ATOM     81  S   UNL A   1      33.333  35.125  29.588  1.00  0.00     0.124 S 
ATOM     82  O   UNL A   1      32.778  34.262  28.553  1.00  0.00    -0.237 OA
ATOM     83  O   UNL A   1      32.641  35.109  30.873  1.00  0.00    -0.237 OA
ATOM     84  O   UNL A   1      33.778  36.442  29.142  1.00  0.00    -0.744 OA
ENDBRANCH  80  81
ENDBRANCH  48  73
BRANCH  60  85
ATOM     85  C   UNL A   1      42.949  34.229  34.364  1.00  0.00     0.058 A 
ATOM     86  C   UNL A   1      43.561  35.359  33.803  1.00  0.00     0.135 A 
ATOM     87  C   UNL A   1      42.664  34.243  35.738  1.00  0.00     0.135 A 
ATOM     88  F   UNL A   1      43.861  35.386  32.494  1.00  0.00    -0.206 F 
ATOM     89  C   UNL A   1      43.894  36.460  34.581  1.00  0.00     0.059 A 
ATOM     90  C   UNL A   1      42.965  35.344  36.530  1.00  0.00     0.059 A 
ATOM     91  F   UNL A   1      42.070  33.186  36.316  1.00  0.00    -0.206 F 
ATOM     92  C   UNL A   1      43.590  36.444  35.944  1.00  0.00     0.060 A 
BRANCH  92  93
ATOM     93  S   UNL A   1      43.987  37.897  36.937  1.00  0.00     0.124 S 
ATOM     94  O   UNL A   1      45.291  37.532  37.480  1.00  0.00    -0.237 OA
ATOM     95  O   UNL A   1      43.991  38.966  35.943  1.00  0.00    -0.237 OA
ATOM     96  O   UNL A   1      42.897  37.954  37.906  1.00  0.00    -0.744 OA
ENDBRANCH  92  93
ENDBRANCH  60  85
ENDBRANCH  34  35
ENDBRANCH  26  29
ENDBRANCH  24  25
ENDBRANCH  23  24
ENDBRANCH   1  23
TORSDOF 17
ENDMDL
MODEL 3
REMARK VINA RESULT:     -10.6      2.903      3.616
REMARK SMILES C[C@@H]1SCCC[C@H]1[N@H+]1CCC[C@H](CCC(=O)NCCCCNC(=O)c2ccc(-c3c4nc(c(-c5c(F)cc(S(=O)(=O)[O-])cc5F)c5ccc([nH]5)c(-c5c(F)cc(S(=O)(=O)[O-])cc5F)c5nc(c(-c6c(F)cc(S(=O)(=O)[O-])cc6F)c6ccc3[nH]6)C=C5)C=C4)cc2)C1
REMARK SMILES IDX 19 1 18 2 17 3 15 4 16 5 14 7 13 8 12 9 8 10 9 11 91 12
REMARK SMILES IDX 10 14 11 15 7 16 1 17 2 18 3 19 4 20 6 21 5 22 20 23 21 24
REMARK SMILES IDX 22 25 23 26 24 28 25 29 26 30 90 31 27 32 89 33 28 34 29 35
REMARK SMILES IDX 30 36 83 37 31 38 88 39 82 40 84 41 32 42 87 43 81 44 80 45
REMARK SMILES IDX 33 47 67 48 46 49 66 50 47 51 50 52 65 53 85 54 48 55 49 56
REMARK SMILES IDX 64 58 86 59 51 60 34 61 35 62 44 63 36 64 37 65 43 66 45 67
REMARK SMILES IDX 38 68 39 69 40 70 41 71 42 72 68 73 69 74 78 75 70 76 71 77
REMARK SMILES IDX 77 78 79 79 72 80 73 81 74 82 75 83 76 84 52 85 53 86 62 87
REMARK SMILES IDX 54 88 55 89 61 90 63 91 56 92 57 93 58 94 59 95 60 96
REMARK H PARENT 17 6 8 13 22 27 84 46 50 57
REMARK Flexibility Score: inf
ROOT
ATOM      1  C   UNL A   1      34.727  22.735  26.887  1.00  0.00     0.023 C 
ENDROOT
BRANCH   1   2
ATOM      2  C   UNL A   1      33.597  21.813  27.362  1.00  0.00     0.116 C 
BRANCH   2   3
ATOM      3  N   UNL A   1      33.671  20.568  26.597  1.00  0.00    -0.356 N 
ATOM      4  C   UNL A   1      32.903  20.035  25.608  1.00  0.00     0.220 C 
ATOM      5  O   UNL A   1      33.011  18.825  25.392  1.00  0.00    -0.275 OA
ATOM      6  H   UNL A   1      34.434  19.999  26.848  1.00  0.00     0.163 HD
BRANCH   4   7
ATOM      7  C   UNL A   1      31.969  20.877  24.756  1.00  0.00     0.100 C 
BRANCH   7   8
ATOM      8  C   UNL A   1      32.699  21.689  23.672  1.00  0.00     0.019 C 
BRANCH   8   9
ATOM      9  C   UNL A   1      32.681  23.243  23.793  1.00  0.00     0.045 C 
ATOM     10  N   UNL A   1      31.190  25.263  23.177  1.00  0.00    -0.331 N 
ATOM     11  C   UNL A   1      32.244  25.713  22.280  1.00  0.00     0.262 C 
ATOM     12  C   UNL A   1      31.314  23.832  23.434  1.00  0.00     0.265 C 
ATOM     13  H   UNL A   1      30.371  25.485  22.612  1.00  0.00     0.348 HD
ATOM     14  C   UNL A   1      33.654  25.335  22.716  1.00  0.00     0.062 C 
ATOM     15  C   UNL A   1      33.787  23.828  22.895  1.00  0.00     0.015 C 
BRANCH  10  16
ATOM     16  C   UNL A   1      30.742  26.051  24.344  1.00  0.00     0.196 C 
ATOM     17  C   UNL A   1      31.402  27.167  26.504  1.00  0.00     0.026 C 
ATOM     18  C   UNL A   1      31.695  27.073  24.992  1.00  0.00     0.101 C 
ATOM     19  S   UNL A   1      31.633  28.805  24.376  1.00  0.00    -0.153 SA
ATOM     20  C   UNL A   1      30.339  28.784  23.093  1.00  0.00     0.070 C 
ATOM     21  C   UNL A   1      29.347  26.656  24.172  1.00  0.00     0.067 C 
ATOM     22  C   UNL A   1      29.227  27.745  23.128  1.00  0.00     0.017 C 
ENDBRANCH  10  16
ENDBRANCH   8   9
ENDBRANCH   7   8
ENDBRANCH   4   7
ENDBRANCH   2   3
ENDBRANCH   1   2
BRANCH   1  23
ATOM     23  C   UNL A   1      35.698  22.295  25.782  1.00  0.00     0.023 C 
BRANCH  23  24
ATOM     24  C   UNL A   1      37.044  22.990  25.639  1.00  0.00     0.116 C 
BRANCH  24  25
ATOM     25  N   UNL A   1      38.168  22.193  26.127  1.00  0.00    -0.352 N 
ATOM     26  C   UNL A   1      39.312  22.635  26.767  1.00  0.00     0.251 C 
ATOM     27  H   UNL A   1      38.104  21.222  25.981  1.00  0.00     0.163 HD
ATOM     28  O   UNL A   1      40.232  21.879  27.069  1.00  0.00    -0.269 OA
BRANCH  26  29
ATOM     29  C   UNL A   1      39.501  24.066  27.040  1.00  0.00     0.039 A 
ATOM     30  C   UNL A   1      39.318  24.515  28.353  1.00  0.00     0.014 A 
ATOM     31  C   UNL A   1      39.932  24.934  26.039  1.00  0.00     0.014 A 
ATOM     32  C   UNL A   1      39.704  25.805  28.693  1.00  0.00     0.010 A 
ATOM     33  C   UNL A   1      40.413  26.181  26.400  1.00  0.00     0.010 A 
ATOM     34  C   UNL A   1      40.327  26.613  27.733  1.00  0.00    -0.014 A 
BRANCH  34  35
ATOM     35  C   UNL A   1      40.936  27.910  28.100  1.00  0.00     0.031 A 
ATOM     36  C   UNL A   1      42.421  28.076  27.984  1.00  0.00     0.074 A 
ATOM     37  C   UNL A   1      40.159  28.870  28.639  1.00  0.00     0.049 A 
ATOM     38  N   UNL A   1      43.179  29.045  28.419  1.00  0.00    -0.248 NA
ATOM     39  C   UNL A   1      43.157  26.977  27.337  1.00  0.00     0.031 C 
ATOM     40  C   UNL A   1      38.711  28.776  28.847  1.00  0.00     0.029 A 
ATOM     41  N   UNL A   1      40.479  30.110  29.126  1.00  0.00    -0.354 N 
ATOM     42  C   UNL A   1      44.482  28.655  28.135  1.00  0.00     0.074 A 
ATOM     43  C   UNL A   1      44.414  27.339  27.541  1.00  0.00     0.031 C 
ATOM     44  C   UNL A   1      38.265  29.921  29.389  1.00  0.00     0.029 A 
ATOM     45  C   UNL A   1      39.399  30.809  29.610  1.00  0.00     0.049 A 
ATOM     46  H   UNL A   1      41.396  30.467  29.129  1.00  0.00     0.167 HD
ATOM     47  C   UNL A   1      45.626  29.349  28.335  1.00  0.00     0.037 A 
ATOM     48  C   UNL A   1      39.338  32.029  30.175  1.00  0.00     0.037 A 
ATOM     49  C   UNL A   1      45.658  30.679  28.881  1.00  0.00     0.049 A 
ATOM     50  C   UNL A   1      40.617  32.804  30.333  1.00  0.00     0.074 A 
ATOM     51  C   UNL A   1      46.746  31.505  29.082  1.00  0.00     0.029 A 
ATOM     52  N   UNL A   1      44.535  31.382  29.299  1.00  0.00    -0.354 N 
ATOM     53  N   UNL A   1      41.841  32.436  30.032  1.00  0.00    -0.248 NA
ATOM     54  C   UNL A   1      40.511  34.153  30.900  1.00  0.00     0.031 C 
ATOM     55  C   UNL A   1      46.285  32.703  29.640  1.00  0.00     0.029 A 
ATOM     56  C   UNL A   1      44.903  32.635  29.754  1.00  0.00     0.049 A 
ATOM     57  H   UNL A   1      43.612  31.040  29.274  1.00  0.00     0.167 HD
ATOM     58  C   UNL A   1      42.651  33.518  30.350  1.00  0.00     0.074 A 
ATOM     59  C   UNL A   1      41.774  34.557  30.857  1.00  0.00     0.031 C 
ATOM     60  C   UNL A   1      43.996  33.646  30.239  1.00  0.00     0.037 A 
BRANCH  47  61
ATOM     61  C   UNL A   1      46.914  28.678  27.948  1.00  0.00     0.058 A 
ATOM     62  C   UNL A   1      47.665  27.936  28.875  1.00  0.00     0.135 A 
ATOM     63  C   UNL A   1      47.418  28.794  26.643  1.00  0.00     0.135 A 
ATOM     64  F   UNL A   1      47.242  27.811  30.143  1.00  0.00    -0.206 F 
ATOM     65  C   UNL A   1      48.890  27.372  28.536  1.00  0.00     0.059 A 
ATOM     66  C   UNL A   1      48.629  28.212  26.273  1.00  0.00     0.059 A 
ATOM     67  F   UNL A   1      46.745  29.495  25.718  1.00  0.00    -0.206 F 
ATOM     68  C   UNL A   1      49.367  27.521  27.232  1.00  0.00     0.060 A 
BRANCH  68  69
ATOM     69  S   UNL A   1      50.968  26.801  26.811  1.00  0.00     0.124 S 
ATOM     70  O   UNL A   1      51.002  25.638  27.692  1.00  0.00    -0.237 OA
ATOM     71  O   UNL A   1      50.819  26.514  25.388  1.00  0.00    -0.237 OA
ATOM     72  O   UNL A   1      51.913  27.865  27.138  1.00  0.00    -0.744 OA
ENDBRANCH  68  69
ENDBRANCH  47  61
BRANCH  48  73
ATOM     73  C   UNL A   1      38.028  32.600  30.587  1.00  0.00     0.058 A 
ATOM     74  C   UNL A   1      37.589  32.495  31.917  1.00  0.00     0.135 A 
ATOM     75  C   UNL A   1      37.204  33.286  29.681  1.00  0.00     0.135 A 
ATOM     76  F   UNL A   1      38.341  31.849  32.820  1.00  0.00    -0.206 F 
ATOM     77  C   UNL A   1      36.375  33.034  32.330  1.00  0.00     0.059 A 
ATOM     78  C   UNL A   1      35.995  33.854  30.077  1.00  0.00     0.059 A 
ATOM     79  F   UNL A   1      37.588  33.435  28.404  1.00  0.00    -0.206 F 
ATOM     80  C   UNL A   1      35.585  33.714  31.402  1.00  0.00     0.060 A 
BRANCH  80  81
ATOM     81  S   UNL A   1      34.035  34.455  31.962  1.00  0.00     0.124 S 
ATOM     82  O   UNL A   1      33.536  33.435  32.875  1.00  0.00    -0.237 OA
ATOM     83  O   UNL A   1      34.493  35.696  32.578  1.00  0.00    -0.237 OA
ATOM     84  O   UNL A   1      33.278  34.622  30.725  1.00  0.00    -0.744 OA
ENDBRANCH  80  81
ENDBRANCH  48  73
BRANCH  60  85
ATOM     85  C   UNL A   1      44.590  34.964  30.640  1.00  0.00     0.058 A 
ATOM     86  C   UNL A   1      44.706  36.023  29.728  1.00  0.00     0.135 A 
ATOM     87  C   UNL A   1      44.996  35.183  31.965  1.00  0.00     0.135 A 
ATOM     88  F   UNL A   1      44.339  35.856  28.447  1.00  0.00    -0.206 F 
ATOM     89  C   UNL A   1      45.222  37.254  30.113  1.00  0.00     0.059 A 
ATOM     90  C   UNL A   1      45.491  36.414  32.379  1.00  0.00     0.059 A 
ATOM     91  F   UNL A   1      44.894  34.200  32.875  1.00  0.00    -0.206 F 
ATOM     92  C   UNL A   1      45.609  37.440  31.442  1.00  0.00     0.060 A 
BRANCH  92  93
ATOM     93  S   UNL A   1      46.238  39.055  31.943  1.00  0.00     0.124 S 
ATOM     94  O   UNL A   1      45.159  39.539  32.797  1.00  0.00    -0.237 OA
ATOM     95  O   UNL A   1      47.481  38.710  32.626  1.00  0.00    -0.237 OA
ATOM     96  O   UNL A   1      46.403  39.763  30.677  1.00  0.00    -0.744 OA
ENDBRANCH  92  93
ENDBRANCH  60  85
ENDBRANCH  34  35
ENDBRANCH  26  29
ENDBRANCH  24  25
ENDBRANCH  23  24
ENDBRANCH   1  23
TORSDOF 17
ENDMDL
