MODEL 1
REMARK VINA RESULT:     -11.6      0.000      0.000
REMARK SMILES C[C@H]1CC[C@@H]([C@H](C(=O)NCCCCNC(=O)c2ccc(-c3c4nc(c(-c5c(F)cc(S(=O)(=O)[O-])cc5F)c5ccc([nH]5)c(-c5c(F)cc(S(=O)(=O)[O-])cc5F)c5nc(c(-c6c(F)cc(S(=O)(=O)[O-])cc6F)c6ccc3[nH]6)C=C5)C=C4)cc2)[C@@H]2CCS(=O)(=O)C2)C[C@@H]1C
REMARK SMILES IDX 12 1 11 2 10 3 9 4 7 5 8 6 6 8 5 9 1 10 2 11 3 12 91 13 4 14
REMARK SMILES IDX 90 15 92 16 83 17 84 18 89 19 85 20 86 21 87 22 88 23 13 24
REMARK SMILES IDX 14 25 15 26 16 28 17 29 18 30 82 31 19 32 81 33 20 34 21 35
REMARK SMILES IDX 22 36 75 37 23 38 80 39 74 40 76 41 24 42 79 43 73 44 72 45
REMARK SMILES IDX 25 47 59 48 38 49 58 50 39 51 42 52 57 53 77 54 40 55 41 56
REMARK SMILES IDX 56 58 78 59 43 60 26 61 27 62 36 63 28 64 29 65 35 66 37 67
REMARK SMILES IDX 30 68 31 69 32 70 33 71 34 72 60 73 61 74 70 75 62 76 63 77
REMARK SMILES IDX 69 78 71 79 64 80 65 81 66 82 67 83 68 84 44 85 45 86 54 87
REMARK SMILES IDX 46 88 47 89 53 90 55 91 48 92 49 93 50 94 51 95 52 96
REMARK H PARENT 9 7 14 27 76 46 42 57
REMARK Flexibility Score: inf
ROOT
ATOM      1  C   UNL A   1      32.328  28.939  26.450  1.00  0.00     0.023 C 
ENDROOT
BRANCH   1   2
ATOM      2  C   UNL A   1      31.880  27.490  26.506  1.00  0.00     0.023 C 
BRANCH   2   3
ATOM      3  C   UNL A   1      33.000  26.458  26.303  1.00  0.00     0.116 C 
BRANCH   3   4
ATOM      4  N   UNL A   1      32.505  25.112  26.450  1.00  0.00    -0.356 N 
ATOM      5  C   UNL A   1      32.657  23.993  25.719  1.00  0.00     0.223 C 
ATOM      6  O   UNL A   1      32.262  22.955  26.272  1.00  0.00    -0.275 OA
ATOM      7  H   UNL A   1      31.941  24.985  27.248  1.00  0.00     0.163 HD
BRANCH   5   8
ATOM      8  C   UNL A   1      33.274  23.886  24.300  1.00  0.00     0.085 C 
BRANCH   8   9
ATOM      9  C   UNL A   1      32.290  23.914  23.043  1.00  0.00     0.002 C 
ATOM     10  C   UNL A   1      31.359  28.172  22.682  1.00  0.00     0.008 C 
ATOM     11  C   UNL A   1      31.291  26.678  22.356  1.00  0.00    -0.011 C 
ATOM     12  C   UNL A   1      32.681  26.188  21.884  1.00  0.00     0.004 C 
ATOM     13  C   UNL A   1      30.718  25.834  23.514  1.00  0.00    -0.011 C 
ATOM     14  C   UNL A   1      32.872  24.666  21.829  1.00  0.00     0.005 C 
ATOM     15  C   UNL A   1      30.828  24.374  23.123  1.00  0.00     0.008 C 
ATOM     16  C   UNL A   1      29.320  26.255  23.966  1.00  0.00     0.008 C 
ENDBRANCH   8   9
BRANCH   8  17
ATOM     17  C   UNL A   1      34.840  24.137  24.188  1.00  0.00     0.018 C 
ATOM     18  C   UNL A   1      35.591  23.168  23.227  1.00  0.00     0.021 C 
ATOM     19  C   UNL A   1      35.790  24.153  25.387  1.00  0.00     0.141 C 
ATOM     20  C   UNL A   1      36.097  21.949  24.007  1.00  0.00     0.137 C 
ATOM     21  S   UNL A   1      36.290  22.486  25.692  1.00  0.00     0.150 S 
ATOM     22  O   UNL A   1      35.279  21.861  26.522  1.00  0.00    -0.229 OA
ATOM     23  O   UNL A   1      37.688  22.492  26.057  1.00  0.00    -0.229 OA
ENDBRANCH   8  17
ENDBRANCH   5   8
ENDBRANCH   3   4
ENDBRANCH   2   3
ENDBRANCH   1   2
BRANCH   1  24
ATOM     24  C   UNL A   1      33.614  29.202  27.217  1.00  0.00     0.116 C 
BRANCH  24  25
ATOM     25  N   UNL A   1      33.652  30.485  27.918  1.00  0.00    -0.352 N 
ATOM     26  C   UNL A   1      34.721  31.011  28.611  1.00  0.00     0.251 C 
ATOM     27  H   UNL A   1      32.831  31.028  27.891  1.00  0.00     0.163 HD
ATOM     28  O   UNL A   1      34.643  32.075  29.212  1.00  0.00    -0.269 OA
BRANCH  26  29
ATOM     29  C   UNL A   1      35.952  30.201  28.640  1.00  0.00     0.039 A 
ATOM     30  C   UNL A   1      36.788  30.203  27.522  1.00  0.00     0.014 A 
ATOM     31  C   UNL A   1      36.373  29.670  29.861  1.00  0.00     0.014 A 
ATOM     32  C   UNL A   1      38.100  29.751  27.659  1.00  0.00     0.010 A 
ATOM     33  C   UNL A   1      37.707  29.330  30.017  1.00  0.00     0.010 A 
ATOM     34  C   UNL A   1      38.586  29.368  28.920  1.00  0.00    -0.014 A 
BRANCH  34  35
ATOM     35  C   UNL A   1      40.001  28.974  29.137  1.00  0.00     0.031 A 
ATOM     36  C   UNL A   1      40.974  30.014  29.621  1.00  0.00     0.074 A 
ATOM     37  C   UNL A   1      40.430  27.738  28.807  1.00  0.00     0.049 A 
ATOM     38  N   UNL A   1      42.275  29.952  29.709  1.00  0.00    -0.248 NA
ATOM     39  C   UNL A   1      40.405  31.315  30.017  1.00  0.00     0.031 C 
ATOM     40  C   UNL A   1      39.591  26.652  28.293  1.00  0.00     0.029 A 
ATOM     41  N   UNL A   1      41.691  27.192  28.832  1.00  0.00    -0.354 N 
ATOM     42  C   UNL A   1      42.680  31.210  30.139  1.00  0.00     0.074 A 
ATOM     43  C   UNL A   1      41.495  32.032  30.234  1.00  0.00     0.031 C 
ATOM     44  C   UNL A   1      40.356  25.570  28.069  1.00  0.00     0.029 A 
ATOM     45  C   UNL A   1      41.747  25.898  28.367  1.00  0.00     0.049 A 
ATOM     46  H   UNL A   1      42.482  27.682  29.154  1.00  0.00     0.167 HD
ATOM     47  C   UNL A   1      43.925  31.634  30.453  1.00  0.00     0.037 A 
ATOM     48  C   UNL A   1      42.802  25.078  28.181  1.00  0.00     0.037 A 
ATOM     49  C   UNL A   1      45.090  30.795  30.391  1.00  0.00     0.049 A 
ATOM     50  C   UNL A   1      44.184  25.577  28.523  1.00  0.00     0.074 A 
ATOM     51  C   UNL A   1      46.390  31.109  30.745  1.00  0.00     0.029 A 
ATOM     52  N   UNL A   1      45.098  29.481  29.949  1.00  0.00    -0.354 N 
ATOM     53  N   UNL A   1      44.543  26.752  28.982  1.00  0.00    -0.248 NA
ATOM     54  C   UNL A   1      45.302  24.644  28.323  1.00  0.00     0.031 C 
ATOM     55  C   UNL A   1      47.194  30.002  30.462  1.00  0.00     0.029 A 
ATOM     56  C   UNL A   1      46.385  28.976  29.999  1.00  0.00     0.049 A 
ATOM     57  H   UNL A   1      44.306  28.981  29.645  1.00  0.00     0.167 HD
ATOM     58  C   UNL A   1      45.921  26.685  29.164  1.00  0.00     0.074 A 
ATOM     59  C   UNL A   1      46.331  25.355  28.764  1.00  0.00     0.031 C 
ATOM     60  C   UNL A   1      46.768  27.637  29.627  1.00  0.00     0.037 A 
BRANCH  47  61
ATOM     61  C   UNL A   1      44.090  33.063  30.889  1.00  0.00     0.058 A 
ATOM     62  C   UNL A   1      44.227  34.108  29.962  1.00  0.00     0.135 A 
ATOM     63  C   UNL A   1      44.072  33.395  32.253  1.00  0.00     0.135 A 
ATOM     64  F   UNL A   1      44.271  33.846  28.646  1.00  0.00    -0.206 F 
ATOM     65  C   UNL A   1      44.368  35.430  30.373  1.00  0.00     0.059 A 
ATOM     66  C   UNL A   1      44.175  34.713  32.686  1.00  0.00     0.059 A 
ATOM     67  F   UNL A   1      43.948  32.434  33.182  1.00  0.00    -0.206 F 
ATOM     68  C   UNL A   1      44.336  35.723  31.737  1.00  0.00     0.060 A 
BRANCH  68  69
ATOM     69  S   UNL A   1      44.496  37.445  32.249  1.00  0.00     0.124 S 
ATOM     70  O   UNL A   1      45.885  37.488  32.696  1.00  0.00    -0.237 OA
ATOM     71  O   UNL A   1      44.207  38.164  31.012  1.00  0.00    -0.237 OA
ATOM     72  O   UNL A   1      43.494  37.583  33.301  1.00  0.00    -0.744 OA
ENDBRANCH  68  69
ENDBRANCH  47  61
BRANCH  48  73
ATOM     73  C   UNL A   1      42.599  23.700  27.651  1.00  0.00     0.058 A 
ATOM     74  C   UNL A   1      42.493  22.600  28.515  1.00  0.00     0.135 A 
ATOM     75  C   UNL A   1      42.511  23.454  26.271  1.00  0.00     0.135 A 
ATOM     76  F   UNL A   1      42.580  22.779  29.843  1.00  0.00    -0.206 F 
ATOM     77  C   UNL A   1      42.328  21.304  28.034  1.00  0.00     0.059 A 
ATOM     78  C   UNL A   1      42.316  22.171  25.767  1.00  0.00     0.059 A 
ATOM     79  F   UNL A   1      42.590  24.469  25.399  1.00  0.00    -0.206 F 
ATOM     80  C   UNL A   1      42.239  21.100  26.656  1.00  0.00     0.060 A 
BRANCH  80  81
ATOM     81  S   UNL A   1      41.987  19.419  26.045  1.00  0.00     0.124 S 
ATOM     82  O   UNL A   1      42.451  18.621  27.174  1.00  0.00    -0.237 OA
ATOM     83  O   UNL A   1      40.549  19.397  25.796  1.00  0.00    -0.237 OA
ATOM     84  O   UNL A   1      42.824  19.368  24.850  1.00  0.00    -0.744 OA
ENDBRANCH  80  81
ENDBRANCH  48  73
BRANCH  60  85
ATOM     85  C   UNL A   1      48.218  27.275  29.798  1.00  0.00     0.058 A 
ATOM     86  C   UNL A   1      49.169  27.529  28.799  1.00  0.00     0.135 A 
ATOM     87  C   UNL A   1      48.675  26.783  31.032  1.00  0.00     0.135 A 
ATOM     88  F   UNL A   1      48.784  27.991  27.599  1.00  0.00    -0.206 F 
ATOM     89  C   UNL A   1      50.526  27.312  29.021  1.00  0.00     0.059 A 
ATOM     90  C   UNL A   1      50.028  26.587  31.285  1.00  0.00     0.059 A 
ATOM     91  F   UNL A   1      47.805  26.532  32.024  1.00  0.00    -0.206 F 
ATOM     92  C   UNL A   1      50.946  26.855  30.271  1.00  0.00     0.060 A 
BRANCH  92  93
ATOM     93  S   UNL A   1      52.717  26.668  30.572  1.00  0.00     0.124 S 
ATOM     94  O   UNL A   1      52.736  25.597  31.563  1.00  0.00    -0.237 OA
ATOM     95  O   UNL A   1      53.220  26.316  29.247  1.00  0.00    -0.237 OA
ATOM     96  O   UNL A   1      53.121  27.983  31.061  1.00  0.00    -0.744 OA
ENDBRANCH  92  93
ENDBRANCH  60  85
ENDBRANCH  34  35
ENDBRANCH  26  29
ENDBRANCH  24  25
ENDBRANCH   1  24
TORSDOF 16
ENDMDL
MODEL 2
REMARK VINA RESULT:     -11.5      1.220      2.589
REMARK SMILES C[C@H]1CC[C@@H]([C@H](C(=O)NCCCCNC(=O)c2ccc(-c3c4nc(c(-c5c(F)cc(S(=O)(=O)[O-])cc5F)c5ccc([nH]5)c(-c5c(F)cc(S(=O)(=O)[O-])cc5F)c5nc(c(-c6c(F)cc(S(=O)(=O)[O-])cc6F)c6ccc3[nH]6)C=C5)C=C4)cc2)[C@@H]2CCS(=O)(=O)C2)C[C@@H]1C
REMARK SMILES IDX 12 1 11 2 10 3 9 4 7 5 8 6 6 8 5 9 1 10 2 11 3 12 91 13 4 14
REMARK SMILES IDX 90 15 92 16 83 17 84 18 89 19 85 20 86 21 87 22 88 23 13 24
REMARK SMILES IDX 14 25 15 26 16 28 17 29 18 30 82 31 19 32 81 33 20 34 21 35
REMARK SMILES IDX 22 36 75 37 23 38 80 39 74 40 76 41 24 42 79 43 73 44 72 45
REMARK SMILES IDX 25 47 59 48 38 49 58 50 39 51 42 52 57 53 77 54 40 55 41 56
REMARK SMILES IDX 56 58 78 59 43 60 26 61 27 62 36 63 28 64 29 65 35 66 37 67
REMARK SMILES IDX 30 68 31 69 32 70 33 71 34 72 60 73 61 74 70 75 62 76 63 77
REMARK SMILES IDX 69 78 71 79 64 80 65 81 66 82 67 83 68 84 44 85 45 86 54 87
REMARK SMILES IDX 46 88 47 89 53 90 55 91 48 92 49 93 50 94 51 95 52 96
REMARK H PARENT 9 7 14 27 76 46 42 57
REMARK Flexibility Score: inf
ROOT
ATOM      1  C   UNL A   1      32.546  28.827  26.301  1.00  0.00     0.023 C 
ENDROOT
BRANCH   1   2
ATOM      2  C   UNL A   1      31.671  27.641  26.664  1.00  0.00     0.023 C 
BRANCH   2   3
ATOM      3  C   UNL A   1      32.294  26.266  26.381  1.00  0.00     0.116 C 
BRANCH   3   4
ATOM      4  N   UNL A   1      31.457  25.200  26.876  1.00  0.00    -0.356 N 
ATOM      5  C   UNL A   1      31.334  23.902  26.545  1.00  0.00     0.223 C 
ATOM      6  O   UNL A   1      30.663  23.228  27.341  1.00  0.00    -0.275 OA
ATOM      7  H   UNL A   1      30.856  25.479  27.604  1.00  0.00     0.163 HD
BRANCH   5   8
ATOM      8  C   UNL A   1      31.945  23.196  25.308  1.00  0.00     0.085 C 
BRANCH   8   9
ATOM      9  C   UNL A   1      32.962  21.989  25.550  1.00  0.00     0.002 C 
ATOM     10  C   UNL A   1      36.748  24.078  26.202  1.00  0.00     0.008 C 
ATOM     11  C   UNL A   1      35.803  22.886  26.031  1.00  0.00    -0.011 C 
ATOM     12  C   UNL A   1      34.757  22.888  27.172  1.00  0.00     0.004 C 
ATOM     13  C   UNL A   1      35.161  22.822  24.629  1.00  0.00    -0.011 C 
ATOM     14  C   UNL A   1      33.549  21.963  26.975  1.00  0.00     0.005 C 
ATOM     15  C   UNL A   1      34.154  21.690  24.631  1.00  0.00     0.008 C 
ATOM     16  C   UNL A   1      36.167  22.760  23.481  1.00  0.00     0.008 C 
ENDBRANCH   8   9
BRANCH   8  17
ATOM     17  C   UNL A   1      31.234  23.471  23.913  1.00  0.00     0.018 C 
ATOM     18  C   UNL A   1      31.782  22.630  22.721  1.00  0.00     0.021 C 
ATOM     19  C   UNL A   1      31.125  24.853  23.267  1.00  0.00     0.141 C 
ATOM     20  C   UNL A   1      32.905  23.398  22.014  1.00  0.00     0.137 C 
ATOM     21  S   UNL A   1      32.599  25.122  22.332  1.00  0.00     0.150 S 
ATOM     22  O   UNL A   1      33.612  25.639  23.231  1.00  0.00    -0.229 OA
ATOM     23  O   UNL A   1      32.241  25.799  21.107  1.00  0.00    -0.229 OA
ENDBRANCH   8  17
ENDBRANCH   5   8
ENDBRANCH   3   4
ENDBRANCH   2   3
ENDBRANCH   1   2
BRANCH   1  24
ATOM     24  C   UNL A   1      33.747  28.992  27.219  1.00  0.00     0.116 C 
BRANCH  24  25
ATOM     25  N   UNL A   1      33.773  30.251  27.963  1.00  0.00    -0.352 N 
ATOM     26  C   UNL A   1      34.846  30.775  28.654  1.00  0.00     0.251 C 
ATOM     27  H   UNL A   1      32.942  30.779  27.970  1.00  0.00     0.163 HD
ATOM     28  O   UNL A   1      34.759  31.816  29.293  1.00  0.00    -0.269 OA
BRANCH  26  29
ATOM     29  C   UNL A   1      36.092  29.989  28.632  1.00  0.00     0.039 A 
ATOM     30  C   UNL A   1      36.922  30.068  27.513  1.00  0.00     0.014 A 
ATOM     31  C   UNL A   1      36.530  29.399  29.819  1.00  0.00     0.014 A 
ATOM     32  C   UNL A   1      38.243  29.636  27.618  1.00  0.00     0.010 A 
ATOM     33  C   UNL A   1      37.871  29.076  29.950  1.00  0.00     0.010 A 
ATOM     34  C   UNL A   1      38.743  29.192  28.853  1.00  0.00    -0.014 A 
BRANCH  34  35
ATOM     35  C   UNL A   1      40.167  28.814  29.041  1.00  0.00     0.031 A 
ATOM     36  C   UNL A   1      41.140  29.869  29.492  1.00  0.00     0.074 A 
ATOM     37  C   UNL A   1      40.601  27.580  28.714  1.00  0.00     0.049 A 
ATOM     38  N   UNL A   1      42.444  29.821  29.551  1.00  0.00    -0.248 NA
ATOM     39  C   UNL A   1      40.567  31.169  29.888  1.00  0.00     0.031 C 
ATOM     40  C   UNL A   1      39.761  26.480  28.232  1.00  0.00     0.029 A 
ATOM     41  N   UNL A   1      41.867  27.046  28.716  1.00  0.00    -0.354 N 
ATOM     42  C   UNL A   1      42.845  31.087  29.958  1.00  0.00     0.074 A 
ATOM     43  C   UNL A   1      41.655  31.899  30.072  1.00  0.00     0.031 C 
ATOM     44  C   UNL A   1      40.532  25.404  28.001  1.00  0.00     0.029 A 
ATOM     45  C   UNL A   1      41.925  25.748  28.263  1.00  0.00     0.049 A 
ATOM     46  H   UNL A   1      42.661  27.548  29.014  1.00  0.00     0.167 HD
ATOM     47  C   UNL A   1      44.093  31.527  30.238  1.00  0.00     0.037 A 
ATOM     48  C   UNL A   1      42.984  24.937  28.061  1.00  0.00     0.037 A 
ATOM     49  C   UNL A   1      45.265  30.699  30.159  1.00  0.00     0.049 A 
ATOM     50  C   UNL A   1      44.368  25.452  28.366  1.00  0.00     0.074 A 
ATOM     51  C   UNL A   1      46.570  31.029  30.480  1.00  0.00     0.029 A 
ATOM     52  N   UNL A   1      45.276  29.381  29.730  1.00  0.00    -0.354 N 
ATOM     53  N   UNL A   1      44.727  26.636  28.804  1.00  0.00    -0.248 NA
ATOM     54  C   UNL A   1      45.491  24.529  28.150  1.00  0.00     0.031 C 
ATOM     55  C   UNL A   1      47.378  29.928  30.189  1.00  0.00     0.029 A 
ATOM     56  C   UNL A   1      46.569  28.889  29.755  1.00  0.00     0.049 A 
ATOM     57  H   UNL A   1      44.482  28.870  29.450  1.00  0.00     0.167 HD
ATOM     58  C   UNL A   1      46.109  26.584  28.955  1.00  0.00     0.074 A 
ATOM     59  C   UNL A   1      46.523  25.255  28.560  1.00  0.00     0.031 C 
ATOM     60  C   UNL A   1      46.957  27.549  29.388  1.00  0.00     0.037 A 
BRANCH  47  61
ATOM     61  C   UNL A   1      44.253  32.962  30.657  1.00  0.00     0.058 A 
ATOM     62  C   UNL A   1      44.185  33.351  32.004  1.00  0.00     0.135 A 
ATOM     63  C   UNL A   1      44.515  33.955  29.700  1.00  0.00     0.135 A 
ATOM     64  F   UNL A   1      43.917  32.446  32.959  1.00  0.00    -0.206 F 
ATOM     65  C   UNL A   1      44.345  34.679  32.386  1.00  0.00     0.059 A 
ATOM     66  C   UNL A   1      44.714  35.283  30.062  1.00  0.00     0.059 A 
ATOM     67  F   UNL A   1      44.586  33.639  28.398  1.00  0.00    -0.206 F 
ATOM     68  C   UNL A   1      44.614  35.638  31.407  1.00  0.00     0.060 A 
BRANCH  68  69
ATOM     69  S   UNL A   1      44.842  37.351  31.924  1.00  0.00     0.124 S 
ATOM     70  O   UNL A   1      44.674  37.243  33.370  1.00  0.00    -0.237 OA
ATOM     71  O   UNL A   1      46.197  37.636  31.464  1.00  0.00    -0.237 OA
ATOM     72  O   UNL A   1      43.781  38.064  31.220  1.00  0.00    -0.744 OA
ENDBRANCH  68  69
ENDBRANCH  47  61
BRANCH  48  73
ATOM     73  C   UNL A   1      42.783  23.551  27.550  1.00  0.00     0.058 A 
ATOM     74  C   UNL A   1      42.670  22.464  28.430  1.00  0.00     0.135 A 
ATOM     75  C   UNL A   1      42.703  23.285  26.174  1.00  0.00     0.135 A 
ATOM     76  F   UNL A   1      42.749  22.663  29.755  1.00  0.00    -0.206 F 
ATOM     77  C   UNL A   1      42.507  21.162  27.966  1.00  0.00     0.059 A 
ATOM     78  C   UNL A   1      42.510  21.995  25.687  1.00  0.00     0.059 A 
ATOM     79  F   UNL A   1      42.789  24.287  25.287  1.00  0.00    -0.206 F 
ATOM     80  C   UNL A   1      42.426  20.938  26.592  1.00  0.00     0.060 A 
BRANCH  80  81
ATOM     81  S   UNL A   1      42.176  19.248  26.003  1.00  0.00     0.124 S 
ATOM     82  O   UNL A   1      40.740  19.232  25.750  1.00  0.00    -0.237 OA
ATOM     83  O   UNL A   1      43.033  19.207  24.822  1.00  0.00    -0.237 OA
ATOM     84  O   UNL A   1      42.629  18.431  27.125  1.00  0.00    -0.744 OA
ENDBRANCH  80  81
ENDBRANCH  48  73
BRANCH  60  85
ATOM     85  C   UNL A   1      48.414  27.203  29.529  1.00  0.00     0.058 A 
ATOM     86  C   UNL A   1      49.360  27.568  28.560  1.00  0.00     0.135 A 
ATOM     87  C   UNL A   1      48.880  26.610  30.715  1.00  0.00     0.135 A 
ATOM     88  F   UNL A   1      48.966  28.130  27.407  1.00  0.00    -0.206 F 
ATOM     89  C   UNL A   1      50.721  27.360  28.765  1.00  0.00     0.059 A 
ATOM     90  C   UNL A   1      50.236  26.420  30.952  1.00  0.00     0.059 A 
ATOM     91  F   UNL A   1      48.014  26.251  31.677  1.00  0.00    -0.206 F 
ATOM     92  C   UNL A   1      51.150  26.800  29.970  1.00  0.00     0.060 A 
BRANCH  92  93
ATOM     93  S   UNL A   1      52.923  26.622  30.257  1.00  0.00     0.124 S 
ATOM     94  O   UNL A   1      52.949  25.675  31.366  1.00  0.00    -0.237 OA
ATOM     95  O   UNL A   1      53.395  26.110  28.973  1.00  0.00    -0.237 OA
ATOM     96  O   UNL A   1      53.354  27.979  30.580  1.00  0.00    -0.744 OA
ENDBRANCH  92  93
ENDBRANCH  60  85
ENDBRANCH  34  35
ENDBRANCH  26  29
ENDBRANCH  24  25
ENDBRANCH   1  24
TORSDOF 16
ENDMDL
MODEL 3
REMARK VINA RESULT:     -11.4      2.322      3.021
REMARK SMILES C[C@H]1CC[C@@H]([C@H](C(=O)NCCCCNC(=O)c2ccc(-c3c4nc(c(-c5c(F)cc(S(=O)(=O)[O-])cc5F)c5ccc([nH]5)c(-c5c(F)cc(S(=O)(=O)[O-])cc5F)c5nc(c(-c6c(F)cc(S(=O)(=O)[O-])cc6F)c6ccc3[nH]6)C=C5)C=C4)cc2)[C@@H]2CCS(=O)(=O)C2)C[C@@H]1C
REMARK SMILES IDX 12 1 11 2 10 3 9 4 7 5 8 6 6 8 5 9 1 10 2 11 3 12 91 13 4 14
REMARK SMILES IDX 90 15 92 16 83 17 84 18 89 19 85 20 86 21 87 22 88 23 13 24
REMARK SMILES IDX 14 25 15 26 16 28 17 29 18 30 82 31 19 32 81 33 20 34 21 35
REMARK SMILES IDX 22 36 75 37 23 38 80 39 74 40 76 41 24 42 79 43 73 44 72 45
REMARK SMILES IDX 25 47 59 48 38 49 58 50 39 51 42 52 57 53 77 54 40 55 41 56
REMARK SMILES IDX 56 58 78 59 43 60 26 61 27 62 36 63 28 64 29 65 35 66 37 67
REMARK SMILES IDX 30 68 31 69 32 70 33 71 34 72 60 73 61 74 70 75 62 76 63 77
REMARK SMILES IDX 69 78 71 79 64 80 65 81 66 82 67 83 68 84 44 85 45 86 54 87
REMARK SMILES IDX 46 88 47 89 53 90 55 91 48 92 49 93 50 94 51 95 52 96
REMARK H PARENT 9 7 14 27 76 46 42 57
REMARK Flexibility Score: inf
ROOT
ATOM      1  C   UNL A   1      33.757  29.642  26.948  1.00  0.00     0.023 C 
ENDROOT
BRANCH   1   2
ATOM      2  C   UNL A   1      32.621  28.686  27.263  1.00  0.00     0.023 C 
BRANCH   2   3
ATOM      3  C   UNL A   1      32.804  27.262  26.719  1.00  0.00     0.116 C 
BRANCH   3   4
ATOM      4  N   UNL A   1      31.593  26.490  26.851  1.00  0.00    -0.356 N 
ATOM      5  C   UNL A   1      31.104  25.428  26.186  1.00  0.00     0.223 C 
ATOM      6  O   UNL A   1      30.126  24.887  26.723  1.00  0.00    -0.275 OA
ATOM      7  H   UNL A   1      31.005  26.804  27.576  1.00  0.00     0.163 HD
BRANCH   5   8
ATOM      8  C   UNL A   1      31.645  24.831  24.861  1.00  0.00     0.085 C 
BRANCH   8   9
ATOM      9  C   UNL A   1      31.064  25.394  23.484  1.00  0.00     0.002 C 
ATOM     10  C   UNL A   1      33.528  28.945  22.815  1.00  0.00     0.008 C 
ATOM     11  C   UNL A   1      32.419  27.924  22.550  1.00  0.00    -0.011 C 
ATOM     12  C   UNL A   1      33.047  26.534  22.288  1.00  0.00     0.004 C 
ATOM     13  C   UNL A   1      31.345  27.898  23.658  1.00  0.00    -0.011 C 
ATOM     14  C   UNL A   1      32.080  25.343  22.327  1.00  0.00     0.005 C 
ATOM     15  C   UNL A   1      30.387  26.766  23.350  1.00  0.00     0.008 C 
ATOM     16  C   UNL A   1      30.663  29.244  23.902  1.00  0.00     0.008 C 
ENDBRANCH   8   9
BRANCH   8  17
ATOM     17  C   UNL A   1      32.989  23.988  24.960  1.00  0.00     0.018 C 
ATOM     18  C   UNL A   1      32.891  22.533  24.414  1.00  0.00     0.021 C 
ATOM     19  C   UNL A   1      33.760  23.759  26.262  1.00  0.00     0.141 C 
ATOM     20  C   UNL A   1      32.504  21.575  25.547  1.00  0.00     0.137 C 
ATOM     21  S   UNL A   1      33.060  22.344  27.053  1.00  0.00     0.150 S 
ATOM     22  O   UNL A   1      31.916  22.785  27.827  1.00  0.00    -0.229 OA
ATOM     23  O   UNL A   1      34.133  21.575  27.639  1.00  0.00    -0.229 OA
ENDBRANCH   8  17
ENDBRANCH   5   8
ENDBRANCH   3   4
ENDBRANCH   2   3
ENDBRANCH   1   2
BRANCH   1  24
ATOM     24  C   UNL A   1      34.977  29.440  27.831  1.00  0.00     0.116 C 
BRANCH  24  25
ATOM     25  N   UNL A   1      35.165  30.469  28.853  1.00  0.00    -0.352 N 
ATOM     26  C   UNL A   1      36.326  30.735  29.548  1.00  0.00     0.251 C 
ATOM     27  H   UNL A   1      34.384  31.030  29.065  1.00  0.00     0.163 HD
ATOM     28  O   UNL A   1      36.375  31.587  30.425  1.00  0.00    -0.269 OA
BRANCH  26  29
ATOM     29  C   UNL A   1      37.497  29.902  29.219  1.00  0.00     0.039 A 
ATOM     30  C   UNL A   1      37.943  29.853  27.898  1.00  0.00     0.014 A 
ATOM     31  C   UNL A   1      38.273  29.399  30.266  1.00  0.00     0.014 A 
ATOM     32  C   UNL A   1      39.227  29.380  27.634  1.00  0.00     0.010 A 
ATOM     33  C   UNL A   1      39.585  29.037  30.010  1.00  0.00     0.010 A 
ATOM     34  C   UNL A   1      40.079  29.025  28.694  1.00  0.00    -0.014 A 
BRANCH  34  35
ATOM     35  C   UNL A   1      41.487  28.609  28.472  1.00  0.00     0.031 A 
ATOM     36  C   UNL A   1      42.560  29.663  28.479  1.00  0.00     0.074 A 
ATOM     37  C   UNL A   1      41.788  27.330  28.167  1.00  0.00     0.049 A 
ATOM     38  N   UNL A   1      43.817  29.567  28.136  1.00  0.00    -0.248 NA
ATOM     39  C   UNL A   1      42.149  31.020  28.886  1.00  0.00     0.031 C 
ATOM     40  C   UNL A   1      40.831  26.222  28.094  1.00  0.00     0.029 A 
ATOM     41  N   UNL A   1      42.987  26.747  27.836  1.00  0.00    -0.354 N 
ATOM     42  C   UNL A   1      44.334  30.851  28.256  1.00  0.00     0.074 A 
ATOM     43  C   UNL A   1      43.246  31.719  28.641  1.00  0.00     0.031 C 
ATOM     44  C   UNL A   1      41.483  25.097  27.757  1.00  0.00     0.029 A 
ATOM     45  C   UNL A   1      42.892  25.407  27.534  1.00  0.00     0.049 A 
ATOM     46  H   UNL A   1      43.838  27.243  27.816  1.00  0.00     0.167 HD
ATOM     47  C   UNL A   1      45.611  31.264  28.085  1.00  0.00     0.037 A 
ATOM     48  C   UNL A   1      43.828  24.536  27.107  1.00  0.00     0.037 A 
ATOM     49  C   UNL A   1      46.693  30.385  27.739  1.00  0.00     0.049 A 
ATOM     50  C   UNL A   1      45.242  25.023  26.908  1.00  0.00     0.074 A 
ATOM     51  C   UNL A   1      48.035  30.691  27.601  1.00  0.00     0.029 A 
ATOM     52  N   UNL A   1      46.560  29.030  27.477  1.00  0.00    -0.354 N 
ATOM     53  N   UNL A   1      45.728  26.229  27.079  1.00  0.00    -0.248 NA
ATOM     54  C   UNL A   1      46.234  24.035  26.459  1.00  0.00     0.031 C 
ATOM     55  C   UNL A   1      48.704  29.533  27.199  1.00  0.00     0.029 A 
ATOM     56  C   UNL A   1      47.792  28.489  27.155  1.00  0.00     0.049 A 
ATOM     57  H   UNL A   1      45.714  28.526  27.515  1.00  0.00     0.167 HD
ATOM     58  C   UNL A   1      47.088  26.136  26.799  1.00  0.00     0.074 A 
ATOM     59  C   UNL A   1      47.347  24.756  26.446  1.00  0.00     0.031 C 
ATOM     60  C   UNL A   1      48.036  27.104  26.838  1.00  0.00     0.037 A 
BRANCH  47  61
ATOM     61  C   UNL A   1      45.904  32.727  28.270  1.00  0.00     0.058 A 
ATOM     62  C   UNL A   1      45.785  33.645  27.214  1.00  0.00     0.135 A 
ATOM     63  C   UNL A   1      46.273  33.223  29.530  1.00  0.00     0.135 A 
ATOM     64  F   UNL A   1      45.456  33.223  25.982  1.00  0.00    -0.206 F 
ATOM     65  C   UNL A   1      46.048  34.999  27.395  1.00  0.00     0.059 A 
ATOM     66  C   UNL A   1      46.505  34.578  29.743  1.00  0.00     0.059 A 
ATOM     67  F   UNL A   1      46.406  32.389  30.573  1.00  0.00    -0.206 F 
ATOM     68  C   UNL A   1      46.402  35.456  28.665  1.00  0.00     0.060 A 
BRANCH  68  69
ATOM     69  S   UNL A   1      46.715  37.220  28.885  1.00  0.00     0.124 S 
ATOM     70  O   UNL A   1      47.859  37.201  29.791  1.00  0.00    -0.237 OA
ATOM     71  O   UNL A   1      46.995  37.657  27.521  1.00  0.00    -0.237 OA
ATOM     72  O   UNL A   1      45.469  37.718  29.458  1.00  0.00    -0.744 OA
ENDBRANCH  68  69
ENDBRANCH  47  61
BRANCH  48  73
ATOM     73  C   UNL A   1      43.467  23.115  26.840  1.00  0.00     0.058 A 
ATOM     74  C   UNL A   1      43.108  22.251  27.886  1.00  0.00     0.135 A 
ATOM     75  C   UNL A   1      43.476  22.590  25.538  1.00  0.00     0.135 A 
ATOM     76  F   UNL A   1      43.093  22.700  29.151  1.00  0.00    -0.206 F 
ATOM     77  C   UNL A   1      42.793  20.915  27.656  1.00  0.00     0.059 A 
ATOM     78  C   UNL A   1      43.135  21.266  25.279  1.00  0.00     0.059 A 
ATOM     79  F   UNL A   1      43.796  23.374  24.498  1.00  0.00    -0.206 F 
ATOM     80  C   UNL A   1      42.807  20.432  26.347  1.00  0.00     0.060 A 
BRANCH  80  81
ATOM     81  S   UNL A   1      42.359  18.707  26.056  1.00  0.00     0.124 S 
ATOM     82  O   UNL A   1      43.261  18.347  24.968  1.00  0.00    -0.237 OA
ATOM     83  O   UNL A   1      42.645  18.095  27.351  1.00  0.00    -0.237 OA
ATOM     84  O   UNL A   1      40.944  18.781  25.705  1.00  0.00    -0.744 OA
ENDBRANCH  80  81
ENDBRANCH  48  73
BRANCH  60  85
ATOM     85  C   UNL A   1      49.461  26.714  26.558  1.00  0.00     0.058 A 
ATOM     86  C   UNL A   1      50.257  26.073  27.519  1.00  0.00     0.135 A 
ATOM     87  C   UNL A   1      49.989  26.873  25.266  1.00  0.00     0.135 A 
ATOM     88  F   UNL A   1      49.803  25.904  28.771  1.00  0.00    -0.206 F 
ATOM     89  C   UNL A   1      51.527  25.599  27.206  1.00  0.00     0.059 A 
ATOM     90  C   UNL A   1      51.244  26.381  24.924  1.00  0.00     0.059 A 
ATOM     91  F   UNL A   1      49.263  27.472  24.308  1.00  0.00    -0.206 F 
ATOM     92  C   UNL A   1      52.005  25.744  25.902  1.00  0.00     0.060 A 
BRANCH  92  93
ATOM     93  S   UNL A   1      53.616  25.042  25.489  1.00  0.00     0.124 S 
ATOM     94  O   UNL A   1      53.969  25.796  24.292  1.00  0.00    -0.237 OA
ATOM     95  O   UNL A   1      54.400  25.342  26.684  1.00  0.00    -0.237 OA
ATOM     96  O   UNL A   1      53.327  23.626  25.277  1.00  0.00    -0.744 OA
ENDBRANCH  92  93
ENDBRANCH  60  85
ENDBRANCH  34  35
ENDBRANCH  26  29
ENDBRANCH  24  25
ENDBRANCH   1  24
TORSDOF 16
ENDMDL
