MODEL 1
REMARK VINA RESULT:     -13.4      0.000      0.000
REMARK SMILES O=C(NCCCCNC(=O)c1ccc([C@@H]2CC(O)=Nc3c2ncn3-c2cccc(Cl)c2)cc1)c1ccc(-c2c3nc(c(-c4c(F)cc(S(=O)(=O)[O-])cc4F)c4ccc([nH]4)c(-c4c(F)cc(S(=O)(=O)[O-])cc4F)c4nc(c(-c5c(F)cc(S(=O)(=O)[O-])cc5F)c5ccc2[nH]5)C=C4)C=C3)cc1
REMARK SMILES IDX 5 1 4 2 3 3 1 4 2 5 34 7 35 8 99 9 36 10 98 11 37 12 38 13
REMARK SMILES IDX 39 14 92 15 40 16 97 17 91 18 93 19 41 20 96 21 90 22 89 23
REMARK SMILES IDX 42 25 76 26 55 27 75 28 56 29 59 30 74 31 94 32 57 33 58 34
REMARK SMILES IDX 73 36 95 37 60 38 43 39 44 40 53 41 45 42 46 43 52 44 54 45
REMARK SMILES IDX 47 46 48 47 49 48 50 49 51 50 77 51 78 52 87 53 79 54 80 55
REMARK SMILES IDX 86 56 88 57 81 58 82 59 83 60 84 61 85 62 61 63 62 64 71 65
REMARK SMILES IDX 63 66 64 67 70 68 72 69 65 70 66 71 67 72 68 73 69 74 6 75
REMARK SMILES IDX 7 76 8 77 9 78 10 80 11 81 12 82 33 83 13 84 32 85 14 86
REMARK SMILES IDX 15 87 16 88 21 89 17 90 20 91 22 92 19 93 24 94 23 95 18 96
REMARK SMILES IDX 25 98 26 99 31 100 27 101 29 102 28 103 30 104
REMARK H PARENT 3 6 93 24 59 35 8 79 18 97
REMARK Flexibility Score: inf
ROOT
ATOM      1  C   UNL A   1      32.289  29.092  26.243  1.00  0.00     0.023 C 
ENDROOT
BRANCH   1   2
ATOM      2  C   UNL A   1      33.694  29.644  26.475  1.00  0.00     0.116 C 
BRANCH   2   3
ATOM      3  N   UNL A   1      33.766  30.740  27.419  1.00  0.00    -0.352 N 
ATOM      4  O   UNL A   1      34.485  32.344  28.753  1.00  0.00    -0.269 OA
ATOM      5  C   UNL A   1      34.768  31.296  28.167  1.00  0.00     0.251 C 
ATOM      6  H   UNL A   1      32.898  31.186  27.551  1.00  0.00     0.163 HD
BRANCH   5   7
ATOM      7  C   UNL A   1      36.115  30.698  28.373  1.00  0.00     0.039 A 
ATOM      8  C   UNL A   1      36.446  29.353  28.208  1.00  0.00     0.014 A 
ATOM      9  C   UNL A   1      37.125  31.593  28.776  1.00  0.00     0.014 A 
ATOM     10  C   UNL A   1      37.726  28.897  28.520  1.00  0.00     0.010 A 
ATOM     11  C   UNL A   1      38.408  31.148  29.073  1.00  0.00     0.010 A 
ATOM     12  C   UNL A   1      38.700  29.790  28.974  1.00  0.00    -0.014 A 
BRANCH  12  13
ATOM     13  C   UNL A   1      40.065  29.297  29.159  1.00  0.00     0.031 A 
ATOM     14  C   UNL A   1      40.485  29.178  30.590  1.00  0.00     0.074 A 
ATOM     15  C   UNL A   1      40.827  28.815  28.155  1.00  0.00     0.049 A 
ATOM     16  N   UNL A   1      41.482  29.744  31.192  1.00  0.00    -0.248 NA
ATOM     17  C   UNL A   1      39.607  28.412  31.493  1.00  0.00     0.031 C 
ATOM     18  C   UNL A   1      40.435  28.587  26.762  1.00  0.00     0.029 A 
ATOM     19  N   UNL A   1      42.097  28.320  28.196  1.00  0.00    -0.354 N 
ATOM     20  C   UNL A   1      41.478  29.246  32.496  1.00  0.00     0.074 A 
ATOM     21  C   UNL A   1      40.224  28.560  32.666  1.00  0.00     0.031 C 
ATOM     22  C   UNL A   1      41.355  27.796  26.163  1.00  0.00     0.029 A 
ATOM     23  C   UNL A   1      42.457  27.567  27.082  1.00  0.00     0.049 A 
ATOM     24  H   UNL A   1      42.708  28.482  28.950  1.00  0.00     0.167 HD
ATOM     25  C   UNL A   1      42.592  29.251  33.280  1.00  0.00     0.037 A 
ATOM     26  C   UNL A   1      43.544  26.759  26.956  1.00  0.00     0.037 A 
ATOM     27  C   UNL A   1      43.569  30.193  32.803  1.00  0.00     0.049 A 
ATOM     28  C   UNL A   1      44.524  27.172  27.994  1.00  0.00     0.074 A 
ATOM     29  C   UNL A   1      43.580  31.559  32.604  1.00  0.00     0.029 A 
ATOM     30  N   UNL A   1      44.648  29.709  32.106  1.00  0.00    -0.354 N 
ATOM     31  N   UNL A   1      45.145  28.319  28.001  1.00  0.00    -0.248 NA
ATOM     32  C   UNL A   1      44.477  26.481  29.274  1.00  0.00     0.031 C 
ATOM     33  C   UNL A   1      44.333  31.749  31.409  1.00  0.00     0.029 A 
ATOM     34  C   UNL A   1      44.790  30.499  30.993  1.00  0.00     0.049 A 
ATOM     35  H   UNL A   1      45.213  28.942  32.356  1.00  0.00     0.167 HD
ATOM     36  C   UNL A   1      45.182  28.692  29.336  1.00  0.00     0.074 A 
ATOM     37  C   UNL A   1      44.828  27.485  30.079  1.00  0.00     0.031 C 
ATOM     38  C   UNL A   1      45.226  30.007  29.706  1.00  0.00     0.037 A 
BRANCH  25  39
ATOM     39  C   UNL A   1      42.926  28.167  34.278  1.00  0.00     0.058 A 
ATOM     40  C   UNL A   1      43.096  28.490  35.639  1.00  0.00     0.135 A 
ATOM     41  C   UNL A   1      43.357  26.874  33.902  1.00  0.00     0.135 A 
ATOM     42  F   UNL A   1      42.743  29.699  36.104  1.00  0.00    -0.206 F 
ATOM     43  C   UNL A   1      43.698  27.615  36.547  1.00  0.00     0.059 A 
ATOM     44  C   UNL A   1      43.908  25.967  34.801  1.00  0.00     0.059 A 
ATOM     45  F   UNL A   1      43.352  26.463  32.628  1.00  0.00    -0.206 F 
ATOM     46  C   UNL A   1      44.111  26.360  36.112  1.00  0.00     0.060 A 
BRANCH  46  47
ATOM     47  S   UNL A   1      44.969  25.262  37.256  1.00  0.00     0.124 S 
ATOM     48  O   UNL A   1      44.307  25.578  38.516  1.00  0.00    -0.237 OA
ATOM     49  O   UNL A   1      44.678  23.949  36.691  1.00  0.00    -0.237 OA
ATOM     50  O   UNL A   1      46.362  25.688  37.149  1.00  0.00    -0.744 OA
ENDBRANCH  46  47
ENDBRANCH  25  39
BRANCH  26  51
ATOM     51  C   UNL A   1      43.643  25.447  26.255  1.00  0.00     0.058 A 
ATOM     52  C   UNL A   1      44.604  25.218  25.252  1.00  0.00     0.135 A 
ATOM     53  C   UNL A   1      42.993  24.301  26.756  1.00  0.00     0.135 A 
ATOM     54  F   UNL A   1      45.294  26.245  24.732  1.00  0.00    -0.206 F 
ATOM     55  C   UNL A   1      44.933  23.930  24.807  1.00  0.00     0.059 A 
ATOM     56  C   UNL A   1      43.296  23.011  26.322  1.00  0.00     0.059 A 
ATOM     57  F   UNL A   1      42.105  24.392  27.757  1.00  0.00    -0.206 F 
ATOM     58  C   UNL A   1      44.284  22.829  25.365  1.00  0.00     0.060 A 
BRANCH  58  59
ATOM     59  S   UNL A   1      44.823  21.156  24.929  1.00  0.00     0.124 S 
ATOM     60  O   UNL A   1      46.201  21.149  25.408  1.00  0.00    -0.237 OA
ATOM     61  O   UNL A   1      43.885  20.325  25.675  1.00  0.00    -0.237 OA
ATOM     62  O   UNL A   1      44.668  21.118  23.478  1.00  0.00    -0.744 OA
ENDBRANCH  58  59
ENDBRANCH  26  51
BRANCH  38  63
ATOM     63  C   UNL A   1      45.523  31.041  28.650  1.00  0.00     0.058 A 
ATOM     64  C   UNL A   1      44.558  31.627  27.809  1.00  0.00     0.135 A 
ATOM     65  C   UNL A   1      46.821  31.573  28.599  1.00  0.00     0.135 A 
ATOM     66  F   UNL A   1      43.273  31.252  27.868  1.00  0.00    -0.206 F 
ATOM     67  C   UNL A   1      44.880  32.665  26.933  1.00  0.00     0.059 A 
ATOM     68  C   UNL A   1      47.155  32.630  27.757  1.00  0.00     0.059 A 
ATOM     69  F   UNL A   1      47.774  31.101  29.419  1.00  0.00    -0.206 F 
ATOM     70  C   UNL A   1      46.182  33.163  26.916  1.00  0.00     0.060 A 
BRANCH  70  71
ATOM     71  S   UNL A   1      46.579  34.559  25.841  1.00  0.00     0.124 S 
ATOM     72  O   UNL A   1      46.343  35.700  26.719  1.00  0.00    -0.237 OA
ATOM     73  O   UNL A   1      47.975  34.304  25.494  1.00  0.00    -0.237 OA
ATOM     74  O   UNL A   1      45.636  34.418  24.734  1.00  0.00    -0.744 OA
ENDBRANCH  70  71
ENDBRANCH  38  63
ENDBRANCH  12  13
ENDBRANCH   5   7
ENDBRANCH   2   3
ENDBRANCH   1   2
BRANCH   1  75
ATOM     75  C   UNL A   1      31.429  29.886  25.254  1.00  0.00     0.023 C 
BRANCH  75  76
ATOM     76  C   UNL A   1      31.230  29.253  23.880  1.00  0.00     0.116 C 
BRANCH  76  77
ATOM     77  N   UNL A   1      29.837  28.964  23.578  1.00  0.00    -0.352 N 
ATOM     78  C   UNL A   1      29.189  27.753  23.512  1.00  0.00     0.251 C 
ATOM     79  H   UNL A   1      29.275  29.751  23.395  1.00  0.00     0.163 HD
ATOM     80  O   UNL A   1      28.024  27.696  23.146  1.00  0.00    -0.269 OA
BRANCH  78  81
ATOM     81  C   UNL A   1      29.900  26.507  23.873  1.00  0.00     0.039 A 
ATOM     82  C   UNL A   1      30.349  25.678  22.843  1.00  0.00     0.014 A 
ATOM     83  C   UNL A   1      30.083  26.130  25.206  1.00  0.00     0.014 A 
ATOM     84  C   UNL A   1      31.030  24.499  23.147  1.00  0.00     0.005 A 
ATOM     85  C   UNL A   1      30.778  24.957  25.510  1.00  0.00     0.005 A 
ATOM     86  C   UNL A   1      31.262  24.126  24.484  1.00  0.00    -0.038 A 
BRANCH  86  87
ATOM     87  C   UNL A   1      31.972  22.815  24.773  1.00  0.00     0.081 C 
ATOM     88  C   UNL A   1      31.716  22.319  26.212  1.00  0.00     0.111 C 
ATOM     89  C   UNL A   1      33.419  23.035  24.520  1.00  0.00     0.093 A 
ATOM     90  C   UNL A   1      32.927  22.338  27.129  1.00  0.00     0.188 C 
ATOM     91  C   UNL A   1      34.360  22.822  25.502  1.00  0.00     0.164 A 
ATOM     92  N   UNL A   1      33.992  23.470  23.357  1.00  0.00    -0.238 NA
ATOM     93  N   UNL A   1      34.168  22.512  26.806  1.00  0.00    -0.198 NA
ATOM     94  N   UNL A   1      35.574  23.133  24.917  1.00  0.00    -0.283 N 
ATOM     95  C   UNL A   1      35.277  23.572  23.642  1.00  0.00     0.206 A 
BRANCH  90  96
ATOM     96  O   UNL A   1      32.636  22.099  28.424  1.00  0.00    -0.496 OA
ATOM     97  H   UNL A   1      31.973  22.601  28.856  1.00  0.00     0.294 HD
ENDBRANCH  90  96
BRANCH  94  98
ATOM     98  C   UNL A   1      36.857  23.021  25.498  1.00  0.00     0.050 A 
ATOM     99  C   UNL A   1      37.601  21.845  25.347  1.00  0.00     0.027 A 
ATOM    100  C   UNL A   1      37.379  24.103  26.221  1.00  0.00     0.047 A 
ATOM    101  C   UNL A   1      38.890  21.776  25.883  1.00  0.00     0.004 A 
ATOM    102  C   UNL A   1      38.643  23.999  26.794  1.00  0.00     0.043 A 
ATOM    103  C   UNL A   1      39.407  22.848  26.614  1.00  0.00     0.020 A 
ATOM    104  Cl  UNL A   1      39.259  25.295  27.746  1.00  0.00    -0.084 Cl
ENDBRANCH  94  98
ENDBRANCH  86  87
ENDBRANCH  78  81
ENDBRANCH  76  77
ENDBRANCH  75  76
ENDBRANCH   1  75
TORSDOF 17
ENDMDL
MODEL 2
REMARK VINA RESULT:     -13.4      2.762      9.155
REMARK SMILES O=C(NCCCCNC(=O)c1ccc([C@@H]2CC(O)=Nc3c2ncn3-c2cccc(Cl)c2)cc1)c1ccc(-c2c3nc(c(-c4c(F)cc(S(=O)(=O)[O-])cc4F)c4ccc([nH]4)c(-c4c(F)cc(S(=O)(=O)[O-])cc4F)c4nc(c(-c5c(F)cc(S(=O)(=O)[O-])cc5F)c5ccc2[nH]5)C=C4)C=C3)cc1
REMARK SMILES IDX 5 1 4 2 3 3 1 4 2 5 34 7 35 8 99 9 36 10 98 11 37 12 38 13
REMARK SMILES IDX 39 14 92 15 40 16 97 17 91 18 93 19 41 20 96 21 90 22 89 23
REMARK SMILES IDX 42 25 76 26 55 27 75 28 56 29 59 30 74 31 94 32 57 33 58 34
REMARK SMILES IDX 73 36 95 37 60 38 43 39 44 40 53 41 45 42 46 43 52 44 54 45
REMARK SMILES IDX 47 46 48 47 49 48 50 49 51 50 77 51 78 52 87 53 79 54 80 55
REMARK SMILES IDX 86 56 88 57 81 58 82 59 83 60 84 61 85 62 61 63 62 64 71 65
REMARK SMILES IDX 63 66 64 67 70 68 72 69 65 70 66 71 67 72 68 73 69 74 6 75
REMARK SMILES IDX 7 76 8 77 9 78 10 80 11 81 12 82 33 83 13 84 32 85 14 86
REMARK SMILES IDX 15 87 16 88 21 89 17 90 20 91 22 92 19 93 24 94 23 95 18 96
REMARK SMILES IDX 25 98 26 99 31 100 27 101 29 102 28 103 30 104
REMARK H PARENT 3 6 93 24 59 35 8 79 18 97
REMARK Flexibility Score: inf
ROOT
ATOM      1  C   UNL A   1      35.783  22.927  25.735  1.00  0.00     0.023 C 
ENDROOT
BRANCH   1   2
ATOM      2  C   UNL A   1      37.105  23.117  24.995  1.00  0.00     0.116 C 
BRANCH   2   3
ATOM      3  N   UNL A   1      38.177  22.250  25.438  1.00  0.00    -0.352 N 
ATOM      4  O   UNL A   1      39.840  21.345  26.574  1.00  0.00    -0.269 OA
ATOM      5  C   UNL A   1      39.199  22.374  26.340  1.00  0.00     0.251 C 
ATOM      6  H   UNL A   1      38.168  21.373  24.989  1.00  0.00     0.163 HD
BRANCH   5   7
ATOM      7  C   UNL A   1      39.623  23.647  26.984  1.00  0.00     0.039 A 
ATOM      8  C   UNL A   1      38.910  24.846  26.971  1.00  0.00     0.014 A 
ATOM      9  C   UNL A   1      40.862  23.609  27.654  1.00  0.00     0.014 A 
ATOM     10  C   UNL A   1      39.457  25.998  27.534  1.00  0.00     0.010 A 
ATOM     11  C   UNL A   1      41.404  24.750  28.232  1.00  0.00     0.010 A 
ATOM     12  C   UNL A   1      40.713  25.956  28.144  1.00  0.00    -0.014 A 
BRANCH  12  13
ATOM     13  C   UNL A   1      41.189  27.150  28.842  1.00  0.00     0.031 A 
ATOM     14  C   UNL A   1      42.412  27.766  28.240  1.00  0.00     0.074 A 
ATOM     15  C   UNL A   1      40.501  27.763  29.828  1.00  0.00     0.049 A 
ATOM     16  N   UNL A   1      43.564  27.985  28.788  1.00  0.00    -0.248 NA
ATOM     17  C   UNL A   1      42.377  28.075  26.798  1.00  0.00     0.031 C 
ATOM     18  C   UNL A   1      39.153  27.450  30.308  1.00  0.00     0.029 A 
ATOM     19  N   UNL A   1      40.824  28.877  30.544  1.00  0.00    -0.354 N 
ATOM     20  C   UNL A   1      44.330  28.645  27.827  1.00  0.00     0.074 A 
ATOM     21  C   UNL A   1      43.610  28.533  26.586  1.00  0.00     0.031 C 
ATOM     22  C   UNL A   1      38.694  28.481  31.055  1.00  0.00     0.029 A 
ATOM     23  C   UNL A   1      39.754  29.463  31.213  1.00  0.00     0.049 A 
ATOM     24  H   UNL A   1      41.740  29.238  30.584  1.00  0.00     0.167 HD
ATOM     25  C   UNL A   1      45.403  29.417  28.156  1.00  0.00     0.037 A 
ATOM     26  C   UNL A   1      39.723  30.694  31.791  1.00  0.00     0.037 A 
ATOM     27  C   UNL A   1      45.894  29.107  29.471  1.00  0.00     0.049 A 
ATOM     28  C   UNL A   1      41.130  31.114  32.011  1.00  0.00     0.074 A 
ATOM     29  C   UNL A   1      46.400  27.972  30.073  1.00  0.00     0.029 A 
ATOM     30  N   UNL A   1      45.574  29.959  30.500  1.00  0.00    -0.354 N 
ATOM     31  N   UNL A   1      41.945  30.536  32.850  1.00  0.00    -0.248 NA
ATOM     32  C   UNL A   1      41.768  31.901  30.965  1.00  0.00     0.031 C 
ATOM     33  C   UNL A   1      45.883  28.000  31.401  1.00  0.00     0.029 A 
ATOM     34  C   UNL A   1      45.152  29.179  31.546  1.00  0.00     0.049 A 
ATOM     35  H   UNL A   1      45.635  30.942  30.488  1.00  0.00     0.167 HD
ATOM     36  C   UNL A   1      43.170  30.523  32.201  1.00  0.00     0.074 A 
ATOM     37  C   UNL A   1      43.018  31.448  31.081  1.00  0.00     0.031 C 
ATOM     38  C   UNL A   1      44.104  29.561  32.466  1.00  0.00     0.037 A 
BRANCH  25  39
ATOM     39  C   UNL A   1      45.793  30.677  27.418  1.00  0.00     0.058 A 
ATOM     40  C   UNL A   1      47.138  30.893  27.054  1.00  0.00     0.135 A 
ATOM     41  C   UNL A   1      44.945  31.801  27.301  1.00  0.00     0.135 A 
ATOM     42  F   UNL A   1      48.039  29.901  27.146  1.00  0.00    -0.206 F 
ATOM     43  C   UNL A   1      47.614  32.145  26.657  1.00  0.00     0.059 A 
ATOM     44  C   UNL A   1      45.387  33.043  26.856  1.00  0.00     0.059 A 
ATOM     45  F   UNL A   1      43.668  31.776  27.704  1.00  0.00    -0.206 F 
ATOM     46  C   UNL A   1      46.730  33.216  26.573  1.00  0.00     0.060 A 
BRANCH  46  47
ATOM     47  S   UNL A   1      47.355  34.852  26.150  1.00  0.00     0.124 S 
ATOM     48  O   UNL A   1      47.970  35.264  27.407  1.00  0.00    -0.237 OA
ATOM     49  O   UNL A   1      48.273  34.552  25.056  1.00  0.00    -0.237 OA
ATOM     50  O   UNL A   1      46.151  35.583  25.766  1.00  0.00    -0.744 OA
ENDBRANCH  46  47
ENDBRANCH  25  39
BRANCH  26  51
ATOM     51  C   UNL A   1      38.594  31.668  31.829  1.00  0.00     0.058 A 
ATOM     52  C   UNL A   1      38.081  32.248  30.654  1.00  0.00     0.135 A 
ATOM     53  C   UNL A   1      37.805  31.825  32.987  1.00  0.00     0.135 A 
ATOM     54  F   UNL A   1      38.749  32.128  29.495  1.00  0.00    -0.206 F 
ATOM     55  C   UNL A   1      36.842  32.903  30.618  1.00  0.00     0.059 A 
ATOM     56  C   UNL A   1      36.575  32.482  32.978  1.00  0.00     0.059 A 
ATOM     57  F   UNL A   1      38.163  31.261  34.150  1.00  0.00    -0.206 F 
ATOM     58  C   UNL A   1      36.086  32.997  31.786  1.00  0.00     0.060 A 
BRANCH  58  59
ATOM     59  S   UNL A   1      34.411  33.681  31.716  1.00  0.00     0.124 S 
ATOM     60  O   UNL A   1      34.635  35.067  32.112  1.00  0.00    -0.237 OA
ATOM     61  O   UNL A   1      34.048  33.467  30.319  1.00  0.00    -0.237 OA
ATOM     62  O   UNL A   1      33.673  32.869  32.679  1.00  0.00    -0.744 OA
ENDBRANCH  58  59
ENDBRANCH  26  51
BRANCH  38  63
ATOM     63  C   UNL A   1      43.909  28.682  33.674  1.00  0.00     0.058 A 
ATOM     64  C   UNL A   1      44.355  28.995  34.972  1.00  0.00     0.135 A 
ATOM     65  C   UNL A   1      43.096  27.547  33.536  1.00  0.00     0.135 A 
ATOM     66  F   UNL A   1      45.048  30.116  35.212  1.00  0.00    -0.206 F 
ATOM     67  C   UNL A   1      44.039  28.194  36.071  1.00  0.00     0.059 A 
ATOM     68  C   UNL A   1      42.741  26.753  34.623  1.00  0.00     0.059 A 
ATOM     69  F   UNL A   1      42.586  27.227  32.335  1.00  0.00    -0.206 F 
ATOM     70  C   UNL A   1      43.228  27.076  35.888  1.00  0.00     0.060 A 
BRANCH  70  71
ATOM     71  S   UNL A   1      42.752  26.085  37.321  1.00  0.00     0.124 S 
ATOM     72  O   UNL A   1      41.298  26.205  37.309  1.00  0.00    -0.237 OA
ATOM     73  O   UNL A   1      43.282  24.766  36.985  1.00  0.00    -0.237 OA
ATOM     74  O   UNL A   1      43.424  26.750  38.435  1.00  0.00    -0.744 OA
ENDBRANCH  70  71
ENDBRANCH  38  63
ENDBRANCH  12  13
ENDBRANCH   5   7
ENDBRANCH   2   3
ENDBRANCH   1   2
BRANCH   1  75
ATOM     75  C   UNL A   1      35.430  21.477  26.082  1.00  0.00     0.023 C 
BRANCH  75  76
ATOM     76  C   UNL A   1      35.410  20.494  24.915  1.00  0.00     0.116 C 
BRANCH  76  77
ATOM     77  N   UNL A   1      34.218  19.661  24.887  1.00  0.00    -0.352 N 
ATOM     78  C   UNL A   1      32.904  20.021  24.705  1.00  0.00     0.251 C 
ATOM     79  H   UNL A   1      34.376  18.698  25.017  1.00  0.00     0.163 HD
ATOM     80  O   UNL A   1      32.016  19.187  24.810  1.00  0.00    -0.269 OA
BRANCH  78  81
ATOM     81  C   UNL A   1      32.552  21.424  24.392  1.00  0.00     0.039 A 
ATOM     82  C   UNL A   1      31.848  22.159  25.348  1.00  0.00     0.014 A 
ATOM     83  C   UNL A   1      32.865  21.998  23.157  1.00  0.00     0.014 A 
ATOM     84  C   UNL A   1      31.507  23.487  25.089  1.00  0.00     0.005 A 
ATOM     85  C   UNL A   1      32.536  23.331  22.905  1.00  0.00     0.005 A 
ATOM     86  C   UNL A   1      31.853  24.094  23.869  1.00  0.00    -0.038 A 
BRANCH  86  87
ATOM     87  C   UNL A   1      31.428  25.529  23.611  1.00  0.00     0.081 C 
ATOM     88  C   UNL A   1      32.139  26.135  22.381  1.00  0.00     0.111 C 
ATOM     89  C   UNL A   1      31.718  26.302  24.845  1.00  0.00     0.093 A 
ATOM     90  C   UNL A   1      33.126  27.249  22.688  1.00  0.00     0.188 C 
ATOM     91  C   UNL A   1      32.545  27.402  24.827  1.00  0.00     0.164 A 
ATOM     92  N   UNL A   1      31.251  26.042  26.104  1.00  0.00    -0.238 NA
ATOM     93  N   UNL A   1      33.286  27.888  23.802  1.00  0.00    -0.198 NA
ATOM     94  N   UNL A   1      32.587  27.848  26.135  1.00  0.00    -0.283 N 
ATOM     95  C   UNL A   1      31.833  26.951  26.864  1.00  0.00     0.206 A 
BRANCH  90  96
ATOM     96  O   UNL A   1      33.880  27.618  21.632  1.00  0.00    -0.496 OA
ATOM     97  H   UNL A   1      34.518  27.027  21.283  1.00  0.00     0.294 HD
ENDBRANCH  90  96
BRANCH  94  98
ATOM     98  C   UNL A   1      33.258  28.990  26.627  1.00  0.00     0.050 A 
ATOM     99  C   UNL A   1      32.578  30.206  26.764  1.00  0.00     0.027 A 
ATOM    100  C   UNL A   1      34.610  28.890  26.985  1.00  0.00     0.047 A 
ATOM    101  C   UNL A   1      33.245  31.308  27.305  1.00  0.00     0.004 A 
ATOM    102  C   UNL A   1      35.275  30.011  27.473  1.00  0.00     0.043 A 
ATOM    103  C   UNL A   1      34.595  31.214  27.651  1.00  0.00     0.020 A 
ATOM    104  Cl  UNL A   1      36.954  29.914  27.844  1.00  0.00    -0.084 Cl
ENDBRANCH  94  98
ENDBRANCH  86  87
ENDBRANCH  78  81
ENDBRANCH  76  77
ENDBRANCH  75  76
ENDBRANCH   1  75
TORSDOF 17
ENDMDL
MODEL 3
REMARK VINA RESULT:     -12.9      1.958      2.612
REMARK SMILES O=C(NCCCCNC(=O)c1ccc([C@@H]2CC(O)=Nc3c2ncn3-c2cccc(Cl)c2)cc1)c1ccc(-c2c3nc(c(-c4c(F)cc(S(=O)(=O)[O-])cc4F)c4ccc([nH]4)c(-c4c(F)cc(S(=O)(=O)[O-])cc4F)c4nc(c(-c5c(F)cc(S(=O)(=O)[O-])cc5F)c5ccc2[nH]5)C=C4)C=C3)cc1
REMARK SMILES IDX 5 1 4 2 3 3 1 4 2 5 34 7 35 8 99 9 36 10 98 11 37 12 38 13
REMARK SMILES IDX 39 14 92 15 40 16 97 17 91 18 93 19 41 20 96 21 90 22 89 23
REMARK SMILES IDX 42 25 76 26 55 27 75 28 56 29 59 30 74 31 94 32 57 33 58 34
REMARK SMILES IDX 73 36 95 37 60 38 43 39 44 40 53 41 45 42 46 43 52 44 54 45
REMARK SMILES IDX 47 46 48 47 49 48 50 49 51 50 77 51 78 52 87 53 79 54 80 55
REMARK SMILES IDX 86 56 88 57 81 58 82 59 83 60 84 61 85 62 61 63 62 64 71 65
REMARK SMILES IDX 63 66 64 67 70 68 72 69 65 70 66 71 67 72 68 73 69 74 6 75
REMARK SMILES IDX 7 76 8 77 9 78 10 80 11 81 12 82 33 83 13 84 32 85 14 86
REMARK SMILES IDX 15 87 16 88 21 89 17 90 20 91 22 92 19 93 24 94 23 95 18 96
REMARK SMILES IDX 25 98 26 99 31 100 27 101 29 102 28 103 30 104
REMARK H PARENT 3 6 93 24 59 35 8 79 18 97
REMARK Flexibility Score: inf
ROOT
ATOM      1  C   UNL A   1      32.673  29.165  27.216  1.00  0.00     0.023 C 
ENDROOT
BRANCH   1   2
ATOM      2  C   UNL A   1      33.805  30.177  27.059  1.00  0.00     0.116 C 
BRANCH   2   3
ATOM      3  N   UNL A   1      33.901  31.150  28.128  1.00  0.00    -0.352 N 
ATOM      4  O   UNL A   1      34.654  32.574  29.636  1.00  0.00    -0.269 OA
ATOM      5  C   UNL A   1      34.918  31.602  28.924  1.00  0.00     0.251 C 
ATOM      6  H   UNL A   1      33.039  31.584  28.325  1.00  0.00     0.163 HD
BRANCH   5   7
ATOM      7  C   UNL A   1      36.261  30.972  29.036  1.00  0.00     0.039 A 
ATOM      8  C   UNL A   1      36.533  29.606  28.955  1.00  0.00     0.014 A 
ATOM      9  C   UNL A   1      37.335  31.858  29.249  1.00  0.00     0.014 A 
ATOM     10  C   UNL A   1      37.825  29.129  29.168  1.00  0.00     0.010 A 
ATOM     11  C   UNL A   1      38.630  31.390  29.446  1.00  0.00     0.010 A 
ATOM     12  C   UNL A   1      38.869  30.019  29.436  1.00  0.00    -0.014 A 
BRANCH  12  13
ATOM     13  C   UNL A   1      40.231  29.490  29.517  1.00  0.00     0.031 A 
ATOM     14  C   UNL A   1      40.748  29.340  30.913  1.00  0.00     0.074 A 
ATOM     15  C   UNL A   1      40.908  29.005  28.455  1.00  0.00     0.049 A 
ATOM     16  N   UNL A   1      41.799  29.873  31.449  1.00  0.00    -0.248 NA
ATOM     17  C   UNL A   1      39.918  28.582  31.866  1.00  0.00     0.031 C 
ATOM     18  C   UNL A   1      40.413  28.807  27.091  1.00  0.00     0.029 A 
ATOM     19  N   UNL A   1      42.165  28.480  28.398  1.00  0.00    -0.354 N 
ATOM     20  C   UNL A   1      41.875  29.356  32.743  1.00  0.00     0.074 A 
ATOM     21  C   UNL A   1      40.620  28.698  32.994  1.00  0.00     0.031 C 
ATOM     22  C   UNL A   1      41.267  28.003  26.418  1.00  0.00     0.029 A 
ATOM     23  C   UNL A   1      42.426  27.734  27.253  1.00  0.00     0.049 A 
ATOM     24  H   UNL A   1      42.832  28.616  29.110  1.00  0.00     0.167 HD
ATOM     25  C   UNL A   1      43.042  29.323  33.446  1.00  0.00     0.037 A 
ATOM     26  C   UNL A   1      43.481  26.903  27.038  1.00  0.00     0.037 A 
ATOM     27  C   UNL A   1      44.006  30.248  32.914  1.00  0.00     0.049 A 
ATOM     28  C   UNL A   1      44.542  27.276  28.010  1.00  0.00     0.074 A 
ATOM     29  C   UNL A   1      44.036  31.617  32.732  1.00  0.00     0.029 A 
ATOM     30  N   UNL A   1      45.020  29.749  32.135  1.00  0.00    -0.354 N 
ATOM     31  N   UNL A   1      45.190  28.408  27.988  1.00  0.00    -0.248 NA
ATOM     32  C   UNL A   1      44.569  26.568  29.280  1.00  0.00     0.031 C 
ATOM     33  C   UNL A   1      44.708  31.806  31.489  1.00  0.00     0.029 A 
ATOM     34  C   UNL A   1      45.102  30.552  31.026  1.00  0.00     0.049 A 
ATOM     35  H   UNL A   1      45.582  28.965  32.334  1.00  0.00     0.167 HD
ATOM     36  C   UNL A   1      45.331  28.761  29.321  1.00  0.00     0.074 A 
ATOM     37  C   UNL A   1      45.001  27.552  30.071  1.00  0.00     0.031 C 
ATOM     38  C   UNL A   1      45.434  30.068  29.704  1.00  0.00     0.037 A 
BRANCH  25  39
ATOM     39  C   UNL A   1      43.419  28.216  34.404  1.00  0.00     0.058 A 
ATOM     40  C   UNL A   1      43.798  28.527  35.725  1.00  0.00     0.135 A 
ATOM     41  C   UNL A   1      43.687  26.892  33.990  1.00  0.00     0.135 A 
ATOM     42  F   UNL A   1      43.611  29.762  36.218  1.00  0.00    -0.206 F 
ATOM     43  C   UNL A   1      44.444  27.607  36.554  1.00  0.00     0.059 A 
ATOM     44  C   UNL A   1      44.280  25.944  34.818  1.00  0.00     0.059 A 
ATOM     45  F   UNL A   1      43.475  26.480  32.734  1.00  0.00    -0.206 F 
ATOM     46  C   UNL A   1      44.691  26.321  36.084  1.00  0.00     0.060 A 
BRANCH  46  47
ATOM     47  S   UNL A   1      45.604  25.158  37.115  1.00  0.00     0.124 S 
ATOM     48  O   UNL A   1      44.535  24.589  37.929  1.00  0.00    -0.237 OA
ATOM     49  O   UNL A   1      46.193  24.269  36.119  1.00  0.00    -0.237 OA
ATOM     50  O   UNL A   1      46.553  26.011  37.824  1.00  0.00    -0.744 OA
ENDBRANCH  46  47
ENDBRANCH  25  39
BRANCH  26  51
ATOM     51  C   UNL A   1      43.498  25.599  26.315  1.00  0.00     0.058 A 
ATOM     52  C   UNL A   1      44.414  25.343  25.278  1.00  0.00     0.135 A 
ATOM     53  C   UNL A   1      42.812  24.475  26.821  1.00  0.00     0.135 A 
ATOM     54  F   UNL A   1      45.134  26.346  24.751  1.00  0.00    -0.206 F 
ATOM     55  C   UNL A   1      44.670  24.049  24.804  1.00  0.00     0.059 A 
ATOM     56  C   UNL A   1      43.041  23.180  26.358  1.00  0.00     0.059 A 
ATOM     57  F   UNL A   1      41.962  24.590  27.852  1.00  0.00    -0.206 F 
ATOM     58  C   UNL A   1      43.990  22.969  25.366  1.00  0.00     0.060 A 
BRANCH  58  59
ATOM     59  S   UNL A   1      44.437  21.281  24.888  1.00  0.00     0.124 S 
ATOM     60  O   UNL A   1      44.605  21.411  23.445  1.00  0.00    -0.237 OA
ATOM     61  O   UNL A   1      45.658  21.056  25.655  1.00  0.00    -0.237 OA
ATOM     62  O   UNL A   1      43.285  20.492  25.313  1.00  0.00    -0.744 OA
ENDBRANCH  58  59
ENDBRANCH  26  51
BRANCH  38  63
ATOM     63  C   UNL A   1      45.681  31.110  28.643  1.00  0.00     0.058 A 
ATOM     64  C   UNL A   1      44.675  31.718  27.868  1.00  0.00     0.135 A 
ATOM     65  C   UNL A   1      46.980  31.626  28.520  1.00  0.00     0.135 A 
ATOM     66  F   UNL A   1      43.391  31.359  27.999  1.00  0.00    -0.206 F 
ATOM     67  C   UNL A   1      44.958  32.762  26.985  1.00  0.00     0.059 A 
ATOM     68  C   UNL A   1      47.278  32.688  27.670  1.00  0.00     0.059 A 
ATOM     69  F   UNL A   1      47.975  31.133  29.276  1.00  0.00    -0.206 F 
ATOM     70  C   UNL A   1      46.263  33.243  26.895  1.00  0.00     0.060 A 
BRANCH  70  71
ATOM     71  S   UNL A   1      46.614  34.646  25.813  1.00  0.00     0.124 S 
ATOM     72  O   UNL A   1      47.992  34.386  25.409  1.00  0.00    -0.237 OA
ATOM     73  O   UNL A   1      45.608  34.498  24.765  1.00  0.00    -0.237 OA
ATOM     74  O   UNL A   1      46.427  35.805  26.683  1.00  0.00    -0.744 OA
ENDBRANCH  70  71
ENDBRANCH  38  63
ENDBRANCH  12  13
ENDBRANCH   5   7
ENDBRANCH   2   3
ENDBRANCH   1   2
BRANCH   1  75
ATOM     75  C   UNL A   1      31.408  29.467  26.404  1.00  0.00     0.023 C 
BRANCH  75  76
ATOM     76  C   UNL A   1      31.628  30.095  25.030  1.00  0.00     0.116 C 
BRANCH  76  77
ATOM     77  N   UNL A   1      30.759  29.544  24.003  1.00  0.00    -0.352 N 
ATOM     78  C   UNL A   1      30.726  28.276  23.472  1.00  0.00     0.251 C 
ATOM     79  H   UNL A   1      30.097  30.172  23.633  1.00  0.00     0.163 HD
ATOM     80  O   UNL A   1      29.982  28.018  22.536  1.00  0.00    -0.269 OA
BRANCH  78  81
ATOM     81  C   UNL A   1      31.599  27.215  24.021  1.00  0.00     0.039 A 
ATOM     82  C   UNL A   1      31.120  26.449  25.086  1.00  0.00     0.014 A 
ATOM     83  C   UNL A   1      32.891  27.006  23.532  1.00  0.00     0.014 A 
ATOM     84  C   UNL A   1      31.914  25.435  25.623  1.00  0.00     0.005 A 
ATOM     85  C   UNL A   1      33.679  25.982  24.060  1.00  0.00     0.005 A 
ATOM     86  C   UNL A   1      33.200  25.181  25.113  1.00  0.00    -0.038 A 
BRANCH  86  87
ATOM     87  C   UNL A   1      34.047  24.095  25.752  1.00  0.00     0.081 C 
ATOM     88  C   UNL A   1      35.491  24.084  25.203  1.00  0.00     0.111 C 
ATOM     89  C   UNL A   1      33.361  22.801  25.508  1.00  0.00     0.093 A 
ATOM     90  C   UNL A   1      35.858  22.867  24.370  1.00  0.00     0.188 C 
ATOM     91  C   UNL A   1      33.987  21.768  24.848  1.00  0.00     0.164 A 
ATOM     92  N   UNL A   1      32.081  22.472  25.863  1.00  0.00    -0.238 NA
ATOM     93  N   UNL A   1      35.199  21.761  24.242  1.00  0.00    -0.198 NA
ATOM     94  N   UNL A   1      33.055  20.749  24.798  1.00  0.00    -0.283 N 
ATOM     95  C   UNL A   1      31.908  21.257  25.375  1.00  0.00     0.206 A 
BRANCH  90  96
ATOM     96  O   UNL A   1      37.043  22.976  23.737  1.00  0.00    -0.496 OA
ATOM     97  H   UNL A   1      37.367  23.821  23.491  1.00  0.00     0.294 HD
ENDBRANCH  90  96
BRANCH  94  98
ATOM     98  C   UNL A   1      33.235  19.450  24.271  1.00  0.00     0.050 A 
ATOM     99  C   UNL A   1      32.538  19.049  23.125  1.00  0.00     0.027 A 
ATOM    100  C   UNL A   1      34.124  18.570  24.904  1.00  0.00     0.047 A 
ATOM    101  C   UNL A   1      32.773  17.781  22.588  1.00  0.00     0.004 A 
ATOM    102  C   UNL A   1      34.307  17.291  24.388  1.00  0.00     0.043 A 
ATOM    103  C   UNL A   1      33.649  16.898  23.225  1.00  0.00     0.020 A 
ATOM    104  Cl  UNL A   1      35.340  16.181  25.204  1.00  0.00    -0.084 Cl
ENDBRANCH  94  98
ENDBRANCH  86  87
ENDBRANCH  78  81
ENDBRANCH  76  77
ENDBRANCH  75  76
ENDBRANCH   1  75
TORSDOF 17
ENDMDL
