MODEL 1
REMARK VINA RESULT:     -11.7      0.000      0.000
REMARK SMILES C[C@@H](Nc1cccc(Cl)c1)[C@@H](C)C(=O)NCCCCNC(=O)c1ccc(-c2c3nc(c(-c4c(F)cc(S(=O)(=O)[O-])cc4F)c4ccc([nH]4)c(-c4c(F)cc(S(=O)(=O)[O-])cc4F)c4nc(c(-c5c(F)cc(S(=O)(=O)[O-])cc5F)c5ccc2[nH]5)C=C4)C=C3)cc1
REMARK SMILES IDX 17 1 16 2 15 3 13 4 14 5 11 7 12 8 2 9 1 10 3 11 4 13 5 14
REMARK SMILES IDX 10 15 6 16 8 17 7 18 9 19 18 20 19 21 20 22 21 23 22 25
REMARK SMILES IDX 23 26 24 27 88 28 25 29 87 30 26 31 27 32 28 33 81 34 29 35
REMARK SMILES IDX 86 36 80 37 82 38 30 39 85 40 79 41 78 42 31 44 65 45 44 46
REMARK SMILES IDX 64 47 45 48 48 49 63 50 83 51 46 52 47 53 62 55 84 56 49 57
REMARK SMILES IDX 32 58 33 59 42 60 34 61 35 62 41 63 43 64 36 65 37 66 38 67
REMARK SMILES IDX 39 68 40 69 66 70 67 71 76 72 68 73 69 74 75 75 77 76 70 77
REMARK SMILES IDX 71 78 72 79 73 80 74 81 50 82 51 83 60 84 52 85 53 86 59 87
REMARK SMILES IDX 61 88 54 89 55 90 56 91 57 92 58 93
REMARK H PARENT 15 6 3 12 20 24 82 43 48 54
REMARK Flexibility Score: inf
ROOT
ATOM      1  C   UNL A   1      38.891  21.702  25.781  1.00  0.00     0.023 C 
ENDROOT
BRANCH   1   2
ATOM      2  C   UNL A   1      37.488  21.618  25.178  1.00  0.00     0.116 C 
BRANCH   2   3
ATOM      3  N   UNL A   1      36.440  21.764  26.165  1.00  0.00    -0.356 N 
ATOM      4  C   UNL A   1      35.086  21.771  26.054  1.00  0.00     0.224 C 
ATOM      5  O   UNL A   1      34.451  21.724  27.115  1.00  0.00    -0.275 OA
ATOM      6  H   UNL A   1      36.769  21.878  27.087  1.00  0.00     0.163 HD
BRANCH   4   7
ATOM      7  C   UNL A   1      34.345  21.738  24.718  1.00  0.00     0.097 C 
ATOM      8  C   UNL A   1      34.627  23.096  24.053  1.00  0.00     0.020 C 
BRANCH   7   9
ATOM      9  C   UNL A   1      32.853  21.318  24.767  1.00  0.00     0.088 C 
ATOM     10  C   UNL A   1      32.231  21.263  23.358  1.00  0.00     0.031 C 
BRANCH   9  11
ATOM     11  N   UNL A   1      32.537  20.018  25.389  1.00  0.00    -0.382 N 
ATOM     12  H   UNL A   1      31.813  20.033  26.055  1.00  0.00     0.160 HD
BRANCH  11  13
ATOM     13  C   UNL A   1      33.112  18.787  25.169  1.00  0.00     0.036 A 
ATOM     14  C   UNL A   1      34.275  18.605  24.424  1.00  0.00     0.026 A 
ATOM     15  C   UNL A   1      32.489  17.648  25.693  1.00  0.00     0.046 A 
ATOM     16  C   UNL A   1      34.756  17.328  24.119  1.00  0.00     0.004 A 
ATOM     17  C   UNL A   1      32.979  16.371  25.414  1.00  0.00     0.043 A 
ATOM     18  C   UNL A   1      34.099  16.204  24.607  1.00  0.00     0.020 A 
ATOM     19  Cl  UNL A   1      32.180  14.992  26.064  1.00  0.00    -0.084 Cl
ENDBRANCH  11  13
ENDBRANCH   9  11
ENDBRANCH   7   9
ENDBRANCH   4   7
ENDBRANCH   2   3
ENDBRANCH   1   2
BRANCH   1  20
ATOM     20  C   UNL A   1      39.145  22.903  26.693  1.00  0.00     0.023 C 
BRANCH  20  21
ATOM     21  C   UNL A   1      40.606  23.188  27.011  1.00  0.00     0.116 C 
BRANCH  21  22
ATOM     22  N   UNL A   1      41.263  23.997  25.998  1.00  0.00    -0.352 N 
ATOM     23  C   UNL A   1      41.610  25.325  26.030  1.00  0.00     0.251 C 
ATOM     24  H   UNL A   1      41.493  23.522  25.166  1.00  0.00     0.163 HD
ATOM     25  O   UNL A   1      42.063  25.854  25.021  1.00  0.00    -0.269 OA
BRANCH  23  26
ATOM     26  C   UNL A   1      41.405  26.118  27.263  1.00  0.00     0.039 A 
ATOM     27  C   UNL A   1      42.384  27.044  27.628  1.00  0.00     0.014 A 
ATOM     28  C   UNL A   1      40.263  25.960  28.054  1.00  0.00     0.014 A 
ATOM     29  C   UNL A   1      42.192  27.845  28.754  1.00  0.00     0.010 A 
ATOM     30  C   UNL A   1      40.032  26.820  29.124  1.00  0.00     0.010 A 
ATOM     31  C   UNL A   1      40.999  27.766  29.492  1.00  0.00    -0.014 A 
BRANCH  31  32
ATOM     32  C   UNL A   1      40.763  28.671  30.646  1.00  0.00     0.031 A 
ATOM     33  C   UNL A   1      41.581  28.540  31.903  1.00  0.00     0.074 A 
ATOM     34  C   UNL A   1      39.789  29.601  30.568  1.00  0.00     0.049 A 
ATOM     35  N   UNL A   1      41.533  29.257  32.996  1.00  0.00    -0.248 NA
ATOM     36  C   UNL A   1      42.564  27.445  31.949  1.00  0.00     0.031 C 
ATOM     37  C   UNL A   1      38.886  29.785  29.428  1.00  0.00     0.029 A 
ATOM     38  N   UNL A   1      39.399  30.570  31.457  1.00  0.00    -0.354 N 
ATOM     39  C   UNL A   1      42.474  28.701  33.858  1.00  0.00     0.074 A 
ATOM     40  C   UNL A   1      43.029  27.548  33.186  1.00  0.00     0.031 C 
ATOM     41  C   UNL A   1      38.078  30.829  29.670  1.00  0.00     0.029 A 
ATOM     42  C   UNL A   1      38.377  31.366  30.993  1.00  0.00     0.049 A 
ATOM     43  H   UNL A   1      39.811  30.685  32.344  1.00  0.00     0.167 HD
ATOM     44  C   UNL A   1      42.860  29.131  35.083  1.00  0.00     0.037 A 
ATOM     45  C   UNL A   1      37.753  32.413  31.566  1.00  0.00     0.037 A 
ATOM     46  C   UNL A   1      42.311  30.290  35.739  1.00  0.00     0.049 A 
ATOM     47  C   UNL A   1      38.205  32.875  32.926  1.00  0.00     0.074 A 
ATOM     48  C   UNL A   1      42.668  30.840  36.959  1.00  0.00     0.029 A 
ATOM     49  N   UNL A   1      41.283  31.075  35.235  1.00  0.00    -0.354 N 
ATOM     50  N   UNL A   1      39.148  32.383  33.694  1.00  0.00    -0.248 NA
ATOM     51  C   UNL A   1      37.515  34.042  33.491  1.00  0.00     0.031 C 
ATOM     52  C   UNL A   1      41.822  31.924  37.216  1.00  0.00     0.029 A 
ATOM     53  C   UNL A   1      40.979  32.090  36.129  1.00  0.00     0.049 A 
ATOM     54  H   UNL A   1      40.836  30.933  34.370  1.00  0.00     0.167 HD
ATOM     55  C   UNL A   1      39.184  33.197  34.820  1.00  0.00     0.074 A 
ATOM     56  C   UNL A   1      38.183  34.226  34.621  1.00  0.00     0.031 C 
ATOM     57  C   UNL A   1      39.976  33.105  35.919  1.00  0.00     0.037 A 
BRANCH  44  58
ATOM     58  C   UNL A   1      43.932  28.346  35.793  1.00  0.00     0.058 A 
ATOM     59  C   UNL A   1      45.297  28.628  35.611  1.00  0.00     0.135 A 
ATOM     60  C   UNL A   1      43.593  27.325  36.695  1.00  0.00     0.135 A 
ATOM     61  F   UNL A   1      45.682  29.583  34.750  1.00  0.00    -0.206 F 
ATOM     62  C   UNL A   1      46.286  27.907  36.274  1.00  0.00     0.059 A 
ATOM     63  C   UNL A   1      44.565  26.611  37.393  1.00  0.00     0.059 A 
ATOM     64  F   UNL A   1      42.306  27.011  36.909  1.00  0.00    -0.206 F 
ATOM     65  C   UNL A   1      45.909  26.901  37.164  1.00  0.00     0.060 A 
BRANCH  65  66
ATOM     66  S   UNL A   1      47.205  25.983  38.021  1.00  0.00     0.124 S 
ATOM     67  O   UNL A   1      47.451  24.887  37.089  1.00  0.00    -0.237 OA
ATOM     68  O   UNL A   1      48.270  26.974  38.129  1.00  0.00    -0.237 OA
ATOM     69  O   UNL A   1      46.577  25.602  39.283  1.00  0.00    -0.744 OA
ENDBRANCH  65  66
ENDBRANCH  44  58
BRANCH  45  70
ATOM     70  C   UNL A   1      36.660  33.117  30.842  1.00  0.00     0.058 A 
ATOM     71  C   UNL A   1      36.941  34.002  29.790  1.00  0.00     0.135 A 
ATOM     72  C   UNL A   1      35.314  32.911  31.180  1.00  0.00     0.135 A 
ATOM     73  F   UNL A   1      38.212  34.236  29.431  1.00  0.00    -0.206 F 
ATOM     74  C   UNL A   1      35.929  34.675  29.114  1.00  0.00     0.059 A 
ATOM     75  C   UNL A   1      34.282  33.550  30.499  1.00  0.00     0.059 A 
ATOM     76  F   UNL A   1      34.989  32.061  32.166  1.00  0.00    -0.206 F 
ATOM     77  C   UNL A   1      34.601  34.439  29.474  1.00  0.00     0.060 A 
BRANCH  77  78
ATOM     78  S   UNL A   1      33.292  35.283  28.559  1.00  0.00     0.124 S 
ATOM     79  O   UNL A   1      34.063  36.132  27.658  1.00  0.00    -0.237 OA
ATOM     80  O   UNL A   1      32.586  34.167  27.938  1.00  0.00    -0.237 OA
ATOM     81  O   UNL A   1      32.548  35.980  29.604  1.00  0.00    -0.744 OA
ENDBRANCH  77  78
ENDBRANCH  45  70
BRANCH  57  82
ATOM     82  C   UNL A   1      39.812  34.167  36.973  1.00  0.00     0.058 A 
ATOM     83  C   UNL A   1      40.410  35.432  36.855  1.00  0.00     0.135 A 
ATOM     84  C   UNL A   1      39.031  33.919  38.115  1.00  0.00     0.135 A 
ATOM     85  F   UNL A   1      41.169  35.722  35.787  1.00  0.00    -0.206 F 
ATOM     86  C   UNL A   1      40.281  36.394  37.851  1.00  0.00     0.059 A 
ATOM     87  C   UNL A   1      38.857  34.879  39.106  1.00  0.00     0.059 A 
ATOM     88  F   UNL A   1      38.421  32.733  38.273  1.00  0.00    -0.206 F 
ATOM     89  C   UNL A   1      39.505  36.106  38.975  1.00  0.00     0.060 A 
BRANCH  89  90
ATOM     90  S   UNL A   1      39.349  37.360  40.264  1.00  0.00     0.124 S 
ATOM     91  O   UNL A   1      38.761  36.589  41.354  1.00  0.00    -0.237 OA
ATOM     92  O   UNL A   1      40.733  37.781  40.460  1.00  0.00    -0.237 OA
ATOM     93  O   UNL A   1      38.476  38.362  39.662  1.00  0.00    -0.744 OA
ENDBRANCH  89  90
ENDBRANCH  57  82
ENDBRANCH  31  32
ENDBRANCH  23  26
ENDBRANCH  21  22
ENDBRANCH  20  21
ENDBRANCH   1  20
TORSDOF 17
ENDMDL
MODEL 2
REMARK VINA RESULT:     -11.6      4.517     10.007
REMARK SMILES C[C@@H](Nc1cccc(Cl)c1)[C@@H](C)C(=O)NCCCCNC(=O)c1ccc(-c2c3nc(c(-c4c(F)cc(S(=O)(=O)[O-])cc4F)c4ccc([nH]4)c(-c4c(F)cc(S(=O)(=O)[O-])cc4F)c4nc(c(-c5c(F)cc(S(=O)(=O)[O-])cc5F)c5ccc2[nH]5)C=C4)C=C3)cc1
REMARK SMILES IDX 17 1 16 2 15 3 13 4 14 5 11 7 12 8 2 9 1 10 3 11 4 13 5 14
REMARK SMILES IDX 10 15 6 16 8 17 7 18 9 19 18 20 19 21 20 22 21 23 22 25
REMARK SMILES IDX 23 26 24 27 88 28 25 29 87 30 26 31 27 32 28 33 81 34 29 35
REMARK SMILES IDX 86 36 80 37 82 38 30 39 85 40 79 41 78 42 31 44 65 45 44 46
REMARK SMILES IDX 64 47 45 48 48 49 63 50 83 51 46 52 47 53 62 55 84 56 49 57
REMARK SMILES IDX 32 58 33 59 42 60 34 61 35 62 41 63 43 64 36 65 37 66 38 67
REMARK SMILES IDX 39 68 40 69 66 70 67 71 76 72 68 73 69 74 75 75 77 76 70 77
REMARK SMILES IDX 71 78 72 79 73 80 74 81 50 82 51 83 60 84 52 85 53 86 59 87
REMARK SMILES IDX 61 88 54 89 55 90 56 91 57 92 58 93
REMARK H PARENT 15 6 3 12 20 24 82 43 48 54
REMARK Flexibility Score: inf
ROOT
ATOM      1  C   UNL A   1      32.023  30.198  26.880  1.00  0.00     0.023 C 
ENDROOT
BRANCH   1   2
ATOM      2  C   UNL A   1      33.142  29.556  26.058  1.00  0.00     0.116 C 
BRANCH   2   3
ATOM      3  N   UNL A   1      32.925  29.661  24.631  1.00  0.00    -0.356 N 
ATOM      4  C   UNL A   1      32.074  29.009  23.795  1.00  0.00     0.224 C 
ATOM      5  O   UNL A   1      31.989  29.458  22.646  1.00  0.00    -0.275 OA
ATOM      6  H   UNL A   1      33.497  30.326  24.184  1.00  0.00     0.163 HD
BRANCH   4   7
ATOM      7  C   UNL A   1      31.182  27.848  24.231  1.00  0.00     0.097 C 
ATOM      8  C   UNL A   1      32.080  26.599  24.200  1.00  0.00     0.020 C 
BRANCH   7   9
ATOM      9  C   UNL A   1      29.823  27.709  23.494  1.00  0.00     0.088 C 
ATOM     10  C   UNL A   1      29.095  26.408  23.887  1.00  0.00     0.031 C 
BRANCH   9  11
ATOM     11  N   UNL A   1      28.837  28.788  23.687  1.00  0.00    -0.382 N 
ATOM     12  H   UNL A   1      28.246  28.686  24.467  1.00  0.00     0.160 HD
BRANCH  11  13
ATOM     13  C   UNL A   1      28.626  29.918  22.930  1.00  0.00     0.036 A 
ATOM     14  C   UNL A   1      28.120  29.889  21.632  1.00  0.00     0.026 A 
ATOM     15  C   UNL A   1      28.961  31.165  23.472  1.00  0.00     0.046 A 
ATOM     16  C   UNL A   1      28.039  31.047  20.853  1.00  0.00     0.004 A 
ATOM     17  C   UNL A   1      28.857  32.329  22.707  1.00  0.00     0.043 A 
ATOM     18  C   UNL A   1      28.420  32.273  21.389  1.00  0.00     0.020 A 
ATOM     19  Cl  UNL A   1      29.290  33.844  23.402  1.00  0.00    -0.084 Cl
ENDBRANCH  11  13
ENDBRANCH   9  11
ENDBRANCH   7   9
ENDBRANCH   4   7
ENDBRANCH   2   3
ENDBRANCH   1   2
BRANCH   1  20
ATOM     20  C   UNL A   1      31.898  31.717  26.749  1.00  0.00     0.023 C 
BRANCH  20  21
ATOM     21  C   UNL A   1      33.081  32.519  27.273  1.00  0.00     0.116 C 
BRANCH  21  22
ATOM     22  N   UNL A   1      32.717  33.860  27.698  1.00  0.00    -0.352 N 
ATOM     23  C   UNL A   1      33.253  34.636  28.698  1.00  0.00     0.251 C 
ATOM     24  H   UNL A   1      31.977  34.274  27.196  1.00  0.00     0.163 HD
ATOM     25  O   UNL A   1      32.727  35.708  28.975  1.00  0.00    -0.269 OA
BRANCH  23  26
ATOM     26  C   UNL A   1      34.432  34.162  29.455  1.00  0.00     0.039 A 
ATOM     27  C   UNL A   1      34.219  33.381  30.593  1.00  0.00     0.014 A 
ATOM     28  C   UNL A   1      35.734  34.475  29.056  1.00  0.00     0.014 A 
ATOM     29  C   UNL A   1      35.312  32.872  31.296  1.00  0.00     0.010 A 
ATOM     30  C   UNL A   1      36.820  33.895  29.705  1.00  0.00     0.010 A 
ATOM     31  C   UNL A   1      36.622  33.095  30.839  1.00  0.00    -0.014 A 
BRANCH  31  32
ATOM     32  C   UNL A   1      37.782  32.491  31.544  1.00  0.00     0.031 A 
ATOM     33  C   UNL A   1      38.238  33.034  32.873  1.00  0.00     0.074 A 
ATOM     34  C   UNL A   1      38.441  31.463  30.972  1.00  0.00     0.049 A 
ATOM     35  N   UNL A   1      39.209  32.617  33.644  1.00  0.00    -0.248 NA
ATOM     36  C   UNL A   1      37.526  34.213  33.392  1.00  0.00     0.031 C 
ATOM     37  C   UNL A   1      38.135  30.890  29.658  1.00  0.00     0.029 A 
ATOM     38  N   UNL A   1      39.498  30.713  31.421  1.00  0.00    -0.354 N 
ATOM     39  C   UNL A   1      39.228  33.481  34.734  1.00  0.00     0.074 A 
ATOM     40  C   UNL A   1      38.214  34.484  34.492  1.00  0.00     0.031 C 
ATOM     41  C   UNL A   1      38.956  29.854  29.427  1.00  0.00     0.029 A 
ATOM     42  C   UNL A   1      39.870  29.710  30.556  1.00  0.00     0.049 A 
ATOM     43  H   UNL A   1      39.949  30.876  32.281  1.00  0.00     0.167 HD
ATOM     44  C   UNL A   1      39.998  33.426  35.847  1.00  0.00     0.037 A 
ATOM     45  C   UNL A   1      40.836  28.776  30.661  1.00  0.00     0.037 A 
ATOM     46  C   UNL A   1      40.996  32.415  36.085  1.00  0.00     0.049 A 
ATOM     47  C   UNL A   1      41.674  28.732  31.910  1.00  0.00     0.074 A 
ATOM     48  C   UNL A   1      41.795  32.240  37.202  1.00  0.00     0.029 A 
ATOM     49  N   UNL A   1      41.340  31.412  35.189  1.00  0.00    -0.354 N 
ATOM     50  N   UNL A   1      41.626  29.512  32.964  1.00  0.00    -0.248 NA
ATOM     51  C   UNL A   1      42.688  27.674  31.989  1.00  0.00     0.031 C 
ATOM     52  C   UNL A   1      42.657  31.164  36.961  1.00  0.00     0.029 A 
ATOM     53  C   UNL A   1      42.352  30.629  35.720  1.00  0.00     0.049 A 
ATOM     54  H   UNL A   1      40.924  31.275  34.308  1.00  0.00     0.167 HD
ATOM     55  C   UNL A   1      42.585  29.020  33.844  1.00  0.00     0.074 A 
ATOM     56  C   UNL A   1      43.180  27.864  33.205  1.00  0.00     0.031 C 
ATOM     57  C   UNL A   1      42.938  29.482  35.070  1.00  0.00     0.037 A 
BRANCH  44  58
ATOM     58  C   UNL A   1      39.787  34.487  36.896  1.00  0.00     0.058 A 
ATOM     59  C   UNL A   1      38.936  34.281  37.995  1.00  0.00     0.135 A 
ATOM     60  C   UNL A   1      40.472  35.711  36.823  1.00  0.00     0.135 A 
ATOM     61  F   UNL A   1      38.243  33.137  38.109  1.00  0.00    -0.206 F 
ATOM     62  C   UNL A   1      38.749  35.259  38.966  1.00  0.00     0.059 A 
ATOM     63  C   UNL A   1      40.325  36.692  37.801  1.00  0.00     0.059 A 
ATOM     64  F   UNL A   1      41.298  35.964  35.797  1.00  0.00    -0.206 F 
ATOM     65  C   UNL A   1      39.449  36.461  38.861  1.00  0.00     0.060 A 
BRANCH  65  66
ATOM     66  S   UNL A   1      39.201  37.715  40.136  1.00  0.00     0.124 S 
ATOM     67  O   UNL A   1      40.507  38.366  40.161  1.00  0.00    -0.237 OA
ATOM     68  O   UNL A   1      38.107  38.508  39.584  1.00  0.00    -0.237 OA
ATOM     69  O   UNL A   1      38.868  36.934  41.323  1.00  0.00    -0.744 OA
ENDBRANCH  65  66
ENDBRANCH  44  58
BRANCH  45  70
ATOM     70  C   UNL A   1      41.037  27.787  29.568  1.00  0.00     0.058 A 
ATOM     71  C   UNL A   1      40.126  26.739  29.361  1.00  0.00     0.135 A 
ATOM     72  C   UNL A   1      42.138  27.874  28.702  1.00  0.00     0.135 A 
ATOM     73  F   UNL A   1      39.059  26.610  30.164  1.00  0.00    -0.206 F 
ATOM     74  C   UNL A   1      40.310  25.802  28.350  1.00  0.00     0.059 A 
ATOM     75  C   UNL A   1      42.328  26.966  27.665  1.00  0.00     0.059 A 
ATOM     76  F   UNL A   1      43.030  28.867  28.844  1.00  0.00    -0.206 F 
ATOM     77  C   UNL A   1      41.413  25.926  27.505  1.00  0.00     0.060 A 
BRANCH  77  78
ATOM     78  S   UNL A   1      41.618  24.729  26.167  1.00  0.00     0.124 S 
ATOM     79  O   UNL A   1      40.447  23.881  26.349  1.00  0.00    -0.237 OA
ATOM     80  O   UNL A   1      41.609  25.588  24.986  1.00  0.00    -0.237 OA
ATOM     81  O   UNL A   1      42.904  24.106  26.468  1.00  0.00    -0.744 OA
ENDBRANCH  77  78
ENDBRANCH  45  70
BRANCH  57  82
ATOM     82  C   UNL A   1      43.997  28.711  35.814  1.00  0.00     0.058 A 
ATOM     83  C   UNL A   1      45.361  29.023  35.702  1.00  0.00     0.135 A 
ATOM     84  C   UNL A   1      43.637  27.652  36.665  1.00  0.00     0.135 A 
ATOM     85  F   UNL A   1      45.762  30.023  34.901  1.00  0.00    -0.206 F 
ATOM     86  C   UNL A   1      46.334  28.283  36.366  1.00  0.00     0.059 A 
ATOM     87  C   UNL A   1      44.590  26.922  37.367  1.00  0.00     0.059 A 
ATOM     88  F   UNL A   1      42.346  27.320  36.824  1.00  0.00    -0.206 F 
ATOM     89  C   UNL A   1      45.938  27.231  37.194  1.00  0.00     0.060 A 
BRANCH  89  90
ATOM     90  S   UNL A   1      47.209  26.274  38.046  1.00  0.00     0.124 S 
ATOM     91  O   UNL A   1      48.212  26.119  36.997  1.00  0.00    -0.237 OA
ATOM     92  O   UNL A   1      47.577  27.156  39.149  1.00  0.00    -0.237 OA
ATOM     93  O   UNL A   1      46.513  25.052  38.435  1.00  0.00    -0.744 OA
ENDBRANCH  89  90
ENDBRANCH  57  82
ENDBRANCH  31  32
ENDBRANCH  23  26
ENDBRANCH  21  22
ENDBRANCH  20  21
ENDBRANCH   1  20
TORSDOF 17
ENDMDL
MODEL 3
REMARK VINA RESULT:     -11.6      7.440     12.865
REMARK SMILES C[C@@H](Nc1cccc(Cl)c1)[C@@H](C)C(=O)NCCCCNC(=O)c1ccc(-c2c3nc(c(-c4c(F)cc(S(=O)(=O)[O-])cc4F)c4ccc([nH]4)c(-c4c(F)cc(S(=O)(=O)[O-])cc4F)c4nc(c(-c5c(F)cc(S(=O)(=O)[O-])cc5F)c5ccc2[nH]5)C=C4)C=C3)cc1
REMARK SMILES IDX 17 1 16 2 15 3 13 4 14 5 11 7 12 8 2 9 1 10 3 11 4 13 5 14
REMARK SMILES IDX 10 15 6 16 8 17 7 18 9 19 18 20 19 21 20 22 21 23 22 25
REMARK SMILES IDX 23 26 24 27 88 28 25 29 87 30 26 31 27 32 28 33 81 34 29 35
REMARK SMILES IDX 86 36 80 37 82 38 30 39 85 40 79 41 78 42 31 44 65 45 44 46
REMARK SMILES IDX 64 47 45 48 48 49 63 50 83 51 46 52 47 53 62 55 84 56 49 57
REMARK SMILES IDX 32 58 33 59 42 60 34 61 35 62 41 63 43 64 36 65 37 66 38 67
REMARK SMILES IDX 39 68 40 69 66 70 67 71 76 72 68 73 69 74 75 75 77 76 70 77
REMARK SMILES IDX 71 78 72 79 73 80 74 81 50 82 51 83 60 84 52 85 53 86 59 87
REMARK SMILES IDX 61 88 54 89 55 90 56 91 57 92 58 93
REMARK H PARENT 15 6 3 12 20 24 82 43 48 54
REMARK Flexibility Score: inf
ROOT
ATOM      1  C   UNL A   1      34.708  30.747  27.938  1.00  0.00     0.023 C 
ENDROOT
BRANCH   1   2
ATOM      2  C   UNL A   1      33.470  30.550  27.061  1.00  0.00     0.116 C 
BRANCH   2   3
ATOM      3  N   UNL A   1      32.510  29.635  27.639  1.00  0.00    -0.356 N 
ATOM      4  C   UNL A   1      32.063  28.416  27.233  1.00  0.00     0.224 C 
ATOM      5  O   UNL A   1      31.375  27.790  28.047  1.00  0.00    -0.275 OA
ATOM      6  H   UNL A   1      32.106  29.951  28.479  1.00  0.00     0.163 HD
BRANCH   4   7
ATOM      7  C   UNL A   1      32.445  27.775  25.900  1.00  0.00     0.097 C 
ATOM      8  C   UNL A   1      33.882  27.256  26.085  1.00  0.00     0.020 C 
BRANCH   7   9
ATOM      9  C   UNL A   1      32.206  28.631  24.629  1.00  0.00     0.088 C 
ATOM     10  C   UNL A   1      33.470  28.712  23.751  1.00  0.00     0.031 C 
BRANCH   9  11
ATOM     11  N   UNL A   1      31.122  28.206  23.722  1.00  0.00    -0.382 N 
ATOM     12  H   UNL A   1      31.305  27.394  23.198  1.00  0.00     0.160 HD
BRANCH  11  13
ATOM     13  C   UNL A   1      29.893  28.785  23.507  1.00  0.00     0.036 A 
ATOM     14  C   UNL A   1      28.735  28.054  23.251  1.00  0.00     0.026 A 
ATOM     15  C   UNL A   1      29.794  30.181  23.515  1.00  0.00     0.046 A 
ATOM     16  C   UNL A   1      27.532  28.684  22.914  1.00  0.00     0.004 A 
ATOM     17  C   UNL A   1      28.590  30.816  23.205  1.00  0.00     0.043 A 
ATOM     18  C   UNL A   1      27.461  30.072  22.880  1.00  0.00     0.020 A 
ATOM     19  Cl  UNL A   1      28.508  32.536  23.212  1.00  0.00    -0.084 Cl
ENDBRANCH  11  13
ENDBRANCH   9  11
ENDBRANCH   7   9
ENDBRANCH   4   7
ENDBRANCH   2   3
ENDBRANCH   1   2
BRANCH   1  20
ATOM     20  C   UNL A   1      34.975  32.184  28.388  1.00  0.00     0.023 C 
BRANCH  20  21
ATOM     21  C   UNL A   1      36.037  32.346  29.467  1.00  0.00     0.116 C 
BRANCH  21  22
ATOM     22  N   UNL A   1      35.824  31.478  30.612  1.00  0.00    -0.352 N 
ATOM     23  C   UNL A   1      36.624  30.479  31.112  1.00  0.00     0.251 C 
ATOM     24  H   UNL A   1      34.984  31.629  31.103  1.00  0.00     0.163 HD
ATOM     25  O   UNL A   1      36.211  29.781  32.031  1.00  0.00    -0.269 OA
BRANCH  23  26
ATOM     26  C   UNL A   1      37.955  30.226  30.520  1.00  0.00     0.039 A 
ATOM     27  C   UNL A   1      39.047  30.083  31.379  1.00  0.00     0.014 A 
ATOM     28  C   UNL A   1      38.136  30.126  29.137  1.00  0.00     0.014 A 
ATOM     29  C   UNL A   1      40.306  29.787  30.853  1.00  0.00     0.010 A 
ATOM     30  C   UNL A   1      39.371  29.745  28.621  1.00  0.00     0.010 A 
ATOM     31  C   UNL A   1      40.473  29.581  29.472  1.00  0.00    -0.014 A 
BRANCH  31  32
ATOM     32  C   UNL A   1      41.797  29.193  28.921  1.00  0.00     0.031 A 
ATOM     33  C   UNL A   1      42.910  30.203  28.818  1.00  0.00     0.074 A 
ATOM     34  C   UNL A   1      41.989  27.930  28.490  1.00  0.00     0.049 A 
ATOM     35  N   UNL A   1      44.135  30.038  28.390  1.00  0.00    -0.248 NA
ATOM     36  C   UNL A   1      42.599  31.583  29.225  1.00  0.00     0.031 C 
ATOM     37  C   UNL A   1      40.969  26.877  28.479  1.00  0.00     0.029 A 
ATOM     38  N   UNL A   1      43.105  27.313  27.985  1.00  0.00    -0.354 N 
ATOM     39  C   UNL A   1      44.739  31.289  28.474  1.00  0.00     0.074 A 
ATOM     40  C   UNL A   1      43.726  32.215  28.930  1.00  0.00     0.031 C 
ATOM     41  C   UNL A   1      41.518  25.737  28.032  1.00  0.00     0.029 A 
ATOM     42  C   UNL A   1      42.916  25.983  27.691  1.00  0.00     0.049 A 
ATOM     43  H   UNL A   1      43.962  27.778  27.847  1.00  0.00     0.167 HD
ATOM     44  C   UNL A   1      46.026  31.627  28.222  1.00  0.00     0.037 A 
ATOM     45  C   UNL A   1      43.771  25.063  27.205  1.00  0.00     0.037 A 
ATOM     46  C   UNL A   1      47.031  30.695  27.781  1.00  0.00     0.049 A 
ATOM     47  C   UNL A   1      45.197  25.463  26.939  1.00  0.00     0.074 A 
ATOM     48  C   UNL A   1      48.376  30.926  27.546  1.00  0.00     0.029 A 
ATOM     49  N   UNL A   1      46.803  29.355  27.500  1.00  0.00    -0.354 N 
ATOM     50  N   UNL A   1      45.769  26.633  27.095  1.00  0.00    -0.248 NA
ATOM     51  C   UNL A   1      46.097  24.413  26.442  1.00  0.00     0.031 C 
ATOM     52  C   UNL A   1      48.949  29.740  27.075  1.00  0.00     0.029 A 
ATOM     53  C   UNL A   1      47.977  28.753  27.075  1.00  0.00     0.049 A 
ATOM     54  H   UNL A   1      45.936  28.899  27.592  1.00  0.00     0.167 HD
ATOM     55  C   UNL A   1      47.103  26.454  26.743  1.00  0.00     0.074 A 
ATOM     56  C   UNL A   1      47.254  25.057  26.388  1.00  0.00     0.031 C 
ATOM     57  C   UNL A   1      48.112  27.362  26.719  1.00  0.00     0.037 A 
BRANCH  44  58
ATOM     58  C   UNL A   1      46.422  33.067  28.423  1.00  0.00     0.058 A 
ATOM     59  C   UNL A   1      46.981  33.518  29.631  1.00  0.00     0.135 A 
ATOM     60  C   UNL A   1      46.277  34.001  27.384  1.00  0.00     0.135 A 
ATOM     61  F   UNL A   1      47.129  32.675  30.665  1.00  0.00    -0.206 F 
ATOM     62  C   UNL A   1      47.353  34.847  29.812  1.00  0.00     0.059 A 
ATOM     63  C   UNL A   1      46.671  35.329  27.532  1.00  0.00     0.059 A 
ATOM     64  F   UNL A   1      45.749  33.628  26.208  1.00  0.00    -0.206 F 
ATOM     65  C   UNL A   1      47.195  35.744  28.755  1.00  0.00     0.060 A 
BRANCH  65  66
ATOM     66  S   UNL A   1      47.692  37.462  29.005  1.00  0.00     0.124 S 
ATOM     67  O   UNL A   1      48.940  37.299  29.744  1.00  0.00    -0.237 OA
ATOM     68  O   UNL A   1      47.824  37.950  27.636  1.00  0.00    -0.237 OA
ATOM     69  O   UNL A   1      46.583  38.030  29.766  1.00  0.00    -0.744 OA
ENDBRANCH  65  66
ENDBRANCH  44  58
BRANCH  45  70
ATOM     70  C   UNL A   1      43.310  23.667  26.972  1.00  0.00     0.058 A 
ATOM     71  C   UNL A   1      43.137  22.773  28.040  1.00  0.00     0.135 A 
ATOM     72  C   UNL A   1      43.024  23.202  25.678  1.00  0.00     0.135 A 
ATOM     73  F   UNL A   1      43.400  23.168  29.294  1.00  0.00    -0.206 F 
ATOM     74  C   UNL A   1      42.718  21.463  27.833  1.00  0.00     0.059 A 
ATOM     75  C   UNL A   1      42.576  21.905  25.449  1.00  0.00     0.059 A 
ATOM     76  F   UNL A   1      43.155  24.022  24.624  1.00  0.00    -0.206 F 
ATOM     77  C   UNL A   1      42.437  21.039  26.533  1.00  0.00     0.060 A 
BRANCH  77  78
ATOM     78  S   UNL A   1      41.851  19.349  26.281  1.00  0.00     0.124 S 
ATOM     79  O   UNL A   1      42.245  18.711  27.531  1.00  0.00    -0.237 OA
ATOM     80  O   UNL A   1      40.418  19.549  26.089  1.00  0.00    -0.237 OA
ATOM     81  O   UNL A   1      42.579  18.916  25.092  1.00  0.00    -0.744 OA
ENDBRANCH  77  78
ENDBRANCH  45  70
BRANCH  57  82
ATOM     82  C   UNL A   1      49.476  26.860  26.327  1.00  0.00     0.058 A 
ATOM     83  C   UNL A   1      50.000  27.060  25.040  1.00  0.00     0.135 A 
ATOM     84  C   UNL A   1      50.278  26.181  27.259  1.00  0.00     0.135 A 
ATOM     85  F   UNL A   1      49.276  27.701  24.108  1.00  0.00    -0.206 F 
ATOM     86  C   UNL A   1      51.248  26.563  24.676  1.00  0.00     0.059 A 
ATOM     87  C   UNL A   1      51.544  25.707  26.929  1.00  0.00     0.059 A 
ATOM     88  F   UNL A   1      49.835  25.976  28.511  1.00  0.00    -0.206 F 
ATOM     89  C   UNL A   1      52.010  25.884  25.627  1.00  0.00     0.060 A 
BRANCH  89  90
ATOM     90  S   UNL A   1      53.624  25.239  25.143  1.00  0.00     0.124 S 
ATOM     91  O   UNL A   1      53.466  23.815  25.421  1.00  0.00    -0.237 OA
ATOM     92  O   UNL A   1      53.696  25.604  23.732  1.00  0.00    -0.237 OA
ATOM     93  O   UNL A   1      54.553  25.950  26.016  1.00  0.00    -0.744 OA
ENDBRANCH  89  90
ENDBRANCH  57  82
ENDBRANCH  31  32
ENDBRANCH  23  26
ENDBRANCH  21  22
ENDBRANCH  20  21
ENDBRANCH   1  20
TORSDOF 17
ENDMDL
