MODEL 1
REMARK VINA RESULT:     -12.3      0.000      0.000
REMARK SMILES Cc1ccc(N2CCC[C@@H](Cn3cc(C(=O)NCCCCNC(=O)c4ccc(-c5c6nc(c(-c7c(F)cc(S(=O)(=O)[O-])cc7F)c7ccc([nH]7)c(-c7c(F)cc(S(=O)(=O)[O-])cc7F)c7nc(c(-c8c(F)cc(S(=O)(=O)[O-])cc8F)c8ccc5[nH]8)C=C7)C=C6)cc4)nn3)C2)nn1
REMARK SMILES IDX 19 1 18 2 17 3 15 4 16 5 14 7 12 8 13 9 92 10 91 11 11 12
REMARK SMILES IDX 10 13 6 14 7 15 93 16 8 17 9 18 5 19 1 20 2 21 3 22 95 23
REMARK SMILES IDX 4 24 94 25 20 26 21 27 22 28 23 29 24 31 25 32 26 33 90 34
REMARK SMILES IDX 27 35 89 36 28 37 29 38 30 39 83 40 31 41 88 42 82 43 84 44
REMARK SMILES IDX 32 45 87 46 81 47 80 48 33 50 67 51 46 52 66 53 47 54 50 55
REMARK SMILES IDX 65 56 85 57 48 58 49 59 64 61 86 62 51 63 34 64 35 65 44 66
REMARK SMILES IDX 36 67 37 68 43 69 45 70 38 71 39 72 40 73 41 74 42 75 68 76
REMARK SMILES IDX 69 77 78 78 70 79 71 80 77 81 79 82 72 83 73 84 74 85 75 86
REMARK SMILES IDX 76 87 52 88 53 89 62 90 54 91 55 92 61 93 63 94 56 95 57 96
REMARK SMILES IDX 58 97 59 98 60 99
REMARK H PARENT 17 6 22 30 84 49 50 60
REMARK Flexibility Score: inf
ROOT
ATOM      1  C   UNL A   1      41.297  21.342  27.495  1.00  0.00     0.023 C 
ENDROOT
BRANCH   1   2
ATOM      2  C   UNL A   1      40.067  21.278  26.587  1.00  0.00     0.116 C 
BRANCH   2   3
ATOM      3  N   UNL A   1      39.523  22.601  26.335  1.00  0.00    -0.351 N 
ATOM      4  C   UNL A   1      38.245  23.009  26.024  1.00  0.00     0.273 C 
ATOM      5  O   UNL A   1      38.041  24.227  25.965  1.00  0.00    -0.267 OA
ATOM      6  H   UNL A   1      40.180  23.331  26.397  1.00  0.00     0.163 HD
BRANCH   4   7
ATOM      7  C   UNL A   1      37.177  22.041  25.819  1.00  0.00     0.170 A 
ATOM      8  N   UNL A   1      35.288  21.011  25.620  1.00  0.00    -0.251 N 
ATOM      9  C   UNL A   1      35.896  21.994  26.340  1.00  0.00     0.145 A 
ATOM     10  N   UNL A   1      36.174  20.315  24.896  1.00  0.00    -0.067 NA
ATOM     11  N   UNL A   1      37.337  20.944  24.997  1.00  0.00    -0.125 NA
BRANCH   8  12
ATOM     12  C   UNL A   1      33.870  20.775  25.466  1.00  0.00     0.151 C 
BRANCH  12  13
ATOM     13  C   UNL A   1      33.190  21.660  24.405  1.00  0.00     0.030 C 
ATOM     14  N   UNL A   1      33.408  23.441  22.801  1.00  0.00    -0.355 N 
ATOM     15  C   UNL A   1      32.787  22.738  21.691  1.00  0.00     0.118 C 
ATOM     16  C   UNL A   1      34.172  22.646  23.741  1.00  0.00     0.123 C 
ATOM     17  C   UNL A   1      31.779  21.749  22.274  1.00  0.00     0.022 C 
ATOM     18  C   UNL A   1      32.431  20.847  23.330  1.00  0.00     0.009 C 
BRANCH  14  19
ATOM     19  C   UNL A   1      33.482  24.814  22.830  1.00  0.00     0.151 A 
ATOM     20  C   UNL A   1      33.688  29.051  22.872  1.00  0.00     0.069 C 
ATOM     21  C   UNL A   1      33.658  27.557  22.888  1.00  0.00     0.060 A 
ATOM     22  C   UNL A   1      33.630  26.866  24.084  1.00  0.00     0.029 A 
ATOM     23  N   UNL A   1      33.643  26.903  21.710  1.00  0.00    -0.154 NA
ATOM     24  C   UNL A   1      33.529  25.480  24.048  1.00  0.00     0.051 A 
ATOM     25  N   UNL A   1      33.577  25.525  21.686  1.00  0.00    -0.133 NA
ENDBRANCH  14  19
ENDBRANCH  12  13
ENDBRANCH   8  12
ENDBRANCH   4   7
ENDBRANCH   2   3
ENDBRANCH   1   2
BRANCH   1  26
ATOM     26  C   UNL A   1      42.337  20.246  27.221  1.00  0.00     0.023 C 
BRANCH  26  27
ATOM     27  C   UNL A   1      42.253  19.643  25.819  1.00  0.00     0.116 C 
BRANCH  27  28
ATOM     28  N   UNL A   1      43.565  19.546  25.195  1.00  0.00    -0.352 N 
ATOM     29  C   UNL A   1      44.398  20.564  24.797  1.00  0.00     0.251 C 
ATOM     30  H   UNL A   1      43.899  18.632  25.038  1.00  0.00     0.163 HD
ATOM     31  O   UNL A   1      45.233  20.358  23.920  1.00  0.00    -0.269 OA
BRANCH  29  32
ATOM     32  C   UNL A   1      44.291  21.899  25.418  1.00  0.00     0.039 A 
ATOM     33  C   UNL A   1      43.380  22.826  24.899  1.00  0.00     0.014 A 
ATOM     34  C   UNL A   1      45.141  22.249  26.470  1.00  0.00     0.014 A 
ATOM     35  C   UNL A   1      43.283  24.087  25.480  1.00  0.00     0.010 A 
ATOM     36  C   UNL A   1      45.012  23.482  27.081  1.00  0.00     0.010 A 
ATOM     37  C   UNL A   1      44.095  24.405  26.578  1.00  0.00    -0.014 A 
BRANCH  37  38
ATOM     38  C   UNL A   1      43.864  25.651  27.307  1.00  0.00     0.031 A 
ATOM     39  C   UNL A   1      44.881  26.709  27.040  1.00  0.00     0.074 A 
ATOM     40  C   UNL A   1      42.712  25.915  27.959  1.00  0.00     0.049 A 
ATOM     41  N   UNL A   1      45.706  27.263  27.867  1.00  0.00    -0.248 NA
ATOM     42  C   UNL A   1      45.097  27.107  25.637  1.00  0.00     0.031 C 
ATOM     43  C   UNL A   1      41.501  25.090  27.996  1.00  0.00     0.029 A 
ATOM     44  N   UNL A   1      42.333  27.039  28.629  1.00  0.00    -0.354 N 
ATOM     45  C   UNL A   1      46.388  28.235  27.134  1.00  0.00     0.074 A 
ATOM     46  C   UNL A   1      46.121  27.955  25.750  1.00  0.00     0.031 C 
ATOM     47  C   UNL A   1      40.467  25.830  28.455  1.00  0.00     0.029 A 
ATOM     48  C   UNL A   1      40.964  27.131  28.871  1.00  0.00     0.049 A 
ATOM     49  H   UNL A   1      42.973  27.728  28.920  1.00  0.00     0.167 HD
ATOM     50  C   UNL A   1      46.916  29.340  27.732  1.00  0.00     0.037 A 
ATOM     51  C   UNL A   1      40.288  28.218  29.327  1.00  0.00     0.037 A 
ATOM     52  C   UNL A   1      47.012  29.158  29.157  1.00  0.00     0.049 A 
ATOM     53  C   UNL A   1      41.289  29.108  29.970  1.00  0.00     0.074 A 
ATOM     54  C   UNL A   1      47.673  28.273  29.985  1.00  0.00     0.029 A 
ATOM     55  N   UNL A   1      46.048  29.758  29.928  1.00  0.00    -0.354 N 
ATOM     56  N   UNL A   1      41.953  28.809  31.052  1.00  0.00    -0.248 NA
ATOM     57  C   UNL A   1      41.859  30.181  29.167  1.00  0.00     0.031 C 
ATOM     58  C   UNL A   1      46.784  28.053  31.075  1.00  0.00     0.029 A 
ATOM     59  C   UNL A   1      45.661  28.861  30.889  1.00  0.00     0.049 A 
ATOM     60  H   UNL A   1      45.697  30.670  29.812  1.00  0.00     0.167 HD
ATOM     61  C   UNL A   1      43.216  29.343  30.852  1.00  0.00     0.074 A 
ATOM     62  C   UNL A   1      43.065  30.265  29.732  1.00  0.00     0.031 C 
ATOM     63  C   UNL A   1      44.318  28.777  31.427  1.00  0.00     0.037 A 
BRANCH  50  64
ATOM     64  C   UNL A   1      46.991  30.716  27.100  1.00  0.00     0.058 A 
ATOM     65  C   UNL A   1      48.228  31.398  27.077  1.00  0.00     0.135 A 
ATOM     66  C   UNL A   1      45.864  31.507  26.779  1.00  0.00     0.135 A 
ATOM     67  F   UNL A   1      49.370  30.756  27.371  1.00  0.00    -0.206 F 
ATOM     68  C   UNL A   1      48.327  32.770  26.835  1.00  0.00     0.059 A 
ATOM     69  C   UNL A   1      45.948  32.863  26.478  1.00  0.00     0.059 A 
ATOM     70  F   UNL A   1      44.614  31.035  26.836  1.00  0.00    -0.206 F 
ATOM     71  C   UNL A   1      47.176  33.496  26.550  1.00  0.00     0.060 A 
BRANCH  71  72
ATOM     72  S   UNL A   1      47.285  35.279  26.330  1.00  0.00     0.124 S 
ATOM     73  O   UNL A   1      46.027  35.567  25.649  1.00  0.00    -0.237 OA
ATOM     74  O   UNL A   1      47.390  35.748  27.707  1.00  0.00    -0.237 OA
ATOM     75  O   UNL A   1      48.492  35.444  25.525  1.00  0.00    -0.744 OA
ENDBRANCH  71  72
ENDBRANCH  50  64
BRANCH  51  76
ATOM     76  C   UNL A   1      38.916  28.688  28.978  1.00  0.00     0.058 A 
ATOM     77  C   UNL A   1      37.921  28.820  29.969  1.00  0.00     0.135 A 
ATOM     78  C   UNL A   1      38.630  29.295  27.738  1.00  0.00     0.135 A 
ATOM     79  F   UNL A   1      38.105  28.286  31.186  1.00  0.00    -0.206 F 
ATOM     80  C   UNL A   1      36.753  29.564  29.766  1.00  0.00     0.059 A 
ATOM     81  C   UNL A   1      37.467  30.031  27.509  1.00  0.00     0.059 A 
ATOM     82  F   UNL A   1      39.518  29.274  26.735  1.00  0.00    -0.206 F 
ATOM     83  C   UNL A   1      36.547  30.190  28.538  1.00  0.00     0.060 A 
BRANCH  83  84
ATOM     84  S   UNL A   1      35.139  31.308  28.333  1.00  0.00     0.124 S 
ATOM     85  O   UNL A   1      35.711  32.368  27.511  1.00  0.00    -0.237 OA
ATOM     86  O   UNL A   1      34.159  30.449  27.677  1.00  0.00    -0.237 OA
ATOM     87  O   UNL A   1      34.808  31.691  29.703  1.00  0.00    -0.744 OA
ENDBRANCH  83  84
ENDBRANCH  51  76
BRANCH  63  88
ATOM     88  C   UNL A   1      44.129  27.805  32.560  1.00  0.00     0.058 A 
ATOM     89  C   UNL A   1      43.983  26.416  32.406  1.00  0.00     0.135 A 
ATOM     90  C   UNL A   1      44.324  28.291  33.863  1.00  0.00     0.135 A 
ATOM     91  F   UNL A   1      43.872  25.863  31.191  1.00  0.00    -0.206 F 
ATOM     92  C   UNL A   1      44.033  25.549  33.502  1.00  0.00     0.059 A 
ATOM     93  C   UNL A   1      44.409  27.444  34.963  1.00  0.00     0.059 A 
ATOM     94  F   UNL A   1      44.518  29.605  34.067  1.00  0.00    -0.206 F 
ATOM     95  C   UNL A   1      44.266  26.072  34.775  1.00  0.00     0.060 A 
BRANCH  95  96
ATOM     96  S   UNL A   1      44.477  24.942  36.167  1.00  0.00     0.124 S 
ATOM     97  O   UNL A   1      43.372  25.320  37.042  1.00  0.00    -0.237 OA
ATOM     98  O   UNL A   1      44.362  23.632  35.531  1.00  0.00    -0.237 OA
ATOM     99  O   UNL A   1      45.809  25.264  36.671  1.00  0.00    -0.744 OA
ENDBRANCH  95  96
ENDBRANCH  63  88
ENDBRANCH  37  38
ENDBRANCH  29  32
ENDBRANCH  27  28
ENDBRANCH  26  27
ENDBRANCH   1  26
TORSDOF 17
ENDMDL
MODEL 2
REMARK VINA RESULT:     -12.2      2.598      3.625
REMARK SMILES Cc1ccc(N2CCC[C@@H](Cn3cc(C(=O)NCCCCNC(=O)c4ccc(-c5c6nc(c(-c7c(F)cc(S(=O)(=O)[O-])cc7F)c7ccc([nH]7)c(-c7c(F)cc(S(=O)(=O)[O-])cc7F)c7nc(c(-c8c(F)cc(S(=O)(=O)[O-])cc8F)c8ccc5[nH]8)C=C7)C=C6)cc4)nn3)C2)nn1
REMARK SMILES IDX 19 1 18 2 17 3 15 4 16 5 14 7 12 8 13 9 92 10 91 11 11 12
REMARK SMILES IDX 10 13 6 14 7 15 93 16 8 17 9 18 5 19 1 20 2 21 3 22 95 23
REMARK SMILES IDX 4 24 94 25 20 26 21 27 22 28 23 29 24 31 25 32 26 33 90 34
REMARK SMILES IDX 27 35 89 36 28 37 29 38 30 39 83 40 31 41 88 42 82 43 84 44
REMARK SMILES IDX 32 45 87 46 81 47 80 48 33 50 67 51 46 52 66 53 47 54 50 55
REMARK SMILES IDX 65 56 85 57 48 58 49 59 64 61 86 62 51 63 34 64 35 65 44 66
REMARK SMILES IDX 36 67 37 68 43 69 45 70 38 71 39 72 40 73 41 74 42 75 68 76
REMARK SMILES IDX 69 77 78 78 70 79 71 80 77 81 79 82 72 83 73 84 74 85 75 86
REMARK SMILES IDX 76 87 52 88 53 89 62 90 54 91 55 92 61 93 63 94 56 95 57 96
REMARK SMILES IDX 58 97 59 98 60 99
REMARK H PARENT 17 6 22 30 84 49 50 60
REMARK Flexibility Score: inf
ROOT
ATOM      1  C   UNL A   1      38.325  21.301  25.446  1.00  0.00     0.023 C 
ENDROOT
BRANCH   1   2
ATOM      2  C   UNL A   1      36.869  21.760  25.356  1.00  0.00     0.116 C 
BRANCH   2   3
ATOM      3  N   UNL A   1      35.956  20.631  25.318  1.00  0.00    -0.351 N 
ATOM      4  C   UNL A   1      34.615  20.562  25.017  1.00  0.00     0.273 C 
ATOM      5  O   UNL A   1      34.107  19.436  24.961  1.00  0.00    -0.267 OA
ATOM      6  H   UNL A   1      36.368  19.766  25.547  1.00  0.00     0.163 HD
BRANCH   4   7
ATOM      7  C   UNL A   1      33.846  21.766  24.734  1.00  0.00     0.170 A 
ATOM      8  N   UNL A   1      32.583  23.297  23.880  1.00  0.00    -0.251 N 
ATOM      9  C   UNL A   1      33.477  22.332  23.527  1.00  0.00     0.145 A 
ATOM     10  N   UNL A   1      32.585  23.506  25.203  1.00  0.00    -0.067 NA
ATOM     11  N   UNL A   1      33.345  22.563  25.744  1.00  0.00    -0.125 NA
BRANCH   8  12
ATOM     12  C   UNL A   1      31.606  23.949  23.038  1.00  0.00     0.151 C 
BRANCH  12  13
ATOM     13  C   UNL A   1      31.938  25.412  22.695  1.00  0.00     0.030 C 
ATOM     14  N   UNL A   1      31.667  27.740  23.246  1.00  0.00    -0.355 N 
ATOM     15  C   UNL A   1      33.080  28.081  23.213  1.00  0.00     0.118 C 
ATOM     16  C   UNL A   1      31.320  26.408  23.697  1.00  0.00     0.123 C 
ATOM     17  C   UNL A   1      33.761  27.143  22.220  1.00  0.00     0.022 C 
ATOM     18  C   UNL A   1      33.455  25.673  22.540  1.00  0.00     0.009 C 
BRANCH  14  19
ATOM     19  C   UNL A   1      30.694  28.700  23.096  1.00  0.00     0.151 A 
ATOM     20  C   UNL A   1      27.664  31.628  22.608  1.00  0.00     0.069 C 
ATOM     21  C   UNL A   1      28.767  30.636  22.784  1.00  0.00     0.060 A 
ATOM     22  C   UNL A   1      29.606  30.702  23.879  1.00  0.00     0.029 A 
ATOM     23  N   UNL A   1      28.911  29.667  21.859  1.00  0.00    -0.154 NA
ATOM     24  C   UNL A   1      30.570  29.714  24.037  1.00  0.00     0.051 A 
ATOM     25  N   UNL A   1      29.894  28.710  22.008  1.00  0.00    -0.133 NA
ENDBRANCH  14  19
ENDBRANCH  12  13
ENDBRANCH   8  12
ENDBRANCH   4   7
ENDBRANCH   2   3
ENDBRANCH   1   2
BRANCH   1  26
ATOM     26  C   UNL A   1      39.252  22.290  26.168  1.00  0.00     0.023 C 
BRANCH  26  27
ATOM     27  C   UNL A   1      40.434  21.631  26.877  1.00  0.00     0.116 C 
BRANCH  27  28
ATOM     28  N   UNL A   1      41.628  21.627  26.045  1.00  0.00    -0.352 N 
ATOM     29  C   UNL A   1      42.353  22.703  25.587  1.00  0.00     0.251 C 
ATOM     30  H   UNL A   1      41.961  20.740  25.776  1.00  0.00     0.163 HD
ATOM     31  O   UNL A   1      43.039  22.586  24.576  1.00  0.00    -0.269 OA
BRANCH  29  32
ATOM     32  C   UNL A   1      42.306  23.991  26.306  1.00  0.00     0.039 A 
ATOM     33  C   UNL A   1      41.673  25.087  25.709  1.00  0.00     0.014 A 
ATOM     34  C   UNL A   1      42.948  24.126  27.540  1.00  0.00     0.014 A 
ATOM     35  C   UNL A   1      41.635  26.304  26.384  1.00  0.00     0.010 A 
ATOM     36  C   UNL A   1      42.868  25.318  28.234  1.00  0.00     0.010 A 
ATOM     37  C   UNL A   1      42.225  26.410  27.651  1.00  0.00    -0.014 A 
BRANCH  37  38
ATOM     38  C   UNL A   1      42.022  27.623  28.440  1.00  0.00     0.031 A 
ATOM     39  C   UNL A   1      43.135  28.612  28.331  1.00  0.00     0.074 A 
ATOM     40  C   UNL A   1      40.841  27.938  29.009  1.00  0.00     0.049 A 
ATOM     41  N   UNL A   1      43.921  29.048  29.259  1.00  0.00    -0.248 NA
ATOM     42  C   UNL A   1      43.503  29.076  26.981  1.00  0.00     0.031 C 
ATOM     43  C   UNL A   1      39.573  27.210  28.890  1.00  0.00     0.029 A 
ATOM     44  N   UNL A   1      40.487  29.046  29.720  1.00  0.00    -0.354 N 
ATOM     45  C   UNL A   1      44.736  30.005  28.654  1.00  0.00     0.074 A 
ATOM     46  C   UNL A   1      44.572  29.832  27.236  1.00  0.00     0.031 C 
ATOM     47  C   UNL A   1      38.560  28.001  29.309  1.00  0.00     0.029 A 
ATOM     48  C   UNL A   1      39.112  29.231  29.852  1.00  0.00     0.049 A 
ATOM     49  H   UNL A   1      41.147  29.663  30.109  1.00  0.00     0.167 HD
ATOM     50  C   UNL A   1      45.288  31.027  29.367  1.00  0.00     0.037 A 
ATOM     51  C   UNL A   1      38.480  30.338  30.322  1.00  0.00     0.037 A 
ATOM     52  C   UNL A   1      45.244  30.752  30.779  1.00  0.00     0.049 A 
ATOM     53  C   UNL A   1      39.484  31.106  31.104  1.00  0.00     0.074 A 
ATOM     54  C   UNL A   1      45.762  29.769  31.598  1.00  0.00     0.029 A 
ATOM     55  N   UNL A   1      44.262  31.378  31.506  1.00  0.00    -0.354 N 
ATOM     56  N   UNL A   1      40.025  30.689  32.216  1.00  0.00    -0.248 NA
ATOM     57  C   UNL A   1      40.200  32.176  30.426  1.00  0.00     0.031 C 
ATOM     58  C   UNL A   1      44.767  29.554  32.592  1.00  0.00     0.029 A 
ATOM     59  C   UNL A   1      43.726  30.458  32.368  1.00  0.00     0.049 A 
ATOM     60  H   UNL A   1      43.991  32.320  31.422  1.00  0.00     0.167 HD
ATOM     61  C   UNL A   1      41.337  31.133  32.159  1.00  0.00     0.074 A 
ATOM     62  C   UNL A   1      41.354  32.131  31.094  1.00  0.00     0.031 C 
ATOM     63  C   UNL A   1      42.339  30.448  32.784  1.00  0.00     0.037 A 
BRANCH  50  64
ATOM     64  C   UNL A   1      45.520  32.429  28.837  1.00  0.00     0.058 A 
ATOM     65  C   UNL A   1      46.745  33.076  29.113  1.00  0.00     0.135 A 
ATOM     66  C   UNL A   1      44.502  33.264  28.325  1.00  0.00     0.135 A 
ATOM     67  F   UNL A   1      47.786  32.390  29.611  1.00  0.00    -0.206 F 
ATOM     68  C   UNL A   1      46.916  34.455  28.970  1.00  0.00     0.059 A 
ATOM     69  C   UNL A   1      44.670  34.630  28.119  1.00  0.00     0.059 A 
ATOM     70  F   UNL A   1      43.260  32.824  28.088  1.00  0.00    -0.206 F 
ATOM     71  C   UNL A   1      45.865  35.225  28.483  1.00  0.00     0.060 A 
BRANCH  71  72
ATOM     72  S   UNL A   1      46.048  37.013  28.384  1.00  0.00     0.124 S 
ATOM     73  O   UNL A   1      45.668  37.421  29.732  1.00  0.00    -0.237 OA
ATOM     74  O   UNL A   1      47.461  37.153  28.047  1.00  0.00    -0.237 OA
ATOM     75  O   UNL A   1      45.117  37.387  27.324  1.00  0.00    -0.744 OA
ENDBRANCH  71  72
ENDBRANCH  50  64
BRANCH  51  76
ATOM     76  C   UNL A   1      37.183  30.936  29.892  1.00  0.00     0.058 A 
ATOM     77  C   UNL A   1      36.312  31.527  30.829  1.00  0.00     0.135 A 
ATOM     78  C   UNL A   1      36.901  31.205  28.537  1.00  0.00     0.135 A 
ATOM     79  F   UNL A   1      36.504  31.338  32.143  1.00  0.00    -0.206 F 
ATOM     80  C   UNL A   1      35.273  32.386  30.451  1.00  0.00     0.059 A 
ATOM     81  C   UNL A   1      35.863  32.048  28.136  1.00  0.00     0.059 A 
ATOM     82  F   UNL A   1      37.685  30.734  27.558  1.00  0.00    -0.206 F 
ATOM     83  C   UNL A   1      35.073  32.662  29.100  1.00  0.00     0.060 A 
BRANCH  83  84
ATOM     84  S   UNL A   1      33.862  33.916  28.617  1.00  0.00     0.124 S 
ATOM     85  O   UNL A   1      33.381  34.389  29.910  1.00  0.00    -0.237 OA
ATOM     86  O   UNL A   1      34.680  34.856  27.857  1.00  0.00    -0.237 OA
ATOM     87  O   UNL A   1      32.890  33.163  27.829  1.00  0.00    -0.744 OA
ENDBRANCH  83  84
ENDBRANCH  51  76
BRANCH  63  88
ATOM     88  C   UNL A   1      41.978  29.427  33.830  1.00  0.00     0.058 A 
ATOM     89  C   UNL A   1      41.623  28.095  33.558  1.00  0.00     0.135 A 
ATOM     90  C   UNL A   1      42.220  29.767  35.171  1.00  0.00     0.135 A 
ATOM     91  F   UNL A   1      41.452  27.668  32.299  1.00  0.00    -0.206 F 
ATOM     92  C   UNL A   1      41.517  27.144  34.576  1.00  0.00     0.059 A 
ATOM     93  C   UNL A   1      42.152  28.830  36.196  1.00  0.00     0.059 A 
ATOM     94  F   UNL A   1      42.611  31.014  35.486  1.00  0.00    -0.206 F 
ATOM     95  C   UNL A   1      41.802  27.517  35.891  1.00  0.00     0.060 A 
BRANCH  95  96
ATOM     96  S   UNL A   1      41.807  26.256  37.183  1.00  0.00     0.124 S 
ATOM     97  O   UNL A   1      42.974  26.631  37.975  1.00  0.00    -0.237 OA
ATOM     98  O   UNL A   1      40.512  26.458  37.827  1.00  0.00    -0.237 OA
ATOM     99  O   UNL A   1      41.934  25.005  36.441  1.00  0.00    -0.744 OA
ENDBRANCH  95  96
ENDBRANCH  63  88
ENDBRANCH  37  38
ENDBRANCH  29  32
ENDBRANCH  27  28
ENDBRANCH  26  27
ENDBRANCH   1  26
TORSDOF 17
ENDMDL
MODEL 3
REMARK VINA RESULT:     -11.9      2.649      9.449
REMARK SMILES Cc1ccc(N2CCC[C@@H](Cn3cc(C(=O)NCCCCNC(=O)c4ccc(-c5c6nc(c(-c7c(F)cc(S(=O)(=O)[O-])cc7F)c7ccc([nH]7)c(-c7c(F)cc(S(=O)(=O)[O-])cc7F)c7nc(c(-c8c(F)cc(S(=O)(=O)[O-])cc8F)c8ccc5[nH]8)C=C7)C=C6)cc4)nn3)C2)nn1
REMARK SMILES IDX 19 1 18 2 17 3 15 4 16 5 14 7 12 8 13 9 92 10 91 11 11 12
REMARK SMILES IDX 10 13 6 14 7 15 93 16 8 17 9 18 5 19 1 20 2 21 3 22 95 23
REMARK SMILES IDX 4 24 94 25 20 26 21 27 22 28 23 29 24 31 25 32 26 33 90 34
REMARK SMILES IDX 27 35 89 36 28 37 29 38 30 39 83 40 31 41 88 42 82 43 84 44
REMARK SMILES IDX 32 45 87 46 81 47 80 48 33 50 67 51 46 52 66 53 47 54 50 55
REMARK SMILES IDX 65 56 85 57 48 58 49 59 64 61 86 62 51 63 34 64 35 65 44 66
REMARK SMILES IDX 36 67 37 68 43 69 45 70 38 71 39 72 40 73 41 74 42 75 68 76
REMARK SMILES IDX 69 77 78 78 70 79 71 80 77 81 79 82 72 83 73 84 74 85 75 86
REMARK SMILES IDX 76 87 52 88 53 89 62 90 54 91 55 92 61 93 63 94 56 95 57 96
REMARK SMILES IDX 58 97 59 98 60 99
REMARK H PARENT 17 6 22 30 84 49 50 60
REMARK Flexibility Score: inf
ROOT
ATOM      1  C   UNL A   1      32.417  30.089  25.413  1.00  0.00     0.023 C 
ENDROOT
BRANCH   1   2
ATOM      2  C   UNL A   1      31.083  29.404  25.117  1.00  0.00     0.116 C 
BRANCH   2   3
ATOM      3  N   UNL A   1      30.630  29.682  23.765  1.00  0.00    -0.351 N 
ATOM      4  C   UNL A   1      30.694  28.927  22.616  1.00  0.00     0.273 C 
ATOM      5  O   UNL A   1      30.128  29.377  21.614  1.00  0.00    -0.267 OA
ATOM      6  H   UNL A   1      30.203  30.562  23.651  1.00  0.00     0.163 HD
BRANCH   4   7
ATOM      7  C   UNL A   1      31.365  27.634  22.603  1.00  0.00     0.170 A 
ATOM      8  N   UNL A   1      32.722  25.972  22.852  1.00  0.00    -0.251 N 
ATOM      9  C   UNL A   1      32.711  27.321  22.667  1.00  0.00     0.145 A 
ATOM     10  N   UNL A   1      31.508  25.440  22.655  1.00  0.00    -0.067 NA
ATOM     11  N   UNL A   1      30.661  26.451  22.516  1.00  0.00    -0.125 NA
BRANCH   8  12
ATOM     12  C   UNL A   1      33.807  25.156  23.350  1.00  0.00     0.151 C 
BRANCH  12  13
ATOM     13  C   UNL A   1      33.371  24.042  24.319  1.00  0.00     0.030 C 
ATOM     14  N   UNL A   1      33.864  21.903  25.309  1.00  0.00    -0.355 N 
ATOM     15  C   UNL A   1      33.647  22.309  26.688  1.00  0.00     0.118 C 
ATOM     16  C   UNL A   1      34.404  22.899  24.406  1.00  0.00     0.123 C 
ATOM     17  C   UNL A   1      32.614  23.433  26.684  1.00  0.00     0.022 C 
ATOM     18  C   UNL A   1      33.023  24.564  25.732  1.00  0.00     0.009 C 
BRANCH  14  19
ATOM     19  C   UNL A   1      33.799  20.583  24.931  1.00  0.00     0.151 A 
ATOM     20  C   UNL A   1      33.639  16.500  23.791  1.00  0.00     0.069 C 
ATOM     21  C   UNL A   1      33.670  17.951  24.147  1.00  0.00     0.060 A 
ATOM     22  C   UNL A   1      32.507  18.696  24.170  1.00  0.00     0.029 A 
ATOM     23  N   UNL A   1      34.857  18.509  24.460  1.00  0.00    -0.154 NA
ATOM     24  C   UNL A   1      32.578  20.023  24.579  1.00  0.00     0.051 A 
ATOM     25  N   UNL A   1      34.919  19.837  24.831  1.00  0.00    -0.133 NA
ENDBRANCH  14  19
ENDBRANCH  12  13
ENDBRANCH   8  12
ENDBRANCH   4   7
ENDBRANCH   2   3
ENDBRANCH   1   2
BRANCH   1  26
ATOM     26  C   UNL A   1      33.575  29.118  25.685  1.00  0.00     0.023 C 
BRANCH  26  27
ATOM     27  C   UNL A   1      34.208  29.274  27.067  1.00  0.00     0.116 C 
BRANCH  27  28
ATOM     28  N   UNL A   1      34.098  30.639  27.560  1.00  0.00    -0.352 N 
ATOM     29  C   UNL A   1      34.854  31.262  28.524  1.00  0.00     0.251 C 
ATOM     30  H   UNL A   1      33.391  31.188  27.148  1.00  0.00     0.163 HD
ATOM     31  O   UNL A   1      34.391  32.222  29.133  1.00  0.00    -0.269 OA
BRANCH  29  32
ATOM     32  C   UNL A   1      36.216  30.780  28.827  1.00  0.00     0.039 A 
ATOM     33  C   UNL A   1      36.417  29.424  29.110  1.00  0.00     0.014 A 
ATOM     34  C   UNL A   1      37.278  31.686  28.895  1.00  0.00     0.014 A 
ATOM     35  C   UNL A   1      37.700  28.971  29.403  1.00  0.00     0.010 A 
ATOM     36  C   UNL A   1      38.561  31.230  29.135  1.00  0.00     0.010 A 
ATOM     37  C   UNL A   1      38.769  29.877  29.404  1.00  0.00    -0.014 A 
BRANCH  37  38
ATOM     38  C   UNL A   1      40.137  29.376  29.521  1.00  0.00     0.031 A 
ATOM     39  C   UNL A   1      40.619  29.249  30.927  1.00  0.00     0.074 A 
ATOM     40  C   UNL A   1      40.813  28.840  28.483  1.00  0.00     0.049 A 
ATOM     41  N   UNL A   1      41.600  29.862  31.503  1.00  0.00    -0.248 NA
ATOM     42  C   UNL A   1      39.817  28.426  31.850  1.00  0.00     0.031 C 
ATOM     43  C   UNL A   1      40.311  28.591  27.128  1.00  0.00     0.029 A 
ATOM     44  N   UNL A   1      42.058  28.287  28.450  1.00  0.00    -0.354 N 
ATOM     45  C   UNL A   1      41.677  29.338  32.794  1.00  0.00     0.074 A 
ATOM     46  C   UNL A   1      40.449  28.622  33.008  1.00  0.00     0.031 C 
ATOM     47  C   UNL A   1      41.151  27.748  26.486  1.00  0.00     0.029 A 
ATOM     48  C   UNL A   1      42.312  27.506  27.326  1.00  0.00     0.049 A 
ATOM     49  H   UNL A   1      42.723  28.430  29.162  1.00  0.00     0.167 HD
ATOM     50  C   UNL A   1      42.848  29.323  33.491  1.00  0.00     0.037 A 
ATOM     51  C   UNL A   1      43.373  26.681  27.129  1.00  0.00     0.037 A 
ATOM     52  C   UNL A   1      43.805  30.225  32.906  1.00  0.00     0.049 A 
ATOM     53  C   UNL A   1      44.434  27.111  28.077  1.00  0.00     0.074 A 
ATOM     54  C   UNL A   1      43.847  31.585  32.671  1.00  0.00     0.029 A 
ATOM     55  N   UNL A   1      44.789  29.670  32.126  1.00  0.00    -0.354 N 
ATOM     56  N   UNL A   1      45.051  28.259  28.018  1.00  0.00    -0.248 NA
ATOM     57  C   UNL A   1      44.523  26.420  29.355  1.00  0.00     0.031 C 
ATOM     58  C   UNL A   1      44.535  31.723  31.432  1.00  0.00     0.029 A 
ATOM     59  C   UNL A   1      44.932  30.452  31.011  1.00  0.00     0.049 A 
ATOM     60  H   UNL A   1      45.301  28.855  32.332  1.00  0.00     0.167 HD
ATOM     61  C   UNL A   1      45.239  28.628  29.341  1.00  0.00     0.074 A 
ATOM     62  C   UNL A   1      44.996  27.413  30.112  1.00  0.00     0.031 C 
ATOM     63  C   UNL A   1      45.295  29.943  29.704  1.00  0.00     0.037 A 
BRANCH  50  64
ATOM     64  C   UNL A   1      43.269  28.234  34.458  1.00  0.00     0.058 A 
ATOM     65  C   UNL A   1      43.609  28.583  35.784  1.00  0.00     0.135 A 
ATOM     66  C   UNL A   1      43.627  26.923  34.072  1.00  0.00     0.135 A 
ATOM     67  F   UNL A   1      43.327  29.804  36.265  1.00  0.00    -0.206 F 
ATOM     68  C   UNL A   1      44.320  27.727  36.629  1.00  0.00     0.059 A 
ATOM     69  C   UNL A   1      44.284  26.034  34.917  1.00  0.00     0.059 A 
ATOM     70  F   UNL A   1      43.450  26.465  32.827  1.00  0.00    -0.206 F 
ATOM     71  C   UNL A   1      44.664  26.457  36.178  1.00  0.00     0.060 A 
BRANCH  71  72
ATOM     72  S   UNL A   1      45.660  25.385  37.227  1.00  0.00     0.124 S 
ATOM     73  O   UNL A   1      45.964  24.287  36.316  1.00  0.00    -0.237 OA
ATOM     74  O   UNL A   1      46.776  26.257  37.576  1.00  0.00    -0.237 OA
ATOM     75  O   UNL A   1      44.757  25.062  38.328  1.00  0.00    -0.744 OA
ENDBRANCH  71  72
ENDBRANCH  50  64
BRANCH  51  76
ATOM     76  C   UNL A   1      43.428  25.369  26.419  1.00  0.00     0.058 A 
ATOM     77  C   UNL A   1      44.324  25.161  25.351  1.00  0.00     0.135 A 
ATOM     78  C   UNL A   1      42.828  24.210  26.950  1.00  0.00     0.135 A 
ATOM     79  F   UNL A   1      44.953  26.202  24.784  1.00  0.00    -0.206 F 
ATOM     80  C   UNL A   1      44.655  23.883  24.886  1.00  0.00     0.059 A 
ATOM     81  C   UNL A   1      43.132  22.927  26.495  1.00  0.00     0.059 A 
ATOM     82  F   UNL A   1      41.993  24.279  27.997  1.00  0.00    -0.206 F 
ATOM     83  C   UNL A   1      44.072  22.767  25.484  1.00  0.00     0.060 A 
BRANCH  83  84
ATOM     84  S   UNL A   1      44.638  21.112  25.023  1.00  0.00     0.124 S 
ATOM     85  O   UNL A   1      44.629  21.183  23.567  1.00  0.00    -0.237 OA
ATOM     86  O   UNL A   1      45.954  21.051  25.651  1.00  0.00    -0.237 OA
ATOM     87  O   UNL A   1      43.630  20.233  25.611  1.00  0.00    -0.744 OA
ENDBRANCH  83  84
ENDBRANCH  51  76
BRANCH  63  88
ATOM     88  C   UNL A   1      45.518  30.982  28.637  1.00  0.00     0.058 A 
ATOM     89  C   UNL A   1      44.495  31.604  27.901  1.00  0.00     0.135 A 
ATOM     90  C   UNL A   1      46.811  31.517  28.522  1.00  0.00     0.135 A 
ATOM     91  F   UNL A   1      43.221  31.207  28.015  1.00  0.00    -0.206 F 
ATOM     92  C   UNL A   1      44.750  32.712  27.089  1.00  0.00     0.059 A 
ATOM     93  C   UNL A   1      47.081  32.638  27.745  1.00  0.00     0.059 A 
ATOM     94  F   UNL A   1      47.820  30.994  29.240  1.00  0.00    -0.206 F 
ATOM     95  C   UNL A   1      46.043  33.234  27.032  1.00  0.00     0.060 A 
BRANCH  95  96
ATOM     96  S   UNL A   1      46.342  34.751  26.099  1.00  0.00     0.124 S 
ATOM     97  O   UNL A   1      46.503  35.739  27.160  1.00  0.00    -0.237 OA
ATOM     98  O   UNL A   1      47.550  34.426  25.345  1.00  0.00    -0.237 OA
ATOM     99  O   UNL A   1      45.135  34.898  25.289  1.00  0.00    -0.744 OA
ENDBRANCH  95  96
ENDBRANCH  63  88
ENDBRANCH  37  38
ENDBRANCH  29  32
ENDBRANCH  27  28
ENDBRANCH  26  27
ENDBRANCH   1  26
TORSDOF 17
ENDMDL
