MODEL 1
REMARK VINA RESULT:     -11.9      0.000      0.000
REMARK SMILES Cc1ccc(F)c(C(=O)N[C@@H]2C=C[C@@H](C(=O)NCCCCNC(=O)c3ccc(-c4c5nc(c(-c6c(F)cc(S(=O)(=O)[O-])cc6F)c6ccc([nH]6)c(-c6c(F)cc(S(=O)(=O)[O-])cc6F)c6nc(c(-c7c(F)cc(S(=O)(=O)[O-])cc7F)c7ccc4[nH]7)C=C6)C=C5)cc3)C2)c1
REMARK SMILES IDX 20 1 19 2 18 3 17 4 15 5 16 6 14 8 11 9 12 10 91 11 13 12
REMARK SMILES IDX 10 13 8 14 9 15 7 17 1 18 2 19 3 20 92 21 4 22 5 23 6 24
REMARK SMILES IDX 21 25 22 26 23 27 24 29 25 30 26 31 90 32 27 33 89 34 28 35
REMARK SMILES IDX 29 36 30 37 83 38 31 39 88 40 82 41 84 42 32 43 87 44 81 45
REMARK SMILES IDX 80 46 33 48 67 49 46 50 66 51 47 52 50 53 65 54 85 55 48 56
REMARK SMILES IDX 49 57 64 59 86 60 51 61 34 62 35 63 44 64 36 65 37 66 43 67
REMARK SMILES IDX 45 68 38 69 39 70 40 71 41 72 42 73 68 74 69 75 78 76 70 77
REMARK SMILES IDX 71 78 77 79 79 80 72 81 73 82 74 83 75 84 76 85 52 86 53 87
REMARK SMILES IDX 62 88 54 89 55 90 61 91 63 92 56 93 57 94 58 95 59 96 60 97
REMARK H PARENT 17 7 10 16 22 28 84 47 50 58
REMARK Flexibility Score: inf
ROOT
ATOM      1  C   UNL A   1      34.000  28.177  25.651  1.00  0.00     0.023 C 
ENDROOT
BRANCH   1   2
ATOM      2  C   UNL A   1      33.424  29.224  24.697  1.00  0.00     0.023 C 
BRANCH   2   3
ATOM      3  C   UNL A   1      33.667  28.952  23.213  1.00  0.00     0.116 C 
BRANCH   3   4
ATOM      4  N   UNL A   1      32.447  28.710  22.470  1.00  0.00    -0.356 N 
ATOM      5  C   UNL A   1      31.497  27.741  22.581  1.00  0.00     0.227 C 
ATOM      6  O   UNL A   1      30.463  27.903  21.923  1.00  0.00    -0.274 OA
ATOM      7  H   UNL A   1      32.273  29.364  21.756  1.00  0.00     0.163 HD
BRANCH   5   8
ATOM      8  C   UNL A   1      31.691  26.442  23.377  1.00  0.00     0.103 C 
ATOM      9  C   UNL A   1      29.898  25.349  24.667  1.00  0.00     0.106 C 
ATOM     10  C   UNL A   1      30.348  24.515  23.506  1.00  0.00    -0.006 C 
ATOM     11  C   UNL A   1      30.938  26.474  24.705  1.00  0.00     0.047 C 
ATOM     12  C   UNL A   1      31.274  25.143  22.767  1.00  0.00    -0.016 C 
BRANCH   9  13
ATOM     13  N   UNL A   1      29.800  24.544  25.865  1.00  0.00    -0.346 N 
ATOM     14  C   UNL A   1      30.683  23.638  26.416  1.00  0.00     0.254 C 
ATOM     15  O   UNL A   1      30.462  23.228  27.554  1.00  0.00    -0.269 OA
ATOM     16  H   UNL A   1      28.964  24.661  26.372  1.00  0.00     0.164 HD
BRANCH  14  17
ATOM     17  C   UNL A   1      31.831  23.095  25.644  1.00  0.00     0.075 A 
ATOM     18  C   UNL A   1      32.909  19.855  23.976  1.00  0.00     0.044 C 
ATOM     19  C   UNL A   1      32.945  21.269  24.480  1.00  0.00    -0.050 A 
ATOM     20  C   UNL A   1      34.162  21.947  24.583  1.00  0.00     0.006 A 
ATOM     21  C   UNL A   1      31.767  21.903  24.913  1.00  0.00     0.020 A 
ATOM     22  C   UNL A   1      34.211  23.206  25.177  1.00  0.00     0.040 A 
ATOM     23  C   UNL A   1      33.057  23.759  25.730  1.00  0.00     0.135 A 
ATOM     24  F   UNL A   1      33.177  24.919  26.393  1.00  0.00    -0.206 F 
ENDBRANCH  14  17
ENDBRANCH   9  13
ENDBRANCH   5   8
ENDBRANCH   3   4
ENDBRANCH   2   3
ENDBRANCH   1   2
BRANCH   1  25
ATOM     25  C   UNL A   1      33.647  28.388  27.119  1.00  0.00     0.116 C 
BRANCH  25  26
ATOM     26  N   UNL A   1      33.538  29.796  27.469  1.00  0.00    -0.352 N 
ATOM     27  C   UNL A   1      34.454  30.611  28.090  1.00  0.00     0.251 C 
ATOM     28  H   UNL A   1      32.686  30.227  27.227  1.00  0.00     0.163 HD
ATOM     29  O   UNL A   1      34.125  31.732  28.452  1.00  0.00    -0.269 OA
BRANCH  27  30
ATOM     30  C   UNL A   1      35.824  30.114  28.338  1.00  0.00     0.039 A 
ATOM     31  C   UNL A   1      36.767  30.196  27.312  1.00  0.00     0.014 A 
ATOM     32  C   UNL A   1      36.179  29.581  29.581  1.00  0.00     0.014 A 
ATOM     33  C   UNL A   1      38.083  29.798  27.551  1.00  0.00     0.010 A 
ATOM     34  C   UNL A   1      37.508  29.266  29.843  1.00  0.00     0.010 A 
ATOM     35  C   UNL A   1      38.472  29.364  28.829  1.00  0.00    -0.014 A 
BRANCH  35  36
ATOM     36  C   UNL A   1      39.886  29.011  29.119  1.00  0.00     0.031 A 
ATOM     37  C   UNL A   1      40.815  30.028  29.723  1.00  0.00     0.074 A 
ATOM     38  C   UNL A   1      40.346  27.791  28.781  1.00  0.00     0.049 A 
ATOM     39  N   UNL A   1      42.086  29.916  30.015  1.00  0.00    -0.248 NA
ATOM     40  C   UNL A   1      40.249  31.357  30.006  1.00  0.00     0.031 C 
ATOM     41  C   UNL A   1      39.561  26.744  28.124  1.00  0.00     0.029 A 
ATOM     42  N   UNL A   1      41.588  27.228  28.932  1.00  0.00    -0.354 N 
ATOM     43  C   UNL A   1      42.471  31.155  30.510  1.00  0.00     0.074 A 
ATOM     44  C   UNL A   1      41.319  32.025  30.409  1.00  0.00     0.031 C 
ATOM     45  C   UNL A   1      40.334  25.661  27.945  1.00  0.00     0.029 A 
ATOM     46  C   UNL A   1      41.677  25.947  28.440  1.00  0.00     0.049 A 
ATOM     47  H   UNL A   1      42.345  27.697  29.352  1.00  0.00     0.167 HD
ATOM     48  C   UNL A   1      43.666  31.529  31.030  1.00  0.00     0.037 A 
ATOM     49  C   UNL A   1      42.722  25.101  28.384  1.00  0.00     0.037 A 
ATOM     50  C   UNL A   1      44.807  30.654  31.126  1.00  0.00     0.049 A 
ATOM     51  C   UNL A   1      44.039  25.527  28.969  1.00  0.00     0.074 A 
ATOM     52  C   UNL A   1      46.047  30.913  31.681  1.00  0.00     0.029 A 
ATOM     53  N   UNL A   1      44.851  29.352  30.644  1.00  0.00    -0.354 N 
ATOM     54  N   UNL A   1      44.366  26.678  29.510  1.00  0.00    -0.248 NA
ATOM     55  C   UNL A   1      45.124  24.539  28.953  1.00  0.00     0.031 C 
ATOM     56  C   UNL A   1      46.857  29.789  31.485  1.00  0.00     0.029 A 
ATOM     57  C   UNL A   1      46.105  28.804  30.865  1.00  0.00     0.049 A 
ATOM     58  H   UNL A   1      44.101  28.886  30.210  1.00  0.00     0.167 HD
ATOM     59  C   UNL A   1      45.692  26.549  29.910  1.00  0.00     0.074 A 
ATOM     60  C   UNL A   1      46.095  25.198  29.572  1.00  0.00     0.031 C 
ATOM     61  C   UNL A   1      46.499  27.463  30.504  1.00  0.00     0.037 A 
BRANCH  48  62
ATOM     62  C   UNL A   1      43.790  32.947  31.523  1.00  0.00     0.058 A 
ATOM     63  C   UNL A   1      43.523  33.292  32.860  1.00  0.00     0.135 A 
ATOM     64  C   UNL A   1      44.169  33.980  30.649  1.00  0.00     0.135 A 
ATOM     65  F   UNL A   1      43.144  32.350  33.738  1.00  0.00    -0.206 F 
ATOM     66  C   UNL A   1      43.569  34.612  33.296  1.00  0.00     0.059 A 
ATOM     67  C   UNL A   1      44.257  35.303  31.073  1.00  0.00     0.059 A 
ATOM     68  F   UNL A   1      44.442  33.712  29.363  1.00  0.00    -0.206 F 
ATOM     69  C   UNL A   1      43.931  35.612  32.393  1.00  0.00     0.060 A 
BRANCH  69  70
ATOM     70  S   UNL A   1      43.950  37.323  32.966  1.00  0.00     0.124 S 
ATOM     71  O   UNL A   1      45.236  37.383  33.656  1.00  0.00    -0.237 OA
ATOM     72  O   UNL A   1      43.869  38.072  31.716  1.00  0.00    -0.237 OA
ATOM     73  O   UNL A   1      42.773  37.410  33.823  1.00  0.00    -0.744 OA
ENDBRANCH  69  70
ENDBRANCH  48  62
BRANCH  49  74
ATOM     74  C   UNL A   1      42.545  23.762  27.762  1.00  0.00     0.058 A 
ATOM     75  C   UNL A   1      42.630  23.586  26.373  1.00  0.00     0.135 A 
ATOM     76  C   UNL A   1      42.347  22.620  28.554  1.00  0.00     0.135 A 
ATOM     77  F   UNL A   1      42.811  24.647  25.573  1.00  0.00    -0.206 F 
ATOM     78  C   UNL A   1      42.525  22.327  25.790  1.00  0.00     0.059 A 
ATOM     79  C   UNL A   1      42.266  21.347  27.998  1.00  0.00     0.059 A 
ATOM     80  F   UNL A   1      42.278  22.732  29.890  1.00  0.00    -0.206 F 
ATOM     81  C   UNL A   1      42.355  21.212  26.613  1.00  0.00     0.060 A 
BRANCH  81  82
ATOM     82  S   UNL A   1      42.312  19.574  25.854  1.00  0.00     0.124 S 
ATOM     83  O   UNL A   1      43.300  19.715  24.791  1.00  0.00    -0.237 OA
ATOM     84  O   UNL A   1      42.690  18.712  26.970  1.00  0.00    -0.237 OA
ATOM     85  O   UNL A   1      40.926  19.443  25.415  1.00  0.00    -0.744 OA
ENDBRANCH  81  82
ENDBRANCH  49  74
BRANCH  61  86
ATOM     86  C   UNL A   1      47.902  27.026  30.838  1.00  0.00     0.058 A 
ATOM     87  C   UNL A   1      48.210  26.389  32.050  1.00  0.00     0.135 A 
ATOM     88  C   UNL A   1      48.946  27.225  29.920  1.00  0.00     0.135 A 
ATOM     89  F   UNL A   1      47.251  26.177  32.966  1.00  0.00    -0.206 F 
ATOM     90  C   UNL A   1      49.511  26.002  32.359  1.00  0.00     0.059 A 
ATOM     91  C   UNL A   1      50.248  26.817  30.192  1.00  0.00     0.059 A 
ATOM     92  F   UNL A   1      48.707  27.818  28.739  1.00  0.00    -0.206 F 
ATOM     93  C   UNL A   1      50.523  26.222  31.423  1.00  0.00     0.060 A 
BRANCH  93  94
ATOM     94  S   UNL A   1      52.205  25.710  31.833  1.00  0.00     0.124 S 
ATOM     95  O   UNL A   1      52.499  26.562  32.981  1.00  0.00    -0.237 OA
ATOM     96  O   UNL A   1      52.037  24.290  32.123  1.00  0.00    -0.237 OA
ATOM     97  O   UNL A   1      52.957  26.011  30.619  1.00  0.00    -0.744 OA
ENDBRANCH  93  94
ENDBRANCH  61  86
ENDBRANCH  35  36
ENDBRANCH  27  30
ENDBRANCH  25  26
ENDBRANCH   1  25
TORSDOF 16
ENDMDL
MODEL 2
REMARK VINA RESULT:     -11.8      4.775     10.352
REMARK SMILES Cc1ccc(F)c(C(=O)N[C@@H]2C=C[C@@H](C(=O)NCCCCNC(=O)c3ccc(-c4c5nc(c(-c6c(F)cc(S(=O)(=O)[O-])cc6F)c6ccc([nH]6)c(-c6c(F)cc(S(=O)(=O)[O-])cc6F)c6nc(c(-c7c(F)cc(S(=O)(=O)[O-])cc7F)c7ccc4[nH]7)C=C6)C=C5)cc3)C2)c1
REMARK SMILES IDX 20 1 19 2 18 3 17 4 15 5 16 6 14 8 11 9 12 10 91 11 13 12
REMARK SMILES IDX 10 13 8 14 9 15 7 17 1 18 2 19 3 20 92 21 4 22 5 23 6 24
REMARK SMILES IDX 21 25 22 26 23 27 24 29 25 30 26 31 90 32 27 33 89 34 28 35
REMARK SMILES IDX 29 36 30 37 83 38 31 39 88 40 82 41 84 42 32 43 87 44 81 45
REMARK SMILES IDX 80 46 33 48 67 49 46 50 66 51 47 52 50 53 65 54 85 55 48 56
REMARK SMILES IDX 49 57 64 59 86 60 51 61 34 62 35 63 44 64 36 65 37 66 43 67
REMARK SMILES IDX 45 68 38 69 39 70 40 71 41 72 42 73 68 74 69 75 78 76 70 77
REMARK SMILES IDX 71 78 77 79 79 80 72 81 73 82 74 83 75 84 76 85 52 86 53 87
REMARK SMILES IDX 62 88 54 89 55 90 61 91 63 92 56 93 57 94 58 95 59 96 60 97
REMARK H PARENT 17 7 10 16 22 28 84 47 50 58
REMARK Flexibility Score: inf
ROOT
ATOM      1  C   UNL A   1      40.797  22.038  27.498  1.00  0.00     0.023 C 
ENDROOT
BRANCH   1   2
ATOM      2  C   UNL A   1      40.038  21.874  26.179  1.00  0.00     0.023 C 
BRANCH   2   3
ATOM      3  C   UNL A   1      38.552  22.223  26.239  1.00  0.00     0.116 C 
BRANCH   3   4
ATOM      4  N   UNL A   1      37.940  22.344  24.931  1.00  0.00    -0.356 N 
ATOM      5  C   UNL A   1      36.657  22.169  24.513  1.00  0.00     0.227 C 
ATOM      6  O   UNL A   1      36.399  22.529  23.359  1.00  0.00    -0.274 OA
ATOM      7  H   UNL A   1      38.566  22.598  24.216  1.00  0.00     0.163 HD
BRANCH   5   8
ATOM      8  C   UNL A   1      35.575  21.468  25.346  1.00  0.00     0.103 C 
ATOM      9  C   UNL A   1      33.156  21.761  24.971  1.00  0.00     0.106 C 
ATOM     10  C   UNL A   1      33.609  20.363  24.677  1.00  0.00    -0.006 C 
ATOM     11  C   UNL A   1      34.390  22.390  25.628  1.00  0.00     0.047 C 
ATOM     12  C   UNL A   1      34.935  20.226  24.815  1.00  0.00    -0.016 C 
BRANCH   9  13
ATOM     13  N   UNL A   1      31.955  21.749  25.776  1.00  0.00    -0.346 N 
ATOM     14  C   UNL A   1      30.956  22.691  25.918  1.00  0.00     0.254 C 
ATOM     15  O   UNL A   1      29.928  22.365  26.509  1.00  0.00    -0.269 OA
ATOM     16  H   UNL A   1      31.828  20.933  26.313  1.00  0.00     0.164 HD
BRANCH  14  17
ATOM     17  C   UNL A   1      31.129  24.091  25.451  1.00  0.00     0.075 A 
ATOM     18  C   UNL A   1      31.572  27.578  26.896  1.00  0.00     0.044 C 
ATOM     19  C   UNL A   1      31.399  26.469  25.897  1.00  0.00    -0.050 A 
ATOM     20  C   UNL A   1      31.010  26.759  24.587  1.00  0.00     0.006 A 
ATOM     21  C   UNL A   1      31.565  25.128  26.285  1.00  0.00     0.020 A 
ATOM     22  C   UNL A   1      30.718  25.724  23.702  1.00  0.00     0.040 A 
ATOM     23  C   UNL A   1      30.748  24.402  24.144  1.00  0.00     0.135 A 
ATOM     24  F   UNL A   1      30.347  23.450  23.288  1.00  0.00    -0.206 F 
ENDBRANCH  14  17
ENDBRANCH   9  13
ENDBRANCH   5   8
ENDBRANCH   3   4
ENDBRANCH   2   3
ENDBRANCH   1   2
BRANCH   1  25
ATOM     25  C   UNL A   1      41.972  23.007  27.441  1.00  0.00     0.116 C 
BRANCH  25  26
ATOM     26  N   UNL A   1      41.958  23.830  26.242  1.00  0.00    -0.352 N 
ATOM     27  C   UNL A   1      41.701  25.175  26.114  1.00  0.00     0.251 C 
ATOM     28  H   UNL A   1      42.162  23.358  25.403  1.00  0.00     0.163 HD
ATOM     29  O   UNL A   1      41.573  25.666  25.001  1.00  0.00    -0.269 OA
BRANCH  27  30
ATOM     30  C   UNL A   1      41.556  26.010  27.325  1.00  0.00     0.039 A 
ATOM     31  C   UNL A   1      42.546  26.949  27.620  1.00  0.00     0.014 A 
ATOM     32  C   UNL A   1      40.442  25.875  28.159  1.00  0.00     0.014 A 
ATOM     33  C   UNL A   1      42.390  27.794  28.719  1.00  0.00     0.010 A 
ATOM     34  C   UNL A   1      40.247  26.774  29.201  1.00  0.00     0.010 A 
ATOM     35  C   UNL A   1      41.222  27.737  29.498  1.00  0.00    -0.014 A 
BRANCH  35  36
ATOM     36  C   UNL A   1      41.007  28.683  30.623  1.00  0.00     0.031 A 
ATOM     37  C   UNL A   1      41.822  28.564  31.882  1.00  0.00     0.074 A 
ATOM     38  C   UNL A   1      40.035  29.611  30.532  1.00  0.00     0.049 A 
ATOM     39  N   UNL A   1      41.755  29.274  32.980  1.00  0.00    -0.248 NA
ATOM     40  C   UNL A   1      42.821  27.485  31.925  1.00  0.00     0.031 C 
ATOM     41  C   UNL A   1      39.131  29.777  29.391  1.00  0.00     0.029 A 
ATOM     42  N   UNL A   1      39.636  30.580  31.416  1.00  0.00    -0.354 N 
ATOM     43  C   UNL A   1      42.696  28.726  33.842  1.00  0.00     0.074 A 
ATOM     44  C   UNL A   1      43.268  27.580  33.169  1.00  0.00     0.031 C 
ATOM     45  C   UNL A   1      38.296  30.800  29.638  1.00  0.00     0.029 A 
ATOM     46  C   UNL A   1      38.580  31.337  30.965  1.00  0.00     0.049 A 
ATOM     47  H   UNL A   1      40.064  30.722  32.291  1.00  0.00     0.167 HD
ATOM     48  C   UNL A   1      43.073  29.155  35.071  1.00  0.00     0.037 A 
ATOM     49  C   UNL A   1      37.908  32.343  31.556  1.00  0.00     0.037 A 
ATOM     50  C   UNL A   1      42.498  30.298  35.734  1.00  0.00     0.049 A 
ATOM     51  C   UNL A   1      38.341  32.811  32.917  1.00  0.00     0.074 A 
ATOM     52  C   UNL A   1      42.839  30.849  36.955  1.00  0.00     0.029 A 
ATOM     53  N   UNL A   1      41.448  31.058  35.233  1.00  0.00    -0.354 N 
ATOM     54  N   UNL A   1      39.290  32.334  33.688  1.00  0.00    -0.248 NA
ATOM     55  C   UNL A   1      37.626  33.961  33.482  1.00  0.00     0.031 C 
ATOM     56  C   UNL A   1      41.963  31.908  37.218  1.00  0.00     0.029 A 
ATOM     57  C   UNL A   1      41.114  32.058  36.133  1.00  0.00     0.049 A 
ATOM     58  H   UNL A   1      41.008  30.911  34.366  1.00  0.00     0.167 HD
ATOM     59  C   UNL A   1      39.296  33.133  34.826  1.00  0.00     0.074 A 
ATOM     60  C   UNL A   1      38.272  34.140  34.627  1.00  0.00     0.031 C 
ATOM     61  C   UNL A   1      40.077  33.044  35.931  1.00  0.00     0.037 A 
BRANCH  48  62
ATOM     62  C   UNL A   1      44.153  28.372  35.773  1.00  0.00     0.058 A 
ATOM     63  C   UNL A   1      43.849  27.324  36.660  1.00  0.00     0.135 A 
ATOM     64  C   UNL A   1      45.509  28.676  35.568  1.00  0.00     0.135 A 
ATOM     65  F   UNL A   1      42.571  26.996  36.906  1.00  0.00    -0.206 F 
ATOM     66  C   UNL A   1      44.843  26.649  37.361  1.00  0.00     0.059 A 
ATOM     67  C   UNL A   1      46.522  27.989  36.231  1.00  0.00     0.059 A 
ATOM     68  F   UNL A   1      45.861  29.662  34.728  1.00  0.00    -0.206 F 
ATOM     69  C   UNL A   1      46.177  26.994  37.145  1.00  0.00     0.060 A 
BRANCH  69  70
ATOM     70  S   UNL A   1      47.453  26.135  38.089  1.00  0.00     0.124 S 
ATOM     71  O   UNL A   1      46.691  25.032  38.668  1.00  0.00    -0.237 OA
ATOM     72  O   UNL A   1      48.412  25.765  37.053  1.00  0.00    -0.237 OA
ATOM     73  O   UNL A   1      47.915  27.144  39.035  1.00  0.00    -0.744 OA
ENDBRANCH  69  70
ENDBRANCH  48  62
BRANCH  49  74
ATOM     74  C   UNL A   1      36.768  32.977  30.842  1.00  0.00     0.058 A 
ATOM     75  C   UNL A   1      35.443  32.763  31.249  1.00  0.00     0.135 A 
ATOM     76  C   UNL A   1      36.988  33.861  29.774  1.00  0.00     0.135 A 
ATOM     77  F   UNL A   1      35.180  31.922  32.261  1.00  0.00    -0.206 F 
ATOM     78  C   UNL A   1      34.376  33.400  30.624  1.00  0.00     0.059 A 
ATOM     79  C   UNL A   1      35.940  34.531  29.150  1.00  0.00     0.059 A 
ATOM     80  F   UNL A   1      38.238  34.115  29.358  1.00  0.00    -0.206 F 
ATOM     81  C   UNL A   1      34.637  34.292  29.582  1.00  0.00     0.060 A 
BRANCH  81  82
ATOM     82  S   UNL A   1      33.253  35.184  28.838  1.00  0.00     0.124 S 
ATOM     83  O   UNL A   1      32.521  35.630  30.017  1.00  0.00    -0.237 OA
ATOM     84  O   UNL A   1      33.937  36.225  28.077  1.00  0.00    -0.237 OA
ATOM     85  O   UNL A   1      32.590  34.164  28.032  1.00  0.00    -0.744 OA
ENDBRANCH  81  82
ENDBRANCH  49  74
BRANCH  61  86
ATOM     86  C   UNL A   1      39.861  34.072  37.010  1.00  0.00     0.058 A 
ATOM     87  C   UNL A   1      39.153  33.774  38.185  1.00  0.00     0.135 A 
ATOM     88  C   UNL A   1      40.392  35.365  36.877  1.00  0.00     0.135 A 
ATOM     89  F   UNL A   1      38.621  32.554  38.363  1.00  0.00    -0.206 F 
ATOM     90  C   UNL A   1      38.944  34.733  39.172  1.00  0.00     0.059 A 
ATOM     91  C   UNL A   1      40.224  36.330  37.865  1.00  0.00     0.059 A 
ATOM     92  F   UNL A   1      41.089  35.702  35.780  1.00  0.00    -0.206 F 
ATOM     93  C   UNL A   1      39.483  36.009  39.001  1.00  0.00     0.060 A 
BRANCH  93  94
ATOM     94  S   UNL A   1      39.209  37.242  40.291  1.00  0.00     0.124 S 
ATOM     95  O   UNL A   1      38.317  36.526  41.197  1.00  0.00    -0.237 OA
ATOM     96  O   UNL A   1      40.561  37.480  40.788  1.00  0.00    -0.237 OA
ATOM     97  O   UNL A   1      38.607  38.360  39.571  1.00  0.00    -0.744 OA
ENDBRANCH  93  94
ENDBRANCH  61  86
ENDBRANCH  35  36
ENDBRANCH  27  30
ENDBRANCH  25  26
ENDBRANCH   1  25
TORSDOF 16
ENDMDL
MODEL 3
REMARK VINA RESULT:     -11.8      5.327      7.443
REMARK SMILES Cc1ccc(F)c(C(=O)N[C@@H]2C=C[C@@H](C(=O)NCCCCNC(=O)c3ccc(-c4c5nc(c(-c6c(F)cc(S(=O)(=O)[O-])cc6F)c6ccc([nH]6)c(-c6c(F)cc(S(=O)(=O)[O-])cc6F)c6nc(c(-c7c(F)cc(S(=O)(=O)[O-])cc7F)c7ccc4[nH]7)C=C6)C=C5)cc3)C2)c1
REMARK SMILES IDX 20 1 19 2 18 3 17 4 15 5 16 6 14 8 11 9 12 10 91 11 13 12
REMARK SMILES IDX 10 13 8 14 9 15 7 17 1 18 2 19 3 20 92 21 4 22 5 23 6 24
REMARK SMILES IDX 21 25 22 26 23 27 24 29 25 30 26 31 90 32 27 33 89 34 28 35
REMARK SMILES IDX 29 36 30 37 83 38 31 39 88 40 82 41 84 42 32 43 87 44 81 45
REMARK SMILES IDX 80 46 33 48 67 49 46 50 66 51 47 52 50 53 65 54 85 55 48 56
REMARK SMILES IDX 49 57 64 59 86 60 51 61 34 62 35 63 44 64 36 65 37 66 43 67
REMARK SMILES IDX 45 68 38 69 39 70 40 71 41 72 42 73 68 74 69 75 78 76 70 77
REMARK SMILES IDX 71 78 77 79 79 80 72 81 73 82 74 83 75 84 76 85 52 86 53 87
REMARK SMILES IDX 62 88 54 89 55 90 61 91 63 92 56 93 57 94 58 95 59 96 60 97
REMARK H PARENT 17 7 10 16 22 28 84 47 50 58
REMARK Flexibility Score: inf
ROOT
ATOM      1  C   UNL A   1      34.648  32.212  28.547  1.00  0.00     0.023 C 
ENDROOT
BRANCH   1   2
ATOM      2  C   UNL A   1      34.465  33.630  28.001  1.00  0.00     0.023 C 
BRANCH   2   3
ATOM      3  C   UNL A   1      33.057  34.204  28.148  1.00  0.00     0.116 C 
BRANCH   3   4
ATOM      4  N   UNL A   1      33.045  35.631  28.401  1.00  0.00    -0.356 N 
ATOM      5  C   UNL A   1      33.122  36.345  29.556  1.00  0.00     0.227 C 
ATOM      6  O   UNL A   1      33.278  37.566  29.441  1.00  0.00    -0.274 OA
ATOM      7  H   UNL A   1      32.968  36.183  27.590  1.00  0.00     0.163 HD
BRANCH   5   8
ATOM      8  C   UNL A   1      32.923  35.737  30.952  1.00  0.00     0.103 C 
ATOM      9  C   UNL A   1      34.759  35.355  32.552  1.00  0.00     0.106 C 
ATOM     10  C   UNL A   1      33.789  36.388  33.040  1.00  0.00    -0.006 C 
ATOM     11  C   UNL A   1      34.054  34.778  31.319  1.00  0.00     0.047 C 
ATOM     12  C   UNL A   1      32.831  36.642  32.137  1.00  0.00    -0.016 C 
BRANCH   9  13
ATOM     13  N   UNL A   1      35.064  34.406  33.601  1.00  0.00    -0.346 N 
ATOM     14  C   UNL A   1      36.276  33.968  34.094  1.00  0.00     0.254 C 
ATOM     15  O   UNL A   1      36.278  33.307  35.131  1.00  0.00    -0.269 OA
ATOM     16  H   UNL A   1      34.276  34.007  34.035  1.00  0.00     0.164 HD
BRANCH  14  17
ATOM     17  C   UNL A   1      37.549  34.205  33.365  1.00  0.00     0.075 A 
ATOM     18  C   UNL A   1      39.114  33.466  29.982  1.00  0.00     0.044 C 
ATOM     19  C   UNL A   1      38.957  33.951  31.395  1.00  0.00    -0.050 A 
ATOM     20  C   UNL A   1      40.083  34.260  32.161  1.00  0.00     0.006 A 
ATOM     21  C   UNL A   1      37.682  34.036  31.982  1.00  0.00     0.020 A 
ATOM     22  C   UNL A   1      39.944  34.578  33.510  1.00  0.00     0.040 A 
ATOM     23  C   UNL A   1      38.687  34.519  34.111  1.00  0.00     0.135 A 
ATOM     24  F   UNL A   1      38.621  34.719  35.436  1.00  0.00    -0.206 F 
ENDBRANCH  14  17
ENDBRANCH   9  13
ENDBRANCH   5   8
ENDBRANCH   3   4
ENDBRANCH   2   3
ENDBRANCH   1   2
BRANCH   1  25
ATOM     25  C   UNL A   1      35.973  31.969  29.260  1.00  0.00     0.116 C 
BRANCH  25  26
ATOM     26  N   UNL A   1      35.806  31.264  30.521  1.00  0.00    -0.352 N 
ATOM     27  C   UNL A   1      36.646  30.361  31.130  1.00  0.00     0.251 C 
ATOM     28  H   UNL A   1      34.974  31.461  31.009  1.00  0.00     0.163 HD
ATOM     29  O   UNL A   1      36.264  29.744  32.114  1.00  0.00    -0.269 OA
BRANCH  27  30
ATOM     30  C   UNL A   1      37.995  30.128  30.573  1.00  0.00     0.039 A 
ATOM     31  C   UNL A   1      39.080  30.041  31.447  1.00  0.00     0.014 A 
ATOM     32  C   UNL A   1      38.186  29.983  29.195  1.00  0.00     0.014 A 
ATOM     33  C   UNL A   1      40.348  29.749  30.944  1.00  0.00     0.010 A 
ATOM     34  C   UNL A   1      39.432  29.608  28.707  1.00  0.00     0.010 A 
ATOM     35  C   UNL A   1      40.529  29.495  29.574  1.00  0.00    -0.014 A 
BRANCH  35  36
ATOM     36  C   UNL A   1      41.858  29.107  29.036  1.00  0.00     0.031 A 
ATOM     37  C   UNL A   1      42.946  30.134  28.885  1.00  0.00     0.074 A 
ATOM     38  C   UNL A   1      42.063  27.839  28.629  1.00  0.00     0.049 A 
ATOM     39  N   UNL A   1      44.155  29.993  28.405  1.00  0.00    -0.248 NA
ATOM     40  C   UNL A   1      42.621  31.509  29.296  1.00  0.00     0.031 C 
ATOM     41  C   UNL A   1      41.062  26.771  28.658  1.00  0.00     0.029 A 
ATOM     42  N   UNL A   1      43.175  27.237  28.100  1.00  0.00    -0.354 N 
ATOM     43  C   UNL A   1      44.732  31.256  28.453  1.00  0.00     0.074 A 
ATOM     44  C   UNL A   1      43.715  32.164  28.938  1.00  0.00     0.031 C 
ATOM     45  C   UNL A   1      41.612  25.641  28.186  1.00  0.00     0.029 A 
ATOM     46  C   UNL A   1      42.990  25.912  27.787  1.00  0.00     0.049 A 
ATOM     47  H   UNL A   1      44.028  27.710  27.956  1.00  0.00     0.167 HD
ATOM     48  C   UNL A   1      46.001  31.622  28.150  1.00  0.00     0.037 A 
ATOM     49  C   UNL A   1      43.828  25.016  27.233  1.00  0.00     0.037 A 
ATOM     50  C   UNL A   1      47.006  30.710  27.668  1.00  0.00     0.049 A 
ATOM     51  C   UNL A   1      45.234  25.436  26.907  1.00  0.00     0.074 A 
ATOM     52  C   UNL A   1      48.334  30.964  27.379  1.00  0.00     0.029 A 
ATOM     53  N   UNL A   1      46.789  29.366  27.391  1.00  0.00    -0.354 N 
ATOM     54  N   UNL A   1      45.791  26.618  27.035  1.00  0.00    -0.248 NA
ATOM     55  C   UNL A   1      46.130  24.402  26.378  1.00  0.00     0.031 C 
ATOM     56  C   UNL A   1      48.906  29.789  26.876  1.00  0.00     0.029 A 
ATOM     57  C   UNL A   1      47.952  28.785  26.910  1.00  0.00     0.049 A 
ATOM     58  H   UNL A   1      45.934  28.894  27.518  1.00  0.00     0.167 HD
ATOM     59  C   UNL A   1      47.107  26.468  26.614  1.00  0.00     0.074 A 
ATOM     60  C   UNL A   1      47.268  25.073  26.253  1.00  0.00     0.031 C 
ATOM     61  C   UNL A   1      48.093  27.397  26.535  1.00  0.00     0.037 A 
BRANCH  48  62
ATOM     62  C   UNL A   1      46.359  33.076  28.327  1.00  0.00     0.058 A 
ATOM     63  C   UNL A   1      46.228  34.002  27.277  1.00  0.00     0.135 A 
ATOM     64  C   UNL A   1      46.850  33.550  29.554  1.00  0.00     0.135 A 
ATOM     65  F   UNL A   1      45.775  33.605  26.077  1.00  0.00    -0.206 F 
ATOM     66  C   UNL A   1      46.625  35.328  27.420  1.00  0.00     0.059 A 
ATOM     67  C   UNL A   1      47.219  34.881  29.731  1.00  0.00     0.059 A 
ATOM     68  F   UNL A   1      46.992  32.714  30.595  1.00  0.00    -0.206 F 
ATOM     69  C   UNL A   1      47.126  35.756  28.649  1.00  0.00     0.060 A 
BRANCH  69  70
ATOM     70  S   UNL A   1      47.672  37.469  28.807  1.00  0.00     0.124 S 
ATOM     71  O   UNL A   1      46.395  38.178  28.835  1.00  0.00    -0.237 OA
ATOM     72  O   UNL A   1      48.409  37.447  30.066  1.00  0.00    -0.237 OA
ATOM     73  O   UNL A   1      48.482  37.681  27.613  1.00  0.00    -0.744 OA
ENDBRANCH  69  70
ENDBRANCH  48  62
BRANCH  49  74
ATOM     74  C   UNL A   1      43.351  23.632  26.973  1.00  0.00     0.058 A 
ATOM     75  C   UNL A   1      43.067  23.190  25.673  1.00  0.00     0.135 A 
ATOM     76  C   UNL A   1      43.228  22.704  28.020  1.00  0.00     0.135 A 
ATOM     77  F   UNL A   1      43.164  24.041  24.640  1.00  0.00    -0.206 F 
ATOM     78  C   UNL A   1      42.678  21.879  25.417  1.00  0.00     0.059 A 
ATOM     79  C   UNL A   1      42.866  21.381  27.787  1.00  0.00     0.059 A 
ATOM     80  F   UNL A   1      43.505  23.071  29.280  1.00  0.00    -0.206 F 
ATOM     81  C   UNL A   1      42.592  20.979  26.480  1.00  0.00     0.060 A 
BRANCH  81  82
ATOM     82  S   UNL A   1      42.175  19.257  26.126  1.00  0.00     0.124 S 
ATOM     83  O   UNL A   1      40.746  19.349  25.855  1.00  0.00    -0.237 OA
ATOM     84  O   UNL A   1      43.028  18.968  24.977  1.00  0.00    -0.237 OA
ATOM     85  O   UNL A   1      42.541  18.563  27.357  1.00  0.00    -0.744 OA
ENDBRANCH  81  82
ENDBRANCH  49  74
BRANCH  61  86
ATOM     86  C   UNL A   1      49.440  26.931  26.048  1.00  0.00     0.058 A 
ATOM     87  C   UNL A   1      50.370  26.330  26.910  1.00  0.00     0.135 A 
ATOM     88  C   UNL A   1      49.793  27.064  24.695  1.00  0.00     0.135 A 
ATOM     89  F   UNL A   1      50.087  26.181  28.214  1.00  0.00    -0.206 F 
ATOM     90  C   UNL A   1      51.619  25.915  26.457  1.00  0.00     0.059 A 
ATOM     91  C   UNL A   1      51.022  26.627  24.213  1.00  0.00     0.059 A 
ATOM     92  F   UNL A   1      48.936  27.620  23.823  1.00  0.00    -0.206 F 
ATOM     93  C   UNL A   1      51.936  26.070  25.107  1.00  0.00     0.060 A 
BRANCH  93  94
ATOM     94  S   UNL A   1      53.557  25.523  24.531  1.00  0.00     0.124 S 
ATOM     95  O   UNL A   1      53.533  25.953  23.137  1.00  0.00    -0.237 OA
ATOM     96  O   UNL A   1      54.465  26.257  25.407  1.00  0.00    -0.237 OA
ATOM     97  O   UNL A   1      53.523  24.078  24.743  1.00  0.00    -0.744 OA
ENDBRANCH  93  94
ENDBRANCH  61  86
ENDBRANCH  35  36
ENDBRANCH  27  30
ENDBRANCH  25  26
ENDBRANCH   1  25
TORSDOF 16
ENDMDL
