MODEL 1
REMARK VINA RESULT:     -12.0      0.000      0.000
REMARK SMILES CC(C)c1nc(COc2c(F)cc(C(=O)NCCCCNC(=O)c3ccc(-c4c5nc(c(-c6c(F)cc(S(=O)(=O)[O-])cc6F)c6ccc([nH]6)c(-c6c(F)cc(S(=O)(=O)[O-])cc6F)c6nc(c(-c7c(F)cc(S(=O)(=O)[O-])cc7F)c7ccc4[nH]7)C=C6)C=C5)cc3)cc2F)no1
REMARK SMILES IDX 18 1 17 2 16 3 14 4 15 5 13 7 9 8 10 9 91 10 11 11 12 12
REMARK SMILES IDX 90 13 92 14 8 15 7 16 6 17 4 18 5 19 94 20 93 21 2 22 1 23
REMARK SMILES IDX 3 24 19 25 20 26 21 27 22 28 23 30 24 31 25 32 89 33 26 34
REMARK SMILES IDX 88 35 27 36 28 37 29 38 82 39 30 40 87 41 81 42 83 43 31 44
REMARK SMILES IDX 86 45 80 46 79 47 32 49 66 50 45 51 65 52 46 53 49 54 64 55
REMARK SMILES IDX 84 56 47 57 48 58 63 60 85 61 50 62 33 63 34 64 43 65 35 66
REMARK SMILES IDX 36 67 42 68 44 69 37 70 38 71 39 72 40 73 41 74 67 75 68 76
REMARK SMILES IDX 77 77 69 78 70 79 76 80 78 81 71 82 72 83 73 84 74 85 75 86
REMARK SMILES IDX 51 87 52 88 61 89 53 90 54 91 60 92 62 93 55 94 56 95 57 96
REMARK SMILES IDX 58 97 59 98
REMARK H PARENT 16 6 21 29 83 48 49 59
REMARK Flexibility Score: inf
ROOT
ATOM      1  C   UNL A   1      33.109  29.278  24.826  1.00  0.00     0.023 C 
ENDROOT
BRANCH   1   2
ATOM      2  C   UNL A   1      33.314  29.027  23.330  1.00  0.00     0.116 C 
BRANCH   2   3
ATOM      3  N   UNL A   1      32.070  29.146  22.588  1.00  0.00    -0.352 N 
ATOM      4  C   UNL A   1      30.976  28.322  22.521  1.00  0.00     0.251 C 
ATOM      5  O   UNL A   1      29.971  28.717  21.932  1.00  0.00    -0.269 OA
ATOM      6  H   UNL A   1      32.002  29.959  22.037  1.00  0.00     0.163 HD
BRANCH   4   7
ATOM      7  C   UNL A   1      30.939  26.981  23.162  1.00  0.00     0.045 A 
ATOM      8  C   UNL A   1      30.778  24.492  24.458  1.00  0.00     0.191 A 
ATOM      9  C   UNL A   1      31.375  24.605  23.209  1.00  0.00     0.168 A 
ATOM     10  C   UNL A   1      30.196  25.621  25.025  1.00  0.00     0.168 A 
ATOM     11  F   UNL A   1      31.887  23.528  22.597  1.00  0.00    -0.203 F 
ATOM     12  C   UNL A   1      31.455  25.833  22.561  1.00  0.00     0.057 A 
ATOM     13  C   UNL A   1      30.271  26.859  24.390  1.00  0.00     0.057 A 
ATOM     14  F   UNL A   1      29.557  25.527  26.201  1.00  0.00    -0.203 F 
BRANCH   8  15
ATOM     15  O   UNL A   1      30.695  23.274  25.075  1.00  0.00    -0.479 OA
BRANCH  15  16
ATOM     16  C   UNL A   1      31.910  22.969  25.795  1.00  0.00     0.310 C 
BRANCH  16  17
ATOM     17  C   UNL A   1      32.637  21.766  25.292  1.00  0.00     0.209 A 
ATOM     18  C   UNL A   1      32.978  19.815  24.615  1.00  0.00     0.229 A 
ATOM     19  N   UNL A   1      31.981  20.629  24.881  1.00  0.00    -0.192 NA
ATOM     20  O   UNL A   1      34.204  20.381  24.819  1.00  0.00    -0.339 OA
ATOM     21  N   UNL A   1      33.974  21.690  25.247  1.00  0.00    -0.059 NA
BRANCH  18  22
ATOM     22  C   UNL A   1      32.930  18.395  24.157  1.00  0.00     0.073 C 
ATOM     23  C   UNL A   1      32.345  18.252  22.753  1.00  0.00     0.018 C 
ATOM     24  C   UNL A   1      34.321  17.764  24.230  1.00  0.00     0.018 C 
ENDBRANCH  18  22
ENDBRANCH  16  17
ENDBRANCH  15  16
ENDBRANCH   8  15
ENDBRANCH   4   7
ENDBRANCH   2   3
ENDBRANCH   1   2
BRANCH   1  25
ATOM     25  C   UNL A   1      33.649  28.187  25.750  1.00  0.00     0.023 C 
BRANCH  25  26
ATOM     26  C   UNL A   1      33.461  28.441  27.240  1.00  0.00     0.116 C 
BRANCH  26  27
ATOM     27  N   UNL A   1      33.403  29.854  27.586  1.00  0.00    -0.352 N 
ATOM     28  C   UNL A   1      34.402  30.647  28.105  1.00  0.00     0.251 C 
ATOM     29  H   UNL A   1      32.539  30.299  27.428  1.00  0.00     0.163 HD
ATOM     30  O   UNL A   1      34.167  31.805  28.424  1.00  0.00    -0.269 OA
BRANCH  28  31
ATOM     31  C   UNL A   1      35.744  30.064  28.316  1.00  0.00     0.039 A 
ATOM     32  C   UNL A   1      36.658  30.082  27.260  1.00  0.00     0.014 A 
ATOM     33  C   UNL A   1      36.114  29.555  29.564  1.00  0.00     0.014 A 
ATOM     34  C   UNL A   1      37.971  29.661  27.478  1.00  0.00     0.010 A 
ATOM     35  C   UNL A   1      37.438  29.195  29.796  1.00  0.00     0.010 A 
ATOM     36  C   UNL A   1      38.381  29.253  28.758  1.00  0.00    -0.014 A 
BRANCH  36  37
ATOM     37  C   UNL A   1      39.794  28.903  29.042  1.00  0.00     0.031 A 
ATOM     38  C   UNL A   1      40.728  29.935  29.607  1.00  0.00     0.074 A 
ATOM     39  C   UNL A   1      40.255  27.682  28.707  1.00  0.00     0.049 A 
ATOM     40  N   UNL A   1      42.014  29.850  29.831  1.00  0.00    -0.248 NA
ATOM     41  C   UNL A   1      40.146  31.246  29.935  1.00  0.00     0.031 C 
ATOM     42  C   UNL A   1      39.459  26.615  28.098  1.00  0.00     0.029 A 
ATOM     43  N   UNL A   1      41.510  27.136  28.816  1.00  0.00    -0.354 N 
ATOM     44  C   UNL A   1      42.399  31.098  30.304  1.00  0.00     0.074 A 
ATOM     45  C   UNL A   1      41.219  31.935  30.297  1.00  0.00     0.031 C 
ATOM     46  C   UNL A   1      40.239  25.539  27.901  1.00  0.00     0.029 A 
ATOM     47  C   UNL A   1      41.596  25.849  28.339  1.00  0.00     0.049 A 
ATOM     48  H   UNL A   1      42.276  27.621  29.201  1.00  0.00     0.167 HD
ATOM     49  C   UNL A   1      43.621  31.502  30.723  1.00  0.00     0.037 A 
ATOM     50  C   UNL A   1      42.651  25.016  28.256  1.00  0.00     0.037 A 
ATOM     51  C   UNL A   1      44.781  30.651  30.763  1.00  0.00     0.049 A 
ATOM     52  C   UNL A   1      43.992  25.474  28.758  1.00  0.00     0.074 A 
ATOM     53  C   UNL A   1      46.046  30.945  31.245  1.00  0.00     0.029 A 
ATOM     54  N   UNL A   1      44.819  29.342  30.309  1.00  0.00    -0.354 N 
ATOM     55  N   UNL A   1      44.325  26.639  29.262  1.00  0.00    -0.248 NA
ATOM     56  C   UNL A   1      45.098  24.511  28.686  1.00  0.00     0.031 C 
ATOM     57  C   UNL A   1      46.858  29.823  31.051  1.00  0.00     0.029 A 
ATOM     58  C   UNL A   1      46.089  28.818  30.483  1.00  0.00     0.049 A 
ATOM     59  H   UNL A   1      44.056  28.856  29.920  1.00  0.00     0.167 HD
ATOM     60  C   UNL A   1      45.674  26.542  29.582  1.00  0.00     0.074 A 
ATOM     61  C   UNL A   1      46.094  25.202  29.225  1.00  0.00     0.031 C 
ATOM     62  C   UNL A   1      46.490  27.481  30.123  1.00  0.00     0.037 A 
BRANCH  49  63
ATOM     63  C   UNL A   1      43.764  32.927  31.178  1.00  0.00     0.058 A 
ATOM     64  C   UNL A   1      43.477  33.284  32.506  1.00  0.00     0.135 A 
ATOM     65  C   UNL A   1      44.159  33.945  30.296  1.00  0.00     0.135 A 
ATOM     66  F   UNL A   1      43.097  32.348  33.390  1.00  0.00    -0.206 F 
ATOM     67  C   UNL A   1      43.578  34.600  32.946  1.00  0.00     0.059 A 
ATOM     68  C   UNL A   1      44.291  35.262  30.720  1.00  0.00     0.059 A 
ATOM     69  F   UNL A   1      44.462  33.654  29.021  1.00  0.00    -0.206 F 
ATOM     70  C   UNL A   1      44.000  35.580  32.048  1.00  0.00     0.060 A 
BRANCH  70  71
ATOM     71  S   UNL A   1      44.182  37.295  32.582  1.00  0.00     0.124 S 
ATOM     72  O   UNL A   1      45.549  37.296  33.093  1.00  0.00    -0.237 OA
ATOM     73  O   UNL A   1      43.969  38.032  31.340  1.00  0.00    -0.237 OA
ATOM     74  O   UNL A   1      43.137  37.451  33.587  1.00  0.00    -0.744 OA
ENDBRANCH  70  71
ENDBRANCH  49  63
BRANCH  50  75
ATOM     75  C   UNL A   1      42.465  23.651  27.700  1.00  0.00     0.058 A 
ATOM     76  C   UNL A   1      42.318  22.536  28.539  1.00  0.00     0.135 A 
ATOM     77  C   UNL A   1      42.484  23.431  26.315  1.00  0.00     0.135 A 
ATOM     78  F   UNL A   1      42.310  22.694  29.872  1.00  0.00    -0.206 F 
ATOM     79  C   UNL A   1      42.216  21.245  28.028  1.00  0.00     0.059 A 
ATOM     80  C   UNL A   1      42.364  22.154  25.779  1.00  0.00     0.059 A 
ATOM     81  F   UNL A   1      42.615  24.468  25.474  1.00  0.00    -0.206 F 
ATOM     82  C   UNL A   1      42.239  21.065  26.645  1.00  0.00     0.060 A 
BRANCH  82  83
ATOM     83  S   UNL A   1      42.167  19.404  25.939  1.00  0.00     0.124 S 
ATOM     84  O   UNL A   1      40.736  19.247  25.703  1.00  0.00    -0.237 OA
ATOM     85  O   UNL A   1      42.999  19.543  24.748  1.00  0.00    -0.237 OA
ATOM     86  O   UNL A   1      42.729  18.566  26.993  1.00  0.00    -0.744 OA
ENDBRANCH  82  83
ENDBRANCH  50  75
BRANCH  62  87
ATOM     87  C   UNL A   1      47.918  27.094  30.379  1.00  0.00     0.058 A 
ATOM     88  C   UNL A   1      48.310  26.616  31.639  1.00  0.00     0.135 A 
ATOM     89  C   UNL A   1      48.911  27.276  29.405  1.00  0.00     0.135 A 
ATOM     90  F   UNL A   1      47.398  26.433  32.607  1.00  0.00    -0.206 F 
ATOM     91  C   UNL A   1      49.643  26.344  31.933  1.00  0.00     0.059 A 
ATOM     92  C   UNL A   1      50.246  26.991  29.670  1.00  0.00     0.059 A 
ATOM     93  F   UNL A   1      48.584  27.724  28.183  1.00  0.00    -0.206 F 
ATOM     94  C   UNL A   1      50.603  26.531  30.939  1.00  0.00     0.060 A 
BRANCH  94  95
ATOM     95  S   UNL A   1      52.348  26.219  31.286  1.00  0.00     0.124 S 
ATOM     96  O   UNL A   1      52.658  27.296  32.222  1.00  0.00    -0.237 OA
ATOM     97  O   UNL A   1      52.317  24.874  31.853  1.00  0.00    -0.237 OA
ATOM     98  O   UNL A   1      52.980  26.326  29.975  1.00  0.00    -0.744 OA
ENDBRANCH  94  95
ENDBRANCH  62  87
ENDBRANCH  36  37
ENDBRANCH  28  31
ENDBRANCH  26  27
ENDBRANCH  25  26
ENDBRANCH   1  25
TORSDOF 18
ENDMDL
MODEL 2
REMARK VINA RESULT:     -11.6      4.945     11.820
REMARK SMILES CC(C)c1nc(COc2c(F)cc(C(=O)NCCCCNC(=O)c3ccc(-c4c5nc(c(-c6c(F)cc(S(=O)(=O)[O-])cc6F)c6ccc([nH]6)c(-c6c(F)cc(S(=O)(=O)[O-])cc6F)c6nc(c(-c7c(F)cc(S(=O)(=O)[O-])cc7F)c7ccc4[nH]7)C=C6)C=C5)cc3)cc2F)no1
REMARK SMILES IDX 18 1 17 2 16 3 14 4 15 5 13 7 9 8 10 9 91 10 11 11 12 12
REMARK SMILES IDX 90 13 92 14 8 15 7 16 6 17 4 18 5 19 94 20 93 21 2 22 1 23
REMARK SMILES IDX 3 24 19 25 20 26 21 27 22 28 23 30 24 31 25 32 89 33 26 34
REMARK SMILES IDX 88 35 27 36 28 37 29 38 82 39 30 40 87 41 81 42 83 43 31 44
REMARK SMILES IDX 86 45 80 46 79 47 32 49 66 50 45 51 65 52 46 53 49 54 64 55
REMARK SMILES IDX 84 56 47 57 48 58 63 60 85 61 50 62 33 63 34 64 43 65 35 66
REMARK SMILES IDX 36 67 42 68 44 69 37 70 38 71 39 72 40 73 41 74 67 75 68 76
REMARK SMILES IDX 77 77 69 78 70 79 76 80 78 81 71 82 72 83 73 84 74 85 75 86
REMARK SMILES IDX 51 87 52 88 61 89 53 90 54 91 60 92 62 93 55 94 56 95 57 96
REMARK SMILES IDX 58 97 59 98
REMARK H PARENT 16 6 21 29 83 48 49 59
REMARK Flexibility Score: inf
ROOT
ATOM      1  C   UNL A   1      42.438  23.309  28.640  1.00  0.00     0.023 C 
ENDROOT
BRANCH   1   2
ATOM      2  C   UNL A   1      43.907  23.142  29.035  1.00  0.00     0.116 C 
BRANCH   2   3
ATOM      3  N   UNL A   1      44.700  22.597  27.946  1.00  0.00    -0.352 N 
ATOM      4  C   UNL A   1      45.352  23.213  26.908  1.00  0.00     0.251 C 
ATOM      5  O   UNL A   1      46.089  22.541  26.189  1.00  0.00    -0.269 OA
ATOM      6  H   UNL A   1      44.781  21.616  27.954  1.00  0.00     0.163 HD
BRANCH   4   7
ATOM      7  C   UNL A   1      45.235  24.670  26.635  1.00  0.00     0.045 A 
ATOM      8  C   UNL A   1      44.893  27.402  26.072  1.00  0.00     0.191 A 
ATOM      9  C   UNL A   1      45.906  26.973  26.920  1.00  0.00     0.168 A 
ATOM     10  C   UNL A   1      44.003  26.461  25.564  1.00  0.00     0.168 A 
ATOM     11  F   UNL A   1      46.742  27.855  27.484  1.00  0.00    -0.203 F 
ATOM     12  C   UNL A   1      46.079  25.624  27.204  1.00  0.00     0.057 A 
ATOM     13  C   UNL A   1      44.166  25.103  25.837  1.00  0.00     0.057 A 
ATOM     14  F   UNL A   1      42.978  26.854  24.794  1.00  0.00    -0.203 F 
BRANCH   8  15
ATOM     15  O   UNL A   1      44.728  28.735  25.813  1.00  0.00    -0.479 OA
BRANCH  15  16
ATOM     16  C   UNL A   1      43.842  29.348  26.777  1.00  0.00     0.310 C 
BRANCH  16  17
ATOM     17  C   UNL A   1      44.079  30.806  26.989  1.00  0.00     0.209 A 
ATOM     18  C   UNL A   1      44.421  32.619  27.977  1.00  0.00     0.229 A 
ATOM     19  N   UNL A   1      44.392  31.328  28.223  1.00  0.00    -0.192 NA
ATOM     20  O   UNL A   1      44.164  32.925  26.671  1.00  0.00    -0.339 OA
ATOM     21  N   UNL A   1      43.960  31.713  26.010  1.00  0.00    -0.059 NA
BRANCH  18  22
ATOM     22  C   UNL A   1      44.670  33.746  28.924  1.00  0.00     0.073 C 
ATOM     23  C   UNL A   1      46.001  33.608  29.663  1.00  0.00     0.018 C 
ATOM     24  C   UNL A   1      44.596  35.085  28.191  1.00  0.00     0.018 C 
ENDBRANCH  18  22
ENDBRANCH  16  17
ENDBRANCH  15  16
ENDBRANCH   8  15
ENDBRANCH   4   7
ENDBRANCH   2   3
ENDBRANCH   1   2
BRANCH   1  25
ATOM     25  C   UNL A   1      41.844  22.153  27.836  1.00  0.00     0.023 C 
BRANCH  25  26
ATOM     26  C   UNL A   1      41.596  22.442  26.362  1.00  0.00     0.116 C 
BRANCH  26  27
ATOM     27  N   UNL A   1      40.204  22.287  25.965  1.00  0.00    -0.352 N 
ATOM     28  C   UNL A   1      39.157  23.157  26.171  1.00  0.00     0.251 C 
ATOM     29  H   UNL A   1      39.983  21.454  25.490  1.00  0.00     0.163 HD
ATOM     30  O   UNL A   1      38.019  22.841  25.849  1.00  0.00    -0.269 OA
BRANCH  28  31
ATOM     31  C   UNL A   1      39.420  24.456  26.828  1.00  0.00     0.039 A 
ATOM     32  C   UNL A   1      39.006  24.636  28.150  1.00  0.00     0.014 A 
ATOM     33  C   UNL A   1      40.117  25.466  26.160  1.00  0.00     0.014 A 
ATOM     34  C   UNL A   1      39.362  25.802  28.830  1.00  0.00     0.010 A 
ATOM     35  C   UNL A   1      40.525  26.598  26.858  1.00  0.00     0.010 A 
ATOM     36  C   UNL A   1      40.159  26.772  28.202  1.00  0.00    -0.014 A 
BRANCH  36  37
ATOM     37  C   UNL A   1      40.641  27.969  28.935  1.00  0.00     0.031 A 
ATOM     38  C   UNL A   1      42.030  27.995  29.506  1.00  0.00     0.074 A 
ATOM     39  C   UNL A   1      39.797  28.994  29.160  1.00  0.00     0.049 A 
ATOM     40  N   UNL A   1      42.597  28.904  30.256  1.00  0.00    -0.248 NA
ATOM     41  C   UNL A   1      42.885  26.831  29.222  1.00  0.00     0.031 C 
ATOM     42  C   UNL A   1      38.405  29.059  28.706  1.00  0.00     0.029 A 
ATOM     43  N   UNL A   1      39.977  30.172  29.842  1.00  0.00    -0.354 N 
ATOM     44  C   UNL A   1      43.863  28.414  30.553  1.00  0.00     0.074 A 
ATOM     45  C   UNL A   1      43.967  27.110  29.934  1.00  0.00     0.031 C 
ATOM     46  C   UNL A   1      37.864  30.221  29.108  1.00  0.00     0.029 A 
ATOM     47  C   UNL A   1      38.856  30.969  29.874  1.00  0.00     0.049 A 
ATOM     48  H   UNL A   1      40.829  30.422  30.266  1.00  0.00     0.167 HD
ATOM     49  C   UNL A   1      44.853  29.007  31.260  1.00  0.00     0.037 A 
ATOM     50  C   UNL A   1      38.649  32.162  30.462  1.00  0.00     0.037 A 
ATOM     51  C   UNL A   1      44.756  30.321  31.838  1.00  0.00     0.049 A 
ATOM     52  C   UNL A   1      39.774  32.817  31.214  1.00  0.00     0.074 A 
ATOM     53  C   UNL A   1      45.732  31.041  32.506  1.00  0.00     0.029 A 
ATOM     54  N   UNL A   1      43.618  31.114  31.816  1.00  0.00    -0.354 N 
ATOM     55  N   UNL A   1      40.986  32.368  31.431  1.00  0.00    -0.248 NA
ATOM     56  C   UNL A   1      39.508  34.139  31.797  1.00  0.00     0.031 C 
ATOM     57  C   UNL A   1      45.174  32.256  32.917  1.00  0.00     0.029 A 
ATOM     58  C   UNL A   1      43.862  32.308  32.472  1.00  0.00     0.049 A 
ATOM     59  H   UNL A   1      42.764  30.863  31.396  1.00  0.00     0.167 HD
ATOM     60  C   UNL A   1      41.633  33.358  32.162  1.00  0.00     0.074 A 
ATOM     61  C   UNL A   1      40.681  34.435  32.341  1.00  0.00     0.031 C 
ATOM     62  C   UNL A   1      42.902  33.371  32.640  1.00  0.00     0.037 A 
BRANCH  49  63
ATOM     63  C   UNL A   1      46.133  28.240  31.441  1.00  0.00     0.058 A 
ATOM     64  C   UNL A   1      46.234  27.242  32.423  1.00  0.00     0.135 A 
ATOM     65  C   UNL A   1      47.269  28.511  30.661  1.00  0.00     0.135 A 
ATOM     66  F   UNL A   1      45.177  26.943  33.195  1.00  0.00    -0.206 F 
ATOM     67  C   UNL A   1      47.416  26.536  32.627  1.00  0.00     0.059 A 
ATOM     68  C   UNL A   1      48.452  27.800  30.830  1.00  0.00     0.059 A 
ATOM     69  F   UNL A   1      47.220  29.444  29.697  1.00  0.00    -0.206 F 
ATOM     70  C   UNL A   1      48.516  26.813  31.815  1.00  0.00     0.060 A 
BRANCH  70  71
ATOM     71  S   UNL A   1      50.058  25.896  32.016  1.00  0.00     0.124 S 
ATOM     72  O   UNL A   1      50.014  24.997  30.867  1.00  0.00    -0.237 OA
ATOM     73  O   UNL A   1      51.060  26.956  31.953  1.00  0.00    -0.237 OA
ATOM     74  O   UNL A   1      49.906  25.257  33.318  1.00  0.00    -0.744 OA
ENDBRANCH  70  71
ENDBRANCH  49  63
BRANCH  50  75
ATOM     75  C   UNL A   1      37.324  32.823  30.331  1.00  0.00     0.058 A 
ATOM     76  C   UNL A   1      36.975  33.532  29.171  1.00  0.00     0.135 A 
ATOM     77  C   UNL A   1      36.404  32.802  31.388  1.00  0.00     0.135 A 
ATOM     78  F   UNL A   1      37.830  33.594  28.139  1.00  0.00    -0.206 F 
ATOM     79  C   UNL A   1      35.767  34.214  29.068  1.00  0.00     0.059 A 
ATOM     80  C   UNL A   1      35.182  33.460  31.303  1.00  0.00     0.059 A 
ATOM     81  F   UNL A   1      36.692  32.132  32.514  1.00  0.00    -0.206 F 
ATOM     82  C   UNL A   1      34.876  34.172  30.141  1.00  0.00     0.060 A 
BRANCH  82  83
ATOM     83  S   UNL A   1      33.321  35.090  30.074  1.00  0.00     0.124 S 
ATOM     84  O   UNL A   1      32.628  34.415  28.982  1.00  0.00    -0.237 OA
ATOM     85  O   UNL A   1      32.779  34.866  31.410  1.00  0.00    -0.237 OA
ATOM     86  O   UNL A   1      33.751  36.457  29.800  1.00  0.00    -0.744 OA
ENDBRANCH  82  83
ENDBRANCH  50  75
BRANCH  62  87
ATOM     87  C   UNL A   1      43.347  34.592  33.392  1.00  0.00     0.058 A 
ATOM     88  C   UNL A   1      43.324  34.611  34.795  1.00  0.00     0.135 A 
ATOM     89  C   UNL A   1      43.716  35.769  32.723  1.00  0.00     0.135 A 
ATOM     90  F   UNL A   1      42.970  33.511  35.480  1.00  0.00    -0.206 F 
ATOM     91  C   UNL A   1      43.637  35.760  35.514  1.00  0.00     0.059 A 
ATOM     92  C   UNL A   1      44.053  36.924  33.422  1.00  0.00     0.059 A 
ATOM     93  F   UNL A   1      43.759  35.799  31.382  1.00  0.00    -0.206 F 
ATOM     94  C   UNL A   1      44.004  36.911  34.818  1.00  0.00     0.060 A 
BRANCH  94  95
ATOM     95  S   UNL A   1      44.389  38.433  35.710  1.00  0.00     0.124 S 
ATOM     96  O   UNL A   1      45.848  38.395  35.741  1.00  0.00    -0.237 OA
ATOM     97  O   UNL A   1      43.799  39.455  34.850  1.00  0.00    -0.237 OA
ATOM     98  O   UNL A   1      43.728  38.249  36.998  1.00  0.00    -0.744 OA
ENDBRANCH  94  95
ENDBRANCH  62  87
ENDBRANCH  36  37
ENDBRANCH  28  31
ENDBRANCH  26  27
ENDBRANCH  25  26
ENDBRANCH   1  25
TORSDOF 18
ENDMDL
MODEL 3
REMARK VINA RESULT:     -11.4      2.705      3.561
REMARK SMILES CC(C)c1nc(COc2c(F)cc(C(=O)NCCCCNC(=O)c3ccc(-c4c5nc(c(-c6c(F)cc(S(=O)(=O)[O-])cc6F)c6ccc([nH]6)c(-c6c(F)cc(S(=O)(=O)[O-])cc6F)c6nc(c(-c7c(F)cc(S(=O)(=O)[O-])cc7F)c7ccc4[nH]7)C=C6)C=C5)cc3)cc2F)no1
REMARK SMILES IDX 18 1 17 2 16 3 14 4 15 5 13 7 9 8 10 9 91 10 11 11 12 12
REMARK SMILES IDX 90 13 92 14 8 15 7 16 6 17 4 18 5 19 94 20 93 21 2 22 1 23
REMARK SMILES IDX 3 24 19 25 20 26 21 27 22 28 23 30 24 31 25 32 89 33 26 34
REMARK SMILES IDX 88 35 27 36 28 37 29 38 82 39 30 40 87 41 81 42 83 43 31 44
REMARK SMILES IDX 86 45 80 46 79 47 32 49 66 50 45 51 65 52 46 53 49 54 64 55
REMARK SMILES IDX 84 56 47 57 48 58 63 60 85 61 50 62 33 63 34 64 43 65 35 66
REMARK SMILES IDX 36 67 42 68 44 69 37 70 38 71 39 72 40 73 41 74 67 75 68 76
REMARK SMILES IDX 77 77 69 78 70 79 76 80 78 81 71 82 72 83 73 84 74 85 75 86
REMARK SMILES IDX 51 87 52 88 61 89 53 90 54 91 60 92 62 93 55 94 56 95 57 96
REMARK SMILES IDX 58 97 59 98
REMARK H PARENT 16 6 21 29 83 48 49 59
REMARK Flexibility Score: inf
ROOT
ATOM      1  C   UNL A   1      33.612  30.438  26.913  1.00  0.00     0.023 C 
ENDROOT
BRANCH   1   2
ATOM      2  C   UNL A   1      32.204  30.214  26.358  1.00  0.00     0.116 C 
BRANCH   2   3
ATOM      3  N   UNL A   1      32.223  29.951  24.930  1.00  0.00    -0.352 N 
ATOM      4  C   UNL A   1      32.037  28.791  24.222  1.00  0.00     0.251 C 
ATOM      5  O   UNL A   1      31.952  28.851  22.997  1.00  0.00    -0.269 OA
ATOM      6  H   UNL A   1      32.402  30.744  24.373  1.00  0.00     0.163 HD
BRANCH   4   7
ATOM      7  C   UNL A   1      31.898  27.463  24.877  1.00  0.00     0.045 A 
ATOM      8  C   UNL A   1      31.764  24.954  26.135  1.00  0.00     0.191 A 
ATOM      9  C   UNL A   1      30.615  25.707  25.931  1.00  0.00     0.168 A 
ATOM     10  C   UNL A   1      32.993  25.495  25.771  1.00  0.00     0.168 A 
ATOM     11  F   UNL A   1      29.420  25.251  26.328  1.00  0.00    -0.203 F 
ATOM     12  C   UNL A   1      30.675  26.951  25.311  1.00  0.00     0.057 A 
ATOM     13  C   UNL A   1      33.068  26.738  25.146  1.00  0.00     0.057 A 
ATOM     14  F   UNL A   1      34.123  24.816  26.015  1.00  0.00    -0.203 F 
BRANCH   8  15
ATOM     15  O   UNL A   1      31.689  23.738  26.759  1.00  0.00    -0.479 OA
BRANCH  15  16
ATOM     16  C   UNL A   1      31.228  22.713  25.851  1.00  0.00     0.310 C 
BRANCH  16  17
ATOM     17  C   UNL A   1      32.209  21.612  25.618  1.00  0.00     0.209 A 
ATOM     18  C   UNL A   1      32.975  19.747  25.055  1.00  0.00     0.229 A 
ATOM     19  N   UNL A   1      31.872  20.456  24.953  1.00  0.00    -0.192 NA
ATOM     20  O   UNL A   1      33.973  20.397  25.725  1.00  0.00    -0.339 OA
ATOM     21  N   UNL A   1      33.467  21.649  26.078  1.00  0.00    -0.059 NA
BRANCH  18  22
ATOM     22  C   UNL A   1      33.246  18.363  24.566  1.00  0.00     0.073 C 
ATOM     23  C   UNL A   1      34.738  18.091  24.377  1.00  0.00     0.018 C 
ATOM     24  C   UNL A   1      32.625  17.333  25.508  1.00  0.00     0.018 C 
ENDBRANCH  18  22
ENDBRANCH  16  17
ENDBRANCH  15  16
ENDBRANCH   8  15
ENDBRANCH   4   7
ENDBRANCH   2   3
ENDBRANCH   1   2
BRANCH   1  25
ATOM     25  C   UNL A   1      34.365  29.169  27.310  1.00  0.00     0.023 C 
BRANCH  25  26
ATOM     26  C   UNL A   1      35.675  29.392  28.055  1.00  0.00     0.116 C 
BRANCH  26  27
ATOM     27  N   UNL A   1      35.505  30.035  29.350  1.00  0.00    -0.352 N 
ATOM     28  C   UNL A   1      36.475  30.397  30.257  1.00  0.00     0.251 C 
ATOM     29  H   UNL A   1      34.577  30.237  29.610  1.00  0.00     0.163 HD
ATOM     30  O   UNL A   1      36.161  30.856  31.347  1.00  0.00    -0.269 OA
BRANCH  28  31
ATOM     31  C   UNL A   1      37.897  30.179  29.913  1.00  0.00     0.039 A 
ATOM     32  C   UNL A   1      38.774  29.761  30.917  1.00  0.00     0.014 A 
ATOM     33  C   UNL A   1      38.346  30.333  28.599  1.00  0.00     0.014 A 
ATOM     34  C   UNL A   1      40.087  29.421  30.585  1.00  0.00     0.010 A 
ATOM     35  C   UNL A   1      39.635  29.934  28.260  1.00  0.00     0.010 A 
ATOM     36  C   UNL A   1      40.515  29.466  29.248  1.00  0.00    -0.014 A 
BRANCH  36  37
ATOM     37  C   UNL A   1      41.870  29.008  28.855  1.00  0.00     0.031 A 
ATOM     38  C   UNL A   1      43.007  29.988  28.789  1.00  0.00     0.074 A 
ATOM     39  C   UNL A   1      42.054  27.730  28.473  1.00  0.00     0.049 A 
ATOM     40  N   UNL A   1      44.234  29.801  28.377  1.00  0.00    -0.248 NA
ATOM     41  C   UNL A   1      42.719  31.367  29.215  1.00  0.00     0.031 C 
ATOM     42  C   UNL A   1      41.014  26.699  28.437  1.00  0.00     0.029 A 
ATOM     43  N   UNL A   1      43.177  27.081  28.023  1.00  0.00    -0.354 N 
ATOM     44  C   UNL A   1      44.857  31.040  28.471  1.00  0.00     0.074 A 
ATOM     45  C   UNL A   1      43.862  31.979  28.942  1.00  0.00     0.031 C 
ATOM     46  C   UNL A   1      41.550  25.545  28.006  1.00  0.00     0.029 A 
ATOM     47  C   UNL A   1      42.962  25.760  27.704  1.00  0.00     0.049 A 
ATOM     48  H   UNL A   1      44.054  27.519  27.940  1.00  0.00     0.167 HD
ATOM     49  C   UNL A   1      46.146  31.359  28.206  1.00  0.00     0.037 A 
ATOM     50  C   UNL A   1      43.804  24.830  27.214  1.00  0.00     0.037 A 
ATOM     51  C   UNL A   1      47.139  30.410  27.776  1.00  0.00     0.049 A 
ATOM     52  C   UNL A   1      45.239  25.198  26.960  1.00  0.00     0.074 A 
ATOM     53  C   UNL A   1      48.490  30.620  27.558  1.00  0.00     0.029 A 
ATOM     54  N   UNL A   1      46.892  29.074  27.502  1.00  0.00    -0.354 N 
ATOM     55  N   UNL A   1      45.827  26.360  27.115  1.00  0.00    -0.248 NA
ATOM     56  C   UNL A   1      46.125  24.135  26.469  1.00  0.00     0.031 C 
ATOM     57  C   UNL A   1      49.053  29.417  27.119  1.00  0.00     0.029 A 
ATOM     58  C   UNL A   1      48.061  28.450  27.100  1.00  0.00     0.049 A 
ATOM     59  H   UNL A   1      46.014  28.634  27.581  1.00  0.00     0.167 HD
ATOM     60  C   UNL A   1      47.156  26.163  26.756  1.00  0.00     0.074 A 
ATOM     61  C   UNL A   1      47.288  24.768  26.387  1.00  0.00     0.031 C 
ATOM     62  C   UNL A   1      48.174  27.059  26.737  1.00  0.00     0.037 A 
BRANCH  49  63
ATOM     63  C   UNL A   1      46.557  32.793  28.383  1.00  0.00     0.058 A 
ATOM     64  C   UNL A   1      46.536  33.681  27.295  1.00  0.00     0.135 A 
ATOM     65  C   UNL A   1      46.999  33.284  29.622  1.00  0.00     0.135 A 
ATOM     66  F   UNL A   1      46.121  33.262  26.089  1.00  0.00    -0.206 F 
ATOM     67  C   UNL A   1      46.936  35.007  27.428  1.00  0.00     0.059 A 
ATOM     68  C   UNL A   1      47.378  34.612  29.783  1.00  0.00     0.059 A 
ATOM     69  F   UNL A   1      47.021  32.482  30.698  1.00  0.00    -0.206 F 
ATOM     70  C   UNL A   1      47.342  35.467  28.680  1.00  0.00     0.060 A 
BRANCH  70  71
ATOM     71  S   UNL A   1      47.833  37.189  28.910  1.00  0.00     0.124 S 
ATOM     72  O   UNL A   1      46.937  37.873  27.984  1.00  0.00    -0.237 OA
ATOM     73  O   UNL A   1      47.564  37.403  30.328  1.00  0.00    -0.237 OA
ATOM     74  O   UNL A   1      49.244  37.193  28.535  1.00  0.00    -0.744 OA
ENDBRANCH  70  71
ENDBRANCH  49  63
BRANCH  50  75
ATOM     75  C   UNL A   1      43.308  23.452  26.965  1.00  0.00     0.058 A 
ATOM     76  C   UNL A   1      43.125  22.541  28.017  1.00  0.00     0.135 A 
ATOM     77  C   UNL A   1      43.059  23.004  25.660  1.00  0.00     0.135 A 
ATOM     78  F   UNL A   1      43.367  22.919  29.282  1.00  0.00    -0.206 F 
ATOM     79  C   UNL A   1      42.731  21.227  27.785  1.00  0.00     0.059 A 
ATOM     80  C   UNL A   1      42.645  21.701  25.404  1.00  0.00     0.059 A 
ATOM     81  F   UNL A   1      43.214  23.841  24.623  1.00  0.00    -0.206 F 
ATOM     82  C   UNL A   1      42.492  20.817  26.474  1.00  0.00     0.060 A 
BRANCH  82  83
ATOM     83  S   UNL A   1      42.035  19.105  26.121  1.00  0.00     0.124 S 
ATOM     84  O   UNL A   1      42.853  18.818  24.948  1.00  0.00    -0.237 OA
ATOM     85  O   UNL A   1      42.423  18.426  27.353  1.00  0.00    -0.237 OA
ATOM     86  O   UNL A   1      40.597  19.184  25.884  1.00  0.00    -0.744 OA
ENDBRANCH  82  83
ENDBRANCH  50  75
BRANCH  62  87
ATOM     87  C   UNL A   1      49.527  26.562  26.316  1.00  0.00     0.058 A 
ATOM     88  C   UNL A   1      50.401  25.997  27.257  1.00  0.00     0.135 A 
ATOM     89  C   UNL A   1      49.988  26.723  25.001  1.00  0.00     0.135 A 
ATOM     90  F   UNL A   1      50.008  25.830  28.530  1.00  0.00    -0.206 F 
ATOM     91  C   UNL A   1      51.695  25.619  26.914  1.00  0.00     0.059 A 
ATOM     92  C   UNL A   1      51.271  26.333  24.631  1.00  0.00     0.059 A 
ATOM     93  F   UNL A   1      49.187  27.253  24.064  1.00  0.00    -0.206 F 
ATOM     94  C   UNL A   1      52.120  25.788  25.597  1.00  0.00     0.060 A 
BRANCH  94  95
ATOM     95  S   UNL A   1      53.802  25.339  25.115  1.00  0.00     0.124 S 
ATOM     96  O   UNL A   1      53.988  26.147  23.914  1.00  0.00    -0.237 OA
ATOM     97  O   UNL A   1      54.579  25.747  26.282  1.00  0.00    -0.237 OA
ATOM     98  O   UNL A   1      53.720  23.898  24.897  1.00  0.00    -0.744 OA
ENDBRANCH  94  95
ENDBRANCH  62  87
ENDBRANCH  36  37
ENDBRANCH  28  31
ENDBRANCH  26  27
ENDBRANCH  25  26
ENDBRANCH   1  25
TORSDOF 18
ENDMDL
