MODEL 1
REMARK VINA RESULT:     -12.2      0.000      0.000
REMARK SMILES O=C(NCCCCNC(=O)c1ccc(-c2ccn(C(F)F)c(=O)c2)cc1O)c1ccc(-c2c3nc(c(-c4c(F)cc(S(=O)(=O)[O-])cc4F)c4ccc([nH]4)c(-c4c(F)cc(S(=O)(=O)[O-])cc4F)c4nc(c(-c5c(F)cc(S(=O)(=O)[O-])cc5F)c5ccc2[nH]5)C=C4)C=C3)cc1
REMARK SMILES IDX 5 1 4 2 3 3 1 4 2 5 28 7 29 8 93 9 30 10 92 11 31 12 32 13
REMARK SMILES IDX 33 14 86 15 34 16 91 17 85 18 87 19 35 20 90 21 84 22 83 23
REMARK SMILES IDX 36 25 70 26 49 27 69 28 50 29 53 30 68 31 88 32 51 33 52 34
REMARK SMILES IDX 67 36 89 37 54 38 37 39 38 40 47 41 39 42 40 43 46 44 48 45
REMARK SMILES IDX 41 46 42 47 43 48 44 49 45 50 71 51 72 52 81 53 73 54 74 55
REMARK SMILES IDX 80 56 82 57 75 58 76 59 77 60 78 61 79 62 55 63 56 64 65 65
REMARK SMILES IDX 57 66 58 67 64 68 66 69 59 70 60 71 61 72 62 73 63 74 6 75
REMARK SMILES IDX 7 76 8 77 9 78 10 80 11 81 12 82 26 83 13 84 25 85 14 86
REMARK SMILES IDX 27 87 15 89 16 90 24 91 17 92 22 93 18 94 23 95 19 96 20 97
REMARK SMILES IDX 21 98
REMARK H PARENT 3 6 87 24 53 35 8 79 27 88
REMARK Flexibility Score: inf
ROOT
ATOM      1  C   UNL A   1      33.628  28.086  25.771  1.00  0.00     0.023 C 
ENDROOT
BRANCH   1   2
ATOM      2  C   UNL A   1      33.478  28.340  27.266  1.00  0.00     0.116 C 
BRANCH   2   3
ATOM      3  N   UNL A   1      33.429  29.758  27.581  1.00  0.00    -0.352 N 
ATOM      4  O   UNL A   1      34.061  31.693  28.530  1.00  0.00    -0.269 OA
ATOM      5  C   UNL A   1      34.375  30.564  28.164  1.00  0.00     0.251 C 
ATOM      6  H   UNL A   1      32.588  30.211  27.340  1.00  0.00     0.163 HD
BRANCH   5   7
ATOM      7  C   UNL A   1      35.763  30.085  28.352  1.00  0.00     0.039 A 
ATOM      8  C   UNL A   1      36.154  29.621  29.614  1.00  0.00     0.014 A 
ATOM      9  C   UNL A   1      36.699  30.160  27.318  1.00  0.00     0.014 A 
ATOM     10  C   UNL A   1      37.473  29.217  29.831  1.00  0.00     0.010 A 
ATOM     11  C   UNL A   1      37.994  29.689  27.514  1.00  0.00     0.010 A 
ATOM     12  C   UNL A   1      38.403  29.246  28.781  1.00  0.00    -0.014 A 
BRANCH  12  13
ATOM     13  C   UNL A   1      39.838  28.936  29.000  1.00  0.00     0.031 A 
ATOM     14  C   UNL A   1      40.731  29.993  29.594  1.00  0.00     0.074 A 
ATOM     15  C   UNL A   1      40.350  27.745  28.639  1.00  0.00     0.049 A 
ATOM     16  N   UNL A   1      42.030  29.999  29.739  1.00  0.00    -0.248 NA
ATOM     17  C   UNL A   1      40.065  31.219  30.064  1.00  0.00     0.031 C 
ATOM     18  C   UNL A   1      39.589  26.632  28.072  1.00  0.00     0.029 A 
ATOM     19  N   UNL A   1      41.638  27.279  28.695  1.00  0.00    -0.354 N 
ATOM     20  C   UNL A   1      42.339  31.234  30.300  1.00  0.00     0.074 A 
ATOM     21  C   UNL A   1      41.099  31.969  30.413  1.00  0.00     0.031 C 
ATOM     22  C   UNL A   1      40.423  25.601  27.858  1.00  0.00     0.029 A 
ATOM     23  C   UNL A   1      41.780  25.996  28.225  1.00  0.00     0.049 A 
ATOM     24  H   UNL A   1      42.391  27.813  29.038  1.00  0.00     0.167 HD
ATOM     25  C   UNL A   1      43.542  31.704  30.708  1.00  0.00     0.037 A 
ATOM     26  C   UNL A   1      42.882  25.232  28.097  1.00  0.00     0.037 A 
ATOM     27  C   UNL A   1      44.772  30.964  30.608  1.00  0.00     0.049 A 
ATOM     28  C   UNL A   1      44.218  25.793  28.501  1.00  0.00     0.074 A 
ATOM     29  C   UNL A   1      46.045  31.346  30.991  1.00  0.00     0.029 A 
ATOM     30  N   UNL A   1      44.880  29.681  30.087  1.00  0.00    -0.354 N 
ATOM     31  N   UNL A   1      44.503  26.971  29.002  1.00  0.00    -0.248 NA
ATOM     32  C   UNL A   1      45.384  24.919  28.311  1.00  0.00     0.031 C 
ATOM     33  C   UNL A   1      46.928  30.307  30.673  1.00  0.00     0.029 A 
ATOM     34  C   UNL A   1      46.199  29.260  30.129  1.00  0.00     0.049 A 
ATOM     35  H   UNL A   1      44.129  29.148  29.740  1.00  0.00     0.167 HD
ATOM     36  C   UNL A   1      45.879  26.979  29.199  1.00  0.00     0.074 A 
ATOM     37  C   UNL A   1      46.365  25.679  28.780  1.00  0.00     0.031 C 
ATOM     38  C   UNL A   1      46.670  27.971  29.682  1.00  0.00     0.037 A 
BRANCH  25  39
ATOM     39  C   UNL A   1      43.565  33.092  31.290  1.00  0.00     0.058 A 
ATOM     40  C   UNL A   1      43.665  34.230  30.471  1.00  0.00     0.135 A 
ATOM     41  C   UNL A   1      43.528  33.288  32.680  1.00  0.00     0.135 A 
ATOM     42  F   UNL A   1      43.725  34.099  29.136  1.00  0.00    -0.206 F 
ATOM     43  C   UNL A   1      43.785  35.507  31.010  1.00  0.00     0.059 A 
ATOM     44  C   UNL A   1      43.614  34.560  33.240  1.00  0.00     0.059 A 
ATOM     45  F   UNL A   1      43.431  32.239  33.509  1.00  0.00    -0.206 F 
ATOM     46  C   UNL A   1      43.770  35.660  32.397  1.00  0.00     0.060 A 
BRANCH  46  47
ATOM     47  S   UNL A   1      43.979  37.317  33.083  1.00  0.00     0.124 S 
ATOM     48  O   UNL A   1      45.239  37.175  33.807  1.00  0.00    -0.237 OA
ATOM     49  O   UNL A   1      44.028  38.149  31.884  1.00  0.00    -0.237 OA
ATOM     50  O   UNL A   1      42.794  37.493  33.915  1.00  0.00    -0.744 OA
ENDBRANCH  46  47
ENDBRANCH  25  39
BRANCH  26  51
ATOM     51  C   UNL A   1      42.751  23.839  27.596  1.00  0.00     0.058 A 
ATOM     52  C   UNL A   1      42.609  22.773  28.495  1.00  0.00     0.135 A 
ATOM     53  C   UNL A   1      42.698  23.553  26.224  1.00  0.00     0.135 A 
ATOM     54  F   UNL A   1      42.667  22.997  29.817  1.00  0.00    -0.206 F 
ATOM     55  C   UNL A   1      42.402  21.471  28.053  1.00  0.00     0.059 A 
ATOM     56  C   UNL A   1      42.471  22.261  25.756  1.00  0.00     0.059 A 
ATOM     57  F   UNL A   1      42.822  24.541  25.325  1.00  0.00    -0.206 F 
ATOM     58  C   UNL A   1      42.319  21.227  26.681  1.00  0.00     0.060 A 
BRANCH  58  59
ATOM     59  S   UNL A   1      41.939  19.551  26.127  1.00  0.00     0.124 S 
ATOM     60  O   UNL A   1      40.510  19.645  25.856  1.00  0.00    -0.237 OA
ATOM     61  O   UNL A   1      42.803  19.415  24.958  1.00  0.00    -0.237 OA
ATOM     62  O   UNL A   1      42.312  18.726  27.271  1.00  0.00    -0.744 OA
ENDBRANCH  58  59
ENDBRANCH  26  51
BRANCH  38  63
ATOM     63  C   UNL A   1      48.143  27.683  29.780  1.00  0.00     0.058 A 
ATOM     64  C   UNL A   1      49.017  27.959  28.717  1.00  0.00     0.135 A 
ATOM     65  C   UNL A   1      48.690  27.142  30.954  1.00  0.00     0.135 A 
ATOM     66  F   UNL A   1      48.545  28.474  27.570  1.00  0.00    -0.206 F 
ATOM     67  C   UNL A   1      50.376  27.673  28.800  1.00  0.00     0.059 A 
ATOM     68  C   UNL A   1      50.052  26.873  31.070  1.00  0.00     0.059 A 
ATOM     69  F   UNL A   1      47.902  26.872  32.007  1.00  0.00    -0.206 F 
ATOM     70  C   UNL A   1      50.883  27.125  29.980  1.00  0.00     0.060 A 
BRANCH  70  71
ATOM     71  S   UNL A   1      52.648  26.756  30.072  1.00  0.00     0.124 S 
ATOM     72  O   UNL A   1      52.672  25.689  31.068  1.00  0.00    -0.237 OA
ATOM     73  O   UNL A   1      52.956  26.353  28.704  1.00  0.00    -0.237 OA
ATOM     74  O   UNL A   1      53.239  28.022  30.495  1.00  0.00    -0.744 OA
ENDBRANCH  70  71
ENDBRANCH  38  63
ENDBRANCH  12  13
ENDBRANCH   5   7
ENDBRANCH   2   3
ENDBRANCH   1   2
BRANCH   1  75
ATOM     75  C   UNL A   1      33.321  29.283  24.872  1.00  0.00     0.023 C 
BRANCH  75  76
ATOM     76  C   UNL A   1      33.359  28.998  23.375  1.00  0.00     0.116 C 
BRANCH  76  77
ATOM     77  N   UNL A   1      32.049  29.098  22.753  1.00  0.00    -0.352 N 
ATOM     78  C   UNL A   1      31.199  28.082  22.396  1.00  0.00     0.255 C 
ATOM     79  H   UNL A   1      31.732  30.011  22.565  1.00  0.00     0.163 HD
ATOM     80  O   UNL A   1      30.144  28.323  21.815  1.00  0.00    -0.269 OA
BRANCH  78  81
ATOM     81  C   UNL A   1      31.587  26.678  22.635  1.00  0.00     0.081 A 
ATOM     82  C   UNL A   1      30.999  26.023  23.723  1.00  0.00     0.018 A 
ATOM     83  C   UNL A   1      32.511  26.004  21.831  1.00  0.00     0.128 A 
ATOM     84  C   UNL A   1      31.296  24.682  23.978  1.00  0.00     0.010 A 
ATOM     85  C   UNL A   1      32.799  24.662  22.077  1.00  0.00     0.055 A 
ATOM     86  C   UNL A   1      32.189  23.990  23.149  1.00  0.00    -0.014 A 
BRANCH  83  87
ATOM     87  O   UNL A   1      33.132  26.646  20.797  1.00  0.00    -0.507 OA
ATOM     88  H   UNL A   1      33.989  26.380  20.528  1.00  0.00     0.293 HD
ENDBRANCH  83  87
BRANCH  86  89
ATOM     89  C   UNL A   1      32.525  22.571  23.384  1.00  0.00    -0.011 A 
ATOM     90  C   UNL A   1      31.949  21.504  22.587  1.00  0.00     0.027 A 
ATOM     91  C   UNL A   1      33.339  22.256  24.405  1.00  0.00     0.080 A 
ATOM     92  C   UNL A   1      32.184  20.223  22.893  1.00  0.00     0.095 A 
ATOM     93  C   UNL A   1      33.634  20.833  24.740  1.00  0.00     0.255 A 
ATOM     94  N   UNL A   1      32.999  19.883  23.956  1.00  0.00    -0.258 N 
ATOM     95  O   UNL A   1      34.389  20.596  25.676  1.00  0.00    -0.269 OA
BRANCH  94  96
ATOM     96  C   UNL A   1      33.216  18.502  24.295  1.00  0.00     0.451 C 
ATOM     97  F   UNL A   1      32.046  17.870  24.558  1.00  0.00    -0.185 F 
ATOM     98  F   UNL A   1      33.832  17.843  23.283  1.00  0.00    -0.185 F 
ENDBRANCH  94  96
ENDBRANCH  86  89
ENDBRANCH  78  81
ENDBRANCH  76  77
ENDBRANCH  75  76
ENDBRANCH   1  75
TORSDOF 17
ENDMDL
MODEL 2
REMARK VINA RESULT:     -12.1      5.238     10.807
REMARK SMILES O=C(NCCCCNC(=O)c1ccc(-c2ccn(C(F)F)c(=O)c2)cc1O)c1ccc(-c2c3nc(c(-c4c(F)cc(S(=O)(=O)[O-])cc4F)c4ccc([nH]4)c(-c4c(F)cc(S(=O)(=O)[O-])cc4F)c4nc(c(-c5c(F)cc(S(=O)(=O)[O-])cc5F)c5ccc2[nH]5)C=C4)C=C3)cc1
REMARK SMILES IDX 5 1 4 2 3 3 1 4 2 5 28 7 29 8 93 9 30 10 92 11 31 12 32 13
REMARK SMILES IDX 33 14 86 15 34 16 91 17 85 18 87 19 35 20 90 21 84 22 83 23
REMARK SMILES IDX 36 25 70 26 49 27 69 28 50 29 53 30 68 31 88 32 51 33 52 34
REMARK SMILES IDX 67 36 89 37 54 38 37 39 38 40 47 41 39 42 40 43 46 44 48 45
REMARK SMILES IDX 41 46 42 47 43 48 44 49 45 50 71 51 72 52 81 53 73 54 74 55
REMARK SMILES IDX 80 56 82 57 75 58 76 59 77 60 78 61 79 62 55 63 56 64 65 65
REMARK SMILES IDX 57 66 58 67 64 68 66 69 59 70 60 71 61 72 62 73 63 74 6 75
REMARK SMILES IDX 7 76 8 77 9 78 10 80 11 81 12 82 26 83 13 84 25 85 14 86
REMARK SMILES IDX 27 87 15 89 16 90 24 91 17 92 22 93 18 94 23 95 19 96 20 97
REMARK SMILES IDX 21 98
REMARK H PARENT 3 6 87 24 53 35 8 79 27 88
REMARK Flexibility Score: inf
ROOT
ATOM      1  C   UNL A   1      36.913  23.016  25.735  1.00  0.00     0.023 C 
ENDROOT
BRANCH   1   2
ATOM      2  C   UNL A   1      37.889  24.120  26.124  1.00  0.00     0.116 C 
BRANCH   2   3
ATOM      3  N   UNL A   1      39.265  23.653  26.156  1.00  0.00    -0.352 N 
ATOM      4  O   UNL A   1      41.486  23.770  26.465  1.00  0.00    -0.269 OA
ATOM      5  C   UNL A   1      40.375  24.224  26.725  1.00  0.00     0.251 C 
ATOM      6  H   UNL A   1      39.425  22.795  25.700  1.00  0.00     0.163 HD
BRANCH   5   7
ATOM      7  C   UNL A   1      40.244  25.377  27.646  1.00  0.00     0.039 A 
ATOM      8  C   UNL A   1      41.082  26.484  27.467  1.00  0.00     0.014 A 
ATOM      9  C   UNL A   1      39.359  25.341  28.726  1.00  0.00     0.014 A 
ATOM     10  C   UNL A   1      41.017  27.559  28.356  1.00  0.00     0.010 A 
ATOM     11  C   UNL A   1      39.242  26.443  29.568  1.00  0.00     0.010 A 
ATOM     12  C   UNL A   1      40.094  27.547  29.413  1.00  0.00    -0.014 A 
BRANCH  12  13
ATOM     13  C   UNL A   1      40.074  28.614  30.444  1.00  0.00     0.031 A 
ATOM     14  C   UNL A   1      41.055  28.546  31.584  1.00  0.00     0.074 A 
ATOM     15  C   UNL A   1      39.170  29.609  30.390  1.00  0.00     0.049 A 
ATOM     16  N   UNL A   1      41.127  29.277  32.666  1.00  0.00    -0.248 NA
ATOM     17  C   UNL A   1      42.079  27.492  31.500  1.00  0.00     0.031 C 
ATOM     18  C   UNL A   1      38.181  29.799  29.331  1.00  0.00     0.029 A 
ATOM     19  N   UNL A   1      38.940  30.648  31.257  1.00  0.00    -0.354 N 
ATOM     20  C   UNL A   1      42.189  28.761  33.399  1.00  0.00     0.074 A 
ATOM     21  C   UNL A   1      42.693  27.620  32.666  1.00  0.00     0.031 C 
ATOM     22  C   UNL A   1      37.466  30.905  29.596  1.00  0.00     0.029 A 
ATOM     23  C   UNL A   1      37.914  31.473  30.866  1.00  0.00     0.049 A 
ATOM     24  H   UNL A   1      39.460  30.788  32.080  1.00  0.00     0.167 HD
ATOM     25  C   UNL A   1      42.715  29.210  34.564  1.00  0.00     0.037 A 
ATOM     26  C   UNL A   1      37.390  32.556  31.470  1.00  0.00     0.037 A 
ATOM     27  C   UNL A   1      42.220  30.353  35.283  1.00  0.00     0.049 A 
ATOM     28  C   UNL A   1      37.948  33.005  32.793  1.00  0.00     0.074 A 
ATOM     29  C   UNL A   1      42.680  30.893  36.471  1.00  0.00     0.029 A 
ATOM     30  N   UNL A   1      41.151  31.140  34.874  1.00  0.00    -0.354 N 
ATOM     31  N   UNL A   1      38.932  32.493  33.491  1.00  0.00    -0.248 NA
ATOM     32  C   UNL A   1      37.314  34.177  33.412  1.00  0.00     0.031 C 
ATOM     33  C   UNL A   1      41.868  31.987  36.797  1.00  0.00     0.029 A 
ATOM     34  C   UNL A   1      40.928  32.154  35.791  1.00  0.00     0.049 A 
ATOM     35  H   UNL A   1      40.628  30.998  34.053  1.00  0.00     0.167 HD
ATOM     36  C   UNL A   1      39.046  33.284  34.628  1.00  0.00     0.074 A 
ATOM     37  C   UNL A   1      38.041  34.322  34.512  1.00  0.00     0.031 C 
ATOM     38  C   UNL A   1      39.904  33.164  35.674  1.00  0.00     0.037 A 
BRANCH  25  39
ATOM     39  C   UNL A   1      43.882  28.439  35.122  1.00  0.00     0.058 A 
ATOM     40  C   UNL A   1      45.197  28.685  34.693  1.00  0.00     0.135 A 
ATOM     41  C   UNL A   1      43.682  27.416  36.063  1.00  0.00     0.135 A 
ATOM     42  F   UNL A   1      45.444  29.638  33.780  1.00  0.00    -0.206 F 
ATOM     43  C   UNL A   1      46.264  27.909  35.134  1.00  0.00     0.059 A 
ATOM     44  C   UNL A   1      44.739  26.647  36.541  1.00  0.00     0.059 A 
ATOM     45  F   UNL A   1      42.447  27.139  36.508  1.00  0.00    -0.206 F 
ATOM     46  C   UNL A   1      46.023  26.884  36.050  1.00  0.00     0.060 A 
BRANCH  46  47
ATOM     47  S   UNL A   1      47.408  25.852  36.573  1.00  0.00     0.124 S 
ATOM     48  O   UNL A   1      46.718  24.771  37.271  1.00  0.00    -0.237 OA
ATOM     49  O   UNL A   1      48.027  25.490  35.301  1.00  0.00    -0.237 OA
ATOM     50  O   UNL A   1      48.196  26.742  37.418  1.00  0.00    -0.744 OA
ENDBRANCH  46  47
ENDBRANCH  25  39
BRANCH  26  51
ATOM     51  C   UNL A   1      36.296  33.308  30.800  1.00  0.00     0.058 A 
ATOM     52  C   UNL A   1      34.994  33.274  31.316  1.00  0.00     0.135 A 
ATOM     53  C   UNL A   1      36.540  34.120  29.682  1.00  0.00     0.135 A 
ATOM     54  F   UNL A   1      34.710  32.501  32.375  1.00  0.00    -0.206 F 
ATOM     55  C   UNL A   1      33.970  34.033  30.758  1.00  0.00     0.059 A 
ATOM     56  C   UNL A   1      35.537  34.904  29.118  1.00  0.00     0.059 A 
ATOM     57  F   UNL A   1      37.773  34.190  29.157  1.00  0.00    -0.206 F 
ATOM     58  C   UNL A   1      34.256  34.857  29.667  1.00  0.00     0.060 A 
BRANCH  58  59
ATOM     59  S   UNL A   1      32.944  35.919  29.025  1.00  0.00     0.124 S 
ATOM     60  O   UNL A   1      32.201  36.239  30.238  1.00  0.00    -0.237 OA
ATOM     61  O   UNL A   1      33.704  37.015  28.434  1.00  0.00    -0.237 OA
ATOM     62  O   UNL A   1      32.252  35.059  28.070  1.00  0.00    -0.744 OA
ENDBRANCH  58  59
ENDBRANCH  26  51
BRANCH  38  63
ATOM     63  C   UNL A   1      39.786  34.183  36.774  1.00  0.00     0.058 A 
ATOM     64  C   UNL A   1      39.038  33.928  37.933  1.00  0.00     0.135 A 
ATOM     65  C   UNL A   1      40.441  35.421  36.676  1.00  0.00     0.135 A 
ATOM     66  F   UNL A   1      38.388  32.761  38.075  1.00  0.00    -0.206 F 
ATOM     67  C   UNL A   1      38.912  34.879  38.941  1.00  0.00     0.059 A 
ATOM     68  C   UNL A   1      40.352  36.377  37.684  1.00  0.00     0.059 A 
ATOM     69  F   UNL A   1      41.182  35.711  35.594  1.00  0.00    -0.206 F 
ATOM     70  C   UNL A   1      39.569  36.103  38.804  1.00  0.00     0.060 A 
BRANCH  70  71
ATOM     71  S   UNL A   1      39.394  37.329  40.118  1.00  0.00     0.124 S 
ATOM     72  O   UNL A   1      38.540  38.325  39.477  1.00  0.00    -0.237 OA
ATOM     73  O   UNL A   1      38.772  36.556  41.188  1.00  0.00    -0.237 OA
ATOM     74  O   UNL A   1      40.768  37.753  40.373  1.00  0.00    -0.744 OA
ENDBRANCH  70  71
ENDBRANCH  38  63
ENDBRANCH  12  13
ENDBRANCH   5   7
ENDBRANCH   2   3
ENDBRANCH   1   2
BRANCH   1  75
ATOM     75  C   UNL A   1      35.441  23.321  26.008  1.00  0.00     0.023 C 
BRANCH  75  76
ATOM     76  C   UNL A   1      34.492  23.040  24.848  1.00  0.00     0.116 C 
BRANCH  76  77
ATOM     77  N   UNL A   1      33.489  22.041  25.175  1.00  0.00    -0.352 N 
ATOM     78  C   UNL A   1      32.125  22.183  25.196  1.00  0.00     0.255 C 
ATOM     79  H   UNL A   1      33.833  21.149  25.411  1.00  0.00     0.163 HD
ATOM     80  O   UNL A   1      31.404  21.257  25.559  1.00  0.00    -0.269 OA
BRANCH  78  81
ATOM     81  C   UNL A   1      31.514  23.485  24.860  1.00  0.00     0.081 A 
ATOM     82  C   UNL A   1      31.473  23.848  23.509  1.00  0.00     0.018 A 
ATOM     83  C   UNL A   1      30.997  24.348  25.831  1.00  0.00     0.128 A 
ATOM     84  C   UNL A   1      30.874  25.050  23.125  1.00  0.00     0.010 A 
ATOM     85  C   UNL A   1      30.387  25.541  25.447  1.00  0.00     0.055 A 
ATOM     86  C   UNL A   1      30.315  25.898  24.090  1.00  0.00    -0.014 A 
BRANCH  83  87
ATOM     87  O   UNL A   1      31.076  24.030  27.157  1.00  0.00    -0.507 OA
ATOM     88  H   UNL A   1      31.203  24.705  27.794  1.00  0.00     0.293 HD
ENDBRANCH  83  87
BRANCH  86  89
ATOM     89  C   UNL A   1      29.670  27.173  23.722  1.00  0.00    -0.011 A 
ATOM     90  C   UNL A   1      30.436  28.385  23.500  1.00  0.00     0.027 A 
ATOM     91  C   UNL A   1      28.329  27.228  23.652  1.00  0.00     0.080 A 
ATOM     92  C   UNL A   1      29.818  29.550  23.278  1.00  0.00     0.095 A 
ATOM     93  C   UNL A   1      27.627  28.514  23.376  1.00  0.00     0.255 A 
ATOM     94  N   UNL A   1      28.439  29.627  23.228  1.00  0.00    -0.258 N 
ATOM     95  O   UNL A   1      26.402  28.512  23.313  1.00  0.00    -0.269 OA
BRANCH  94  96
ATOM     96  C   UNL A   1      27.787  30.893  23.022  1.00  0.00     0.451 C 
ATOM     97  F   UNL A   1      27.212  31.341  24.164  1.00  0.00    -0.185 F 
ATOM     98  F   UNL A   1      28.668  31.831  22.597  1.00  0.00    -0.185 F 
ENDBRANCH  94  96
ENDBRANCH  86  89
ENDBRANCH  78  81
ENDBRANCH  76  77
ENDBRANCH  75  76
ENDBRANCH   1  75
TORSDOF 17
ENDMDL
MODEL 3
REMARK VINA RESULT:     -12.0      4.321      7.013
REMARK SMILES O=C(NCCCCNC(=O)c1ccc(-c2ccn(C(F)F)c(=O)c2)cc1O)c1ccc(-c2c3nc(c(-c4c(F)cc(S(=O)(=O)[O-])cc4F)c4ccc([nH]4)c(-c4c(F)cc(S(=O)(=O)[O-])cc4F)c4nc(c(-c5c(F)cc(S(=O)(=O)[O-])cc5F)c5ccc2[nH]5)C=C4)C=C3)cc1
REMARK SMILES IDX 5 1 4 2 3 3 1 4 2 5 28 7 29 8 93 9 30 10 92 11 31 12 32 13
REMARK SMILES IDX 33 14 86 15 34 16 91 17 85 18 87 19 35 20 90 21 84 22 83 23
REMARK SMILES IDX 36 25 70 26 49 27 69 28 50 29 53 30 68 31 88 32 51 33 52 34
REMARK SMILES IDX 67 36 89 37 54 38 37 39 38 40 47 41 39 42 40 43 46 44 48 45
REMARK SMILES IDX 41 46 42 47 43 48 44 49 45 50 71 51 72 52 81 53 73 54 74 55
REMARK SMILES IDX 80 56 82 57 75 58 76 59 77 60 78 61 79 62 55 63 56 64 65 65
REMARK SMILES IDX 57 66 58 67 64 68 66 69 59 70 60 71 61 72 62 73 63 74 6 75
REMARK SMILES IDX 7 76 8 77 9 78 10 80 11 81 12 82 26 83 13 84 25 85 14 86
REMARK SMILES IDX 27 87 15 89 16 90 24 91 17 92 22 93 18 94 23 95 19 96 20 97
REMARK SMILES IDX 21 98
REMARK H PARENT 3 6 87 24 53 35 8 79 27 88
REMARK Flexibility Score: inf
ROOT
ATOM      1  C   UNL A   1      34.775  34.369  27.937  1.00  0.00     0.023 C 
ENDROOT
BRANCH   1   2
ATOM      2  C   UNL A   1      35.320  33.047  28.464  1.00  0.00     0.116 C 
BRANCH   2   3
ATOM      3  N   UNL A   1      34.440  31.930  28.164  1.00  0.00    -0.352 N 
ATOM      4  O   UNL A   1      33.868  29.868  27.483  1.00  0.00    -0.269 OA
ATOM      5  C   UNL A   1      34.742  30.614  27.917  1.00  0.00     0.251 C 
ATOM      6  H   UNL A   1      33.481  32.150  28.134  1.00  0.00     0.163 HD
BRANCH   5   7
ATOM      7  C   UNL A   1      36.104  30.090  28.170  1.00  0.00     0.039 A 
ATOM      8  C   UNL A   1      36.398  29.548  29.427  1.00  0.00     0.014 A 
ATOM      9  C   UNL A   1      37.109  30.198  27.206  1.00  0.00     0.014 A 
ATOM     10  C   UNL A   1      37.691  29.099  29.707  1.00  0.00     0.010 A 
ATOM     11  C   UNL A   1      38.377  29.684  27.460  1.00  0.00     0.010 A 
ATOM     12  C   UNL A   1      38.689  29.163  28.725  1.00  0.00    -0.014 A 
BRANCH  12  13
ATOM     13  C   UNL A   1      40.100  28.805  29.021  1.00  0.00     0.031 A 
ATOM     14  C   UNL A   1      40.985  29.821  29.693  1.00  0.00     0.074 A 
ATOM     15  C   UNL A   1      40.598  27.608  28.662  1.00  0.00     0.049 A 
ATOM     16  N   UNL A   1      42.273  29.785  29.915  1.00  0.00    -0.248 NA
ATOM     17  C   UNL A   1      40.327  31.055  30.153  1.00  0.00     0.031 C 
ATOM     18  C   UNL A   1      39.842  26.532  28.024  1.00  0.00     0.029 A 
ATOM     19  N   UNL A   1      41.867  27.102  28.783  1.00  0.00    -0.354 N 
ATOM     20  C   UNL A   1      42.583  30.997  30.523  1.00  0.00     0.074 A 
ATOM     21  C   UNL A   1      41.359  31.766  30.580  1.00  0.00     0.031 C 
ATOM     22  C   UNL A   1      40.656  25.481  27.834  1.00  0.00     0.029 A 
ATOM     23  C   UNL A   1      42.000  25.827  28.291  1.00  0.00     0.049 A 
ATOM     24  H   UNL A   1      42.612  27.605  29.183  1.00  0.00     0.167 HD
ATOM     25  C   UNL A   1      43.772  31.421  31.013  1.00  0.00     0.037 A 
ATOM     26  C   UNL A   1      43.086  25.034  28.210  1.00  0.00     0.037 A 
ATOM     27  C   UNL A   1      44.984  30.647  30.968  1.00  0.00     0.049 A 
ATOM     28  C   UNL A   1      44.411  25.544  28.705  1.00  0.00     0.074 A 
ATOM     29  C   UNL A   1      46.242  30.982  31.435  1.00  0.00     0.029 A 
ATOM     30  N   UNL A   1      45.087  29.374  30.423  1.00  0.00    -0.354 N 
ATOM     31  N   UNL A   1      44.698  26.702  29.251  1.00  0.00    -0.248 NA
ATOM     32  C   UNL A   1      45.560  24.641  28.564  1.00  0.00     0.031 C 
ATOM     33  C   UNL A   1      47.113  29.925  31.145  1.00  0.00     0.029 A 
ATOM     34  C   UNL A   1      46.388  28.913  30.533  1.00  0.00     0.049 A 
ATOM     35  H   UNL A   1      44.343  28.872  30.019  1.00  0.00     0.167 HD
ATOM     36  C   UNL A   1      46.060  26.664  29.530  1.00  0.00     0.074 A 
ATOM     37  C   UNL A   1      46.533  25.360  29.109  1.00  0.00     0.031 C 
ATOM     38  C   UNL A   1      46.848  27.621  30.083  1.00  0.00     0.037 A 
BRANCH  25  39
ATOM     39  C   UNL A   1      43.799  32.795  31.629  1.00  0.00     0.058 A 
ATOM     40  C   UNL A   1      43.588  32.988  33.005  1.00  0.00     0.135 A 
ATOM     41  C   UNL A   1      43.997  33.934  30.832  1.00  0.00     0.135 A 
ATOM     42  F   UNL A   1      43.373  31.935  33.810  1.00  0.00    -0.206 F 
ATOM     43  C   UNL A   1      43.515  34.261  33.559  1.00  0.00     0.059 A 
ATOM     44  C   UNL A   1      43.960  35.217  31.371  1.00  0.00     0.059 A 
ATOM     45  F   UNL A   1      44.205  33.809  29.513  1.00  0.00    -0.206 F 
ATOM     46  C   UNL A   1      43.692  35.371  32.731  1.00  0.00     0.060 A 
BRANCH  46  47
ATOM     47  S   UNL A   1      43.542  37.018  33.454  1.00  0.00     0.124 S 
ATOM     48  O   UNL A   1      42.338  36.872  34.265  1.00  0.00    -0.237 OA
ATOM     49  O   UNL A   1      44.793  37.150  34.196  1.00  0.00    -0.237 OA
ATOM     50  O   UNL A   1      43.413  37.890  32.291  1.00  0.00    -0.744 OA
ENDBRANCH  46  47
ENDBRANCH  25  39
BRANCH  26  51
ATOM     51  C   UNL A   1      42.945  23.657  27.668  1.00  0.00     0.058 A 
ATOM     52  C   UNL A   1      42.679  22.581  28.526  1.00  0.00     0.135 A 
ATOM     53  C   UNL A   1      43.006  23.399  26.290  1.00  0.00     0.135 A 
ATOM     54  F   UNL A   1      42.626  22.777  29.852  1.00  0.00    -0.206 F 
ATOM     55  C   UNL A   1      42.461  21.297  28.038  1.00  0.00     0.059 A 
ATOM     56  C   UNL A   1      42.772  22.127  25.775  1.00  0.00     0.059 A 
ATOM     57  F   UNL A   1      43.251  24.398  25.429  1.00  0.00    -0.206 F 
ATOM     58  C   UNL A   1      42.495  21.083  26.658  1.00  0.00     0.060 A 
BRANCH  58  59
ATOM     59  S   UNL A   1      42.100  19.435  26.035  1.00  0.00     0.124 S 
ATOM     60  O   UNL A   1      42.925  19.367  24.835  1.00  0.00    -0.237 OA
ATOM     61  O   UNL A   1      42.516  18.584  27.145  1.00  0.00    -0.237 OA
ATOM     62  O   UNL A   1      40.660  19.497  25.807  1.00  0.00    -0.744 OA
ENDBRANCH  58  59
ENDBRANCH  26  51
BRANCH  38  63
ATOM     63  C   UNL A   1      48.304  27.287  30.261  1.00  0.00     0.058 A 
ATOM     64  C   UNL A   1      48.783  26.701  31.443  1.00  0.00     0.135 A 
ATOM     65  C   UNL A   1      49.227  27.539  29.233  1.00  0.00     0.135 A 
ATOM     66  F   UNL A   1      47.943  26.443  32.458  1.00  0.00    -0.206 F 
ATOM     67  C   UNL A   1      50.133  26.411  31.614  1.00  0.00     0.059 A 
ATOM     68  C   UNL A   1      50.578  27.232  29.373  1.00  0.00     0.059 A 
ATOM     69  F   UNL A   1      48.820  28.086  28.076  1.00  0.00    -0.206 F 
ATOM     70  C   UNL A   1      51.024  26.685  30.575  1.00  0.00     0.060 A 
BRANCH  70  71
ATOM     71  S   UNL A   1      52.773  26.308  30.814  1.00  0.00     0.124 S 
ATOM     72  O   UNL A   1      53.241  27.508  31.500  1.00  0.00    -0.237 OA
ATOM     73  O   UNL A   1      52.724  25.094  31.623  1.00  0.00    -0.237 OA
ATOM     74  O   UNL A   1      53.271  26.129  29.453  1.00  0.00    -0.744 OA
ENDBRANCH  70  71
ENDBRANCH  38  63
ENDBRANCH  12  13
ENDBRANCH   5   7
ENDBRANCH   2   3
ENDBRANCH   1   2
BRANCH   1  75
ATOM     75  C   UNL A   1      33.992  35.202  28.951  1.00  0.00     0.023 C 
BRANCH  75  76
ATOM     76  C   UNL A   1      33.895  34.601  30.348  1.00  0.00     0.116 C 
BRANCH  76  77
ATOM     77  N   UNL A   1      34.043  35.596  31.396  1.00  0.00    -0.352 N 
ATOM     78  C   UNL A   1      34.877  35.564  32.485  1.00  0.00     0.255 C 
ATOM     79  H   UNL A   1      33.474  36.395  31.314  1.00  0.00     0.163 HD
ATOM     80  O   UNL A   1      34.843  36.458  33.328  1.00  0.00    -0.269 OA
BRANCH  78  81
ATOM     81  C   UNL A   1      35.768  34.405  32.699  1.00  0.00     0.081 A 
ATOM     82  C   UNL A   1      36.935  34.341  31.930  1.00  0.00     0.018 A 
ATOM     83  C   UNL A   1      35.479  33.391  33.616  1.00  0.00     0.128 A 
ATOM     84  C   UNL A   1      37.837  33.289  32.113  1.00  0.00     0.010 A 
ATOM     85  C   UNL A   1      36.384  32.349  33.809  1.00  0.00     0.055 A 
ATOM     86  C   UNL A   1      37.573  32.293  33.062  1.00  0.00    -0.014 A 
BRANCH  83  87
ATOM     87  O   UNL A   1      34.318  33.414  34.336  1.00  0.00    -0.507 OA
ATOM     88  H   UNL A   1      34.167  32.776  35.004  1.00  0.00     0.293 HD
ENDBRANCH  83  87
BRANCH  86  89
ATOM     89  C   UNL A   1      38.503  31.169  33.287  1.00  0.00    -0.011 A 
ATOM     90  C   UNL A   1      39.846  31.374  33.796  1.00  0.00     0.027 A 
ATOM     91  C   UNL A   1      38.116  29.927  32.951  1.00  0.00     0.080 A 
ATOM     92  C   UNL A   1      40.704  30.352  33.884  1.00  0.00     0.095 A 
ATOM     93  C   UNL A   1      39.052  28.773  33.072  1.00  0.00     0.255 A 
ATOM     94  N   UNL A   1      40.329  29.074  33.519  1.00  0.00    -0.258 N 
ATOM     95  O   UNL A   1      38.650  27.657  32.761  1.00  0.00    -0.269 OA
BRANCH  94  96
ATOM     96  C   UNL A   1      41.272  27.990  33.587  1.00  0.00     0.451 C 
ATOM     97  F   UNL A   1      42.214  28.096  32.618  1.00  0.00    -0.185 F 
ATOM     98  F   UNL A   1      41.903  27.968  34.786  1.00  0.00    -0.185 F 
ENDBRANCH  94  96
ENDBRANCH  86  89
ENDBRANCH  78  81
ENDBRANCH  76  77
ENDBRANCH  75  76
ENDBRANCH   1  75
TORSDOF 17
ENDMDL
