MODEL 1
REMARK VINA RESULT:     -11.6      0.000      0.000
REMARK SMILES CC[NH2+][C@]1(C(=O)NCCCCNC(=O)c2ccc(-c3c4nc(c(-c5c(F)cc(S(=O)(=O)[O-])cc5F)c5ccc([nH]5)c(-c5c(F)cc(S(=O)(=O)[O-])cc5F)c5nc(c(-c6c(F)cc(S(=O)(=O)[O-])cc6F)c6ccc3[nH]6)C=C5)C=C4)cc2)CCC[C@H]([N@@H+]2CCC[C@@H]2C(C)C)C1
REMARK SMILES IDX 10 1 9 2 8 3 7 4 5 5 6 6 4 8 81 9 93 10 82 11 84 12 83 13
REMARK SMILES IDX 3 14 2 17 1 18 85 19 86 20 89 21 87 23 88 24 90 25 91 26
REMARK SMILES IDX 92 27 11 28 12 29 13 30 14 32 15 33 16 34 80 35 17 36 79 37
REMARK SMILES IDX 18 38 19 39 20 40 73 41 21 42 78 43 72 44 74 45 22 46 77 47
REMARK SMILES IDX 71 48 70 49 23 51 57 52 36 53 56 54 37 55 40 56 55 57 75 58
REMARK SMILES IDX 38 59 39 60 54 62 76 63 41 64 24 65 25 66 34 67 26 68 27 69
REMARK SMILES IDX 33 70 35 71 28 72 29 73 30 74 31 75 32 76 58 77 59 78 68 79
REMARK SMILES IDX 60 80 61 81 67 82 69 83 62 84 63 85 64 86 65 87 66 88 42 89
REMARK SMILES IDX 43 90 52 91 44 92 45 93 51 94 53 95 46 96 47 97 48 98 49 99
REMARK SMILES IDX 50 100
REMARK H PARENT 7 7 3 15 3 16 85 22 12 31 74 50 40 61
REMARK Flexibility Score: inf
ROOT
ATOM      1  C   UNL A   1      39.516  22.310  26.828  1.00  0.00     0.023 C 
ENDROOT
BRANCH   1   2
ATOM      2  C   UNL A   1      38.344  23.083  26.243  1.00  0.00     0.023 C 
BRANCH   2   3
ATOM      3  C   UNL A   1      37.175  22.235  25.715  1.00  0.00     0.116 C 
BRANCH   3   4
ATOM      4  N   UNL A   1      35.997  22.167  26.614  1.00  0.00    -0.351 N 
ATOM      5  C   UNL A   1      34.677  22.574  26.637  1.00  0.00     0.281 C 
ATOM      6  O   UNL A   1      34.006  22.148  27.588  1.00  0.00    -0.268 OA
ATOM      7  H   UNL A   1      36.224  21.688  27.444  1.00  0.00     0.163 HD
BRANCH   5   8
ATOM      8  C   UNL A   1      34.009  23.578  25.610  1.00  0.00     0.181 C 
ATOM      9  C   UNL A   1      33.146  24.598  26.550  1.00  0.00     0.079 C 
ATOM     10  C   UNL A   1      34.930  24.663  25.011  1.00  0.00     0.144 C 
ATOM     11  C   UNL A   1      32.774  26.082  26.260  1.00  0.00     0.013 C 
ATOM     12  C   UNL A   1      34.028  25.703  24.239  1.00  0.00     0.191 C 
ATOM     13  C   UNL A   1      33.656  26.759  25.259  1.00  0.00     0.065 C 
BRANCH   8  14
ATOM     14  N   UNL A   1      33.970  22.856  24.260  1.00  0.00    -0.334 N 
ATOM     15  H   UNL A   1      33.333  23.439  23.718  1.00  0.00     0.347 HD
ATOM     16  H   UNL A   1      34.978  22.704  24.227  1.00  0.00     0.347 HD
BRANCH  14  17
ATOM     17  C   UNL A   1      33.646  21.523  23.794  1.00  0.00     0.257 C 
ATOM     18  C   UNL A   1      32.238  21.082  24.266  1.00  0.00     0.071 C 
ENDBRANCH  14  17
ENDBRANCH   8  14
BRANCH  12  19
ATOM     19  N   UNL A   1      32.854  25.290  23.413  1.00  0.00    -0.330 N 
ATOM     20  C   UNL A   1      33.288  24.842  22.083  1.00  0.00     0.262 C 
ATOM     21  C   UNL A   1      31.386  25.681  23.309  1.00  0.00     0.187 C 
ATOM     22  H   UNL A   1      32.611  24.816  24.283  1.00  0.00     0.348 HD
ATOM     23  C   UNL A   1      32.578  25.761  21.132  1.00  0.00     0.067 C 
ATOM     24  C   UNL A   1      31.280  26.083  21.817  1.00  0.00     0.071 C 
BRANCH  21  25
ATOM     25  C   UNL A   1      30.295  26.632  24.072  1.00  0.00     0.041 C 
ATOM     26  C   UNL A   1      30.484  28.148  23.801  1.00  0.00     0.014 C 
ATOM     27  C   UNL A   1      28.771  26.563  23.895  1.00  0.00     0.014 C 
ENDBRANCH  21  25
ENDBRANCH  12  19
ENDBRANCH   5   8
ENDBRANCH   3   4
ENDBRANCH   2   3
ENDBRANCH   1   2
BRANCH   1  28
ATOM     28  C   UNL A   1      40.769  23.141  27.078  1.00  0.00     0.116 C 
BRANCH  28  29
ATOM     29  N   UNL A   1      41.161  24.024  25.978  1.00  0.00    -0.352 N 
ATOM     30  C   UNL A   1      41.461  25.371  26.028  1.00  0.00     0.251 C 
ATOM     31  H   UNL A   1      41.219  23.604  25.090  1.00  0.00     0.163 HD
ATOM     32  O   UNL A   1      41.715  26.001  25.003  1.00  0.00    -0.269 OA
BRANCH  30  33
ATOM     33  C   UNL A   1      41.424  26.053  27.338  1.00  0.00     0.039 A 
ATOM     34  C   UNL A   1      42.521  26.813  27.753  1.00  0.00     0.014 A 
ATOM     35  C   UNL A   1      40.242  26.050  28.079  1.00  0.00     0.014 A 
ATOM     36  C   UNL A   1      42.387  27.656  28.857  1.00  0.00     0.010 A 
ATOM     37  C   UNL A   1      40.070  26.989  29.082  1.00  0.00     0.010 A 
ATOM     38  C   UNL A   1      41.141  27.794  29.493  1.00  0.00    -0.014 A 
BRANCH  38  39
ATOM     39  C   UNL A   1      40.931  28.753  30.607  1.00  0.00     0.031 A 
ATOM     40  C   UNL A   1      41.778  28.640  31.848  1.00  0.00     0.074 A 
ATOM     41  C   UNL A   1      39.937  29.661  30.539  1.00  0.00     0.049 A 
ATOM     42  N   UNL A   1      41.707  29.319  32.962  1.00  0.00    -0.248 NA
ATOM     43  C   UNL A   1      42.814  27.592  31.852  1.00  0.00     0.031 C 
ATOM     44  C   UNL A   1      39.006  29.821  29.419  1.00  0.00     0.029 A 
ATOM     45  N   UNL A   1      39.537  30.620  31.437  1.00  0.00    -0.354 N 
ATOM     46  C   UNL A   1      42.671  28.769  33.798  1.00  0.00     0.074 A 
ATOM     47  C   UNL A   1      43.254  27.648  33.098  1.00  0.00     0.031 C 
ATOM     48  C   UNL A   1      38.176  30.843  29.677  1.00  0.00     0.029 A 
ATOM     49  C   UNL A   1      38.481  31.383  30.998  1.00  0.00     0.049 A 
ATOM     50  H   UNL A   1      39.968  30.750  32.313  1.00  0.00     0.167 HD
ATOM     51  C   UNL A   1      43.063  29.182  35.025  1.00  0.00     0.037 A 
ATOM     52  C   UNL A   1      37.831  32.401  31.596  1.00  0.00     0.037 A 
ATOM     53  C   UNL A   1      42.497  30.320  35.699  1.00  0.00     0.049 A 
ATOM     54  C   UNL A   1      38.283  32.848  32.960  1.00  0.00     0.074 A 
ATOM     55  C   UNL A   1      42.861  30.868  36.914  1.00  0.00     0.029 A 
ATOM     56  N   UNL A   1      41.441  31.079  35.214  1.00  0.00    -0.354 N 
ATOM     57  N   UNL A   1      39.249  32.366  33.707  1.00  0.00    -0.248 NA
ATOM     58  C   UNL A   1      37.565  33.978  33.562  1.00  0.00     0.031 C 
ATOM     59  C   UNL A   1      41.989  31.926  37.190  1.00  0.00     0.029 A 
ATOM     60  C   UNL A   1      41.123  32.077  36.118  1.00  0.00     0.049 A 
ATOM     61  H   UNL A   1      40.987  30.931  34.353  1.00  0.00     0.167 HD
ATOM     62  C   UNL A   1      39.274  33.153  34.854  1.00  0.00     0.074 A 
ATOM     63  C   UNL A   1      38.233  34.149  34.695  1.00  0.00     0.031 C 
ATOM     64  C   UNL A   1      40.084  33.063  35.937  1.00  0.00     0.037 A 
BRANCH  51  65
ATOM     65  C   UNL A   1      44.153  28.399  35.707  1.00  0.00     0.058 A 
ATOM     66  C   UNL A   1      45.514  28.681  35.493  1.00  0.00     0.135 A 
ATOM     67  C   UNL A   1      43.836  27.355  36.590  1.00  0.00     0.135 A 
ATOM     68  F   UNL A   1      45.877  29.657  34.644  1.00  0.00    -0.206 F 
ATOM     69  C   UNL A   1      46.518  27.930  36.094  1.00  0.00     0.059 A 
ATOM     70  C   UNL A   1      44.824  26.614  37.231  1.00  0.00     0.059 A 
ATOM     71  F   UNL A   1      42.554  27.039  36.830  1.00  0.00    -0.206 F 
ATOM     72  C   UNL A   1      46.162  26.897  36.962  1.00  0.00     0.060 A 
BRANCH  72  73
ATOM     73  S   UNL A   1      47.478  25.929  37.729  1.00  0.00     0.124 S 
ATOM     74  O   UNL A   1      46.973  25.781  39.091  1.00  0.00    -0.237 OA
ATOM     75  O   UNL A   1      47.483  24.714  36.920  1.00  0.00    -0.237 OA
ATOM     76  O   UNL A   1      48.655  26.780  37.586  1.00  0.00    -0.744 OA
ENDBRANCH  72  73
ENDBRANCH  51  65
BRANCH  52  77
ATOM     77  C   UNL A   1      36.715  33.089  30.891  1.00  0.00     0.058 A 
ATOM     78  C   UNL A   1      35.379  32.836  31.238  1.00  0.00     0.135 A 
ATOM     79  C   UNL A   1      36.957  34.033  29.881  1.00  0.00     0.135 A 
ATOM     80  F   UNL A   1      35.092  31.937  32.192  1.00  0.00    -0.206 F 
ATOM     81  C   UNL A   1      34.323  33.484  30.603  1.00  0.00     0.059 A 
ATOM     82  C   UNL A   1      35.921  34.714  29.250  1.00  0.00     0.059 A 
ATOM     83  F   UNL A   1      38.218  34.324  29.522  1.00  0.00    -0.206 F 
ATOM     84  C   UNL A   1      34.605  34.427  29.613  1.00  0.00     0.060 A 
BRANCH  84  85
ATOM     85  S   UNL A   1      33.230  35.308  28.842  1.00  0.00     0.124 S 
ATOM     86  O   UNL A   1      33.931  36.310  28.047  1.00  0.00    -0.237 OA
ATOM     87  O   UNL A   1      32.571  34.243  28.091  1.00  0.00    -0.237 OA
ATOM     88  O   UNL A   1      32.476  35.819  29.983  1.00  0.00    -0.744 OA
ENDBRANCH  84  85
ENDBRANCH  52  77
BRANCH  64  89
ATOM     89  C   UNL A   1      39.906  34.086  37.024  1.00  0.00     0.058 A 
ATOM     90  C   UNL A   1      40.579  35.317  37.000  1.00  0.00     0.135 A 
ATOM     91  C   UNL A   1      38.999  33.855  38.071  1.00  0.00     0.135 A 
ATOM     92  F   UNL A   1      41.460  35.588  36.024  1.00  0.00    -0.206 F 
ATOM     93  C   UNL A   1      40.379  36.273  37.991  1.00  0.00     0.059 A 
ATOM     94  C   UNL A   1      38.759  34.809  39.054  1.00  0.00     0.059 A 
ATOM     95  F   UNL A   1      38.319  32.700  38.135  1.00  0.00    -0.206 F 
ATOM     96  C   UNL A   1      39.463  36.011  39.011  1.00  0.00     0.060 A 
BRANCH  96  97
ATOM     97  S   UNL A   1      39.187  37.275  40.269  1.00  0.00     0.124 S 
ATOM     98  O   UNL A   1      38.605  36.490  41.353  1.00  0.00    -0.237 OA
ATOM     99  O   UNL A   1      40.536  37.781  40.504  1.00  0.00    -0.237 OA
ATOM    100  O   UNL A   1      38.278  38.213  39.615  1.00  0.00    -0.744 OA
ENDBRANCH  96  97
ENDBRANCH  64  89
ENDBRANCH  38  39
ENDBRANCH  30  33
ENDBRANCH  28  29
ENDBRANCH   1  28
TORSDOF 18
ENDMDL
MODEL 2
REMARK VINA RESULT:     -11.5      4.968      6.483
REMARK SMILES CC[NH2+][C@]1(C(=O)NCCCCNC(=O)c2ccc(-c3c4nc(c(-c5c(F)cc(S(=O)(=O)[O-])cc5F)c5ccc([nH]5)c(-c5c(F)cc(S(=O)(=O)[O-])cc5F)c5nc(c(-c6c(F)cc(S(=O)(=O)[O-])cc6F)c6ccc3[nH]6)C=C5)C=C4)cc2)CCC[C@H]([N@@H+]2CCC[C@@H]2C(C)C)C1
REMARK SMILES IDX 10 1 9 2 8 3 7 4 5 5 6 6 4 8 81 9 93 10 82 11 84 12 83 13
REMARK SMILES IDX 3 14 2 17 1 18 85 19 86 20 89 21 87 23 88 24 90 25 91 26
REMARK SMILES IDX 92 27 11 28 12 29 13 30 14 32 15 33 16 34 80 35 17 36 79 37
REMARK SMILES IDX 18 38 19 39 20 40 73 41 21 42 78 43 72 44 74 45 22 46 77 47
REMARK SMILES IDX 71 48 70 49 23 51 57 52 36 53 56 54 37 55 40 56 55 57 75 58
REMARK SMILES IDX 38 59 39 60 54 62 76 63 41 64 24 65 25 66 34 67 26 68 27 69
REMARK SMILES IDX 33 70 35 71 28 72 29 73 30 74 31 75 32 76 58 77 59 78 68 79
REMARK SMILES IDX 60 80 61 81 67 82 69 83 62 84 63 85 64 86 65 87 66 88 42 89
REMARK SMILES IDX 43 90 52 91 44 92 45 93 51 94 53 95 46 96 47 97 48 98 49 99
REMARK SMILES IDX 50 100
REMARK H PARENT 7 7 3 15 3 16 85 22 12 31 74 50 40 61
REMARK Flexibility Score: inf
ROOT
ATOM      1  C   UNL A   1      35.205  22.681  26.657  1.00  0.00     0.023 C 
ENDROOT
BRANCH   1   2
ATOM      2  C   UNL A   1      34.008  23.604  26.497  1.00  0.00     0.023 C 
BRANCH   2   3
ATOM      3  C   UNL A   1      32.954  23.167  25.466  1.00  0.00     0.116 C 
BRANCH   3   4
ATOM      4  N   UNL A   1      33.369  23.306  24.049  1.00  0.00    -0.351 N 
ATOM      5  C   UNL A   1      33.458  24.285  23.080  1.00  0.00     0.281 C 
ATOM      6  O   UNL A   1      34.023  23.944  22.030  1.00  0.00    -0.268 OA
ATOM      7  H   UNL A   1      33.672  22.440  23.692  1.00  0.00     0.163 HD
BRANCH   5   8
ATOM      8  C   UNL A   1      32.837  25.739  23.185  1.00  0.00     0.181 C 
ATOM      9  C   UNL A   1      33.856  26.539  24.179  1.00  0.00     0.079 C 
ATOM     10  C   UNL A   1      33.049  26.666  21.969  1.00  0.00     0.144 C 
ATOM     11  C   UNL A   1      34.157  28.067  24.212  1.00  0.00     0.013 C 
ATOM     12  C   UNL A   1      32.599  28.123  22.376  1.00  0.00     0.191 C 
ATOM     13  C   UNL A   1      33.835  28.791  22.942  1.00  0.00     0.065 C 
BRANCH   8  14
ATOM     14  N   UNL A   1      31.353  25.603  22.832  1.00  0.00    -0.334 N 
ATOM     15  H   UNL A   1      31.101  26.557  22.574  1.00  0.00     0.347 HD
ATOM     16  H   UNL A   1      31.481  24.745  22.297  1.00  0.00     0.347 HD
BRANCH  14  17
ATOM     17  C   UNL A   1      30.156  25.135  23.501  1.00  0.00     0.257 C 
ATOM     18  C   UNL A   1      30.156  25.516  25.002  1.00  0.00     0.071 C 
ENDBRANCH  14  17
ENDBRANCH   8  14
BRANCH  12  19
ATOM     19  N   UNL A   1      31.391  28.385  23.216  1.00  0.00    -0.330 N 
ATOM     20  C   UNL A   1      30.195  28.519  22.376  1.00  0.00     0.262 C 
ATOM     21  C   UNL A   1      31.100  29.070  24.545  1.00  0.00     0.187 C 
ATOM     22  H   UNL A   1      31.802  27.626  23.760  1.00  0.00     0.348 HD
ATOM     23  C   UNL A   1      29.679  29.896  22.682  1.00  0.00     0.067 C 
ATOM     24  C   UNL A   1      30.047  30.124  24.122  1.00  0.00     0.071 C 
BRANCH  21  25
ATOM     25  C   UNL A   1      31.904  29.765  25.789  1.00  0.00     0.041 C 
ATOM     26  C   UNL A   1      31.402  31.190  26.145  1.00  0.00     0.014 C 
ATOM     27  C   UNL A   1      32.002  29.202  27.215  1.00  0.00     0.014 C 
ENDBRANCH  21  25
ENDBRANCH  12  19
ENDBRANCH   5   8
ENDBRANCH   3   4
ENDBRANCH   2   3
ENDBRANCH   1   2
BRANCH   1  28
ATOM     28  C   UNL A   1      36.456  23.120  25.905  1.00  0.00     0.116 C 
BRANCH  28  29
ATOM     29  N   UNL A   1      37.612  22.235  26.047  1.00  0.00    -0.352 N 
ATOM     30  C   UNL A   1      38.891  22.559  26.459  1.00  0.00     0.251 C 
ATOM     31  H   UNL A   1      37.461  21.290  25.821  1.00  0.00     0.163 HD
ATOM     32  O   UNL A   1      39.784  21.714  26.470  1.00  0.00    -0.269 OA
BRANCH  30  33
ATOM     33  C   UNL A   1      39.175  23.956  26.845  1.00  0.00     0.039 A 
ATOM     34  C   UNL A   1      39.015  24.352  28.175  1.00  0.00     0.014 A 
ATOM     35  C   UNL A   1      39.738  24.824  25.909  1.00  0.00     0.014 A 
ATOM     36  C   UNL A   1      39.524  25.586  28.585  1.00  0.00     0.010 A 
ATOM     37  C   UNL A   1      40.364  25.978  26.347  1.00  0.00     0.010 A 
ATOM     38  C   UNL A   1      40.255  26.381  27.686  1.00  0.00    -0.014 A 
BRANCH  38  39
ATOM     39  C   UNL A   1      40.896  27.653  28.107  1.00  0.00     0.031 A 
ATOM     40  C   UNL A   1      42.393  27.793  28.005  1.00  0.00     0.074 A 
ATOM     41  C   UNL A   1      40.153  28.637  28.651  1.00  0.00     0.049 A 
ATOM     42  N   UNL A   1      43.158  28.781  28.388  1.00  0.00    -0.248 NA
ATOM     43  C   UNL A   1      43.130  26.652  27.436  1.00  0.00     0.031 C 
ATOM     44  C   UNL A   1      38.704  28.589  28.866  1.00  0.00     0.029 A 
ATOM     45  N   UNL A   1      40.514  29.872  29.130  1.00  0.00    -0.354 N 
ATOM     46  C   UNL A   1      44.459  28.371  28.124  1.00  0.00     0.074 A 
ATOM     47  C   UNL A   1      44.387  27.016  27.630  1.00  0.00     0.031 C 
ATOM     48  C   UNL A   1      38.296  29.755  29.391  1.00  0.00     0.029 A 
ATOM     49  C   UNL A   1      39.457  30.617  29.595  1.00  0.00     0.049 A 
ATOM     50  H   UNL A   1      41.445  30.194  29.139  1.00  0.00     0.167 HD
ATOM     51  C   UNL A   1      45.609  29.072  28.248  1.00  0.00     0.037 A 
ATOM     52  C   UNL A   1      39.427  31.855  30.128  1.00  0.00     0.037 A 
ATOM     53  C   UNL A   1      45.665  30.432  28.712  1.00  0.00     0.049 A 
ATOM     54  C   UNL A   1      40.717  32.619  30.255  1.00  0.00     0.074 A 
ATOM     55  C   UNL A   1      46.766  31.261  28.814  1.00  0.00     0.029 A 
ATOM     56  N   UNL A   1      44.570  31.159  29.156  1.00  0.00    -0.354 N 
ATOM     57  N   UNL A   1      41.933  32.246  29.929  1.00  0.00    -0.248 NA
ATOM     58  C   UNL A   1      40.635  33.975  30.815  1.00  0.00     0.031 C 
ATOM     59  C   UNL A   1      46.345  32.472  29.373  1.00  0.00     0.029 A 
ATOM     60  C   UNL A   1      44.973  32.421  29.559  1.00  0.00     0.049 A 
ATOM     61  H   UNL A   1      43.642  30.828  29.179  1.00  0.00     0.167 HD
ATOM     62  C   UNL A   1      42.755  33.330  30.216  1.00  0.00     0.074 A 
ATOM     63  C   UNL A   1      41.895  34.377  30.731  1.00  0.00     0.031 C 
ATOM     64  C   UNL A   1      44.098  33.451  30.066  1.00  0.00     0.037 A 
BRANCH  51  65
ATOM     65  C   UNL A   1      46.891  28.376  27.873  1.00  0.00     0.058 A 
ATOM     66  C   UNL A   1      47.632  27.633  28.808  1.00  0.00     0.135 A 
ATOM     67  C   UNL A   1      47.384  28.449  26.561  1.00  0.00     0.135 A 
ATOM     68  F   UNL A   1      47.219  27.543  30.083  1.00  0.00    -0.206 F 
ATOM     69  C   UNL A   1      48.836  27.025  28.466  1.00  0.00     0.059 A 
ATOM     70  C   UNL A   1      48.568  27.818  26.188  1.00  0.00     0.059 A 
ATOM     71  F   UNL A   1      46.720  29.148  25.627  1.00  0.00    -0.206 F 
ATOM     72  C   UNL A   1      49.296  27.124  27.153  1.00  0.00     0.060 A 
BRANCH  72  73
ATOM     73  S   UNL A   1      50.862  26.335  26.729  1.00  0.00     0.124 S 
ATOM     74  O   UNL A   1      50.658  24.986  27.252  1.00  0.00    -0.237 OA
ATOM     75  O   UNL A   1      50.887  26.453  25.276  1.00  0.00    -0.237 OA
ATOM     76  O   UNL A   1      51.852  27.138  27.440  1.00  0.00    -0.744 OA
ENDBRANCH  72  73
ENDBRANCH  51  65
BRANCH  52  77
ATOM     77  C   UNL A   1      38.130  32.457  30.541  1.00  0.00     0.058 A 
ATOM     78  C   UNL A   1      37.650  32.305  31.850  1.00  0.00     0.135 A 
ATOM     79  C   UNL A   1      37.361  33.221  29.650  1.00  0.00     0.135 A 
ATOM     80  F   UNL A   1      38.344  31.579  32.739  1.00  0.00    -0.206 F 
ATOM     81  C   UNL A   1      36.449  32.878  32.260  1.00  0.00     0.059 A 
ATOM     82  C   UNL A   1      36.171  33.826  30.042  1.00  0.00     0.059 A 
ATOM     83  F   UNL A   1      37.783  33.412  28.390  1.00  0.00    -0.206 F 
ATOM     84  C   UNL A   1      35.719  33.643  31.349  1.00  0.00     0.060 A 
BRANCH  84  85
ATOM     85  S   UNL A   1      34.195  34.434  31.910  1.00  0.00     0.124 S 
ATOM     86  O   UNL A   1      33.677  33.442  32.846  1.00  0.00    -0.237 OA
ATOM     87  O   UNL A   1      34.695  35.671  32.501  1.00  0.00    -0.237 OA
ATOM     88  O   UNL A   1      33.430  34.600  30.678  1.00  0.00    -0.744 OA
ENDBRANCH  84  85
ENDBRANCH  52  77
BRANCH  64  89
ATOM     89  C   UNL A   1      44.721  34.770  30.428  1.00  0.00     0.058 A 
ATOM     90  C   UNL A   1      45.249  35.014  31.705  1.00  0.00     0.135 A 
ATOM     91  C   UNL A   1      44.845  35.782  29.463  1.00  0.00     0.135 A 
ATOM     92  F   UNL A   1      45.153  34.082  32.667  1.00  0.00    -0.206 F 
ATOM     93  C   UNL A   1      45.857  36.226  32.019  1.00  0.00     0.059 A 
ATOM     94  C   UNL A   1      45.477  36.988  29.744  1.00  0.00     0.059 A 
ATOM     95  F   UNL A   1      44.368  35.596  28.221  1.00  0.00    -0.206 F 
ATOM     96  C   UNL A   1      45.970  37.204  31.030  1.00  0.00     0.060 A 
BRANCH  96  97
ATOM     97  S   UNL A   1      46.794  38.756  31.442  1.00  0.00     0.124 S 
ATOM     98  O   UNL A   1      46.212  39.062  32.745  1.00  0.00    -0.237 OA
ATOM     99  O   UNL A   1      48.201  38.369  31.449  1.00  0.00    -0.237 OA
ATOM    100  O   UNL A   1      46.402  39.649  30.355  1.00  0.00    -0.744 OA
ENDBRANCH  96  97
ENDBRANCH  64  89
ENDBRANCH  38  39
ENDBRANCH  30  33
ENDBRANCH  28  29
ENDBRANCH   1  28
TORSDOF 18
ENDMDL
MODEL 3
REMARK VINA RESULT:     -11.5      0.949      2.099
REMARK SMILES CC[NH2+][C@]1(C(=O)NCCCCNC(=O)c2ccc(-c3c4nc(c(-c5c(F)cc(S(=O)(=O)[O-])cc5F)c5ccc([nH]5)c(-c5c(F)cc(S(=O)(=O)[O-])cc5F)c5nc(c(-c6c(F)cc(S(=O)(=O)[O-])cc6F)c6ccc3[nH]6)C=C5)C=C4)cc2)CCC[C@H]([N@@H+]2CCC[C@@H]2C(C)C)C1
REMARK SMILES IDX 10 1 9 2 8 3 7 4 5 5 6 6 4 8 81 9 93 10 82 11 84 12 83 13
REMARK SMILES IDX 3 14 2 17 1 18 85 19 86 20 89 21 87 23 88 24 90 25 91 26
REMARK SMILES IDX 92 27 11 28 12 29 13 30 14 32 15 33 16 34 80 35 17 36 79 37
REMARK SMILES IDX 18 38 19 39 20 40 73 41 21 42 78 43 72 44 74 45 22 46 77 47
REMARK SMILES IDX 71 48 70 49 23 51 57 52 36 53 56 54 37 55 40 56 55 57 75 58
REMARK SMILES IDX 38 59 39 60 54 62 76 63 41 64 24 65 25 66 34 67 26 68 27 69
REMARK SMILES IDX 33 70 35 71 28 72 29 73 30 74 31 75 32 76 58 77 59 78 68 79
REMARK SMILES IDX 60 80 61 81 67 82 69 83 62 84 63 85 64 86 65 87 66 88 42 89
REMARK SMILES IDX 43 90 52 91 44 92 45 93 51 94 53 95 46 96 47 97 48 98 49 99
REMARK SMILES IDX 50 100
REMARK H PARENT 7 7 3 15 3 16 85 22 12 31 74 50 40 61
REMARK Flexibility Score: inf
ROOT
ATOM      1  C   UNL A   1      40.029  21.879  27.118  1.00  0.00     0.023 C 
ENDROOT
BRANCH   1   2
ATOM      2  C   UNL A   1      39.328  21.835  25.769  1.00  0.00     0.023 C 
BRANCH   2   3
ATOM      3  C   UNL A   1      37.874  22.334  25.749  1.00  0.00     0.116 C 
BRANCH   3   4
ATOM      4  N   UNL A   1      36.866  21.306  25.392  1.00  0.00    -0.351 N 
ATOM      5  C   UNL A   1      35.563  21.237  24.938  1.00  0.00     0.281 C 
ATOM      6  O   UNL A   1      35.166  20.102  24.636  1.00  0.00    -0.268 OA
ATOM      7  H   UNL A   1      37.235  20.402  25.517  1.00  0.00     0.163 HD
BRANCH   5   8
ATOM      8  C   UNL A   1      34.554  22.456  24.856  1.00  0.00     0.181 C 
ATOM      9  C   UNL A   1      34.743  23.031  23.339  1.00  0.00     0.079 C 
ATOM     10  C   UNL A   1      33.060  22.101  24.701  1.00  0.00     0.144 C 
ATOM     11  C   UNL A   1      33.693  23.774  22.461  1.00  0.00     0.013 C 
ATOM     12  C   UNL A   1      32.271  23.428  24.373  1.00  0.00     0.191 C 
ATOM     13  C   UNL A   1      32.270  23.542  22.863  1.00  0.00     0.065 C 
BRANCH   8  14
ATOM     14  N   UNL A   1      34.305  22.910  26.297  1.00  0.00    -0.334 N 
ATOM     15  H   UNL A   1      34.984  23.662  26.410  1.00  0.00     0.347 HD
ATOM     16  H   UNL A   1      33.289  22.892  26.207  1.00  0.00     0.347 HD
BRANCH  14  17
ATOM     17  C   UNL A   1      34.308  22.289  27.606  1.00  0.00     0.257 C 
ATOM     18  C   UNL A   1      32.892  22.277  28.234  1.00  0.00     0.071 C 
ENDBRANCH  14  17
ENDBRANCH   8  14
BRANCH  12  19
ATOM     19  N   UNL A   1      32.585  24.732  25.029  1.00  0.00    -0.330 N 
ATOM     20  C   UNL A   1      31.828  24.880  26.278  1.00  0.00     0.262 C 
ATOM     21  C   UNL A   1      32.995  26.127  24.572  1.00  0.00     0.187 C 
ATOM     22  H   UNL A   1      33.535  24.437  24.798  1.00  0.00     0.348 HD
ATOM     23  C   UNL A   1      31.018  26.128  26.076  1.00  0.00     0.067 C 
ATOM     24  C   UNL A   1      31.876  26.996  25.197  1.00  0.00     0.071 C 
BRANCH  21  25
ATOM     25  C   UNL A   1      33.411  26.913  23.199  1.00  0.00     0.041 C 
ATOM     26  C   UNL A   1      32.214  27.212  22.258  1.00  0.00     0.014 C 
ATOM     27  C   UNL A   1      34.097  28.285  23.128  1.00  0.00     0.014 C 
ENDBRANCH  21  25
ENDBRANCH  12  19
ENDBRANCH   5   8
ENDBRANCH   3   4
ENDBRANCH   2   3
ENDBRANCH   1   2
BRANCH   1  28
ATOM     28  C   UNL A   1      40.989  23.048  27.302  1.00  0.00     0.116 C 
BRANCH  28  29
ATOM     29  N   UNL A   1      41.100  23.951  26.155  1.00  0.00    -0.352 N 
ATOM     30  C   UNL A   1      41.172  25.330  26.156  1.00  0.00     0.251 C 
ATOM     31  H   UNL A   1      41.126  23.520  25.270  1.00  0.00     0.163 HD
ATOM     32  O   UNL A   1      41.198  25.962  25.101  1.00  0.00    -0.269 OA
BRANCH  30  33
ATOM     33  C   UNL A   1      41.171  26.035  27.454  1.00  0.00     0.039 A 
ATOM     34  C   UNL A   1      42.226  26.892  27.776  1.00  0.00     0.014 A 
ATOM     35  C   UNL A   1      40.048  25.951  28.277  1.00  0.00     0.014 A 
ATOM     36  C   UNL A   1      42.100  27.745  28.874  1.00  0.00     0.010 A 
ATOM     37  C   UNL A   1      39.868  26.894  29.275  1.00  0.00     0.010 A 
ATOM     38  C   UNL A   1      40.895  27.794  29.595  1.00  0.00    -0.014 A 
BRANCH  38  39
ATOM     39  C   UNL A   1      40.684  28.756  30.706  1.00  0.00     0.031 A 
ATOM     40  C   UNL A   1      41.510  28.629  31.959  1.00  0.00     0.074 A 
ATOM     41  C   UNL A   1      39.706  29.680  30.624  1.00  0.00     0.049 A 
ATOM     42  N   UNL A   1      41.434  29.310  33.072  1.00  0.00    -0.248 NA
ATOM     43  C   UNL A   1      42.530  27.565  31.978  1.00  0.00     0.031 C 
ATOM     44  C   UNL A   1      38.794  29.854  29.490  1.00  0.00     0.029 A 
ATOM     45  N   UNL A   1      39.308  30.646  31.515  1.00  0.00    -0.354 N 
ATOM     46  C   UNL A   1      42.377  28.745  33.922  1.00  0.00     0.074 A 
ATOM     47  C   UNL A   1      42.952  27.615  33.231  1.00  0.00     0.031 C 
ATOM     48  C   UNL A   1      37.976  30.891  29.735  1.00  0.00     0.029 A 
ATOM     49  C   UNL A   1      38.271  31.425  31.061  1.00  0.00     0.049 A 
ATOM     50  H   UNL A   1      39.728  30.769  32.397  1.00  0.00     0.167 HD
ATOM     51  C   UNL A   1      42.757  29.152  35.155  1.00  0.00     0.037 A 
ATOM     52  C   UNL A   1      37.629  32.454  31.649  1.00  0.00     0.037 A 
ATOM     53  C   UNL A   1      42.200  30.299  35.820  1.00  0.00     0.049 A 
ATOM     54  C   UNL A   1      38.068  32.894  33.020  1.00  0.00     0.074 A 
ATOM     55  C   UNL A   1      42.555  30.842  37.041  1.00  0.00     0.029 A 
ATOM     56  N   UNL A   1      41.164  31.075  35.320  1.00  0.00    -0.354 N 
ATOM     57  N   UNL A   1      39.015  32.396  33.781  1.00  0.00    -0.248 NA
ATOM     58  C   UNL A   1      37.359  34.036  33.611  1.00  0.00     0.031 C 
ATOM     59  C   UNL A   1      41.696  31.914  37.304  1.00  0.00     0.029 A 
ATOM     60  C   UNL A   1      40.849  32.078  36.220  1.00  0.00     0.049 A 
ATOM     61  H   UNL A   1      40.720  30.934  34.452  1.00  0.00     0.167 HD
ATOM     62  C   UNL A   1      39.036  33.183  34.928  1.00  0.00     0.074 A 
ATOM     63  C   UNL A   1      38.014  34.197  34.753  1.00  0.00     0.031 C 
ATOM     64  C   UNL A   1      39.828  33.080  36.023  1.00  0.00     0.037 A 
BRANCH  51  65
ATOM     65  C   UNL A   1      43.825  28.352  35.853  1.00  0.00     0.058 A 
ATOM     66  C   UNL A   1      43.509  27.293  36.722  1.00  0.00     0.135 A 
ATOM     67  C   UNL A   1      45.183  28.643  35.648  1.00  0.00     0.135 A 
ATOM     68  F   UNL A   1      42.226  26.981  36.970  1.00  0.00    -0.206 F 
ATOM     69  C   UNL A   1      44.497  26.582  37.394  1.00  0.00     0.059 A 
ATOM     70  C   UNL A   1      46.189  27.921  36.282  1.00  0.00     0.059 A 
ATOM     71  F   UNL A   1      45.543  29.646  34.832  1.00  0.00    -0.206 F 
ATOM     72  C   UNL A   1      45.835  26.905  37.168  1.00  0.00     0.060 A 
BRANCH  72  73
ATOM     73  S   UNL A   1      47.104  25.976  38.054  1.00  0.00     0.124 S 
ATOM     74  O   UNL A   1      47.979  27.049  38.518  1.00  0.00    -0.237 OA
ATOM     75  O   UNL A   1      46.329  25.298  39.088  1.00  0.00    -0.237 OA
ATOM     76  O   UNL A   1      47.670  25.107  37.026  1.00  0.00    -0.744 OA
ENDBRANCH  72  73
ENDBRANCH  51  65
BRANCH  52  77
ATOM     77  C   UNL A   1      36.534  33.159  30.928  1.00  0.00     0.058 A 
ATOM     78  C   UNL A   1      35.199  33.024  31.335  1.00  0.00     0.135 A 
ATOM     79  C   UNL A   1      36.800  34.005  29.840  1.00  0.00     0.135 A 
ATOM     80  F   UNL A   1      34.890  32.223  32.366  1.00  0.00    -0.206 F 
ATOM     81  C   UNL A   1      34.164  33.692  30.685  1.00  0.00     0.059 A 
ATOM     82  C   UNL A   1      35.787  34.704  29.190  1.00  0.00     0.059 A 
ATOM     83  F   UNL A   1      38.063  34.183  29.420  1.00  0.00    -0.206 F 
ATOM     84  C   UNL A   1      34.471  34.535  29.616  1.00  0.00     0.060 A 
BRANCH  84  85
ATOM     85  S   UNL A   1      33.127  35.445  28.821  1.00  0.00     0.124 S 
ATOM     86  O   UNL A   1      33.862  36.454  28.066  1.00  0.00    -0.237 OA
ATOM     87  O   UNL A   1      32.480  34.402  28.032  1.00  0.00    -0.237 OA
ATOM     88  O   UNL A   1      32.347  35.944  29.949  1.00  0.00    -0.744 OA
ENDBRANCH  84  85
ENDBRANCH  52  77
BRANCH  64  89
ATOM     89  C   UNL A   1      39.651  34.107  37.107  1.00  0.00     0.058 A 
ATOM     90  C   UNL A   1      38.928  33.832  38.278  1.00  0.00     0.135 A 
ATOM     91  C   UNL A   1      40.267  35.365  36.997  1.00  0.00     0.135 A 
ATOM     92  F   UNL A   1      38.315  32.647  38.432  1.00  0.00    -0.206 F 
ATOM     93  C   UNL A   1      38.801  34.777  39.291  1.00  0.00     0.059 A 
ATOM     94  C   UNL A   1      40.181  36.312  38.011  1.00  0.00     0.059 A 
ATOM     95  F   UNL A   1      40.982  35.675  35.904  1.00  0.00    -0.206 F 
ATOM     96  C   UNL A   1      39.435  36.012  39.150  1.00  0.00     0.060 A 
BRANCH  96  97
ATOM     97  S   UNL A   1      39.292  37.214  40.489  1.00  0.00     0.124 S 
ATOM     98  O   UNL A   1      38.816  36.377  41.586  1.00  0.00    -0.237 OA
ATOM     99  O   UNL A   1      40.660  37.706  40.613  1.00  0.00    -0.237 OA
ATOM    100  O   UNL A   1      38.328  38.183  39.975  1.00  0.00    -0.744 OA
ENDBRANCH  96  97
ENDBRANCH  64  89
ENDBRANCH  38  39
ENDBRANCH  30  33
ENDBRANCH  28  29
ENDBRANCH   1  28
TORSDOF 18
ENDMDL
