MODEL 1
REMARK VINA RESULT:     -12.8      0.000      0.000
REMARK SMILES O=C(CSc1nnc(Cc2ccncc2)n1-c1ccccc1Cl)NCCCCNC(=O)c1ccc(-c2c3nc(c(-c4c(F)cc(S(=O)(=O)[O-])cc4F)c4ccc([nH]4)c(-c4c(F)cc(S(=O)(=O)[O-])cc4F)c4nc(c(-c5c(F)cc(S(=O)(=O)[O-])cc5F)c5ccc2[nH]5)C=C4)C=C3)cc1
REMARK SMILES IDX 26 1 25 2 24 3 1 4 2 5 3 7 4 8 5 9 6 10 16 11 7 12 8 13
REMARK SMILES IDX 17 14 18 15 22 16 19 17 21 18 23 19 20 20 9 21 10 22 11 23
REMARK SMILES IDX 15 24 12 25 14 26 13 27 27 28 28 29 29 30 30 31 31 33 32 34
REMARK SMILES IDX 33 35 97 36 34 37 96 38 35 39 36 40 37 41 90 42 38 43 95 44
REMARK SMILES IDX 89 45 91 46 39 47 94 48 88 49 87 50 40 52 74 53 53 54 73 55
REMARK SMILES IDX 54 56 57 57 72 58 92 59 55 60 56 61 71 63 93 64 58 65 41 66
REMARK SMILES IDX 42 67 51 68 43 69 44 70 50 71 52 72 45 73 46 74 47 75 48 76
REMARK SMILES IDX 49 77 75 78 76 79 85 80 77 81 78 82 84 83 86 84 79 85 80 86
REMARK SMILES IDX 81 87 82 88 83 89 59 90 60 91 69 92 61 93 62 94 68 95 70 96
REMARK SMILES IDX 63 97 64 98 65 99 66 100 67 101
REMARK H PARENT 24 6 29 32 91 51 57 62
REMARK Flexibility Score: inf
ROOT
ATOM      1  C   UNL A   1      35.794  20.807  24.994  1.00  0.00     0.023 C 
ENDROOT
BRANCH   1   2
ATOM      2  C   UNL A   1      34.345  21.328  24.974  1.00  0.00     0.116 C 
BRANCH   2   3
ATOM      3  N   UNL A   1      34.070  22.337  23.956  1.00  0.00    -0.355 N 
ATOM      4  O   UNL A   1      33.318  23.892  25.460  1.00  0.00    -0.274 OA
ATOM      5  C   UNL A   1      33.590  23.594  24.297  1.00  0.00     0.230 C 
ATOM      6  H   UNL A   1      34.230  22.123  23.008  1.00  0.00     0.163 HD
BRANCH   5   7
ATOM      7  C   UNL A   1      33.257  24.546  23.161  1.00  0.00     0.178 C 
BRANCH   7   8
ATOM      8  S   UNL A   1      33.581  26.275  23.453  1.00  0.00    -0.076 SA
BRANCH   8   9
ATOM      9  C   UNL A   1      32.150  27.136  22.960  1.00  0.00     0.196 A 
ATOM     10  N   UNL A   1      31.389  26.895  21.921  1.00  0.00    -0.123 NA
ATOM     11  N   UNL A   1      31.603  28.157  23.710  1.00  0.00    -0.272 N 
ATOM     12  N   UNL A   1      30.311  27.763  21.977  1.00  0.00    -0.134 NA
ATOM     13  C   UNL A   1      30.423  28.520  23.059  1.00  0.00     0.142 A 
BRANCH  11  14
ATOM     14  C   UNL A   1      31.949  28.406  25.045  1.00  0.00     0.068 A 
ATOM     15  C   UNL A   1      32.796  29.499  25.268  1.00  0.00     0.028 A 
ATOM     16  C   UNL A   1      31.437  27.630  26.104  1.00  0.00     0.065 A 
ATOM     17  C   UNL A   1      33.222  29.741  26.547  1.00  0.00     0.002 A 
ATOM     18  C   UNL A   1      31.848  27.909  27.389  1.00  0.00     0.023 A 
ATOM     19  Cl  UNL A   1      30.454  26.224  25.929  1.00  0.00    -0.082 Cl
ATOM     20  C   UNL A   1      32.769  28.917  27.578  1.00  0.00     0.002 A 
ENDBRANCH  11  14
BRANCH  13  21
ATOM     21  C   UNL A   1      29.368  29.468  23.597  1.00  0.00     0.113 C 
BRANCH  21  22
ATOM     22  C   UNL A   1      28.950  30.678  22.785  1.00  0.00    -0.037 A 
ATOM     23  C   UNL A   1      28.524  30.607  21.461  1.00  0.00     0.024 A 
ATOM     24  C   UNL A   1      28.912  31.944  23.407  1.00  0.00     0.024 A 
ATOM     25  C   UNL A   1      28.110  31.775  20.826  1.00  0.00     0.111 A 
ATOM     26  C   UNL A   1      28.486  33.054  22.689  1.00  0.00     0.111 A 
ATOM     27  N   UNL A   1      28.053  32.990  21.421  1.00  0.00    -0.265 NA
ENDBRANCH  21  22
ENDBRANCH  13  21
ENDBRANCH   8   9
ENDBRANCH   7   8
ENDBRANCH   5   7
ENDBRANCH   2   3
ENDBRANCH   1   2
BRANCH   1  28
ATOM     28  C   UNL A   1      36.865  21.679  24.316  1.00  0.00     0.023 C 
BRANCH  28  29
ATOM     29  C   UNL A   1      37.675  22.587  25.246  1.00  0.00     0.116 C 
BRANCH  29  30
ATOM     30  N   UNL A   1      38.571  21.887  26.191  1.00  0.00    -0.352 N 
ATOM     31  C   UNL A   1      39.635  22.395  26.956  1.00  0.00     0.251 C 
ATOM     32  H   UNL A   1      38.396  20.925  26.299  1.00  0.00     0.163 HD
ATOM     33  O   UNL A   1      40.489  21.652  27.407  1.00  0.00    -0.269 OA
BRANCH  31  34
ATOM     34  C   UNL A   1      39.677  23.848  27.270  1.00  0.00     0.039 A 
ATOM     35  C   UNL A   1      38.589  24.717  27.475  1.00  0.00     0.014 A 
ATOM     36  C   UNL A   1      40.933  24.361  27.381  1.00  0.00     0.014 A 
ATOM     37  C   UNL A   1      38.826  26.058  27.895  1.00  0.00     0.010 A 
ATOM     38  C   UNL A   1      41.038  25.416  28.227  1.00  0.00     0.010 A 
ATOM     39  C   UNL A   1      40.116  26.431  28.258  1.00  0.00    -0.014 A 
BRANCH  39  40
ATOM     40  C   UNL A   1      40.594  27.650  28.938  1.00  0.00     0.031 A 
ATOM     41  C   UNL A   1      41.731  28.335  28.268  1.00  0.00     0.074 A 
ATOM     42  C   UNL A   1      39.862  28.353  29.856  1.00  0.00     0.049 A 
ATOM     43  N   UNL A   1      42.955  28.342  28.673  1.00  0.00    -0.248 NA
ATOM     44  C   UNL A   1      41.546  28.976  26.955  1.00  0.00     0.031 C 
ATOM     45  C   UNL A   1      38.537  28.046  30.415  1.00  0.00     0.029 A 
ATOM     46  N   UNL A   1      40.102  29.594  30.396  1.00  0.00    -0.354 N 
ATOM     47  C   UNL A   1      43.637  29.199  27.819  1.00  0.00     0.074 A 
ATOM     48  C   UNL A   1      42.793  29.360  26.666  1.00  0.00     0.031 C 
ATOM     49  C   UNL A   1      38.013  29.145  31.018  1.00  0.00     0.029 A 
ATOM     50  C   UNL A   1      39.017  30.198  31.053  1.00  0.00     0.049 A 
ATOM     51  H   UNL A   1      40.981  30.032  30.326  1.00  0.00     0.167 HD
ATOM     52  C   UNL A   1      44.719  29.909  28.248  1.00  0.00     0.037 A 
ATOM     53  C   UNL A   1      38.963  31.447  31.619  1.00  0.00     0.037 A 
ATOM     54  C   UNL A   1      45.116  29.488  29.574  1.00  0.00     0.049 A 
ATOM     55  C   UNL A   1      40.365  31.818  31.926  1.00  0.00     0.074 A 
ATOM     56  C   UNL A   1      45.447  28.270  30.143  1.00  0.00     0.029 A 
ATOM     57  N   UNL A   1      44.783  30.306  30.630  1.00  0.00    -0.354 N 
ATOM     58  N   UNL A   1      41.091  31.179  32.802  1.00  0.00    -0.248 NA
ATOM     59  C   UNL A   1      41.105  32.548  30.908  1.00  0.00     0.031 C 
ATOM     60  C   UNL A   1      44.787  28.269  31.408  1.00  0.00     0.029 A 
ATOM     61  C   UNL A   1      44.186  29.515  31.580  1.00  0.00     0.049 A 
ATOM     62  H   UNL A   1      44.942  31.276  30.690  1.00  0.00     0.167 HD
ATOM     63  C   UNL A   1      42.327  31.039  32.192  1.00  0.00     0.074 A 
ATOM     64  C   UNL A   1      42.303  31.976  31.064  1.00  0.00     0.031 C 
ATOM     65  C   UNL A   1      43.133  29.969  32.460  1.00  0.00     0.037 A 
BRANCH  52  66
ATOM     66  C   UNL A   1      45.211  31.206  27.657  1.00  0.00     0.058 A 
ATOM     67  C   UNL A   1      46.543  31.279  27.199  1.00  0.00     0.135 A 
ATOM     68  C   UNL A   1      44.529  32.438  27.749  1.00  0.00     0.135 A 
ATOM     69  F   UNL A   1      47.286  30.166  27.081  1.00  0.00    -0.206 F 
ATOM     70  C   UNL A   1      47.173  32.490  26.918  1.00  0.00     0.059 A 
ATOM     71  C   UNL A   1      45.119  33.654  27.416  1.00  0.00     0.059 A 
ATOM     72  F   UNL A   1      43.294  32.535  28.256  1.00  0.00    -0.206 F 
ATOM     73  C   UNL A   1      46.454  33.674  27.041  1.00  0.00     0.060 A 
BRANCH  73  74
ATOM     74  S   UNL A   1      47.296  35.242  26.767  1.00  0.00     0.124 S 
ATOM     75  O   UNL A   1      47.817  35.058  25.418  1.00  0.00    -0.237 OA
ATOM     76  O   UNL A   1      46.204  36.198  26.909  1.00  0.00    -0.237 OA
ATOM     77  O   UNL A   1      48.294  35.275  27.833  1.00  0.00    -0.744 OA
ENDBRANCH  73  74
ENDBRANCH  52  66
BRANCH  53  78
ATOM     78  C   UNL A   1      37.875  32.485  31.572  1.00  0.00     0.058 A 
ATOM     79  C   UNL A   1      37.324  33.035  30.396  1.00  0.00     0.135 A 
ATOM     80  C   UNL A   1      37.149  32.761  32.733  1.00  0.00     0.135 A 
ATOM     81  F   UNL A   1      37.933  32.831  29.218  1.00  0.00    -0.206 F 
ATOM     82  C   UNL A   1      36.124  33.787  30.388  1.00  0.00     0.059 A 
ATOM     83  C   UNL A   1      35.944  33.466  32.754  1.00  0.00     0.059 A 
ATOM     84  F   UNL A   1      37.623  32.340  33.903  1.00  0.00    -0.206 F 
ATOM     85  C   UNL A   1      35.423  33.976  31.577  1.00  0.00     0.060 A 
BRANCH  85  86
ATOM     86  S   UNL A   1      33.835  34.857  31.620  1.00  0.00     0.124 S 
ATOM     87  O   UNL A   1      33.272  34.606  30.299  1.00  0.00    -0.237 OA
ATOM     88  O   UNL A   1      33.155  34.203  32.732  1.00  0.00    -0.237 OA
ATOM     89  O   UNL A   1      34.228  36.244  31.863  1.00  0.00    -0.744 OA
ENDBRANCH  85  86
ENDBRANCH  53  78
BRANCH  65  90
ATOM     90  C   UNL A   1      42.772  29.064  33.615  1.00  0.00     0.058 A 
ATOM     91  C   UNL A   1      41.947  27.929  33.517  1.00  0.00     0.135 A 
ATOM     92  C   UNL A   1      43.426  29.261  34.839  1.00  0.00     0.135 A 
ATOM     93  F   UNL A   1      41.358  27.601  32.362  1.00  0.00    -0.206 F 
ATOM     94  C   UNL A   1      41.753  27.052  34.584  1.00  0.00     0.059 A 
ATOM     95  C   UNL A   1      43.271  28.386  35.912  1.00  0.00     0.059 A 
ATOM     96  F   UNL A   1      44.276  30.289  34.986  1.00  0.00    -0.206 F 
ATOM     97  C   UNL A   1      42.422  27.289  35.782  1.00  0.00     0.060 A 
BRANCH  97  98
ATOM     98  S   UNL A   1      42.228  26.114  37.139  1.00  0.00     0.124 S 
ATOM     99  O   UNL A   1      43.153  26.645  38.135  1.00  0.00    -0.237 OA
ATOM    100  O   UNL A   1      40.809  26.236  37.465  1.00  0.00    -0.237 OA
ATOM    101  O   UNL A   1      42.614  24.838  36.543  1.00  0.00    -0.744 OA
ENDBRANCH  97  98
ENDBRANCH  65  90
ENDBRANCH  39  40
ENDBRANCH  31  34
ENDBRANCH  29  30
ENDBRANCH  28  29
ENDBRANCH   1  28
TORSDOF 19
ENDMDL
MODEL 2
REMARK VINA RESULT:     -12.8      2.007      2.965
REMARK SMILES O=C(CSc1nnc(Cc2ccncc2)n1-c1ccccc1Cl)NCCCCNC(=O)c1ccc(-c2c3nc(c(-c4c(F)cc(S(=O)(=O)[O-])cc4F)c4ccc([nH]4)c(-c4c(F)cc(S(=O)(=O)[O-])cc4F)c4nc(c(-c5c(F)cc(S(=O)(=O)[O-])cc5F)c5ccc2[nH]5)C=C4)C=C3)cc1
REMARK SMILES IDX 26 1 25 2 24 3 1 4 2 5 3 7 4 8 5 9 6 10 16 11 7 12 8 13
REMARK SMILES IDX 17 14 18 15 22 16 19 17 21 18 23 19 20 20 9 21 10 22 11 23
REMARK SMILES IDX 15 24 12 25 14 26 13 27 27 28 28 29 29 30 30 31 31 33 32 34
REMARK SMILES IDX 33 35 97 36 34 37 96 38 35 39 36 40 37 41 90 42 38 43 95 44
REMARK SMILES IDX 89 45 91 46 39 47 94 48 88 49 87 50 40 52 74 53 53 54 73 55
REMARK SMILES IDX 54 56 57 57 72 58 92 59 55 60 56 61 71 63 93 64 58 65 41 66
REMARK SMILES IDX 42 67 51 68 43 69 44 70 50 71 52 72 45 73 46 74 47 75 48 76
REMARK SMILES IDX 49 77 75 78 76 79 85 80 77 81 78 82 84 83 86 84 79 85 80 86
REMARK SMILES IDX 81 87 82 88 83 89 59 90 60 91 69 92 61 93 62 94 68 95 70 96
REMARK SMILES IDX 63 97 64 98 65 99 66 100 67 101
REMARK H PARENT 24 6 29 32 91 51 57 62
REMARK Flexibility Score: inf
ROOT
ATOM      1  C   UNL A   1      37.493  19.939  24.749  1.00  0.00     0.023 C 
ENDROOT
BRANCH   1   2
ATOM      2  C   UNL A   1      36.199  19.119  24.907  1.00  0.00     0.116 C 
BRANCH   2   3
ATOM      3  N   UNL A   1      35.006  19.908  25.198  1.00  0.00    -0.355 N 
ATOM      4  O   UNL A   1      33.605  18.534  24.016  1.00  0.00    -0.274 OA
ATOM      5  C   UNL A   1      33.755  19.521  24.737  1.00  0.00     0.230 C 
ATOM      6  H   UNL A   1      35.089  20.731  25.733  1.00  0.00     0.163 HD
BRANCH   5   7
ATOM      7  C   UNL A   1      32.588  20.450  25.022  1.00  0.00     0.178 C 
BRANCH   7   8
ATOM      8  S   UNL A   1      32.650  22.061  24.259  1.00  0.00    -0.076 SA
BRANCH   8   9
ATOM      9  C   UNL A   1      31.754  23.134  25.297  1.00  0.00     0.196 A 
ATOM     10  N   UNL A   1      31.371  22.919  26.531  1.00  0.00    -0.123 NA
ATOM     11  N   UNL A   1      31.423  24.422  24.924  1.00  0.00    -0.272 N 
ATOM     12  N   UNL A   1      30.777  24.082  26.996  1.00  0.00    -0.134 NA
ATOM     13  C   UNL A   1      30.815  24.998  26.041  1.00  0.00     0.142 A 
BRANCH  11  14
ATOM     14  C   UNL A   1      32.004  25.084  23.834  1.00  0.00     0.068 A 
ATOM     15  C   UNL A   1      31.176  25.283  22.723  1.00  0.00     0.028 A 
ATOM     16  C   UNL A   1      33.329  25.562  23.874  1.00  0.00     0.065 A 
ATOM     17  C   UNL A   1      31.716  25.862  21.605  1.00  0.00     0.002 A 
ATOM     18  C   UNL A   1      33.847  26.172  22.753  1.00  0.00     0.023 A 
ATOM     19  Cl  UNL A   1      34.449  25.300  25.159  1.00  0.00    -0.082 Cl
ATOM     20  C   UNL A   1      33.053  26.261  21.629  1.00  0.00     0.002 A 
ENDBRANCH  11  14
BRANCH  13  21
ATOM     21  C   UNL A   1      30.446  26.462  26.192  1.00  0.00     0.113 C 
BRANCH  21  22
ATOM     22  C   UNL A   1      31.530  27.522  26.191  1.00  0.00    -0.037 A 
ATOM     23  C   UNL A   1      32.561  27.569  27.128  1.00  0.00     0.024 A 
ATOM     24  C   UNL A   1      31.559  28.476  25.154  1.00  0.00     0.024 A 
ATOM     25  C   UNL A   1      33.537  28.554  27.000  1.00  0.00     0.111 A 
ATOM     26  C   UNL A   1      32.574  29.424  25.113  1.00  0.00     0.111 A 
ATOM     27  N   UNL A   1      33.582  29.462  25.997  1.00  0.00    -0.265 NA
ENDBRANCH  21  22
ENDBRANCH  13  21
ENDBRANCH   8   9
ENDBRANCH   7   8
ENDBRANCH   5   7
ENDBRANCH   2   3
ENDBRANCH   1   2
BRANCH   1  28
ATOM     28  C   UNL A   1      37.344  21.451  24.507  1.00  0.00     0.023 C 
BRANCH  28  29
ATOM     29  C   UNL A   1      38.030  22.362  25.529  1.00  0.00     0.116 C 
BRANCH  29  30
ATOM     30  N   UNL A   1      38.947  21.682  26.468  1.00  0.00    -0.352 N 
ATOM     31  C   UNL A   1      40.039  22.202  27.185  1.00  0.00     0.251 C 
ATOM     32  H   UNL A   1      38.766  20.726  26.611  1.00  0.00     0.163 HD
ATOM     33  O   UNL A   1      40.899  21.464  27.632  1.00  0.00    -0.269 OA
BRANCH  31  34
ATOM     34  C   UNL A   1      40.105  23.663  27.450  1.00  0.00     0.039 A 
ATOM     35  C   UNL A   1      39.036  24.575  27.525  1.00  0.00     0.014 A 
ATOM     36  C   UNL A   1      41.363  24.138  27.660  1.00  0.00     0.014 A 
ATOM     37  C   UNL A   1      39.282  25.922  27.918  1.00  0.00     0.010 A 
ATOM     38  C   UNL A   1      41.430  25.220  28.476  1.00  0.00     0.010 A 
ATOM     39  C   UNL A   1      40.547  26.265  28.386  1.00  0.00    -0.014 A 
BRANCH  39  40
ATOM     40  C   UNL A   1      41.004  27.493  29.066  1.00  0.00     0.031 A 
ATOM     41  C   UNL A   1      42.031  28.272  28.324  1.00  0.00     0.074 A 
ATOM     42  C   UNL A   1      40.314  28.117  30.068  1.00  0.00     0.049 A 
ATOM     43  N   UNL A   1      43.283  28.348  28.621  1.00  0.00    -0.248 NA
ATOM     44  C   UNL A   1      41.689  28.939  27.056  1.00  0.00     0.031 C 
ATOM     45  C   UNL A   1      39.067  27.706  30.730  1.00  0.00     0.029 A 
ATOM     46  N   UNL A   1      40.522  29.355  30.629  1.00  0.00    -0.354 N 
ATOM     47  C   UNL A   1      43.830  29.274  27.741  1.00  0.00     0.074 A 
ATOM     48  C   UNL A   1      42.878  29.414  26.673  1.00  0.00     0.031 C 
ATOM     49  C   UNL A   1      38.529  28.749  31.415  1.00  0.00     0.029 A 
ATOM     50  C   UNL A   1      39.464  29.865  31.400  1.00  0.00     0.049 A 
ATOM     51  H   UNL A   1      41.361  29.853  30.499  1.00  0.00     0.167 HD
ATOM     52  C   UNL A   1      44.899  30.042  28.100  1.00  0.00     0.037 A 
ATOM     53  C   UNL A   1      39.381  31.090  32.013  1.00  0.00     0.037 A 
ATOM     54  C   UNL A   1      45.439  29.608  29.370  1.00  0.00     0.049 A 
ATOM     55  C   UNL A   1      40.778  31.545  32.209  1.00  0.00     0.074 A 
ATOM     56  C   UNL A   1      45.897  28.399  29.864  1.00  0.00     0.029 A 
ATOM     57  N   UNL A   1      45.150  30.370  30.479  1.00  0.00    -0.354 N 
ATOM     58  N   UNL A   1      41.618  30.929  32.996  1.00  0.00    -0.248 NA
ATOM     59  C   UNL A   1      41.376  32.353  31.158  1.00  0.00     0.031 C 
ATOM     60  C   UNL A   1      45.353  28.315  31.181  1.00  0.00     0.029 A 
ATOM     61  C   UNL A   1      44.692  29.513  31.450  1.00  0.00     0.049 A 
ATOM     62  H   UNL A   1      45.252  31.346  30.561  1.00  0.00     0.167 HD
ATOM     63  C   UNL A   1      42.801  30.891  32.275  1.00  0.00     0.074 A 
ATOM     64  C   UNL A   1      42.617  31.857  31.188  1.00  0.00     0.031 C 
ATOM     65  C   UNL A   1      43.695  29.869  32.434  1.00  0.00     0.037 A 
BRANCH  52  66
ATOM     66  C   UNL A   1      45.252  31.386  27.515  1.00  0.00     0.058 A 
ATOM     67  C   UNL A   1      46.520  31.553  26.920  1.00  0.00     0.135 A 
ATOM     68  C   UNL A   1      44.519  32.572  27.732  1.00  0.00     0.135 A 
ATOM     69  F   UNL A   1      47.304  30.490  26.675  1.00  0.00    -0.206 F 
ATOM     70  C   UNL A   1      47.049  32.808  26.624  1.00  0.00     0.059 A 
ATOM     71  C   UNL A   1      45.003  33.832  27.390  1.00  0.00     0.059 A 
ATOM     72  F   UNL A   1      43.344  32.578  28.373  1.00  0.00    -0.206 F 
ATOM     73  C   UNL A   1      46.286  33.942  26.875  1.00  0.00     0.060 A 
BRANCH  73  74
ATOM     74  S   UNL A   1      47.007  35.566  26.579  1.00  0.00     0.124 S 
ATOM     75  O   UNL A   1      47.856  35.298  25.424  1.00  0.00    -0.237 OA
ATOM     76  O   UNL A   1      45.822  36.380  26.330  1.00  0.00    -0.237 OA
ATOM     77  O   UNL A   1      47.707  35.852  27.827  1.00  0.00    -0.744 OA
ENDBRANCH  73  74
ENDBRANCH  52  66
BRANCH  53  78
ATOM     78  C   UNL A   1      38.229  32.054  32.098  1.00  0.00     0.058 A 
ATOM     79  C   UNL A   1      37.579  32.648  30.996  1.00  0.00     0.135 A 
ATOM     80  C   UNL A   1      37.553  32.199  33.312  1.00  0.00     0.135 A 
ATOM     81  F   UNL A   1      38.133  32.568  29.776  1.00  0.00    -0.206 F 
ATOM     82  C   UNL A   1      36.337  33.317  31.104  1.00  0.00     0.059 A 
ATOM     83  C   UNL A   1      36.309  32.819  33.446  1.00  0.00     0.059 A 
ATOM     84  F   UNL A   1      38.117  31.729  34.422  1.00  0.00    -0.206 F 
ATOM     85  C   UNL A   1      35.692  33.374  32.338  1.00  0.00     0.060 A 
BRANCH  85  86
ATOM     86  S   UNL A   1      34.057  34.143  32.528  1.00  0.00     0.124 S 
ATOM     87  O   UNL A   1      33.250  33.080  33.114  1.00  0.00    -0.237 OA
ATOM     88  O   UNL A   1      34.351  35.270  33.404  1.00  0.00    -0.237 OA
ATOM     89  O   UNL A   1      33.694  34.500  31.157  1.00  0.00    -0.744 OA
ENDBRANCH  85  86
ENDBRANCH  53  78
BRANCH  65  90
ATOM     90  C   UNL A   1      43.497  28.908  33.582  1.00  0.00     0.058 A 
ATOM     91  C   UNL A   1      43.914  29.143  34.905  1.00  0.00     0.135 A 
ATOM     92  C   UNL A   1      42.704  27.773  33.366  1.00  0.00     0.135 A 
ATOM     93  F   UNL A   1      44.590  30.249  35.230  1.00  0.00    -0.206 F 
ATOM     94  C   UNL A   1      43.589  28.283  35.955  1.00  0.00     0.059 A 
ATOM     95  C   UNL A   1      42.344  26.911  34.401  1.00  0.00     0.059 A 
ATOM     96  F   UNL A   1      42.220  27.518  32.140  1.00  0.00    -0.206 F 
ATOM     97  C   UNL A   1      42.801  27.166  35.692  1.00  0.00     0.060 A 
BRANCH  97  98
ATOM     98  S   UNL A   1      42.320  26.092  37.062  1.00  0.00     0.124 S 
ATOM     99  O   UNL A   1      40.883  26.328  37.144  1.00  0.00    -0.237 OA
ATOM    100  O   UNL A   1      42.718  24.771  36.584  1.00  0.00    -0.237 OA
ATOM    101  O   UNL A   1      43.104  26.602  38.185  1.00  0.00    -0.744 OA
ENDBRANCH  97  98
ENDBRANCH  65  90
ENDBRANCH  39  40
ENDBRANCH  31  34
ENDBRANCH  29  30
ENDBRANCH  28  29
ENDBRANCH   1  28
TORSDOF 19
ENDMDL
MODEL 3
REMARK VINA RESULT:     -12.7      2.778      4.240
REMARK SMILES O=C(CSc1nnc(Cc2ccncc2)n1-c1ccccc1Cl)NCCCCNC(=O)c1ccc(-c2c3nc(c(-c4c(F)cc(S(=O)(=O)[O-])cc4F)c4ccc([nH]4)c(-c4c(F)cc(S(=O)(=O)[O-])cc4F)c4nc(c(-c5c(F)cc(S(=O)(=O)[O-])cc5F)c5ccc2[nH]5)C=C4)C=C3)cc1
REMARK SMILES IDX 26 1 25 2 24 3 1 4 2 5 3 7 4 8 5 9 6 10 16 11 7 12 8 13
REMARK SMILES IDX 17 14 18 15 22 16 19 17 21 18 23 19 20 20 9 21 10 22 11 23
REMARK SMILES IDX 15 24 12 25 14 26 13 27 27 28 28 29 29 30 30 31 31 33 32 34
REMARK SMILES IDX 33 35 97 36 34 37 96 38 35 39 36 40 37 41 90 42 38 43 95 44
REMARK SMILES IDX 89 45 91 46 39 47 94 48 88 49 87 50 40 52 74 53 53 54 73 55
REMARK SMILES IDX 54 56 57 57 72 58 92 59 55 60 56 61 71 63 93 64 58 65 41 66
REMARK SMILES IDX 42 67 51 68 43 69 44 70 50 71 52 72 45 73 46 74 47 75 48 76
REMARK SMILES IDX 49 77 75 78 76 79 85 80 77 81 78 82 84 83 86 84 79 85 80 86
REMARK SMILES IDX 81 87 82 88 83 89 59 90 60 91 69 92 61 93 62 94 68 95 70 96
REMARK SMILES IDX 63 97 64 98 65 99 66 100 67 101
REMARK H PARENT 24 6 29 32 91 51 57 62
REMARK Flexibility Score: inf
ROOT
ATOM      1  C   UNL A   1      40.677  20.811  27.087  1.00  0.00     0.023 C 
ENDROOT
BRANCH   1   2
ATOM      2  C   UNL A   1      40.175  22.161  26.541  1.00  0.00     0.116 C 
BRANCH   2   3
ATOM      3  N   UNL A   1      38.955  22.084  25.743  1.00  0.00    -0.355 N 
ATOM      4  O   UNL A   1      38.176  24.125  26.432  1.00  0.00    -0.274 OA
ATOM      5  C   UNL A   1      38.035  23.124  25.730  1.00  0.00     0.230 C 
ATOM      6  H   UNL A   1      38.781  21.279  25.203  1.00  0.00     0.163 HD
BRANCH   5   7
ATOM      7  C   UNL A   1      36.758  22.915  24.934  1.00  0.00     0.178 C 
BRANCH   7   8
ATOM      8  S   UNL A   1      35.439  24.079  25.228  1.00  0.00    -0.076 SA
BRANCH   8   9
ATOM      9  C   UNL A   1      34.596  24.263  23.717  1.00  0.00     0.196 A 
ATOM     10  N   UNL A   1      34.499  23.392  22.743  1.00  0.00    -0.123 NA
ATOM     11  N   UNL A   1      33.831  25.375  23.425  1.00  0.00    -0.272 N 
ATOM     12  N   UNL A   1      33.653  23.925  21.784  1.00  0.00    -0.134 NA
ATOM     13  C   UNL A   1      33.234  25.114  22.190  1.00  0.00     0.142 A 
BRANCH  11  14
ATOM     14  C   UNL A   1      33.422  26.307  24.388  1.00  0.00     0.068 A 
ATOM     15  C   UNL A   1      32.771  25.785  25.512  1.00  0.00     0.028 A 
ATOM     16  C   UNL A   1      33.693  27.683  24.254  1.00  0.00     0.065 A 
ATOM     17  C   UNL A   1      32.288  26.660  26.449  1.00  0.00     0.002 A 
ATOM     18  C   UNL A   1      33.231  28.547  25.222  1.00  0.00     0.023 A 
ATOM     19  Cl  UNL A   1      34.418  28.431  22.879  1.00  0.00    -0.082 Cl
ATOM     20  C   UNL A   1      32.495  28.028  26.266  1.00  0.00     0.002 A 
ENDBRANCH  11  14
BRANCH  13  21
ATOM     21  C   UNL A   1      32.153  25.952  21.533  1.00  0.00     0.113 C 
BRANCH  21  22
ATOM     22  C   UNL A   1      31.006  26.496  22.362  1.00  0.00    -0.037 A 
ATOM     23  C   UNL A   1      30.617  27.834  22.354  1.00  0.00     0.024 A 
ATOM     24  C   UNL A   1      30.231  25.605  23.133  1.00  0.00     0.024 A 
ATOM     25  C   UNL A   1      29.513  28.216  23.111  1.00  0.00     0.111 A 
ATOM     26  C   UNL A   1      29.148  26.082  23.860  1.00  0.00     0.111 A 
ATOM     27  N   UNL A   1      28.753  27.364  23.839  1.00  0.00    -0.265 NA
ENDBRANCH  21  22
ENDBRANCH  13  21
ENDBRANCH   8   9
ENDBRANCH   7   8
ENDBRANCH   5   7
ENDBRANCH   2   3
ENDBRANCH   1   2
BRANCH   1  28
ATOM     28  C   UNL A   1      41.535  19.946  26.147  1.00  0.00     0.023 C 
BRANCH  28  29
ATOM     29  C   UNL A   1      42.825  19.383  26.750  1.00  0.00     0.116 C 
BRANCH  29  30
ATOM     30  N   UNL A   1      43.947  19.219  25.802  1.00  0.00    -0.352 N 
ATOM     31  C   UNL A   1      44.501  20.149  24.904  1.00  0.00     0.251 C 
ATOM     32  H   UNL A   1      44.368  18.330  25.799  1.00  0.00     0.163 HD
ATOM     33  O   UNL A   1      45.171  19.777  23.957  1.00  0.00    -0.269 OA
BRANCH  31  34
ATOM     34  C   UNL A   1      44.316  21.602  25.155  1.00  0.00     0.039 A 
ATOM     35  C   UNL A   1      43.406  22.476  24.530  1.00  0.00     0.014 A 
ATOM     36  C   UNL A   1      45.126  22.112  26.124  1.00  0.00     0.014 A 
ATOM     37  C   UNL A   1      43.283  23.817  24.994  1.00  0.00     0.010 A 
ATOM     38  C   UNL A   1      44.606  23.169  26.795  1.00  0.00     0.010 A 
ATOM     39  C   UNL A   1      43.938  24.187  26.164  1.00  0.00    -0.014 A 
BRANCH  39  40
ATOM     40  C   UNL A   1      43.799  25.408  26.982  1.00  0.00     0.031 A 
ATOM     41  C   UNL A   1      44.707  26.522  26.601  1.00  0.00     0.074 A 
ATOM     42  C   UNL A   1      42.705  25.695  27.752  1.00  0.00     0.049 A 
ATOM     43  N   UNL A   1      45.745  26.911  27.259  1.00  0.00    -0.248 NA
ATOM     44  C   UNL A   1      44.543  27.207  25.308  1.00  0.00     0.031 C 
ATOM     45  C   UNL A   1      41.508  24.878  28.001  1.00  0.00     0.029 A 
ATOM     46  N   UNL A   1      42.368  26.868  28.382  1.00  0.00    -0.354 N 
ATOM     47  C   UNL A   1      46.208  28.048  26.608  1.00  0.00     0.074 A 
ATOM     48  C   UNL A   1      45.591  28.037  25.309  1.00  0.00     0.031 C 
ATOM     49  C   UNL A   1      40.514  25.644  28.524  1.00  0.00     0.029 A 
ATOM     50  C   UNL A   1      41.036  26.970  28.818  1.00  0.00     0.049 A 
ATOM     51  H   UNL A   1      43.020  27.593  28.521  1.00  0.00     0.167 HD
ATOM     52  C   UNL A   1      46.854  29.037  27.289  1.00  0.00     0.037 A 
ATOM     53  C   UNL A   1      40.423  28.045  29.412  1.00  0.00     0.037 A 
ATOM     54  C   UNL A   1      47.128  28.629  28.649  1.00  0.00     0.049 A 
ATOM     55  C   UNL A   1      41.507  28.846  30.027  1.00  0.00     0.074 A 
ATOM     56  C   UNL A   1      47.773  27.548  29.223  1.00  0.00     0.029 A 
ATOM     57  N   UNL A   1      46.329  29.148  29.643  1.00  0.00    -0.354 N 
ATOM     58  N   UNL A   1      42.243  28.404  31.011  1.00  0.00    -0.248 NA
ATOM     59  C   UNL A   1      42.099  29.904  29.224  1.00  0.00     0.031 C 
ATOM     60  C   UNL A   1      46.939  27.165  30.317  1.00  0.00     0.029 A 
ATOM     61  C   UNL A   1      45.901  28.091  30.409  1.00  0.00     0.049 A 
ATOM     62  H   UNL A   1      46.105  30.097  29.778  1.00  0.00     0.167 HD
ATOM     63  C   UNL A   1      43.533  28.781  30.674  1.00  0.00     0.074 A 
ATOM     64  C   UNL A   1      43.374  29.775  29.608  1.00  0.00     0.031 C 
ATOM     65  C   UNL A   1      44.612  28.039  31.062  1.00  0.00     0.037 A 
BRANCH  52  66
ATOM     66  C   UNL A   1      46.933  30.484  26.872  1.00  0.00     0.058 A 
ATOM     67  C   UNL A   1      48.187  31.130  26.908  1.00  0.00     0.135 A 
ATOM     68  C   UNL A   1      45.817  31.327  26.686  1.00  0.00     0.135 A 
ATOM     69  F   UNL A   1      49.314  30.424  27.087  1.00  0.00    -0.206 F 
ATOM     70  C   UNL A   1      48.316  32.516  26.833  1.00  0.00     0.059 A 
ATOM     71  C   UNL A   1      45.928  32.707  26.549  1.00  0.00     0.059 A 
ATOM     72  F   UNL A   1      44.561  30.867  26.727  1.00  0.00    -0.206 F 
ATOM     73  C   UNL A   1      47.178  33.297  26.665  1.00  0.00     0.060 A 
BRANCH  73  74
ATOM     74  S   UNL A   1      47.339  35.090  26.661  1.00  0.00     0.124 S 
ATOM     75  O   UNL A   1      48.115  35.313  27.875  1.00  0.00    -0.237 OA
ATOM     76  O   UNL A   1      48.036  35.327  25.401  1.00  0.00    -0.237 OA
ATOM     77  O   UNL A   1      45.954  35.549  26.700  1.00  0.00    -0.744 OA
ENDBRANCH  73  74
ENDBRANCH  52  66
BRANCH  53  78
ATOM     78  C   UNL A   1      39.057  28.632  29.177  1.00  0.00     0.058 A 
ATOM     79  C   UNL A   1      38.065  28.808  30.163  1.00  0.00     0.135 A 
ATOM     80  C   UNL A   1      38.803  29.301  27.978  1.00  0.00     0.135 A 
ATOM     81  F   UNL A   1      38.204  28.216  31.359  1.00  0.00    -0.206 F 
ATOM     82  C   UNL A   1      36.917  29.613  29.965  1.00  0.00     0.059 A 
ATOM     83  C   UNL A   1      37.701  30.132  27.763  1.00  0.00     0.059 A 
ATOM     84  F   UNL A   1      39.649  29.145  26.962  1.00  0.00    -0.206 F 
ATOM     85  C   UNL A   1      36.757  30.297  28.761  1.00  0.00     0.060 A 
BRANCH  85  86
ATOM     86  S   UNL A   1      35.351  31.411  28.475  1.00  0.00     0.124 S 
ATOM     87  O   UNL A   1      35.910  32.446  27.613  1.00  0.00    -0.237 OA
ATOM     88  O   UNL A   1      34.381  30.522  27.848  1.00  0.00    -0.237 OA
ATOM     89  O   UNL A   1      35.001  31.862  29.822  1.00  0.00    -0.744 OA
ENDBRANCH  85  86
ENDBRANCH  53  78
BRANCH  65  90
ATOM     90  C   UNL A   1      44.405  26.936  32.073  1.00  0.00     0.058 A 
ATOM     91  C   UNL A   1      44.253  25.574  31.754  1.00  0.00     0.135 A 
ATOM     92  C   UNL A   1      44.533  27.251  33.433  1.00  0.00     0.135 A 
ATOM     93  F   UNL A   1      44.221  25.162  30.483  1.00  0.00    -0.206 F 
ATOM     94  C   UNL A   1      44.197  24.579  32.731  1.00  0.00     0.059 A 
ATOM     95  C   UNL A   1      44.507  26.275  34.427  1.00  0.00     0.059 A 
ATOM     96  F   UNL A   1      44.741  28.524  33.807  1.00  0.00    -0.206 F 
ATOM     97  C   UNL A   1      44.326  24.941  34.069  1.00  0.00     0.060 A 
BRANCH  97  98
ATOM     98  S   UNL A   1      44.327  23.647  35.329  1.00  0.00     0.124 S 
ATOM     99  O   UNL A   1      44.971  24.317  36.453  1.00  0.00    -0.237 OA
ATOM    100  O   UNL A   1      42.904  23.362  35.493  1.00  0.00    -0.237 OA
ATOM    101  O   UNL A   1      45.102  22.573  34.712  1.00  0.00    -0.744 OA
ENDBRANCH  97  98
ENDBRANCH  65  90
ENDBRANCH  39  40
ENDBRANCH  31  34
ENDBRANCH  29  30
ENDBRANCH  28  29
ENDBRANCH   1  28
TORSDOF 19
ENDMDL
