MODEL 1
REMARK VINA RESULT:     -13.9      0.000      0.000
REMARK SMILES Cc1nccn1C1(C(=O)NCCCCNC(=O)c2ccc(-c3c4nc(c(-c5c(F)cc(S(=O)(=O)[O-])cc5F)c5ccc([nH]5)c(-c5c(F)cc(S(=O)(=O)[O-])cc5F)c5nc(c(-c6c(F)cc(S(=O)(=O)[O-])cc6F)c6ccc3[nH]6)C=C5)C=C4)cc2)CCN(C(=O)[C@@H]2C[C@H]2c2ccccc2)CC1
REMARK SMILES IDX 13 1 12 2 11 3 10 4 8 5 9 6 7 8 84 9 99 10 85 11 98 12 86 13
REMARK SMILES IDX 87 14 88 15 6 16 1 17 2 18 3 19 4 20 5 21 89 22 90 23 91 24
REMARK SMILES IDX 92 25 93 26 97 27 94 28 96 29 95 30 14 31 15 32 16 33 17 35
REMARK SMILES IDX 18 36 19 37 83 38 20 39 82 40 21 41 22 42 23 43 76 44 24 45
REMARK SMILES IDX 81 46 75 47 77 48 25 49 80 50 74 51 73 52 26 54 60 55 39 56
REMARK SMILES IDX 59 57 40 58 43 59 58 60 78 61 41 62 42 63 57 65 79 66 44 67
REMARK SMILES IDX 27 68 28 69 37 70 29 71 30 72 36 73 38 74 31 75 32 76 33 77
REMARK SMILES IDX 34 78 35 79 61 80 62 81 71 82 63 83 64 84 70 85 72 86 65 87
REMARK SMILES IDX 66 88 67 89 68 90 69 91 45 92 46 93 55 94 47 95 48 96 54 97
REMARK SMILES IDX 56 98 49 99 50 100 51 101 52 102 53 103
REMARK H PARENT 10 7 15 34 77 53 43 64
REMARK Flexibility Score: inf
ROOT
ATOM      1  C   UNL A   1      39.163  22.371  26.389  1.00  0.00     0.023 C 
ENDROOT
BRANCH   1   2
ATOM      2  C   UNL A   1      38.518  23.766  26.461  1.00  0.00     0.023 C 
BRANCH   2   3
ATOM      3  C   UNL A   1      37.109  23.896  25.866  1.00  0.00     0.116 C 
BRANCH   3   4
ATOM      4  N   UNL A   1      37.046  23.437  24.485  1.00  0.00    -0.354 N 
ATOM      5  C   UNL A   1      36.006  23.167  23.629  1.00  0.00     0.246 C 
ATOM      6  O   UNL A   1      36.360  23.062  22.451  1.00  0.00    -0.272 OA
ATOM      7  H   UNL A   1      37.932  23.290  24.082  1.00  0.00     0.163 HD
BRANCH   5   8
ATOM      8  C   UNL A   1      34.495  23.085  24.092  1.00  0.00     0.127 C 
ATOM      9  C   UNL A   1      34.347  23.858  25.417  1.00  0.00     0.061 C 
ATOM     10  C   UNL A   1      33.714  23.664  22.883  1.00  0.00     0.061 C 
ATOM     11  C   UNL A   1      32.991  24.504  25.583  1.00  0.00     0.122 C 
ATOM     12  C   UNL A   1      32.672  24.757  23.133  1.00  0.00     0.122 C 
ATOM     13  N   UNL A   1      32.631  25.359  24.459  1.00  0.00    -0.342 N 
ATOM     14  C   UNL A   1      31.818  26.458  24.795  1.00  0.00     0.226 C 
ATOM     15  O   UNL A   1      31.369  26.577  25.935  1.00  0.00    -0.275 OA
BRANCH   8  16
ATOM     16  N   UNL A   1      34.080  21.668  24.421  1.00  0.00    -0.320 N 
ATOM     17  C   UNL A   1      36.289  20.467  25.100  1.00  0.00     0.087 C 
ATOM     18  C   UNL A   1      34.853  20.548  24.742  1.00  0.00     0.106 A 
ATOM     19  N   UNL A   1      34.134  19.441  24.685  1.00  0.00    -0.242 NA
ATOM     20  C   UNL A   1      32.876  19.810  24.346  1.00  0.00     0.131 A 
ATOM     21  C   UNL A   1      32.820  21.160  24.143  1.00  0.00     0.108 A 
ENDBRANCH   8  16
BRANCH  14  22
ATOM     22  C   UNL A   1      31.498  27.579  23.868  1.00  0.00     0.087 C 
ATOM     23  C   UNL A   1      32.429  28.665  23.423  1.00  0.00     0.023 C 
ATOM     24  C   UNL A   1      31.230  29.007  24.285  1.00  0.00     0.032 C 
BRANCH  24  25
ATOM     25  C   UNL A   1      30.007  29.698  23.739  1.00  0.00    -0.044 A 
ATOM     26  C   UNL A   1      29.672  31.018  24.080  1.00  0.00     0.004 A 
ATOM     27  C   UNL A   1      29.115  28.991  22.916  1.00  0.00     0.004 A 
ATOM     28  C   UNL A   1      28.496  31.608  23.612  1.00  0.00     0.000 A 
ATOM     29  C   UNL A   1      27.933  29.572  22.455  1.00  0.00     0.000 A 
ATOM     30  C   UNL A   1      27.624  30.883  22.805  1.00  0.00     0.000 A 
ENDBRANCH  24  25
ENDBRANCH  14  22
ENDBRANCH   5   8
ENDBRANCH   3   4
ENDBRANCH   2   3
ENDBRANCH   1   2
BRANCH   1  31
ATOM     31  C   UNL A   1      40.487  22.255  27.128  1.00  0.00     0.116 C 
BRANCH  31  32
ATOM     32  N   UNL A   1      41.649  22.122  26.242  1.00  0.00    -0.352 N 
ATOM     33  C   UNL A   1      42.378  23.143  25.651  1.00  0.00     0.251 C 
ATOM     34  H   UNL A   1      41.944  21.203  26.044  1.00  0.00     0.163 HD
ATOM     35  O   UNL A   1      43.084  22.933  24.666  1.00  0.00    -0.269 OA
BRANCH  33  36
ATOM     36  C   UNL A   1      42.295  24.485  26.250  1.00  0.00     0.039 A 
ATOM     37  C   UNL A   1      41.496  25.513  25.734  1.00  0.00     0.014 A 
ATOM     38  C   UNL A   1      43.012  24.665  27.425  1.00  0.00     0.014 A 
ATOM     39  C   UNL A   1      41.379  26.698  26.462  1.00  0.00     0.010 A 
ATOM     40  C   UNL A   1      42.704  25.709  28.242  1.00  0.00     0.010 A 
ATOM     41  C   UNL A   1      41.986  26.778  27.722  1.00  0.00    -0.014 A 
BRANCH  41  42
ATOM     42  C   UNL A   1      41.881  27.944  28.587  1.00  0.00     0.031 A 
ATOM     43  C   UNL A   1      42.982  28.936  28.437  1.00  0.00     0.074 A 
ATOM     44  C   UNL A   1      40.705  28.226  29.198  1.00  0.00     0.049 A 
ATOM     45  N   UNL A   1      43.878  29.274  29.303  1.00  0.00    -0.248 NA
ATOM     46  C   UNL A   1      43.217  29.507  27.099  1.00  0.00     0.031 C 
ATOM     47  C   UNL A   1      39.426  27.501  29.097  1.00  0.00     0.029 A 
ATOM     48  N   UNL A   1      40.357  29.317  29.923  1.00  0.00    -0.354 N 
ATOM     49  C   UNL A   1      44.635  30.281  28.701  1.00  0.00     0.074 A 
ATOM     50  C   UNL A   1      44.338  30.205  27.298  1.00  0.00     0.031 C 
ATOM     51  C   UNL A   1      38.415  28.297  29.507  1.00  0.00     0.029 A 
ATOM     52  C   UNL A   1      38.984  29.504  30.070  1.00  0.00     0.049 A 
ATOM     53  H   UNL A   1      41.021  29.929  30.315  1.00  0.00     0.167 HD
ATOM     54  C   UNL A   1      45.240  31.257  29.441  1.00  0.00     0.037 A 
ATOM     55  C   UNL A   1      38.378  30.609  30.574  1.00  0.00     0.037 A 
ATOM     56  C   UNL A   1      45.240  30.899  30.840  1.00  0.00     0.049 A 
ATOM     57  C   UNL A   1      39.424  31.347  31.340  1.00  0.00     0.074 A 
ATOM     58  C   UNL A   1      45.758  29.850  31.573  1.00  0.00     0.029 A 
ATOM     59  N   UNL A   1      44.285  31.481  31.640  1.00  0.00    -0.354 N 
ATOM     60  N   UNL A   1      40.012  30.867  32.406  1.00  0.00    -0.248 NA
ATOM     61  C   UNL A   1      40.169  32.374  30.626  1.00  0.00     0.031 C 
ATOM     62  C   UNL A   1      44.753  29.551  32.539  1.00  0.00     0.029 A 
ATOM     63  C   UNL A   1      43.726  30.488  32.401  1.00  0.00     0.049 A 
ATOM     64  H   UNL A   1      44.047  32.437  31.663  1.00  0.00     0.167 HD
ATOM     65  C   UNL A   1      41.349  31.224  32.271  1.00  0.00     0.074 A 
ATOM     66  C   UNL A   1      41.372  32.200  31.182  1.00  0.00     0.031 C 
ATOM     67  C   UNL A   1      42.347  30.483  32.841  1.00  0.00     0.037 A 
BRANCH  54  68
ATOM     68  C   UNL A   1      45.484  32.687  28.997  1.00  0.00     0.058 A 
ATOM     69  C   UNL A   1      46.786  33.223  29.129  1.00  0.00     0.135 A 
ATOM     70  C   UNL A   1      44.472  33.634  28.728  1.00  0.00     0.135 A 
ATOM     71  F   UNL A   1      47.839  32.421  29.351  1.00  0.00    -0.206 F 
ATOM     72  C   UNL A   1      47.039  34.594  29.123  1.00  0.00     0.059 A 
ATOM     73  C   UNL A   1      44.712  35.004  28.666  1.00  0.00     0.059 A 
ATOM     74  F   UNL A   1      43.184  33.302  28.604  1.00  0.00    -0.206 F 
ATOM     75  C   UNL A   1      45.987  35.478  28.918  1.00  0.00     0.060 A 
BRANCH  75  76
ATOM     76  S   UNL A   1      46.281  37.250  29.048  1.00  0.00     0.124 S 
ATOM     77  O   UNL A   1      45.031  37.705  29.645  1.00  0.00    -0.237 OA
ATOM     78  O   UNL A   1      47.457  37.298  29.909  1.00  0.00    -0.237 OA
ATOM     79  O   UNL A   1      46.506  37.654  27.664  1.00  0.00    -0.744 OA
ENDBRANCH  75  76
ENDBRANCH  54  68
BRANCH  55  80
ATOM     80  C   UNL A   1      37.109  31.237  30.108  1.00  0.00     0.058 A 
ATOM     81  C   UNL A   1      36.187  31.794  31.012  1.00  0.00     0.135 A 
ATOM     82  C   UNL A   1      36.900  31.542  28.746  1.00  0.00     0.135 A 
ATOM     83  F   UNL A   1      36.321  31.576  32.328  1.00  0.00    -0.206 F 
ATOM     84  C   UNL A   1      35.143  32.631  30.595  1.00  0.00     0.059 A 
ATOM     85  C   UNL A   1      35.865  32.367  28.307  1.00  0.00     0.059 A 
ATOM     86  F   UNL A   1      37.752  31.112  27.803  1.00  0.00    -0.206 F 
ATOM     87  C   UNL A   1      35.000  32.927  29.238  1.00  0.00     0.060 A 
BRANCH  87  88
ATOM     88  S   UNL A   1      33.753  34.127  28.708  1.00  0.00     0.124 S 
ATOM     89  O   UNL A   1      34.577  35.174  28.114  1.00  0.00    -0.237 OA
ATOM     90  O   UNL A   1      32.946  33.344  27.779  1.00  0.00    -0.237 OA
ATOM     91  O   UNL A   1      33.086  34.492  29.955  1.00  0.00    -0.744 OA
ENDBRANCH  87  88
ENDBRANCH  55  80
BRANCH  67  92
ATOM     92  C   UNL A   1      41.990  29.414  33.843  1.00  0.00     0.058 A 
ATOM     93  C   UNL A   1      41.734  28.071  33.519  1.00  0.00     0.135 A 
ATOM     94  C   UNL A   1      42.154  29.725  35.201  1.00  0.00     0.135 A 
ATOM     95  F   UNL A   1      41.653  27.672  32.242  1.00  0.00    -0.206 F 
ATOM     96  C   UNL A   1      41.643  27.080  34.501  1.00  0.00     0.059 A 
ATOM     97  C   UNL A   1      42.096  28.751  36.194  1.00  0.00     0.059 A 
ATOM     98  F   UNL A   1      42.459  30.979  35.570  1.00  0.00    -0.206 F 
ATOM     99  C   UNL A   1      41.839  27.430  35.837  1.00  0.00     0.060 A 
BRANCH  99 100
ATOM    100  S   UNL A   1      41.847  26.135  37.097  1.00  0.00     0.124 S 
ATOM    101  O   UNL A   1      42.208  24.954  36.318  1.00  0.00    -0.237 OA
ATOM    102  O   UNL A   1      42.860  26.609  38.035  1.00  0.00    -0.237 OA
ATOM    103  O   UNL A   1      40.480  26.149  37.611  1.00  0.00    -0.744 OA
ENDBRANCH  99 100
ENDBRANCH  67  92
ENDBRANCH  41  42
ENDBRANCH  33  36
ENDBRANCH  31  32
ENDBRANCH   1  31
TORSDOF 17
ENDMDL
MODEL 2
REMARK VINA RESULT:     -12.9      2.800      9.478
REMARK SMILES Cc1nccn1C1(C(=O)NCCCCNC(=O)c2ccc(-c3c4nc(c(-c5c(F)cc(S(=O)(=O)[O-])cc5F)c5ccc([nH]5)c(-c5c(F)cc(S(=O)(=O)[O-])cc5F)c5nc(c(-c6c(F)cc(S(=O)(=O)[O-])cc6F)c6ccc3[nH]6)C=C5)C=C4)cc2)CCN(C(=O)[C@@H]2C[C@H]2c2ccccc2)CC1
REMARK SMILES IDX 13 1 12 2 11 3 10 4 8 5 9 6 7 8 84 9 99 10 85 11 98 12 86 13
REMARK SMILES IDX 87 14 88 15 6 16 1 17 2 18 3 19 4 20 5 21 89 22 90 23 91 24
REMARK SMILES IDX 92 25 93 26 97 27 94 28 96 29 95 30 14 31 15 32 16 33 17 35
REMARK SMILES IDX 18 36 19 37 83 38 20 39 82 40 21 41 22 42 23 43 76 44 24 45
REMARK SMILES IDX 81 46 75 47 77 48 25 49 80 50 74 51 73 52 26 54 60 55 39 56
REMARK SMILES IDX 59 57 40 58 43 59 58 60 78 61 41 62 42 63 57 65 79 66 44 67
REMARK SMILES IDX 27 68 28 69 37 70 29 71 30 72 36 73 38 74 31 75 32 76 33 77
REMARK SMILES IDX 34 78 35 79 61 80 62 81 71 82 63 83 64 84 70 85 72 86 65 87
REMARK SMILES IDX 66 88 67 89 68 90 69 91 45 92 46 93 55 94 47 95 48 96 54 97
REMARK SMILES IDX 56 98 49 99 50 100 51 101 52 102 53 103
REMARK H PARENT 10 7 15 34 77 53 43 64
REMARK Flexibility Score: inf
ROOT
ATOM      1  C   UNL A   1      33.947  30.835  27.510  1.00  0.00     0.023 C 
ENDROOT
BRANCH   1   2
ATOM      2  C   UNL A   1      34.642  29.491  27.235  1.00  0.00     0.023 C 
BRANCH   2   3
ATOM      3  C   UNL A   1      33.935  28.549  26.250  1.00  0.00     0.116 C 
BRANCH   3   4
ATOM      4  N   UNL A   1      32.620  28.138  26.723  1.00  0.00    -0.354 N 
ATOM      5  C   UNL A   1      31.661  27.293  26.221  1.00  0.00     0.246 C 
ATOM      6  O   UNL A   1      30.795  26.993  27.048  1.00  0.00    -0.272 OA
ATOM      7  H   UNL A   1      32.366  28.552  27.579  1.00  0.00     0.163 HD
BRANCH   5   8
ATOM      8  C   UNL A   1      31.707  26.694  24.757  1.00  0.00     0.127 C 
ATOM      9  C   UNL A   1      33.176  26.402  24.394  1.00  0.00     0.061 C 
ATOM     10  C   UNL A   1      30.775  25.456  24.843  1.00  0.00     0.061 C 
ATOM     11  C   UNL A   1      33.337  25.220  23.467  1.00  0.00     0.122 C 
ATOM     12  C   UNL A   1      31.283  24.112  24.315  1.00  0.00     0.122 C 
ATOM     13  N   UNL A   1      32.695  24.013  23.972  1.00  0.00    -0.342 N 
ATOM     14  C   UNL A   1      33.328  22.812  23.599  1.00  0.00     0.226 C 
ATOM     15  O   UNL A   1      34.270  22.823  22.807  1.00  0.00    -0.275 OA
BRANCH   8  16
ATOM     16  N   UNL A   1      31.242  27.694  23.722  1.00  0.00    -0.320 N 
ATOM     17  C   UNL A   1      33.421  28.855  22.890  1.00  0.00     0.087 C 
ATOM     18  C   UNL A   1      31.956  28.669  23.018  1.00  0.00     0.106 A 
ATOM     19  N   UNL A   1      31.138  29.517  22.419  1.00  0.00    -0.242 NA
ATOM     20  C   UNL A   1      29.878  29.109  22.698  1.00  0.00     0.131 A 
ATOM     21  C   UNL A   1      29.909  28.018  23.521  1.00  0.00     0.108 A 
ENDBRANCH   8  16
BRANCH  14  22
ATOM     22  C   UNL A   1      32.987  21.475  24.162  1.00  0.00     0.087 C 
ATOM     23  C   UNL A   1      32.842  21.126  25.611  1.00  0.00     0.023 C 
ATOM     24  C   UNL A   1      33.971  20.521  24.799  1.00  0.00     0.032 C 
BRANCH  24  25
ATOM     25  C   UNL A   1      33.970  19.082  24.352  1.00  0.00    -0.044 A 
ATOM     26  C   UNL A   1      32.933  18.531  23.583  1.00  0.00     0.004 A 
ATOM     27  C   UNL A   1      34.999  18.221  24.771  1.00  0.00     0.004 A 
ATOM     28  C   UNL A   1      32.927  17.177  23.243  1.00  0.00     0.000 A 
ATOM     29  C   UNL A   1      34.991  16.864  24.443  1.00  0.00     0.000 A 
ATOM     30  C   UNL A   1      33.953  16.343  23.678  1.00  0.00     0.000 A 
ENDBRANCH  24  25
ENDBRANCH  14  22
ENDBRANCH   5   8
ENDBRANCH   3   4
ENDBRANCH   2   3
ENDBRANCH   1   2
BRANCH   1  31
ATOM     31  C   UNL A   1      34.894  31.963  27.891  1.00  0.00     0.116 C 
BRANCH  31  32
ATOM     32  N   UNL A   1      34.517  32.659  29.127  1.00  0.00    -0.352 N 
ATOM     33  C   UNL A   1      34.924  32.360  30.418  1.00  0.00     0.251 C 
ATOM     34  H   UNL A   1      33.907  33.426  29.027  1.00  0.00     0.163 HD
ATOM     35  O   UNL A   1      34.288  32.759  31.393  1.00  0.00    -0.269 OA
BRANCH  33  36
ATOM     36  C   UNL A   1      36.151  31.564  30.589  1.00  0.00     0.039 A 
ATOM     37  C   UNL A   1      36.158  30.168  30.677  1.00  0.00     0.014 A 
ATOM     38  C   UNL A   1      37.338  32.283  30.585  1.00  0.00     0.014 A 
ATOM     39  C   UNL A   1      37.387  29.505  30.691  1.00  0.00     0.010 A 
ATOM     40  C   UNL A   1      38.511  31.632  30.352  1.00  0.00     0.010 A 
ATOM     41  C   UNL A   1      38.558  30.255  30.519  1.00  0.00    -0.014 A 
BRANCH  41  42
ATOM     42  C   UNL A   1      39.886  29.660  30.462  1.00  0.00     0.031 A 
ATOM     43  C   UNL A   1      40.559  29.505  31.783  1.00  0.00     0.074 A 
ATOM     44  C   UNL A   1      40.285  29.010  29.344  1.00  0.00     0.049 A 
ATOM     45  N   UNL A   1      41.630  30.089  32.208  1.00  0.00    -0.248 NA
ATOM     46  C   UNL A   1      39.866  28.725  32.822  1.00  0.00     0.031 C 
ATOM     47  C   UNL A   1      39.526  28.775  28.103  1.00  0.00     0.029 A 
ATOM     48  N   UNL A   1      41.408  28.279  29.132  1.00  0.00    -0.354 N 
ATOM     49  C   UNL A   1      41.879  29.559  33.475  1.00  0.00     0.074 A 
ATOM     50  C   UNL A   1      40.655  28.925  33.880  1.00  0.00     0.031 C 
ATOM     51  C   UNL A   1      40.091  27.766  27.404  1.00  0.00     0.029 A 
ATOM     52  C   UNL A   1      41.343  27.414  28.042  1.00  0.00     0.049 A 
ATOM     53  H   UNL A   1      42.206  28.355  29.703  1.00  0.00     0.167 HD
ATOM     54  C   UNL A   1      43.148  29.463  33.970  1.00  0.00     0.037 A 
ATOM     55  C   UNL A   1      42.243  26.445  27.736  1.00  0.00     0.037 A 
ATOM     56  C   UNL A   1      44.060  30.244  33.169  1.00  0.00     0.049 A 
ATOM     57  C   UNL A   1      43.491  26.784  28.479  1.00  0.00     0.074 A 
ATOM     58  C   UNL A   1      44.159  31.580  32.836  1.00  0.00     0.029 A 
ATOM     59  N   UNL A   1      44.828  29.569  32.248  1.00  0.00    -0.354 N 
ATOM     60  N   UNL A   1      44.192  27.867  28.258  1.00  0.00    -0.248 NA
ATOM     61  C   UNL A   1      43.660  26.192  29.799  1.00  0.00     0.031 C 
ATOM     62  C   UNL A   1      44.549  31.584  31.465  1.00  0.00     0.029 A 
ATOM     63  C   UNL A   1      44.754  30.261  31.067  1.00  0.00     0.049 A 
ATOM     64  H   UNL A   1      45.337  28.741  32.408  1.00  0.00     0.167 HD
ATOM     65  C   UNL A   1      44.568  28.318  29.518  1.00  0.00     0.074 A 
ATOM     66  C   UNL A   1      44.257  27.212  30.423  1.00  0.00     0.031 C 
ATOM     67  C   UNL A   1      44.811  29.641  29.760  1.00  0.00     0.037 A 
BRANCH  54  68
ATOM     68  C   UNL A   1      43.655  28.388  34.914  1.00  0.00     0.058 A 
ATOM     69  C   UNL A   1      44.363  28.786  36.073  1.00  0.00     0.135 A 
ATOM     70  C   UNL A   1      43.739  27.014  34.605  1.00  0.00     0.135 A 
ATOM     71  F   UNL A   1      44.333  30.060  36.492  1.00  0.00    -0.206 F 
ATOM     72  C   UNL A   1      45.187  27.916  36.786  1.00  0.00     0.059 A 
ATOM     73  C   UNL A   1      44.515  26.118  35.335  1.00  0.00     0.059 A 
ATOM     74  F   UNL A   1      43.156  26.477  33.530  1.00  0.00    -0.206 F 
ATOM     75  C   UNL A   1      45.277  26.587  36.390  1.00  0.00     0.060 A 
BRANCH  75  76
ATOM     76  S   UNL A   1      46.443  25.494  37.217  1.00  0.00     0.124 S 
ATOM     77  O   UNL A   1      47.213  26.444  38.013  1.00  0.00    -0.237 OA
ATOM     78  O   UNL A   1      45.552  24.610  37.960  1.00  0.00    -0.237 OA
ATOM     79  O   UNL A   1      47.160  24.869  36.110  1.00  0.00    -0.744 OA
ENDBRANCH  75  76
ENDBRANCH  54  68
BRANCH  55  80
ATOM     80  C   UNL A   1      41.961  25.089  27.187  1.00  0.00     0.058 A 
ATOM     81  C   UNL A   1      42.814  24.481  26.251  1.00  0.00     0.135 A 
ATOM     82  C   UNL A   1      40.988  24.250  27.772  1.00  0.00     0.135 A 
ATOM     83  F   UNL A   1      43.783  25.196  25.660  1.00  0.00    -0.206 F 
ATOM     84  C   UNL A   1      42.732  23.116  25.938  1.00  0.00     0.059 A 
ATOM     85  C   UNL A   1      40.883  22.892  27.473  1.00  0.00     0.059 A 
ATOM     86  F   UNL A   1      40.158  24.711  28.721  1.00  0.00    -0.206 F 
ATOM     87  C   UNL A   1      41.773  22.324  26.570  1.00  0.00     0.060 A 
BRANCH  87  88
ATOM     88  S   UNL A   1      41.760  20.536  26.290  1.00  0.00     0.124 S 
ATOM     89  O   UNL A   1      42.082  20.022  27.617  1.00  0.00    -0.237 OA
ATOM     90  O   UNL A   1      40.395  20.304  25.829  1.00  0.00    -0.237 OA
ATOM     91  O   UNL A   1      42.798  20.346  25.280  1.00  0.00    -0.744 OA
ENDBRANCH  87  88
ENDBRANCH  55  80
BRANCH  67  92
ATOM     92  C   UNL A   1      44.931  30.592  28.596  1.00  0.00     0.058 A 
ATOM     93  C   UNL A   1      43.871  31.360  28.083  1.00  0.00     0.135 A 
ATOM     94  C   UNL A   1      46.223  30.908  28.152  1.00  0.00     0.135 A 
ATOM     95  F   UNL A   1      42.617  31.185  28.521  1.00  0.00    -0.206 F 
ATOM     96  C   UNL A   1      44.086  32.394  27.166  1.00  0.00     0.059 A 
ATOM     97  C   UNL A   1      46.465  31.950  27.262  1.00  0.00     0.059 A 
ATOM     98  F   UNL A   1      47.283  30.250  28.650  1.00  0.00    -0.206 F 
ATOM     99  C   UNL A   1      45.391  32.689  26.772  1.00  0.00     0.060 A 
BRANCH  99 100
ATOM    100  S   UNL A   1      45.687  34.103  25.686  1.00  0.00     0.124 S 
ATOM    101  O   UNL A   1      47.138  34.070  25.530  1.00  0.00    -0.237 OA
ATOM    102  O   UNL A   1      44.914  33.758  24.497  1.00  0.00    -0.237 OA
ATOM    103  O   UNL A   1      45.166  35.234  26.450  1.00  0.00    -0.744 OA
ENDBRANCH  99 100
ENDBRANCH  67  92
ENDBRANCH  41  42
ENDBRANCH  33  36
ENDBRANCH  31  32
ENDBRANCH   1  31
TORSDOF 17
ENDMDL
MODEL 3
REMARK VINA RESULT:     -12.7      2.697      8.509
REMARK SMILES Cc1nccn1C1(C(=O)NCCCCNC(=O)c2ccc(-c3c4nc(c(-c5c(F)cc(S(=O)(=O)[O-])cc5F)c5ccc([nH]5)c(-c5c(F)cc(S(=O)(=O)[O-])cc5F)c5nc(c(-c6c(F)cc(S(=O)(=O)[O-])cc6F)c6ccc3[nH]6)C=C5)C=C4)cc2)CCN(C(=O)[C@@H]2C[C@H]2c2ccccc2)CC1
REMARK SMILES IDX 13 1 12 2 11 3 10 4 8 5 9 6 7 8 84 9 99 10 85 11 98 12 86 13
REMARK SMILES IDX 87 14 88 15 6 16 1 17 2 18 3 19 4 20 5 21 89 22 90 23 91 24
REMARK SMILES IDX 92 25 93 26 97 27 94 28 96 29 95 30 14 31 15 32 16 33 17 35
REMARK SMILES IDX 18 36 19 37 83 38 20 39 82 40 21 41 22 42 23 43 76 44 24 45
REMARK SMILES IDX 81 46 75 47 77 48 25 49 80 50 74 51 73 52 26 54 60 55 39 56
REMARK SMILES IDX 59 57 40 58 43 59 58 60 78 61 41 62 42 63 57 65 79 66 44 67
REMARK SMILES IDX 27 68 28 69 37 70 29 71 30 72 36 73 38 74 31 75 32 76 33 77
REMARK SMILES IDX 34 78 35 79 61 80 62 81 71 82 63 83 64 84 70 85 72 86 65 87
REMARK SMILES IDX 66 88 67 89 68 90 69 91 45 92 46 93 55 94 47 95 48 96 54 97
REMARK SMILES IDX 56 98 49 99 50 100 51 101 52 102 53 103
REMARK H PARENT 10 7 15 34 77 53 43 64
REMARK Flexibility Score: inf
ROOT
ATOM      1  C   UNL A   1      33.421  28.315  26.315  1.00  0.00     0.023 C 
ENDROOT
BRANCH   1   2
ATOM      2  C   UNL A   1      33.646  26.982  25.580  1.00  0.00     0.023 C 
BRANCH   2   3
ATOM      3  C   UNL A   1      33.405  25.706  26.399  1.00  0.00     0.116 C 
BRANCH   3   4
ATOM      4  N   UNL A   1      34.167  24.571  25.893  1.00  0.00    -0.354 N 
ATOM      5  C   UNL A   1      33.975  23.699  24.849  1.00  0.00     0.246 C 
ATOM      6  O   UNL A   1      34.983  23.041  24.574  1.00  0.00    -0.272 OA
ATOM      7  H   UNL A   1      34.989  24.393  26.404  1.00  0.00     0.163 HD
BRANCH   5   8
ATOM      8  C   UNL A   1      32.627  23.607  24.026  1.00  0.00     0.127 C 
ATOM      9  C   UNL A   1      31.463  24.019  24.948  1.00  0.00     0.061 C 
ATOM     10  C   UNL A   1      32.883  24.535  22.809  1.00  0.00     0.061 C 
ATOM     11  C   UNL A   1      30.329  24.695  24.212  1.00  0.00     0.122 C 
ATOM     12  C   UNL A   1      31.837  25.597  22.458  1.00  0.00     0.122 C 
ATOM     13  N   UNL A   1      30.770  25.836  23.420  1.00  0.00    -0.342 N 
ATOM     14  C   UNL A   1      29.817  26.865  23.294  1.00  0.00     0.226 C 
ATOM     15  O   UNL A   1      28.675  26.715  23.728  1.00  0.00    -0.275 OA
BRANCH   8  16
ATOM     16  N   UNL A   1      32.312  22.188  23.612  1.00  0.00    -0.320 N 
ATOM     17  C   UNL A   1      32.753  20.757  25.744  1.00  0.00     0.087 C 
ATOM     18  C   UNL A   1      32.467  20.985  24.307  1.00  0.00     0.106 A 
ATOM     19  N   UNL A   1      32.338  19.948  23.499  1.00  0.00    -0.242 NA
ATOM     20  C   UNL A   1      32.079  20.443  22.266  1.00  0.00     0.131 A 
ATOM     21  C   UNL A   1      32.092  21.809  22.296  1.00  0.00     0.108 A 
ENDBRANCH   8  16
BRANCH  14  22
ATOM     22  C   UNL A   1      30.106  28.208  22.719  1.00  0.00     0.087 C 
ATOM     23  C   UNL A   1      31.285  29.079  23.029  1.00  0.00     0.023 C 
ATOM     24  C   UNL A   1      29.892  29.526  23.428  1.00  0.00     0.032 C 
BRANCH  24  25
ATOM     25  C   UNL A   1      29.150  30.620  22.706  1.00  0.00    -0.044 A 
ATOM     26  C   UNL A   1      28.642  30.458  21.408  1.00  0.00     0.004 A 
ATOM     27  C   UNL A   1      29.015  31.884  23.305  1.00  0.00     0.004 A 
ATOM     28  C   UNL A   1      28.020  31.513  20.738  1.00  0.00     0.000 A 
ATOM     29  C   UNL A   1      28.404  32.946  22.636  1.00  0.00     0.000 A 
ATOM     30  C   UNL A   1      27.907  32.759  21.350  1.00  0.00     0.000 A 
ENDBRANCH  24  25
ENDBRANCH  14  22
ENDBRANCH   5   8
ENDBRANCH   3   4
ENDBRANCH   2   3
ENDBRANCH   1   2
BRANCH   1  31
ATOM     31  C   UNL A   1      34.576  29.297  26.195  1.00  0.00     0.116 C 
BRANCH  31  32
ATOM     32  N   UNL A   1      34.327  30.586  26.851  1.00  0.00    -0.352 N 
ATOM     33  C   UNL A   1      34.899  31.059  28.022  1.00  0.00     0.251 C 
ATOM     34  H   UNL A   1      33.679  31.183  26.410  1.00  0.00     0.163 HD
ATOM     35  O   UNL A   1      34.372  31.964  28.668  1.00  0.00    -0.269 OA
BRANCH  33  36
ATOM     36  C   UNL A   1      36.167  30.455  28.463  1.00  0.00     0.039 A 
ATOM     37  C   UNL A   1      36.384  29.073  28.526  1.00  0.00     0.014 A 
ATOM     38  C   UNL A   1      37.190  31.348  28.751  1.00  0.00     0.014 A 
ATOM     39  C   UNL A   1      37.668  28.611  28.817  1.00  0.00     0.010 A 
ATOM     40  C   UNL A   1      38.475  30.902  28.790  1.00  0.00     0.010 A 
ATOM     41  C   UNL A   1      38.708  29.541  28.939  1.00  0.00    -0.014 A 
BRANCH  41  42
ATOM     42  C   UNL A   1      40.093  29.164  29.186  1.00  0.00     0.031 A 
ATOM     43  C   UNL A   1      40.453  29.012  30.624  1.00  0.00     0.074 A 
ATOM     44  C   UNL A   1      40.847  28.673  28.175  1.00  0.00     0.049 A 
ATOM     45  N   UNL A   1      41.279  29.718  31.321  1.00  0.00    -0.248 NA
ATOM     46  C   UNL A   1      39.676  28.055  31.432  1.00  0.00     0.031 C 
ATOM     47  C   UNL A   1      40.452  28.421  26.778  1.00  0.00     0.029 A 
ATOM     48  N   UNL A   1      42.095  28.143  28.217  1.00  0.00    -0.354 N 
ATOM     49  C   UNL A   1      41.309  29.135  32.590  1.00  0.00     0.074 A 
ATOM     50  C   UNL A   1      40.148  28.292  32.658  1.00  0.00     0.031 C 
ATOM     51  C   UNL A   1      41.327  27.570  26.201  1.00  0.00     0.029 A 
ATOM     52  C   UNL A   1      42.434  27.366  27.112  1.00  0.00     0.049 A 
ATOM     53  H   UNL A   1      42.712  28.295  28.968  1.00  0.00     0.167 HD
ATOM     54  C   UNL A   1      42.423  29.198  33.376  1.00  0.00     0.037 A 
ATOM     55  C   UNL A   1      43.531  26.574  26.998  1.00  0.00     0.037 A 
ATOM     56  C   UNL A   1      43.353  30.170  32.853  1.00  0.00     0.049 A 
ATOM     57  C   UNL A   1      44.493  27.042  28.037  1.00  0.00     0.074 A 
ATOM     58  C   UNL A   1      43.302  31.528  32.606  1.00  0.00     0.029 A 
ATOM     59  N   UNL A   1      44.418  29.696  32.123  1.00  0.00    -0.354 N 
ATOM     60  N   UNL A   1      45.035  28.233  28.036  1.00  0.00    -0.248 NA
ATOM     61  C   UNL A   1      44.445  26.381  29.333  1.00  0.00     0.031 C 
ATOM     62  C   UNL A   1      43.997  31.699  31.374  1.00  0.00     0.029 A 
ATOM     63  C   UNL A   1      44.509  30.458  30.988  1.00  0.00     0.049 A 
ATOM     64  H   UNL A   1      45.007  28.946  32.370  1.00  0.00     0.167 HD
ATOM     65  C   UNL A   1      45.022  28.636  29.366  1.00  0.00     0.074 A 
ATOM     66  C   UNL A   1      44.698  27.428  30.124  1.00  0.00     0.031 C 
ATOM     67  C   UNL A   1      44.976  29.958  29.711  1.00  0.00     0.037 A 
BRANCH  54  68
ATOM     68  C   UNL A   1      42.868  28.143  34.373  1.00  0.00     0.058 A 
ATOM     69  C   UNL A   1      43.010  28.515  35.731  1.00  0.00     0.135 A 
ATOM     70  C   UNL A   1      43.430  26.894  34.033  1.00  0.00     0.135 A 
ATOM     71  F   UNL A   1      42.488  29.664  36.186  1.00  0.00    -0.206 F 
ATOM     72  C   UNL A   1      43.760  27.769  36.640  1.00  0.00     0.059 A 
ATOM     73  C   UNL A   1      44.137  26.109  34.939  1.00  0.00     0.059 A 
ATOM     74  F   UNL A   1      43.410  26.406  32.790  1.00  0.00    -0.206 F 
ATOM     75  C   UNL A   1      44.343  26.579  36.224  1.00  0.00     0.060 A 
BRANCH  75  76
ATOM     76  S   UNL A   1      45.425  25.682  37.349  1.00  0.00     0.124 S 
ATOM     77  O   UNL A   1      44.963  24.312  37.162  1.00  0.00    -0.237 OA
ATOM     78  O   UNL A   1      46.744  25.993  36.810  1.00  0.00    -0.237 OA
ATOM     79  O   UNL A   1      45.126  26.279  38.647  1.00  0.00    -0.744 OA
ENDBRANCH  75  76
ENDBRANCH  54  68
BRANCH  55  80
ATOM     80  C   UNL A   1      43.618  25.237  26.345  1.00  0.00     0.058 A 
ATOM     81  C   UNL A   1      44.525  24.985  25.301  1.00  0.00     0.135 A 
ATOM     82  C   UNL A   1      42.999  24.103  26.913  1.00  0.00     0.135 A 
ATOM     83  F   UNL A   1      45.177  26.001  24.716  1.00  0.00    -0.206 F 
ATOM     84  C   UNL A   1      44.826  23.686  24.868  1.00  0.00     0.059 A 
ATOM     85  C   UNL A   1      43.278  22.802  26.495  1.00  0.00     0.059 A 
ATOM     86  F   UNL A   1      42.160  24.222  27.953  1.00  0.00    -0.206 F 
ATOM     87  C   UNL A   1      44.209  22.597  25.486  1.00  0.00     0.060 A 
BRANCH  87  88
ATOM     88  S   UNL A   1      44.707  20.914  25.041  1.00  0.00     0.124 S 
ATOM     89  O   UNL A   1      46.074  20.861  25.547  1.00  0.00    -0.237 OA
ATOM     90  O   UNL A   1      43.728  20.103  25.757  1.00  0.00    -0.237 OA
ATOM     91  O   UNL A   1      44.581  20.900  23.586  1.00  0.00    -0.744 OA
ENDBRANCH  87  88
ENDBRANCH  55  80
BRANCH  67  92
ATOM     92  C   UNL A   1      45.204  31.005  28.650  1.00  0.00     0.058 A 
ATOM     93  C   UNL A   1      44.187  31.583  27.870  1.00  0.00     0.135 A 
ATOM     94  C   UNL A   1      46.469  31.608  28.601  1.00  0.00     0.135 A 
ATOM     95  F   UNL A   1      42.930  31.124  27.926  1.00  0.00    -0.206 F 
ATOM     96  C   UNL A   1      44.419  32.709  27.074  1.00  0.00     0.059 A 
ATOM     97  C   UNL A   1      46.717  32.746  27.839  1.00  0.00     0.059 A 
ATOM     98  F   UNL A   1      47.466  31.139  29.370  1.00  0.00    -0.206 F 
ATOM     99  C   UNL A   1      45.687  33.291  27.076  1.00  0.00     0.060 A 
BRANCH  99 100
ATOM    100  S   UNL A   1      45.959  34.818  26.150  1.00  0.00     0.124 S 
ATOM    101  O   UNL A   1      44.698  34.965  25.427  1.00  0.00    -0.237 OA
ATOM    102  O   UNL A   1      46.200  35.794  27.208  1.00  0.00    -0.237 OA
ATOM    103  O   UNL A   1      47.121  34.512  25.320  1.00  0.00    -0.744 OA
ENDBRANCH  99 100
ENDBRANCH  67  92
ENDBRANCH  41  42
ENDBRANCH  33  36
ENDBRANCH  31  32
ENDBRANCH   1  31
TORSDOF 17
ENDMDL
