MODEL 1
REMARK VINA RESULT:     -12.5      0.000      0.000
REMARK SMILES O=C(NCCCCNC(=O)[C@@H]1CCCC[C@H]1C(=O)Nc1ccccc1C(=O)N1CCOCC1)c1ccc(-c2c3nc(c(-c4c(F)cc(S(=O)(=O)[O-])cc4F)c4ccc([nH]4)c(-c4c(F)cc(S(=O)(=O)[O-])cc4F)c4nc(c(-c5c(F)cc(S(=O)(=O)[O-])cc5F)c5ccc2[nH]5)C=C4)C=C3)cc1
REMARK SMILES IDX 5 1 4 2 3 3 1 4 2 5 34 7 35 8 99 9 36 10 98 11 37 12 38 13
REMARK SMILES IDX 39 14 92 15 40 16 97 17 91 18 93 19 41 20 96 21 90 22 89 23
REMARK SMILES IDX 42 25 76 26 55 27 75 28 56 29 59 30 74 31 94 32 57 33 58 34
REMARK SMILES IDX 73 36 95 37 60 38 43 39 44 40 53 41 45 42 46 43 52 44 54 45
REMARK SMILES IDX 47 46 48 47 49 48 50 49 51 50 77 51 78 52 87 53 79 54 80 55
REMARK SMILES IDX 86 56 88 57 81 58 82 59 83 60 84 61 85 62 61 63 62 64 71 65
REMARK SMILES IDX 63 66 64 67 70 68 72 69 65 70 66 71 67 72 68 73 69 74 6 75
REMARK SMILES IDX 7 76 8 77 9 78 10 80 11 81 12 82 16 83 13 84 15 85 14 86
REMARK SMILES IDX 17 87 18 88 19 89 20 91 21 92 25 93 22 94 24 95 23 96 26 97
REMARK SMILES IDX 27 98 28 99 29 100 33 101 30 102 32 103 31 104
REMARK H PARENT 3 6 93 24 59 35 8 79 19 90
REMARK Flexibility Score: inf
ROOT
ATOM      1  C   UNL A   1      32.326  28.912  26.757  1.00  0.00     0.023 C 
ENDROOT
BRANCH   1   2
ATOM      2  C   UNL A   1      33.628  29.647  26.927  1.00  0.00     0.116 C 
BRANCH   2   3
ATOM      3  N   UNL A   1      33.699  30.666  27.968  1.00  0.00    -0.352 N 
ATOM      4  O   UNL A   1      34.747  31.929  29.547  1.00  0.00    -0.269 OA
ATOM      5  C   UNL A   1      34.799  31.007  28.751  1.00  0.00     0.251 C 
ATOM      6  H   UNL A   1      32.871  31.172  28.137  1.00  0.00     0.163 HD
BRANCH   5   7
ATOM      7  C   UNL A   1      36.020  30.166  28.645  1.00  0.00     0.039 A 
ATOM      8  C   UNL A   1      36.468  29.491  29.771  1.00  0.00     0.014 A 
ATOM      9  C   UNL A   1      36.830  30.244  27.508  1.00  0.00     0.014 A 
ATOM     10  C   UNL A   1      37.823  29.236  29.886  1.00  0.00     0.010 A 
ATOM     11  C   UNL A   1      38.154  29.778  27.566  1.00  0.00     0.010 A 
ATOM     12  C   UNL A   1      38.693  29.343  28.784  1.00  0.00    -0.014 A 
BRANCH  12  13
ATOM     13  C   UNL A   1      40.128  28.969  28.982  1.00  0.00     0.031 A 
ATOM     14  C   UNL A   1      40.702  27.652  28.511  1.00  0.00     0.074 A 
ATOM     15  C   UNL A   1      40.955  29.905  29.499  1.00  0.00     0.049 A 
ATOM     16  N   UNL A   1      41.934  27.214  28.616  1.00  0.00    -0.248 NA
ATOM     17  C   UNL A   1      39.792  26.693  27.863  1.00  0.00     0.031 C 
ATOM     18  C   UNL A   1      40.525  31.211  30.015  1.00  0.00     0.029 A 
ATOM     19  N   UNL A   1      42.320  29.949  29.613  1.00  0.00    -0.354 N 
ATOM     20  C   UNL A   1      41.936  25.919  28.105  1.00  0.00     0.074 A 
ATOM     21  C   UNL A   1      40.580  25.640  27.681  1.00  0.00     0.031 C 
ATOM     22  C   UNL A   1      41.598  31.974  30.245  1.00  0.00     0.029 A 
ATOM     23  C   UNL A   1      42.793  31.167  30.048  1.00  0.00     0.049 A 
ATOM     24  H   UNL A   1      42.906  29.185  29.405  1.00  0.00     0.167 HD
ATOM     25  C   UNL A   1      42.971  25.048  28.008  1.00  0.00     0.037 A 
ATOM     26  C   UNL A   1      44.043  31.591  30.306  1.00  0.00     0.037 A 
ATOM     27  C   UNL A   1      44.329  25.358  28.390  1.00  0.00     0.049 A 
ATOM     28  C   UNL A   1      45.172  30.625  30.141  1.00  0.00     0.074 A 
ATOM     29  C   UNL A   1      45.447  24.541  28.346  1.00  0.00     0.029 A 
ATOM     30  N   UNL A   1      44.761  26.590  28.861  1.00  0.00    -0.354 N 
ATOM     31  N   UNL A   1      45.131  29.381  29.732  1.00  0.00    -0.248 NA
ATOM     32  C   UNL A   1      46.509  31.104  30.507  1.00  0.00     0.031 C 
ATOM     33  C   UNL A   1      46.547  25.271  28.813  1.00  0.00     0.029 A 
ATOM     34  C   UNL A   1      46.124  26.555  29.111  1.00  0.00     0.049 A 
ATOM     35  H   UNL A   1      44.183  27.376  28.998  1.00  0.00     0.167 HD
ATOM     36  C   UNL A   1      46.433  28.914  29.822  1.00  0.00     0.074 A 
ATOM     37  C   UNL A   1      47.246  30.028  30.271  1.00  0.00     0.031 C 
ATOM     38  C   UNL A   1      46.909  27.668  29.580  1.00  0.00     0.037 A 
BRANCH  25  39
ATOM     39  C   UNL A   1      42.692  23.657  27.495  1.00  0.00     0.058 A 
ATOM     40  C   UNL A   1      42.765  23.338  26.131  1.00  0.00     0.135 A 
ATOM     41  C   UNL A   1      42.429  22.610  28.394  1.00  0.00     0.135 A 
ATOM     42  F   UNL A   1      43.000  24.299  25.224  1.00  0.00    -0.206 F 
ATOM     43  C   UNL A   1      42.580  22.034  25.676  1.00  0.00     0.059 A 
ATOM     44  C   UNL A   1      42.263  21.294  27.965  1.00  0.00     0.059 A 
ATOM     45  F   UNL A   1      42.351  22.854  29.712  1.00  0.00    -0.206 F 
ATOM     46  C   UNL A   1      42.332  21.017  26.601  1.00  0.00     0.060 A 
BRANCH  46  47
ATOM     47  S   UNL A   1      42.126  19.326  26.000  1.00  0.00     0.124 S 
ATOM     48  O   UNL A   1      43.021  19.316  24.846  1.00  0.00    -0.237 OA
ATOM     49  O   UNL A   1      42.560  18.529  27.143  1.00  0.00    -0.237 OA
ATOM     50  O   UNL A   1      40.702  19.246  25.689  1.00  0.00    -0.744 OA
ENDBRANCH  46  47
ENDBRANCH  25  39
BRANCH  26  51
ATOM     51  C   UNL A   1      44.258  32.971  30.818  1.00  0.00     0.058 A 
ATOM     52  C   UNL A   1      44.306  33.241  32.192  1.00  0.00     0.135 A 
ATOM     53  C   UNL A   1      44.483  34.037  29.931  1.00  0.00     0.135 A 
ATOM     54  F   UNL A   1      44.092  32.257  33.078  1.00  0.00    -0.206 F 
ATOM     55  C   UNL A   1      44.573  34.520  32.671  1.00  0.00     0.059 A 
ATOM     56  C   UNL A   1      44.788  35.313  30.385  1.00  0.00     0.059 A 
ATOM     57  F   UNL A   1      44.468  33.825  28.606  1.00  0.00    -0.206 F 
ATOM     58  C   UNL A   1      44.820  35.548  31.757  1.00  0.00     0.060 A 
BRANCH  58  59
ATOM     59  S   UNL A   1      45.250  37.189  32.374  1.00  0.00     0.124 S 
ATOM     60  O   UNL A   1      43.984  37.896  32.226  1.00  0.00    -0.237 OA
ATOM     61  O   UNL A   1      45.670  36.910  33.744  1.00  0.00    -0.237 OA
ATOM     62  O   UNL A   1      46.321  37.610  31.475  1.00  0.00    -0.744 OA
ENDBRANCH  58  59
ENDBRANCH  26  51
BRANCH  38  63
ATOM     63  C   UNL A   1      48.376  27.464  29.814  1.00  0.00     0.058 A 
ATOM     64  C   UNL A   1      49.313  27.680  28.790  1.00  0.00     0.135 A 
ATOM     65  C   UNL A   1      48.849  27.025  31.060  1.00  0.00     0.135 A 
ATOM     66  F   UNL A   1      48.906  28.090  27.578  1.00  0.00    -0.206 F 
ATOM     67  C   UNL A   1      50.665  27.422  28.979  1.00  0.00     0.059 A 
ATOM     68  C   UNL A   1      50.200  26.783  31.278  1.00  0.00     0.059 A 
ATOM     69  F   UNL A   1      47.992  26.811  32.071  1.00  0.00    -0.206 F 
ATOM     70  C   UNL A   1      51.097  26.964  30.225  1.00  0.00     0.060 A 
BRANCH  70  71
ATOM     71  S   UNL A   1      52.852  26.608  30.457  1.00  0.00     0.124 S 
ATOM     72  O   UNL A   1      52.802  25.499  31.403  1.00  0.00    -0.237 OA
ATOM     73  O   UNL A   1      53.288  26.271  29.106  1.00  0.00    -0.237 OA
ATOM     74  O   UNL A   1      53.382  27.862  30.985  1.00  0.00    -0.744 OA
ENDBRANCH  70  71
ENDBRANCH  38  63
ENDBRANCH  12  13
ENDBRANCH   5   7
ENDBRANCH   2   3
ENDBRANCH   1   2
BRANCH   1  75
ATOM     75  C   UNL A   1      32.368  27.412  26.554  1.00  0.00     0.023 C 
BRANCH  75  76
ATOM     76  C   UNL A   1      31.134  26.526  26.326  1.00  0.00     0.116 C 
BRANCH  76  77
ATOM     77  N   UNL A   1      31.339  25.257  27.035  1.00  0.00    -0.356 N 
ATOM     78  C   UNL A   1      31.528  23.955  26.727  1.00  0.00     0.223 C 
ATOM     79  H   UNL A   1      31.337  25.392  28.009  1.00  0.00     0.163 HD
ATOM     80  O   UNL A   1      31.101  23.189  27.610  1.00  0.00    -0.275 OA
BRANCH  78  81
ATOM     81  C   UNL A   1      32.413  23.301  25.649  1.00  0.00     0.091 C 
ATOM     82  C   UNL A   1      33.723  22.965  26.413  1.00  0.00     0.014 C 
ATOM     83  C   UNL A   1      32.758  23.793  24.231  1.00  0.00     0.091 C 
ATOM     84  C   UNL A   1      34.545  21.902  25.698  1.00  0.00     0.001 C 
ATOM     85  C   UNL A   1      33.688  22.762  23.516  1.00  0.00     0.014 C 
ATOM     86  C   UNL A   1      34.925  22.379  24.310  1.00  0.00     0.001 C 
BRANCH  83  87
ATOM     87  C   UNL A   1      31.729  24.112  23.130  1.00  0.00     0.228 C 
ATOM     88  O   UNL A   1      31.030  23.180  22.706  1.00  0.00    -0.274 OA
ATOM     89  N   UNL A   1      31.376  25.361  22.702  1.00  0.00    -0.325 N 
ATOM     90  H   UNL A   1      30.533  25.393  22.196  1.00  0.00     0.169 HD
BRANCH  89  91
ATOM     91  C   UNL A   1      32.003  26.603  22.858  1.00  0.00     0.054 A 
ATOM     92  C   UNL A   1      33.360  26.561  23.217  1.00  0.00     0.027 A 
ATOM     93  C   UNL A   1      31.368  27.851  22.754  1.00  0.00     0.063 A 
ATOM     94  C   UNL A   1      34.129  27.725  23.244  1.00  0.00     0.002 A 
ATOM     95  C   UNL A   1      32.175  29.003  22.675  1.00  0.00     0.016 A 
ATOM     96  C   UNL A   1      33.549  28.939  22.902  1.00  0.00     0.001 A 
BRANCH  93  97
ATOM     97  C   UNL A   1      29.914  28.130  23.043  1.00  0.00     0.256 C 
ATOM     98  O   UNL A   1      29.170  27.212  23.377  1.00  0.00    -0.269 OA
ATOM     99  N   UNL A   1      29.399  29.380  22.691  1.00  0.00    -0.334 N 
ATOM    100  C   UNL A   1      28.091  29.416  22.030  1.00  0.00     0.148 C 
ATOM    101  C   UNL A   1      29.419  30.387  23.717  1.00  0.00     0.148 C 
ATOM    102  C   UNL A   1      27.725  30.846  21.580  1.00  0.00     0.181 C 
ATOM    103  C   UNL A   1      29.217  31.785  23.161  1.00  0.00     0.181 C 
ATOM    104  O   UNL A   1      27.894  31.843  22.606  1.00  0.00    -0.378 OA
ENDBRANCH  93  97
ENDBRANCH  89  91
ENDBRANCH  83  87
ENDBRANCH  78  81
ENDBRANCH  76  77
ENDBRANCH  75  76
ENDBRANCH   1  75
TORSDOF 17
ENDMDL
MODEL 2
REMARK VINA RESULT:     -12.5      4.868      9.344
REMARK SMILES O=C(NCCCCNC(=O)[C@@H]1CCCC[C@H]1C(=O)Nc1ccccc1C(=O)N1CCOCC1)c1ccc(-c2c3nc(c(-c4c(F)cc(S(=O)(=O)[O-])cc4F)c4ccc([nH]4)c(-c4c(F)cc(S(=O)(=O)[O-])cc4F)c4nc(c(-c5c(F)cc(S(=O)(=O)[O-])cc5F)c5ccc2[nH]5)C=C4)C=C3)cc1
REMARK SMILES IDX 5 1 4 2 3 3 1 4 2 5 34 7 35 8 99 9 36 10 98 11 37 12 38 13
REMARK SMILES IDX 39 14 92 15 40 16 97 17 91 18 93 19 41 20 96 21 90 22 89 23
REMARK SMILES IDX 42 25 76 26 55 27 75 28 56 29 59 30 74 31 94 32 57 33 58 34
REMARK SMILES IDX 73 36 95 37 60 38 43 39 44 40 53 41 45 42 46 43 52 44 54 45
REMARK SMILES IDX 47 46 48 47 49 48 50 49 51 50 77 51 78 52 87 53 79 54 80 55
REMARK SMILES IDX 86 56 88 57 81 58 82 59 83 60 84 61 85 62 61 63 62 64 71 65
REMARK SMILES IDX 63 66 64 67 70 68 72 69 65 70 66 71 67 72 68 73 69 74 6 75
REMARK SMILES IDX 7 76 8 77 9 78 10 80 11 81 12 82 16 83 13 84 15 85 14 86
REMARK SMILES IDX 17 87 18 88 19 89 20 91 21 92 25 93 22 94 24 95 23 96 26 97
REMARK SMILES IDX 27 98 28 99 29 100 33 101 30 102 32 103 31 104
REMARK H PARENT 3 6 93 24 59 35 8 79 19 90
REMARK Flexibility Score: inf
ROOT
ATOM      1  C   UNL A   1      38.550  22.296  26.091  1.00  0.00     0.023 C 
ENDROOT
BRANCH   1   2
ATOM      2  C   UNL A   1      39.474  23.254  26.794  1.00  0.00     0.116 C 
BRANCH   2   3
ATOM      3  N   UNL A   1      40.614  23.769  26.044  1.00  0.00    -0.352 N 
ATOM      4  O   UNL A   1      42.255  25.273  25.563  1.00  0.00    -0.269 OA
ATOM      5  C   UNL A   1      41.265  24.988  26.215  1.00  0.00     0.251 C 
ATOM      6  H   UNL A   1      40.964  23.184  25.333  1.00  0.00     0.163 HD
BRANCH   5   7
ATOM      7  C   UNL A   1      40.675  25.968  27.163  1.00  0.00     0.039 A 
ATOM      8  C   UNL A   1      41.106  27.286  27.119  1.00  0.00     0.014 A 
ATOM      9  C   UNL A   1      39.885  25.526  28.229  1.00  0.00     0.014 A 
ATOM     10  C   UNL A   1      41.068  28.026  28.287  1.00  0.00     0.010 A 
ATOM     11  C   UNL A   1      39.665  26.372  29.328  1.00  0.00     0.010 A 
ATOM     12  C   UNL A   1      40.325  27.606  29.407  1.00  0.00    -0.014 A 
BRANCH  12  13
ATOM     13  C   UNL A   1      40.276  28.511  30.598  1.00  0.00     0.031 A 
ATOM     14  C   UNL A   1      41.315  28.474  31.696  1.00  0.00     0.074 A 
ATOM     15  C   UNL A   1      39.324  29.470  30.619  1.00  0.00     0.049 A 
ATOM     16  N   UNL A   1      41.388  29.214  32.776  1.00  0.00    -0.248 NA
ATOM     17  C   UNL A   1      42.396  27.479  31.592  1.00  0.00     0.031 C 
ATOM     18  C   UNL A   1      38.245  29.602  29.632  1.00  0.00     0.029 A 
ATOM     19  N   UNL A   1      39.142  30.553  31.440  1.00  0.00    -0.354 N 
ATOM     20  C   UNL A   1      42.476  28.741  33.504  1.00  0.00     0.074 A 
ATOM     21  C   UNL A   1      43.044  27.652  32.738  1.00  0.00     0.031 C 
ATOM     22  C   UNL A   1      37.616  30.768  29.813  1.00  0.00     0.029 A 
ATOM     23  C   UNL A   1      38.137  31.394  31.019  1.00  0.00     0.049 A 
ATOM     24  H   UNL A   1      39.677  30.713  32.251  1.00  0.00     0.167 HD
ATOM     25  C   UNL A   1      42.949  29.174  34.700  1.00  0.00     0.037 A 
ATOM     26  C   UNL A   1      37.645  32.525  31.556  1.00  0.00     0.037 A 
ATOM     27  C   UNL A   1      42.402  30.295  35.428  1.00  0.00     0.049 A 
ATOM     28  C   UNL A   1      38.219  33.008  32.849  1.00  0.00     0.074 A 
ATOM     29  C   UNL A   1      42.798  30.804  36.655  1.00  0.00     0.029 A 
ATOM     30  N   UNL A   1      41.360  31.098  34.987  1.00  0.00    -0.354 N 
ATOM     31  N   UNL A   1      39.197  32.493  33.553  1.00  0.00    -0.248 NA
ATOM     32  C   UNL A   1      37.603  34.202  33.440  1.00  0.00     0.031 C 
ATOM     33  C   UNL A   1      41.981  31.897  36.965  1.00  0.00     0.029 A 
ATOM     34  C   UNL A   1      41.100  32.096  35.915  1.00  0.00     0.049 A 
ATOM     35  H   UNL A   1      40.875  30.977  34.139  1.00  0.00     0.167 HD
ATOM     36  C   UNL A   1      39.294  33.280  34.691  1.00  0.00     0.074 A 
ATOM     37  C   UNL A   1      38.312  34.339  34.552  1.00  0.00     0.031 C 
ATOM     38  C   UNL A   1      40.103  33.124  35.767  1.00  0.00     0.037 A 
BRANCH  25  39
ATOM     39  C   UNL A   1      44.100  28.429  35.327  1.00  0.00     0.058 A 
ATOM     40  C   UNL A   1      45.436  28.794  35.102  1.00  0.00     0.135 A 
ATOM     41  C   UNL A   1      43.857  27.384  36.237  1.00  0.00     0.135 A 
ATOM     42  F   UNL A   1      45.731  29.775  34.235  1.00  0.00    -0.206 F 
ATOM     43  C   UNL A   1      46.488  28.147  35.748  1.00  0.00     0.059 A 
ATOM     44  C   UNL A   1      44.891  26.738  36.910  1.00  0.00     0.059 A 
ATOM     45  F   UNL A   1      42.598  26.993  36.495  1.00  0.00    -0.206 F 
ATOM     46  C   UNL A   1      46.205  27.121  36.653  1.00  0.00     0.060 A 
BRANCH  46  47
ATOM     47  S   UNL A   1      47.577  26.313  37.506  1.00  0.00     0.124 S 
ATOM     48  O   UNL A   1      48.715  27.100  37.039  1.00  0.00    -0.237 OA
ATOM     49  O   UNL A   1      47.222  26.487  38.911  1.00  0.00    -0.237 OA
ATOM     50  O   UNL A   1      47.523  24.939  37.015  1.00  0.00    -0.744 OA
ENDBRANCH  46  47
ENDBRANCH  25  39
BRANCH  26  51
ATOM     51  C   UNL A   1      36.504  33.214  30.898  1.00  0.00     0.058 A 
ATOM     52  C   UNL A   1      35.210  33.158  31.432  1.00  0.00     0.135 A 
ATOM     53  C   UNL A   1      36.706  33.996  29.749  1.00  0.00     0.135 A 
ATOM     54  F   UNL A   1      34.965  32.419  32.525  1.00  0.00    -0.206 F 
ATOM     55  C   UNL A   1      34.154  33.856  30.853  1.00  0.00     0.059 A 
ATOM     56  C   UNL A   1      35.676  34.731  29.175  1.00  0.00     0.059 A 
ATOM     57  F   UNL A   1      37.931  34.099  29.211  1.00  0.00    -0.206 F 
ATOM     58  C   UNL A   1      34.401  34.646  29.727  1.00  0.00     0.060 A 
BRANCH  58  59
ATOM     59  S   UNL A   1      33.054  35.621  29.023  1.00  0.00     0.124 S 
ATOM     60  O   UNL A   1      32.334  36.029  30.223  1.00  0.00    -0.237 OA
ATOM     61  O   UNL A   1      33.769  36.679  28.315  1.00  0.00    -0.237 OA
ATOM     62  O   UNL A   1      32.366  34.661  28.166  1.00  0.00    -0.744 OA
ENDBRANCH  58  59
ENDBRANCH  26  51
BRANCH  38  63
ATOM     63  C   UNL A   1      39.937  34.127  36.869  1.00  0.00     0.058 A 
ATOM     64  C   UNL A   1      39.091  33.875  37.961  1.00  0.00     0.135 A 
ATOM     65  C   UNL A   1      40.605  35.361  36.822  1.00  0.00     0.135 A 
ATOM     66  F   UNL A   1      38.424  32.714  38.043  1.00  0.00    -0.206 F 
ATOM     67  C   UNL A   1      38.877  34.831  38.947  1.00  0.00     0.059 A 
ATOM     68  C   UNL A   1      40.422  36.322  37.809  1.00  0.00     0.059 A 
ATOM     69  F   UNL A   1      41.428  35.645  35.800  1.00  0.00    -0.206 F 
ATOM     70  C   UNL A   1      39.540  36.056  38.856  1.00  0.00     0.060 A 
BRANCH  70  71
ATOM     71  S   UNL A   1      39.239  37.301  40.128  1.00  0.00     0.124 S 
ATOM     72  O   UNL A   1      38.593  36.506  41.167  1.00  0.00    -0.237 OA
ATOM     73  O   UNL A   1      40.586  37.772  40.435  1.00  0.00    -0.237 OA
ATOM     74  O   UNL A   1      38.381  38.270  39.453  1.00  0.00    -0.744 OA
ENDBRANCH  70  71
ENDBRANCH  38  63
ENDBRANCH  12  13
ENDBRANCH   5   7
ENDBRANCH   2   3
ENDBRANCH   1   2
BRANCH   1  75
ATOM     75  C   UNL A   1      37.366  22.862  25.336  1.00  0.00     0.023 C 
BRANCH  75  76
ATOM     76  C   UNL A   1      36.338  23.837  25.929  1.00  0.00     0.116 C 
BRANCH  76  77
ATOM     77  N   UNL A   1      35.343  23.060  26.678  1.00  0.00    -0.356 N 
ATOM     78  C   UNL A   1      33.998  22.963  26.758  1.00  0.00     0.223 C 
ATOM     79  H   UNL A   1      35.779  22.432  27.298  1.00  0.00     0.163 HD
ATOM     80  O   UNL A   1      33.611  22.599  27.883  1.00  0.00    -0.275 OA
BRANCH  78  81
ATOM     81  C   UNL A   1      32.929  22.943  25.647  1.00  0.00     0.091 C 
ATOM     82  C   UNL A   1      33.586  22.082  24.532  1.00  0.00     0.014 C 
ATOM     83  C   UNL A   1      32.157  24.111  25.006  1.00  0.00     0.091 C 
ATOM     84  C   UNL A   1      32.556  21.530  23.557  1.00  0.00     0.001 C 
ATOM     85  C   UNL A   1      31.167  23.572  23.926  1.00  0.00     0.014 C 
ATOM     86  C   UNL A   1      31.805  22.664  22.888  1.00  0.00     0.001 C 
BRANCH  83  87
ATOM     87  C   UNL A   1      31.279  25.118  25.772  1.00  0.00     0.228 C 
ATOM     88  O   UNL A   1      30.566  24.681  26.688  1.00  0.00    -0.274 OA
ATOM     89  N   UNL A   1      31.344  26.479  25.669  1.00  0.00    -0.325 N 
ATOM     90  H   UNL A   1      30.909  26.962  26.408  1.00  0.00     0.169 HD
BRANCH  89  91
ATOM     91  C   UNL A   1      31.921  27.306  24.698  1.00  0.00     0.054 A 
ATOM     92  C   UNL A   1      33.266  27.652  24.912  1.00  0.00     0.027 A 
ATOM     93  C   UNL A   1      31.247  27.857  23.597  1.00  0.00     0.063 A 
ATOM     94  C   UNL A   1      33.992  28.335  23.937  1.00  0.00     0.002 A 
ATOM     95  C   UNL A   1      32.016  28.447  22.574  1.00  0.00     0.016 A 
ATOM     96  C   UNL A   1      33.383  28.670  22.735  1.00  0.00     0.001 A 
BRANCH  93  97
ATOM     97  C   UNL A   1      29.775  28.181  23.532  1.00  0.00     0.256 C 
ATOM     98  O   UNL A   1      28.947  27.324  23.830  1.00  0.00    -0.269 OA
ATOM     99  N   UNL A   1      29.386  29.367  22.905  1.00  0.00    -0.334 N 
ATOM    100  C   UNL A   1      28.246  29.310  21.986  1.00  0.00     0.148 C 
ATOM    101  C   UNL A   1      29.228  30.514  23.758  1.00  0.00     0.148 C 
ATOM    102  C   UNL A   1      28.029  30.660  21.271  1.00  0.00     0.181 C 
ATOM    103  C   UNL A   1      29.193  31.815  22.979  1.00  0.00     0.181 C 
ATOM    104  O   UNL A   1      28.016  31.796  22.157  1.00  0.00    -0.378 OA
ENDBRANCH  93  97
ENDBRANCH  89  91
ENDBRANCH  83  87
ENDBRANCH  78  81
ENDBRANCH  76  77
ENDBRANCH  75  76
ENDBRANCH   1  75
TORSDOF 17
ENDMDL
MODEL 3
REMARK VINA RESULT:     -12.4      5.111     10.076
REMARK SMILES O=C(NCCCCNC(=O)[C@@H]1CCCC[C@H]1C(=O)Nc1ccccc1C(=O)N1CCOCC1)c1ccc(-c2c3nc(c(-c4c(F)cc(S(=O)(=O)[O-])cc4F)c4ccc([nH]4)c(-c4c(F)cc(S(=O)(=O)[O-])cc4F)c4nc(c(-c5c(F)cc(S(=O)(=O)[O-])cc5F)c5ccc2[nH]5)C=C4)C=C3)cc1
REMARK SMILES IDX 5 1 4 2 3 3 1 4 2 5 34 7 35 8 99 9 36 10 98 11 37 12 38 13
REMARK SMILES IDX 39 14 92 15 40 16 97 17 91 18 93 19 41 20 96 21 90 22 89 23
REMARK SMILES IDX 42 25 76 26 55 27 75 28 56 29 59 30 74 31 94 32 57 33 58 34
REMARK SMILES IDX 73 36 95 37 60 38 43 39 44 40 53 41 45 42 46 43 52 44 54 45
REMARK SMILES IDX 47 46 48 47 49 48 50 49 51 50 77 51 78 52 87 53 79 54 80 55
REMARK SMILES IDX 86 56 88 57 81 58 82 59 83 60 84 61 85 62 61 63 62 64 71 65
REMARK SMILES IDX 63 66 64 67 70 68 72 69 65 70 66 71 67 72 68 73 69 74 6 75
REMARK SMILES IDX 7 76 8 77 9 78 10 80 11 81 12 82 16 83 13 84 15 85 14 86
REMARK SMILES IDX 17 87 18 88 19 89 20 91 21 92 25 93 22 94 24 95 23 96 26 97
REMARK SMILES IDX 27 98 28 99 29 100 33 101 30 102 32 103 31 104
REMARK H PARENT 3 6 93 24 59 35 8 79 19 90
REMARK Flexibility Score: inf
ROOT
ATOM      1  C   UNL A   1      38.539  22.866  26.204  1.00  0.00     0.023 C 
ENDROOT
BRANCH   1   2
ATOM      2  C   UNL A   1      39.840  23.233  26.867  1.00  0.00     0.116 C 
BRANCH   2   3
ATOM      3  N   UNL A   1      40.888  23.804  26.029  1.00  0.00    -0.352 N 
ATOM      4  O   UNL A   1      42.375  25.408  25.395  1.00  0.00    -0.269 OA
ATOM      5  C   UNL A   1      41.452  25.074  26.118  1.00  0.00     0.251 C 
ATOM      6  H   UNL A   1      41.240  23.221  25.317  1.00  0.00     0.163 HD
BRANCH   5   7
ATOM      7  C   UNL A   1      40.845  26.042  27.069  1.00  0.00     0.039 A 
ATOM      8  C   UNL A   1      41.275  27.361  27.047  1.00  0.00     0.014 A 
ATOM      9  C   UNL A   1      40.040  25.586  28.117  1.00  0.00     0.014 A 
ATOM     10  C   UNL A   1      41.218  28.087  28.223  1.00  0.00     0.010 A 
ATOM     11  C   UNL A   1      39.802  26.419  29.223  1.00  0.00     0.010 A 
ATOM     12  C   UNL A   1      40.458  27.653  29.326  1.00  0.00    -0.014 A 
BRANCH  12  13
ATOM     13  C   UNL A   1      40.389  28.543  30.527  1.00  0.00     0.031 A 
ATOM     14  C   UNL A   1      41.425  28.511  31.628  1.00  0.00     0.074 A 
ATOM     15  C   UNL A   1      39.422  29.486  30.556  1.00  0.00     0.049 A 
ATOM     16  N   UNL A   1      41.481  29.240  32.717  1.00  0.00    -0.248 NA
ATOM     17  C   UNL A   1      42.523  27.536  31.518  1.00  0.00     0.031 C 
ATOM     18  C   UNL A   1      38.344  29.610  29.565  1.00  0.00     0.029 A 
ATOM     19  N   UNL A   1      39.218  30.556  31.387  1.00  0.00    -0.354 N 
ATOM     20  C   UNL A   1      42.575  28.778  33.444  1.00  0.00     0.074 A 
ATOM     21  C   UNL A   1      43.164  27.706  32.668  1.00  0.00     0.031 C 
ATOM     22  C   UNL A   1      37.695  30.764  29.757  1.00  0.00     0.029 A 
ATOM     23  C   UNL A   1      38.200  31.384  30.972  1.00  0.00     0.049 A 
ATOM     24  H   UNL A   1      39.748  30.716  32.202  1.00  0.00     0.167 HD
ATOM     25  C   UNL A   1      43.036  29.205  34.647  1.00  0.00     0.037 A 
ATOM     26  C   UNL A   1      37.688  32.501  31.520  1.00  0.00     0.037 A 
ATOM     27  C   UNL A   1      42.468  30.308  35.385  1.00  0.00     0.049 A 
ATOM     28  C   UNL A   1      38.249  32.980  32.820  1.00  0.00     0.074 A 
ATOM     29  C   UNL A   1      42.851  30.810  36.619  1.00  0.00     0.029 A 
ATOM     30  N   UNL A   1      41.414  31.098  34.949  1.00  0.00    -0.354 N 
ATOM     31  N   UNL A   1      39.232  32.473  33.522  1.00  0.00    -0.248 NA
ATOM     32  C   UNL A   1      37.611  34.155  33.422  1.00  0.00     0.031 C 
ATOM     33  C   UNL A   1      42.013  31.886  36.939  1.00  0.00     0.029 A 
ATOM     34  C   UNL A   1      41.134  32.081  35.887  1.00  0.00     0.049 A 
ATOM     35  H   UNL A   1      40.934  30.979  34.097  1.00  0.00     0.167 HD
ATOM     36  C   UNL A   1      39.312  33.248  34.669  1.00  0.00     0.074 A 
ATOM     37  C   UNL A   1      38.313  34.292  34.538  1.00  0.00     0.031 C 
ATOM     38  C   UNL A   1      40.120  33.094  35.746  1.00  0.00     0.037 A 
BRANCH  25  39
ATOM     39  C   UNL A   1      44.197  28.472  35.270  1.00  0.00     0.058 A 
ATOM     40  C   UNL A   1      44.014  27.356  36.100  1.00  0.00     0.135 A 
ATOM     41  C   UNL A   1      45.517  28.842  34.961  1.00  0.00     0.135 A 
ATOM     42  F   UNL A   1      42.777  26.962  36.440  1.00  0.00    -0.206 F 
ATOM     43  C   UNL A   1      45.096  26.640  36.608  1.00  0.00     0.059 A 
ATOM     44  C   UNL A   1      46.614  28.128  35.439  1.00  0.00     0.059 A 
ATOM     45  F   UNL A   1      45.754  29.900  34.169  1.00  0.00    -0.206 F 
ATOM     46  C   UNL A   1      46.394  27.032  36.270  1.00  0.00     0.060 A 
BRANCH  46  47
ATOM     47  S   UNL A   1      47.786  26.075  36.911  1.00  0.00     0.124 S 
ATOM     48  O   UNL A   1      48.922  26.864  36.443  1.00  0.00    -0.237 OA
ATOM     49  O   UNL A   1      47.549  26.098  38.351  1.00  0.00    -0.237 OA
ATOM     50  O   UNL A   1      47.625  24.771  36.275  1.00  0.00    -0.744 OA
ENDBRANCH  46  47
ENDBRANCH  25  39
BRANCH  26  51
ATOM     51  C   UNL A   1      36.537  33.178  30.865  1.00  0.00     0.058 A 
ATOM     52  C   UNL A   1      35.245  33.108  31.403  1.00  0.00     0.135 A 
ATOM     53  C   UNL A   1      36.728  33.963  29.716  1.00  0.00     0.135 A 
ATOM     54  F   UNL A   1      35.011  32.366  32.495  1.00  0.00    -0.206 F 
ATOM     55  C   UNL A   1      34.181  33.795  30.826  1.00  0.00     0.059 A 
ATOM     56  C   UNL A   1      35.689  34.687  29.145  1.00  0.00     0.059 A 
ATOM     57  F   UNL A   1      37.951  34.079  29.175  1.00  0.00    -0.206 F 
ATOM     58  C   UNL A   1      34.417  34.589  29.701  1.00  0.00     0.060 A 
BRANCH  58  59
ATOM     59  S   UNL A   1      33.058  35.549  29.001  1.00  0.00     0.124 S 
ATOM     60  O   UNL A   1      32.338  35.952  30.203  1.00  0.00    -0.237 OA
ATOM     61  O   UNL A   1      33.759  36.612  28.287  1.00  0.00    -0.237 OA
ATOM     62  O   UNL A   1      32.375  34.581  28.148  1.00  0.00    -0.744 OA
ENDBRANCH  58  59
ENDBRANCH  26  51
BRANCH  38  63
ATOM     63  C   UNL A   1      39.933  34.082  36.860  1.00  0.00     0.058 A 
ATOM     64  C   UNL A   1      39.194  33.753  38.007  1.00  0.00     0.135 A 
ATOM     65  C   UNL A   1      40.471  35.375  36.767  1.00  0.00     0.135 A 
ATOM     66  F   UNL A   1      38.651  32.532  38.134  1.00  0.00    -0.206 F 
ATOM     67  C   UNL A   1      38.956  34.688  39.007  1.00  0.00     0.059 A 
ATOM     68  C   UNL A   1      40.264  36.318  37.767  1.00  0.00     0.059 A 
ATOM     69  F   UNL A   1      41.189  35.733  35.692  1.00  0.00    -0.206 F 
ATOM     70  C   UNL A   1      39.487  35.972  38.872  1.00  0.00     0.060 A 
BRANCH  70  71
ATOM     71  S   UNL A   1      39.153  37.189  40.164  1.00  0.00     0.124 S 
ATOM     72  O   UNL A   1      38.380  36.398  41.116  1.00  0.00    -0.237 OA
ATOM     73  O   UNL A   1      40.495  37.567  40.596  1.00  0.00    -0.237 OA
ATOM     74  O   UNL A   1      38.411  38.231  39.461  1.00  0.00    -0.744 OA
ENDBRANCH  70  71
ENDBRANCH  38  63
ENDBRANCH  12  13
ENDBRANCH   5   7
ENDBRANCH   2   3
ENDBRANCH   1   2
BRANCH   1  75
ATOM     75  C   UNL A   1      37.687  23.977  25.628  1.00  0.00     0.023 C 
BRANCH  75  76
ATOM     76  C   UNL A   1      36.414  23.760  24.796  1.00  0.00     0.116 C 
BRANCH  76  77
ATOM     77  N   UNL A   1      35.352  23.286  25.692  1.00  0.00    -0.356 N 
ATOM     78  C   UNL A   1      34.352  23.816  26.431  1.00  0.00     0.223 C 
ATOM     79  H   UNL A   1      35.373  22.306  25.778  1.00  0.00     0.163 HD
ATOM     80  O   UNL A   1      34.079  23.125  27.429  1.00  0.00    -0.275 OA
BRANCH  78  81
ATOM     81  C   UNL A   1      33.340  24.928  26.094  1.00  0.00     0.091 C 
ATOM     82  C   UNL A   1      34.118  26.233  26.419  1.00  0.00     0.014 C 
ATOM     83  C   UNL A   1      31.871  25.084  26.529  1.00  0.00     0.091 C 
ATOM     84  C   UNL A   1      33.515  27.446  25.725  1.00  0.00     0.001 C 
ATOM     85  C   UNL A   1      31.263  26.382  25.910  1.00  0.00     0.014 C 
ATOM     86  C   UNL A   1      32.076  27.639  26.165  1.00  0.00     0.001 C 
BRANCH  83  87
ATOM     87  C   UNL A   1      30.757  24.053  26.271  1.00  0.00     0.228 C 
ATOM     88  O   UNL A   1      29.849  23.962  27.111  1.00  0.00    -0.274 OA
ATOM     89  N   UNL A   1      30.565  23.355  25.111  1.00  0.00    -0.325 N 
ATOM     90  H   UNL A   1      29.672  22.950  25.026  1.00  0.00     0.169 HD
BRANCH  89  91
ATOM     91  C   UNL A   1      31.414  23.115  24.025  1.00  0.00     0.054 A 
ATOM     92  C   UNL A   1      31.269  23.988  22.934  1.00  0.00     0.027 A 
ATOM     93  C   UNL A   1      32.321  22.049  23.924  1.00  0.00     0.063 A 
ATOM     94  C   UNL A   1      32.164  23.949  21.864  1.00  0.00     0.002 A 
ATOM     95  C   UNL A   1      33.285  22.090  22.897  1.00  0.00     0.016 A 
ATOM     96  C   UNL A   1      33.218  23.044  21.882  1.00  0.00     0.001 A 
BRANCH  93  97
ATOM     97  C   UNL A   1      32.182  20.703  24.590  1.00  0.00     0.256 C 
ATOM     98  O   UNL A   1      31.753  20.630  25.739  1.00  0.00    -0.269 OA
ATOM     99  N   UNL A   1      32.769  19.596  23.972  1.00  0.00    -0.334 N 
ATOM    100  C   UNL A   1      33.514  18.659  24.817  1.00  0.00     0.148 C 
ATOM    101  C   UNL A   1      31.923  18.839  23.088  1.00  0.00     0.148 C 
ATOM    102  C   UNL A   1      34.216  17.573  23.974  1.00  0.00     0.181 C 
ATOM    103  C   UNL A   1      32.713  17.918  22.177  1.00  0.00     0.181 C 
ATOM    104  O   UNL A   1      33.358  16.940  23.006  1.00  0.00    -0.378 OA
ENDBRANCH  93  97
ENDBRANCH  89  91
ENDBRANCH  83  87
ENDBRANCH  78  81
ENDBRANCH  76  77
ENDBRANCH  75  76
ENDBRANCH   1  75
TORSDOF 17
ENDMDL
