MODEL 1
REMARK VINA RESULT:     -11.0      0.000      0.000
REMARK SMILES C[NH2+][C@H](CC(=O)NCCCCNC(=O)c1ccc(-c2c3nc(c(-c4c(F)cc(S(=O)(=O)[O-])cc4F)c4ccc([nH]4)c(-c4c(F)cc(S(=O)(=O)[O-])cc4F)c4nc(c(-c5c(F)cc(S(=O)(=O)[O-])cc5F)c5ccc2[nH]5)C=C4)C=C3)cc1)c1cccc(C2CC2)c1
REMARK SMILES IDX 9 1 8 2 7 3 5 4 6 5 4 7 3 8 2 9 1 10 81 13 82 14 89 15 83 16
REMARK SMILES IDX 85 17 84 18 86 19 87 20 88 21 10 22 11 23 12 24 13 25 14 27
REMARK SMILES IDX 15 28 16 29 80 30 17 31 79 32 18 33 19 34 20 35 73 36 21 37
REMARK SMILES IDX 78 38 72 39 74 40 22 41 77 42 71 43 70 44 23 46 57 47 36 48
REMARK SMILES IDX 56 49 37 50 40 51 55 52 75 53 38 54 39 55 54 57 76 58 41 59
REMARK SMILES IDX 24 60 25 61 34 62 26 63 27 64 33 65 35 66 28 67 29 68 30 69
REMARK SMILES IDX 31 70 32 71 58 72 59 73 68 74 60 75 61 76 67 77 69 78 62 79
REMARK SMILES IDX 63 80 64 81 65 82 66 83 42 84 43 85 52 86 44 87 45 88 51 89
REMARK SMILES IDX 53 90 46 91 47 92 48 93 49 94 50 95
REMARK H PARENT 7 6 2 11 2 12 12 26 74 45 40 56
REMARK Flexibility Score: inf
ROOT
ATOM      1  C   UNL A   1      31.841  30.315  26.844  1.00  0.00     0.023 C 
ENDROOT
BRANCH   1   2
ATOM      2  C   UNL A   1      31.626  29.630  25.494  1.00  0.00     0.116 C 
BRANCH   2   3
ATOM      3  N   UNL A   1      32.777  29.702  24.619  1.00  0.00    -0.356 N 
ATOM      4  C   UNL A   1      33.280  28.814  23.723  1.00  0.00     0.226 C 
ATOM      5  O   UNL A   1      34.182  29.206  22.976  1.00  0.00    -0.275 OA
ATOM      6  H   UNL A   1      33.284  30.543  24.685  1.00  0.00     0.163 HD
BRANCH   4   7
ATOM      7  C   UNL A   1      32.730  27.409  23.591  1.00  0.00     0.170 C 
BRANCH   7   8
ATOM      8  C   UNL A   1      31.676  27.198  22.485  1.00  0.00     0.222 C 
BRANCH   8   9
ATOM      9  N   UNL A   1      31.704  25.799  22.003  1.00  0.00    -0.342 N 
ATOM     10  C   UNL A   1      32.599  24.954  22.781  1.00  0.00     0.331 C 
ATOM     11  H   UNL A   1      30.760  25.415  22.061  1.00  0.00     0.346 HD
ATOM     12  H   UNL A   1      32.047  25.811  21.043  1.00  0.00     0.346 HD
ENDBRANCH   8   9
BRANCH   8  13
ATOM     13  C   UNL A   1      30.256  27.580  22.881  1.00  0.00     0.010 A 
ATOM     14  C   UNL A   1      29.506  26.684  23.650  1.00  0.00     0.010 A 
ATOM     15  C   UNL A   1      29.655  28.791  22.498  1.00  0.00     0.014 A 
ATOM     16  C   UNL A   1      28.154  26.894  23.877  1.00  0.00     0.001 A 
ATOM     17  C   UNL A   1      28.314  29.088  22.817  1.00  0.00    -0.044 A 
ATOM     18  C   UNL A   1      27.567  28.080  23.453  1.00  0.00     0.004 A 
BRANCH  17  19
ATOM     19  C   UNL A   1      27.653  30.430  22.571  1.00  0.00     0.019 C 
ATOM     20  C   UNL A   1      27.991  31.576  23.501  1.00  0.00     0.009 C 
ATOM     21  C   UNL A   1      28.371  31.644  22.049  1.00  0.00     0.009 C 
ENDBRANCH  17  19
ENDBRANCH   8  13
ENDBRANCH   7   8
ENDBRANCH   4   7
ENDBRANCH   2   3
ENDBRANCH   1   2
BRANCH   1  22
ATOM     22  C   UNL A   1      31.818  31.845  26.835  1.00  0.00     0.023 C 
BRANCH  22  23
ATOM     23  C   UNL A   1      33.141  32.480  27.236  1.00  0.00     0.116 C 
BRANCH  23  24
ATOM     24  N   UNL A   1      32.948  33.850  27.692  1.00  0.00    -0.352 N 
ATOM     25  C   UNL A   1      33.431  34.487  28.806  1.00  0.00     0.251 C 
ATOM     26  H   UNL A   1      32.382  34.405  27.109  1.00  0.00     0.163 HD
ATOM     27  O   UNL A   1      32.899  35.539  29.165  1.00  0.00    -0.269 OA
BRANCH  25  28
ATOM     28  C   UNL A   1      34.579  33.941  29.562  1.00  0.00     0.039 A 
ATOM     29  C   UNL A   1      35.875  34.268  29.151  1.00  0.00     0.014 A 
ATOM     30  C   UNL A   1      34.391  33.050  30.621  1.00  0.00     0.014 A 
ATOM     31  C   UNL A   1      36.973  33.717  29.816  1.00  0.00     0.010 A 
ATOM     32  C   UNL A   1      35.483  32.579  31.343  1.00  0.00     0.010 A 
ATOM     33  C   UNL A   1      36.785  32.878  30.926  1.00  0.00    -0.014 A 
BRANCH  33  34
ATOM     34  C   UNL A   1      37.942  32.266  31.626  1.00  0.00     0.031 A 
ATOM     35  C   UNL A   1      38.377  32.797  32.969  1.00  0.00     0.074 A 
ATOM     36  C   UNL A   1      38.616  31.259  31.038  1.00  0.00     0.049 A 
ATOM     37  N   UNL A   1      39.371  32.412  33.727  1.00  0.00    -0.248 NA
ATOM     38  C   UNL A   1      37.618  33.935  33.516  1.00  0.00     0.031 C 
ATOM     39  C   UNL A   1      38.334  30.719  29.705  1.00  0.00     0.029 A 
ATOM     40  N   UNL A   1      39.676  30.512  31.481  1.00  0.00    -0.354 N 
ATOM     41  C   UNL A   1      39.363  33.264  34.826  1.00  0.00     0.074 A 
ATOM     42  C   UNL A   1      38.311  34.230  34.605  1.00  0.00     0.031 C 
ATOM     43  C   UNL A   1      39.179  29.706  29.454  1.00  0.00     0.029 A 
ATOM     44  C   UNL A   1      40.072  29.539  30.594  1.00  0.00     0.049 A 
ATOM     45  H   UNL A   1      40.111  30.658  32.352  1.00  0.00     0.167 HD
ATOM     46  C   UNL A   1      40.136  33.223  35.938  1.00  0.00     0.037 A 
ATOM     47  C   UNL A   1      41.041  28.609  30.699  1.00  0.00     0.037 A 
ATOM     48  C   UNL A   1      41.154  32.231  36.165  1.00  0.00     0.049 A 
ATOM     49  C   UNL A   1      41.839  28.539  31.972  1.00  0.00     0.074 A 
ATOM     50  C   UNL A   1      41.970  32.067  37.271  1.00  0.00     0.029 A 
ATOM     51  N   UNL A   1      41.485  31.223  35.270  1.00  0.00    -0.354 N 
ATOM     52  N   UNL A   1      41.781  29.320  33.025  1.00  0.00    -0.248 NA
ATOM     53  C   UNL A   1      42.817  27.450  32.081  1.00  0.00     0.031 C 
ATOM     54  C   UNL A   1      42.808  30.971  37.036  1.00  0.00     0.029 A 
ATOM     55  C   UNL A   1      42.489  30.431  35.799  1.00  0.00     0.049 A 
ATOM     56  H   UNL A   1      41.066  31.091  34.390  1.00  0.00     0.167 HD
ATOM     57  C   UNL A   1      42.707  28.811  33.926  1.00  0.00     0.074 A 
ATOM     58  C   UNL A   1      43.289  27.637  33.305  1.00  0.00     0.031 C 
ATOM     59  C   UNL A   1      43.053  29.272  35.154  1.00  0.00     0.037 A 
BRANCH  46  60
ATOM     60  C   UNL A   1      39.885  34.261  37.000  1.00  0.00     0.058 A 
ATOM     61  C   UNL A   1      39.087  33.980  38.122  1.00  0.00     0.135 A 
ATOM     62  C   UNL A   1      40.456  35.539  36.909  1.00  0.00     0.135 A 
ATOM     63  F   UNL A   1      38.499  32.780  38.250  1.00  0.00    -0.206 F 
ATOM     64  C   UNL A   1      38.838  34.939  39.099  1.00  0.00     0.059 A 
ATOM     65  C   UNL A   1      40.244  36.506  37.890  1.00  0.00     0.059 A 
ATOM     66  F   UNL A   1      41.226  35.863  35.859  1.00  0.00    -0.206 F 
ATOM     67  C   UNL A   1      39.420  36.200  38.973  1.00  0.00     0.060 A 
BRANCH  67  68
ATOM     68  S   UNL A   1      39.094  37.433  40.252  1.00  0.00     0.124 S 
ATOM     69  O   UNL A   1      38.153  38.318  39.568  1.00  0.00    -0.237 OA
ATOM     70  O   UNL A   1      38.528  36.623  41.330  1.00  0.00    -0.237 OA
ATOM     71  O   UNL A   1      40.407  38.000  40.522  1.00  0.00    -0.744 OA
ENDBRANCH  67  68
ENDBRANCH  46  60
BRANCH  47  72
ATOM     72  C   UNL A   1      41.273  27.651  29.587  1.00  0.00     0.058 A 
ATOM     73  C   UNL A   1      42.424  27.733  28.789  1.00  0.00     0.135 A 
ATOM     74  C   UNL A   1      40.362  26.618  29.316  1.00  0.00     0.135 A 
ATOM     75  F   UNL A   1      43.325  28.702  29.010  1.00  0.00    -0.206 F 
ATOM     76  C   UNL A   1      42.654  26.840  27.748  1.00  0.00     0.059 A 
ATOM     77  C   UNL A   1      40.582  25.698  28.295  1.00  0.00     0.059 A 
ATOM     78  F   UNL A   1      39.257  26.481  30.066  1.00  0.00    -0.206 F 
ATOM     79  C   UNL A   1      41.727  25.825  27.508  1.00  0.00     0.060 A 
BRANCH  79  80
ATOM     80  S   UNL A   1      42.057  24.639  26.185  1.00  0.00     0.124 S 
ATOM     81  O   UNL A   1      41.940  25.482  25.002  1.00  0.00    -0.237 OA
ATOM     82  O   UNL A   1      43.403  24.179  26.512  1.00  0.00    -0.237 OA
ATOM     83  O   UNL A   1      41.003  23.643  26.361  1.00  0.00    -0.744 OA
ENDBRANCH  79  80
ENDBRANCH  47  72
BRANCH  59  84
ATOM     84  C   UNL A   1      44.099  28.494  35.899  1.00  0.00     0.058 A 
ATOM     85  C   UNL A   1      45.464  28.785  35.763  1.00  0.00     0.135 A 
ATOM     86  C   UNL A   1      43.730  27.454  36.767  1.00  0.00     0.135 A 
ATOM     87  F   UNL A   1      45.867  29.769  34.943  1.00  0.00    -0.206 F 
ATOM     88  C   UNL A   1      46.433  28.045  36.431  1.00  0.00     0.059 A 
ATOM     89  C   UNL A   1      44.681  26.718  37.465  1.00  0.00     0.059 A 
ATOM     90  F   UNL A   1      42.434  27.146  36.942  1.00  0.00    -0.206 F 
ATOM     91  C   UNL A   1      46.031  27.008  37.274  1.00  0.00     0.060 A 
BRANCH  91  92
ATOM     92  S   UNL A   1      47.296  26.049  38.132  1.00  0.00     0.124 S 
ATOM     93  O   UNL A   1      48.498  26.824  37.840  1.00  0.00    -0.237 OA
ATOM     94  O   UNL A   1      46.837  26.088  39.517  1.00  0.00    -0.237 OA
ATOM     95  O   UNL A   1      47.221  24.739  37.491  1.00  0.00    -0.744 OA
ENDBRANCH  91  92
ENDBRANCH  59  84
ENDBRANCH  33  34
ENDBRANCH  25  28
ENDBRANCH  23  24
ENDBRANCH  22  23
ENDBRANCH   1  22
TORSDOF 18
ENDMDL
MODEL 2
REMARK VINA RESULT:     -10.9      5.381     10.536
REMARK SMILES C[NH2+][C@H](CC(=O)NCCCCNC(=O)c1ccc(-c2c3nc(c(-c4c(F)cc(S(=O)(=O)[O-])cc4F)c4ccc([nH]4)c(-c4c(F)cc(S(=O)(=O)[O-])cc4F)c4nc(c(-c5c(F)cc(S(=O)(=O)[O-])cc5F)c5ccc2[nH]5)C=C4)C=C3)cc1)c1cccc(C2CC2)c1
REMARK SMILES IDX 9 1 8 2 7 3 5 4 6 5 4 7 3 8 2 9 1 10 81 13 82 14 89 15 83 16
REMARK SMILES IDX 85 17 84 18 86 19 87 20 88 21 10 22 11 23 12 24 13 25 14 27
REMARK SMILES IDX 15 28 16 29 80 30 17 31 79 32 18 33 19 34 20 35 73 36 21 37
REMARK SMILES IDX 78 38 72 39 74 40 22 41 77 42 71 43 70 44 23 46 57 47 36 48
REMARK SMILES IDX 56 49 37 50 40 51 55 52 75 53 38 54 39 55 54 57 76 58 41 59
REMARK SMILES IDX 24 60 25 61 34 62 26 63 27 64 33 65 35 66 28 67 29 68 30 69
REMARK SMILES IDX 31 70 32 71 58 72 59 73 68 74 60 75 61 76 67 77 69 78 62 79
REMARK SMILES IDX 63 80 64 81 65 82 66 83 42 84 43 85 52 86 44 87 45 88 51 89
REMARK SMILES IDX 53 90 46 91 47 92 48 93 49 94 50 95
REMARK H PARENT 7 6 2 11 2 12 12 26 74 45 40 56
REMARK Flexibility Score: inf
ROOT
ATOM      1  C   UNL A   1      33.734  24.603  25.270  1.00  0.00     0.023 C 
ENDROOT
BRANCH   1   2
ATOM      2  C   UNL A   1      32.580  24.480  24.273  1.00  0.00     0.116 C 
BRANCH   2   3
ATOM      3  N   UNL A   1      32.979  24.700  22.899  1.00  0.00    -0.356 N 
ATOM      4  C   UNL A   1      32.756  25.741  22.055  1.00  0.00     0.226 C 
ATOM      5  O   UNL A   1      33.365  25.746  20.982  1.00  0.00    -0.275 OA
ATOM      6  H   UNL A   1      33.505  23.966  22.507  1.00  0.00     0.163 HD
BRANCH   4   7
ATOM      7  C   UNL A   1      31.841  26.890  22.424  1.00  0.00     0.170 C 
BRANCH   7   8
ATOM      8  C   UNL A   1      32.535  28.172  22.926  1.00  0.00     0.222 C 
BRANCH   8   9
ATOM      9  N   UNL A   1      31.827  29.373  22.431  1.00  0.00    -0.342 N 
ATOM     10  C   UNL A   1      30.393  29.164  22.294  1.00  0.00     0.331 C 
ATOM     11  H   UNL A   1      31.984  30.139  23.088  1.00  0.00     0.346 HD
ATOM     12  H   UNL A   1      32.197  29.589  21.506  1.00  0.00     0.346 HD
ENDBRANCH   8   9
BRANCH   8  13
ATOM     13  C   UNL A   1      32.698  28.255  24.438  1.00  0.00     0.010 A 
ATOM     14  C   UNL A   1      31.640  27.840  25.254  1.00  0.00     0.010 A 
ATOM     15  C   UNL A   1      33.861  28.742  25.057  1.00  0.00     0.014 A 
ATOM     16  C   UNL A   1      31.659  28.068  26.622  1.00  0.00     0.001 A 
ATOM     17  C   UNL A   1      33.958  28.876  26.458  1.00  0.00    -0.044 A 
ATOM     18  C   UNL A   1      32.804  28.591  27.211  1.00  0.00     0.004 A 
BRANCH  17  19
ATOM     19  C   UNL A   1      35.229  29.246  27.196  1.00  0.00     0.019 C 
ATOM     20  C   UNL A   1      35.448  30.699  27.560  1.00  0.00     0.009 C 
ATOM     21  C   UNL A   1      35.278  29.667  28.639  1.00  0.00     0.009 C 
ENDBRANCH  17  19
ENDBRANCH   8  13
ENDBRANCH   7   8
ENDBRANCH   4   7
ENDBRANCH   2   3
ENDBRANCH   1   2
BRANCH   1  22
ATOM     22  C   UNL A   1      34.927  23.674  25.036  1.00  0.00     0.023 C 
BRANCH  22  23
ATOM     23  C   UNL A   1      36.163  24.051  25.841  1.00  0.00     0.116 C 
BRANCH  23  24
ATOM     24  N   UNL A   1      37.047  22.906  26.010  1.00  0.00    -0.352 N 
ATOM     25  C   UNL A   1      38.399  22.858  26.232  1.00  0.00     0.251 C 
ATOM     26  H   UNL A   1      36.604  22.028  25.956  1.00  0.00     0.163 HD
ATOM     27  O   UNL A   1      38.996  21.799  26.034  1.00  0.00    -0.269 OA
BRANCH  25  28
ATOM     28  C   UNL A   1      39.137  24.045  26.717  1.00  0.00     0.039 A 
ATOM     29  C   UNL A   1      39.092  24.359  28.079  1.00  0.00     0.014 A 
ATOM     30  C   UNL A   1      39.807  24.893  25.832  1.00  0.00     0.014 A 
ATOM     31  C   UNL A   1      39.733  25.507  28.548  1.00  0.00     0.010 A 
ATOM     32  C   UNL A   1      40.527  25.982  26.314  1.00  0.00     0.010 A 
ATOM     33  C   UNL A   1      40.468  26.321  27.671  1.00  0.00    -0.014 A 
BRANCH  33  34
ATOM     34  C   UNL A   1      41.133  27.557  28.151  1.00  0.00     0.031 A 
ATOM     35  C   UNL A   1      42.630  27.699  28.037  1.00  0.00     0.074 A 
ATOM     36  C   UNL A   1      40.395  28.531  28.717  1.00  0.00     0.049 A 
ATOM     37  N   UNL A   1      43.397  28.688  28.416  1.00  0.00    -0.248 NA
ATOM     38  C   UNL A   1      43.368  26.564  27.455  1.00  0.00     0.031 C 
ATOM     39  C   UNL A   1      38.950  28.467  28.952  1.00  0.00     0.029 A 
ATOM     40  N   UNL A   1      40.755  29.762  29.198  1.00  0.00    -0.354 N 
ATOM     41  C   UNL A   1      44.699  28.291  28.131  1.00  0.00     0.074 A 
ATOM     42  C   UNL A   1      44.627  26.944  27.613  1.00  0.00     0.031 C 
ATOM     43  C   UNL A   1      38.543  29.622  29.502  1.00  0.00     0.029 A 
ATOM     44  C   UNL A   1      39.696  30.497  29.677  1.00  0.00     0.049 A 
ATOM     45  H   UNL A   1      41.683  30.090  29.199  1.00  0.00     0.167 HD
ATOM     46  C   UNL A   1      45.849  28.997  28.253  1.00  0.00     0.037 A 
ATOM     47  C   UNL A   1      39.663  31.742  30.190  1.00  0.00     0.037 A 
ATOM     48  C   UNL A   1      45.905  30.353  28.733  1.00  0.00     0.049 A 
ATOM     49  C   UNL A   1      40.941  32.532  30.250  1.00  0.00     0.074 A 
ATOM     50  C   UNL A   1      47.006  31.181  28.860  1.00  0.00     0.029 A 
ATOM     51  N   UNL A   1      44.803  31.086  29.152  1.00  0.00    -0.354 N 
ATOM     52  N   UNL A   1      42.156  32.159  29.925  1.00  0.00    -0.248 NA
ATOM     53  C   UNL A   1      40.841  33.917  30.725  1.00  0.00     0.031 C 
ATOM     54  C   UNL A   1      46.572  32.408  29.375  1.00  0.00     0.029 A 
ATOM     55  C   UNL A   1      45.196  32.356  29.534  1.00  0.00     0.049 A 
ATOM     56  H   UNL A   1      43.878  30.751  29.173  1.00  0.00     0.167 HD
ATOM     57  C   UNL A   1      42.965  33.267  30.146  1.00  0.00     0.074 A 
ATOM     58  C   UNL A   1      42.095  34.332  30.603  1.00  0.00     0.031 C 
ATOM     59  C   UNL A   1      44.307  33.394  29.992  1.00  0.00     0.037 A 
BRANCH  46  60
ATOM     60  C   UNL A   1      47.128  28.324  27.832  1.00  0.00     0.058 A 
ATOM     61  C   UNL A   1      47.919  27.617  28.753  1.00  0.00     0.135 A 
ATOM     62  C   UNL A   1      47.563  28.368  26.498  1.00  0.00     0.135 A 
ATOM     63  F   UNL A   1      47.562  27.558  30.046  1.00  0.00    -0.206 F 
ATOM     64  C   UNL A   1      49.110  27.005  28.374  1.00  0.00     0.059 A 
ATOM     65  C   UNL A   1      48.737  27.739  26.091  1.00  0.00     0.059 A 
ATOM     66  F   UNL A   1      46.848  29.031  25.575  1.00  0.00    -0.206 F 
ATOM     67  C   UNL A   1      49.512  27.073  27.040  1.00  0.00     0.060 A 
BRANCH  67  68
ATOM     68  S   UNL A   1      51.056  26.270  26.561  1.00  0.00     0.124 S 
ATOM     69  O   UNL A   1      51.024  26.423  25.107  1.00  0.00    -0.237 OA
ATOM     70  O   UNL A   1      52.057  27.077  27.257  1.00  0.00    -0.237 OA
ATOM     71  O   UNL A   1      50.900  24.909  27.053  1.00  0.00    -0.744 OA
ENDBRANCH  67  68
ENDBRANCH  46  60
BRANCH  47  72
ATOM     72  C   UNL A   1      38.372  32.325  30.640  1.00  0.00     0.058 A 
ATOM     73  C   UNL A   1      37.508  32.957  29.734  1.00  0.00     0.135 A 
ATOM     74  C   UNL A   1      37.964  32.239  31.980  1.00  0.00     0.135 A 
ATOM     75  F   UNL A   1      37.853  33.063  28.441  1.00  0.00    -0.206 F 
ATOM     76  C   UNL A   1      36.296  33.504  30.141  1.00  0.00     0.059 A 
ATOM     77  C   UNL A   1      36.745  32.757  32.408  1.00  0.00     0.059 A 
ATOM     78  F   UNL A   1      38.743  31.622  32.883  1.00  0.00    -0.206 F 
ATOM     79  C   UNL A   1      35.923  33.398  31.482  1.00  0.00     0.060 A 
BRANCH  79  80
ATOM     80  S   UNL A   1      34.325  34.068  31.996  1.00  0.00     0.124 S 
ATOM     81  O   UNL A   1      33.752  32.937  32.716  1.00  0.00    -0.237 OA
ATOM     82  O   UNL A   1      34.717  35.213  32.811  1.00  0.00    -0.237 OA
ATOM     83  O   UNL A   1      33.681  34.403  30.728  1.00  0.00    -0.744 OA
ENDBRANCH  79  80
ENDBRANCH  47  72
BRANCH  59  84
ATOM     84  C   UNL A   1      44.900  34.736  30.312  1.00  0.00     0.058 A 
ATOM     85  C   UNL A   1      45.321  35.059  31.611  1.00  0.00     0.135 A 
ATOM     86  C   UNL A   1      45.059  35.702  29.307  1.00  0.00     0.135 A 
ATOM     87  F   UNL A   1      45.187  34.168  32.606  1.00  0.00    -0.206 F 
ATOM     88  C   UNL A   1      45.843  36.312  31.912  1.00  0.00     0.059 A 
ATOM     89  C   UNL A   1      45.603  36.953  29.581  1.00  0.00     0.059 A 
ATOM     90  F   UNL A   1      44.685  35.436  28.046  1.00  0.00    -0.206 F 
ATOM     91  C   UNL A   1      45.972  37.255  30.891  1.00  0.00     0.060 A 
BRANCH  91  92
ATOM     92  S   UNL A   1      46.646  38.880  31.293  1.00  0.00     0.124 S 
ATOM     93  O   UNL A   1      46.121  39.692  30.200  1.00  0.00    -0.237 OA
ATOM     94  O   UNL A   1      46.074  39.143  32.610  1.00  0.00    -0.237 OA
ATOM     95  O   UNL A   1      48.090  38.661  31.277  1.00  0.00    -0.744 OA
ENDBRANCH  91  92
ENDBRANCH  59  84
ENDBRANCH  33  34
ENDBRANCH  25  28
ENDBRANCH  23  24
ENDBRANCH  22  23
ENDBRANCH   1  22
TORSDOF 18
ENDMDL
MODEL 3
REMARK VINA RESULT:     -10.9      2.861      8.995
REMARK SMILES C[NH2+][C@H](CC(=O)NCCCCNC(=O)c1ccc(-c2c3nc(c(-c4c(F)cc(S(=O)(=O)[O-])cc4F)c4ccc([nH]4)c(-c4c(F)cc(S(=O)(=O)[O-])cc4F)c4nc(c(-c5c(F)cc(S(=O)(=O)[O-])cc5F)c5ccc2[nH]5)C=C4)C=C3)cc1)c1cccc(C2CC2)c1
REMARK SMILES IDX 9 1 8 2 7 3 5 4 6 5 4 7 3 8 2 9 1 10 81 13 82 14 89 15 83 16
REMARK SMILES IDX 85 17 84 18 86 19 87 20 88 21 10 22 11 23 12 24 13 25 14 27
REMARK SMILES IDX 15 28 16 29 80 30 17 31 79 32 18 33 19 34 20 35 73 36 21 37
REMARK SMILES IDX 78 38 72 39 74 40 22 41 77 42 71 43 70 44 23 46 57 47 36 48
REMARK SMILES IDX 56 49 37 50 40 51 55 52 75 53 38 54 39 55 54 57 76 58 41 59
REMARK SMILES IDX 24 60 25 61 34 62 26 63 27 64 33 65 35 66 28 67 29 68 30 69
REMARK SMILES IDX 31 70 32 71 58 72 59 73 68 74 60 75 61 76 67 77 69 78 62 79
REMARK SMILES IDX 63 80 64 81 65 82 66 83 42 84 43 85 52 86 44 87 45 88 51 89
REMARK SMILES IDX 53 90 46 91 47 92 48 93 49 94 50 95
REMARK H PARENT 7 6 2 11 2 12 12 26 74 45 40 56
REMARK Flexibility Score: inf
ROOT
ATOM      1  C   UNL A   1      38.736  23.071  26.244  1.00  0.00     0.023 C 
ENDROOT
BRANCH   1   2
ATOM      2  C   UNL A   1      37.592  22.261  25.633  1.00  0.00     0.116 C 
BRANCH   2   3
ATOM      3  N   UNL A   1      36.333  22.424  26.328  1.00  0.00    -0.356 N 
ATOM      4  C   UNL A   1      35.333  23.331  26.173  1.00  0.00     0.226 C 
ATOM      5  O   UNL A   1      34.282  23.131  26.788  1.00  0.00    -0.275 OA
ATOM      6  H   UNL A   1      36.172  21.760  27.036  1.00  0.00     0.163 HD
BRANCH   4   7
ATOM      7  C   UNL A   1      35.464  24.519  25.242  1.00  0.00     0.170 C 
BRANCH   7   8
ATOM      8  C   UNL A   1      34.154  25.024  24.605  1.00  0.00     0.222 C 
BRANCH   8   9
ATOM      9  N   UNL A   1      33.297  23.885  24.209  1.00  0.00    -0.342 N 
ATOM     10  C   UNL A   1      33.652  23.341  22.906  1.00  0.00     0.331 C 
ATOM     11  H   UNL A   1      33.392  23.147  24.908  1.00  0.00     0.346 HD
ATOM     12  H   UNL A   1      32.339  24.227  24.150  1.00  0.00     0.346 HD
ENDBRANCH   8   9
BRANCH   8  13
ATOM     13  C   UNL A   1      33.359  25.992  25.471  1.00  0.00     0.010 A 
ATOM     14  C   UNL A   1      31.991  25.764  25.658  1.00  0.00     0.010 A 
ATOM     15  C   UNL A   1      33.934  27.118  26.085  1.00  0.00     0.014 A 
ATOM     16  C   UNL A   1      31.186  26.709  26.275  1.00  0.00     0.001 A 
ATOM     17  C   UNL A   1      33.160  28.038  26.823  1.00  0.00    -0.044 A 
ATOM     18  C   UNL A   1      31.767  27.837  26.840  1.00  0.00     0.004 A 
BRANCH  17  19
ATOM     19  C   UNL A   1      33.735  29.181  27.635  1.00  0.00     0.019 C 
ATOM     20  C   UNL A   1      35.137  29.654  27.315  1.00  0.00     0.009 C 
ATOM     21  C   UNL A   1      33.964  30.568  27.100  1.00  0.00     0.009 C 
ENDBRANCH  17  19
ENDBRANCH   8  13
ENDBRANCH   7   8
ENDBRANCH   4   7
ENDBRANCH   2   3
ENDBRANCH   1   2
BRANCH   1  22
ATOM     22  C   UNL A   1      40.035  22.308  26.511  1.00  0.00     0.023 C 
BRANCH  22  23
ATOM     23  C   UNL A   1      41.139  23.167  27.111  1.00  0.00     0.116 C 
BRANCH  23  24
ATOM     24  N   UNL A   1      41.782  23.982  26.091  1.00  0.00    -0.352 N 
ATOM     25  C   UNL A   1      41.837  25.345  25.951  1.00  0.00     0.251 C 
ATOM     26  H   UNL A   1      42.253  23.475  25.390  1.00  0.00     0.163 HD
ATOM     27  O   UNL A   1      42.159  25.818  24.861  1.00  0.00    -0.269 OA
BRANCH  25  28
ATOM     28  C   UNL A   1      41.531  26.242  27.088  1.00  0.00     0.039 A 
ATOM     29  C   UNL A   1      42.278  27.413  27.244  1.00  0.00     0.014 A 
ATOM     30  C   UNL A   1      40.569  25.900  28.042  1.00  0.00     0.014 A 
ATOM     31  C   UNL A   1      42.045  28.244  28.342  1.00  0.00     0.010 A 
ATOM     32  C   UNL A   1      40.270  26.776  29.080  1.00  0.00     0.010 A 
ATOM     33  C   UNL A   1      41.029  27.939  29.262  1.00  0.00    -0.014 A 
BRANCH  33  34
ATOM     34  C   UNL A   1      40.787  28.800  30.446  1.00  0.00     0.031 A 
ATOM     35  C   UNL A   1      41.623  28.624  31.689  1.00  0.00     0.074 A 
ATOM     36  C   UNL A   1      39.797  29.712  30.411  1.00  0.00     0.049 A 
ATOM     37  N   UNL A   1      41.553  29.261  32.828  1.00  0.00    -0.248 NA
ATOM     38  C   UNL A   1      42.649  27.567  31.661  1.00  0.00     0.031 C 
ATOM     39  C   UNL A   1      38.873  29.914  29.293  1.00  0.00     0.029 A 
ATOM     40  N   UNL A   1      39.399  30.638  31.340  1.00  0.00    -0.354 N 
ATOM     41  C   UNL A   1      42.511  28.677  33.650  1.00  0.00     0.074 A 
ATOM     42  C   UNL A   1      43.101  27.589  32.905  1.00  0.00     0.031 C 
ATOM     43  C   UNL A   1      38.038  30.924  29.588  1.00  0.00     0.029 A 
ATOM     44  C   UNL A   1      38.354  31.425  30.920  1.00  0.00     0.049 A 
ATOM     45  H   UNL A   1      39.825  30.732  32.223  1.00  0.00     0.167 HD
ATOM     46  C   UNL A   1      42.893  29.038  34.899  1.00  0.00     0.037 A 
ATOM     47  C   UNL A   1      37.729  32.445  31.540  1.00  0.00     0.037 A 
ATOM     48  C   UNL A   1      42.325  30.149  35.617  1.00  0.00     0.049 A 
ATOM     49  C   UNL A   1      38.216  32.872  32.897  1.00  0.00     0.074 A 
ATOM     50  C   UNL A   1      42.661  30.632  36.869  1.00  0.00     0.029 A 
ATOM     51  N   UNL A   1      41.309  30.962  35.133  1.00  0.00    -0.354 N 
ATOM     52  N   UNL A   1      39.161  32.341  33.638  1.00  0.00    -0.248 NA
ATOM     53  C   UNL A   1      37.571  34.047  33.494  1.00  0.00     0.031 C 
ATOM     54  C   UNL A   1      41.834  31.726  37.151  1.00  0.00     0.029 A 
ATOM     55  C   UNL A   1      41.007  31.945  36.060  1.00  0.00     0.049 A 
ATOM     56  H   UNL A   1      40.868  30.855  34.260  1.00  0.00     0.167 HD
ATOM     57  C   UNL A   1      39.230  33.124  34.783  1.00  0.00     0.074 A 
ATOM     58  C   UNL A   1      38.253  34.183  34.622  1.00  0.00     0.031 C 
ATOM     59  C   UNL A   1      40.024  32.982  35.874  1.00  0.00     0.037 A 
BRANCH  46  60
ATOM     60  C   UNL A   1      43.993  28.241  35.549  1.00  0.00     0.058 A 
ATOM     61  C   UNL A   1      43.708  27.131  36.362  1.00  0.00     0.135 A 
ATOM     62  C   UNL A   1      45.341  28.574  35.348  1.00  0.00     0.135 A 
ATOM     63  F   UNL A   1      42.435  26.779  36.604  1.00  0.00    -0.206 F 
ATOM     64  C   UNL A   1      44.719  26.399  36.977  1.00  0.00     0.059 A 
ATOM     65  C   UNL A   1      46.370  27.838  35.932  1.00  0.00     0.059 A 
ATOM     66  F   UNL A   1      45.672  29.625  34.582  1.00  0.00    -0.206 F 
ATOM     67  C   UNL A   1      46.048  26.761  36.757  1.00  0.00     0.060 A 
BRANCH  67  68
ATOM     68  S   UNL A   1      47.349  25.799  37.558  1.00  0.00     0.124 S 
ATOM     69  O   UNL A   1      47.310  26.333  38.918  1.00  0.00    -0.237 OA
ATOM     70  O   UNL A   1      46.864  24.428  37.405  1.00  0.00    -0.237 OA
ATOM     71  O   UNL A   1      48.540  26.128  36.787  1.00  0.00    -0.744 OA
ENDBRANCH  67  68
ENDBRANCH  46  60
BRANCH  47  72
ATOM     72  C   UNL A   1      36.611  33.152  30.863  1.00  0.00     0.058 A 
ATOM     73  C   UNL A   1      36.855  34.074  29.835  1.00  0.00     0.135 A 
ATOM     74  C   UNL A   1      35.274  32.901  31.212  1.00  0.00     0.135 A 
ATOM     75  F   UNL A   1      38.115  34.347  29.465  1.00  0.00    -0.206 F 
ATOM     76  C   UNL A   1      35.817  34.741  29.191  1.00  0.00     0.059 A 
ATOM     77  C   UNL A   1      34.218  33.537  30.566  1.00  0.00     0.059 A 
ATOM     78  F   UNL A   1      34.986  32.008  32.173  1.00  0.00    -0.206 F 
ATOM     79  C   UNL A   1      34.501  34.464  29.564  1.00  0.00     0.060 A 
BRANCH  79  80
ATOM     80  S   UNL A   1      33.157  35.297  28.690  1.00  0.00     0.124 S 
ATOM     81  O   UNL A   1      32.549  34.188  27.964  1.00  0.00    -0.237 OA
ATOM     82  O   UNL A   1      32.369  35.849  29.789  1.00  0.00    -0.237 OA
ATOM     83  O   UNL A   1      33.853  36.286  27.872  1.00  0.00    -0.744 OA
ENDBRANCH  79  80
ENDBRANCH  47  72
BRANCH  59  84
ATOM     84  C   UNL A   1      39.867  34.004  36.963  1.00  0.00     0.058 A 
ATOM     85  C   UNL A   1      39.017  33.783  38.057  1.00  0.00     0.135 A 
ATOM     86  C   UNL A   1      40.583  35.209  36.917  1.00  0.00     0.135 A 
ATOM     87  F   UNL A   1      38.309  32.646  38.144  1.00  0.00    -0.206 F 
ATOM     88  C   UNL A   1      38.850  34.742  39.050  1.00  0.00     0.059 A 
ATOM     89  C   UNL A   1      40.451  36.172  37.912  1.00  0.00     0.059 A 
ATOM     90  F   UNL A   1      41.421  35.462  35.898  1.00  0.00    -0.206 F 
ATOM     91  C   UNL A   1      39.566  35.937  38.964  1.00  0.00     0.060 A 
BRANCH  91  92
ATOM     92  S   UNL A   1      39.339  37.178  40.254  1.00  0.00     0.124 S 
ATOM     93  O   UNL A   1      40.720  37.552  40.546  1.00  0.00    -0.237 OA
ATOM     94  O   UNL A   1      38.536  38.192  39.579  1.00  0.00    -0.237 OA
ATOM     95  O   UNL A   1      38.650  36.444  41.312  1.00  0.00    -0.744 OA
ENDBRANCH  91  92
ENDBRANCH  59  84
ENDBRANCH  33  34
ENDBRANCH  25  28
ENDBRANCH  23  24
ENDBRANCH  22  23
ENDBRANCH   1  22
TORSDOF 18
ENDMDL
