MODEL 1
REMARK VINA RESULT:     -12.5      0.000      0.000
REMARK SMILES CCC(=O)N1CCc2cc(C(=O)NC3(C(=O)NCCCCNC(=O)c4ccc(-c5c6nc(c(-c7c(F)cc(S(=O)(=O)[O-])cc7F)c7ccc([nH]7)c(-c7c(F)cc(S(=O)(=O)[O-])cc7F)c7nc(c(-c8c(F)cc(S(=O)(=O)[O-])cc8F)c8ccc5[nH]8)C=C7)C=C6)cc4)CCCC3)ccc21
REMARK SMILES IDX 19 1 18 2 17 3 15 4 16 5 14 7 91 8 94 9 92 10 93 11 13 12
REMARK SMILES IDX 11 13 12 14 10 16 5 17 6 18 97 19 7 20 8 21 96 22 9 23 95 24
REMARK SMILES IDX 3 25 4 26 2 27 1 28 20 29 21 30 22 31 23 32 24 34 25 35
REMARK SMILES IDX 26 36 90 37 27 38 89 39 28 40 29 41 30 42 83 43 31 44 88 45
REMARK SMILES IDX 82 46 84 47 32 48 87 49 81 50 80 51 33 53 67 54 46 55 66 56
REMARK SMILES IDX 47 57 50 58 65 59 85 60 48 61 49 62 64 64 86 65 51 66 34 67
REMARK SMILES IDX 35 68 44 69 36 70 37 71 43 72 45 73 38 74 39 75 40 76 41 77
REMARK SMILES IDX 42 78 68 79 69 80 78 81 70 82 71 83 77 84 79 85 72 86 73 87
REMARK SMILES IDX 74 88 75 89 76 90 52 91 53 92 62 93 54 94 55 95 61 96 63 97
REMARK SMILES IDX 56 98 57 99 58 100 59 101 60 102
REMARK H PARENT 17 6 13 15 22 33 84 52 50 63
REMARK Flexibility Score: inf
ROOT
ATOM      1  C   UNL A   1      37.152  22.116  25.741  1.00  0.00     0.023 C 
ENDROOT
BRANCH   1   2
ATOM      2  C   UNL A   1      35.865  21.295  25.703  1.00  0.00     0.116 C 
BRANCH   2   3
ATOM      3  N   UNL A   1      35.027  21.472  26.872  1.00  0.00    -0.354 N 
ATOM      4  C   UNL A   1      33.819  22.076  27.058  1.00  0.00     0.245 C 
ATOM      5  O   UNL A   1      33.304  21.928  28.176  1.00  0.00    -0.272 OA
ATOM      6  H   UNL A   1      35.403  21.079  27.693  1.00  0.00     0.163 HD
BRANCH   4   7
ATOM      7  C   UNL A   1      33.117  22.994  25.987  1.00  0.00     0.119 C 
ATOM      8  C   UNL A   1      33.126  22.368  24.590  1.00  0.00     0.038 C 
ATOM      9  C   UNL A   1      33.884  24.321  25.923  1.00  0.00     0.038 C 
ATOM     10  C   UNL A   1      33.958  23.288  23.695  1.00  0.00     0.003 C 
ATOM     11  C   UNL A   1      34.522  24.414  24.547  1.00  0.00     0.003 C 
BRANCH   7  12
ATOM     12  N   UNL A   1      31.741  23.223  26.540  1.00  0.00    -0.338 N 
ATOM     13  C   UNL A   1      30.761  24.183  26.490  1.00  0.00     0.252 C 
ATOM     14  O   UNL A   1      29.746  24.033  27.171  1.00  0.00    -0.269 OA
ATOM     15  H   UNL A   1      31.460  22.466  27.102  1.00  0.00     0.164 HD
BRANCH  13  16
ATOM     16  C   UNL A   1      30.802  25.336  25.560  1.00  0.00     0.040 A 
ATOM     17  N   UNL A   1      30.137  28.893  23.562  1.00  0.00    -0.312 N 
ATOM     18  C   UNL A   1      30.892  29.869  24.347  1.00  0.00     0.130 C 
ATOM     19  C   UNL A   1      30.410  27.616  24.045  1.00  0.00     0.047 A 
ATOM     20  C   UNL A   1      31.492  29.111  25.544  1.00  0.00     0.059 C 
ATOM     21  C   UNL A   1      31.062  27.703  25.271  1.00  0.00    -0.022 A 
ATOM     22  C   UNL A   1      30.171  26.391  23.462  1.00  0.00     0.027 A 
ATOM     23  C   UNL A   1      31.227  26.577  26.064  1.00  0.00     0.019 A 
ATOM     24  C   UNL A   1      30.422  25.240  24.218  1.00  0.00     0.016 A 
BRANCH  17  25
ATOM     25  C   UNL A   1      29.266  29.291  22.576  1.00  0.00     0.226 C 
ATOM     26  O   UNL A   1      29.675  29.633  21.463  1.00  0.00    -0.275 OA
BRANCH  25  27
ATOM     27  C   UNL A   1      27.861  29.708  23.019  1.00  0.00     0.097 C 
ATOM     28  C   UNL A   1      27.611  31.147  23.399  1.00  0.00     0.014 C 
ENDBRANCH  25  27
ENDBRANCH  17  25
ENDBRANCH  13  16
ENDBRANCH   7  12
ENDBRANCH   4   7
ENDBRANCH   2   3
ENDBRANCH   1   2
BRANCH   1  29
ATOM     29  C   UNL A   1      38.377  21.373  25.214  1.00  0.00     0.023 C 
BRANCH  29  30
ATOM     30  C   UNL A   1      39.500  21.152  26.222  1.00  0.00     0.116 C 
BRANCH  30  31
ATOM     31  N   UNL A   1      40.197  19.880  26.091  1.00  0.00    -0.352 N 
ATOM     32  C   UNL A   1      41.557  19.664  26.183  1.00  0.00     0.251 C 
ATOM     33  H   UNL A   1      39.638  19.089  25.918  1.00  0.00     0.163 HD
ATOM     34  O   UNL A   1      42.032  18.547  26.005  1.00  0.00    -0.269 OA
BRANCH  32  35
ATOM     35  C   UNL A   1      42.431  20.826  26.447  1.00  0.00     0.039 A 
ATOM     36  C   UNL A   1      42.930  21.557  25.366  1.00  0.00     0.014 A 
ATOM     37  C   UNL A   1      42.630  21.265  27.758  1.00  0.00     0.014 A 
ATOM     38  C   UNL A   1      43.548  22.788  25.601  1.00  0.00     0.010 A 
ATOM     39  C   UNL A   1      43.173  22.526  27.980  1.00  0.00     0.010 A 
ATOM     40  C   UNL A   1      43.626  23.306  26.905  1.00  0.00    -0.014 A 
BRANCH  40  41
ATOM     41  C   UNL A   1      44.156  24.670  27.166  1.00  0.00     0.031 A 
ATOM     42  C   UNL A   1      43.225  25.767  27.604  1.00  0.00     0.074 A 
ATOM     43  C   UNL A   1      45.456  24.943  26.925  1.00  0.00     0.049 A 
ATOM     44  N   UNL A   1      43.475  27.036  27.794  1.00  0.00    -0.248 NA
ATOM     45  C   UNL A   1      41.818  25.393  27.822  1.00  0.00     0.031 C 
ATOM     46  C   UNL A   1      46.448  23.985  26.430  1.00  0.00     0.029 A 
ATOM     47  N   UNL A   1      46.164  26.113  27.051  1.00  0.00    -0.354 N 
ATOM     48  C   UNL A   1      42.259  27.616  28.129  1.00  0.00     0.074 A 
ATOM     49  C   UNL A   1      41.260  26.570  28.065  1.00  0.00     0.031 C 
ATOM     50  C   UNL A   1      47.638  24.599  26.317  1.00  0.00     0.029 A 
ATOM     51  C   UNL A   1      47.490  26.000  26.700  1.00  0.00     0.049 A 
ATOM     52  H   UNL A   1      45.761  26.955  27.364  1.00  0.00     0.167 HD
ATOM     53  C   UNL A   1      41.998  28.896  28.485  1.00  0.00     0.037 A 
ATOM     54  C   UNL A   1      48.473  26.920  26.684  1.00  0.00     0.037 A 
ATOM     55  C   UNL A   1      43.000  29.922  28.592  1.00  0.00     0.049 A 
ATOM     56  C   UNL A   1      48.170  28.327  27.124  1.00  0.00     0.074 A 
ATOM     57  C   UNL A   1      42.850  31.230  29.018  1.00  0.00     0.029 A 
ATOM     58  N   UNL A   1      44.341  29.755  28.277  1.00  0.00    -0.354 N 
ATOM     59  N   UNL A   1      47.025  28.840  27.507  1.00  0.00    -0.248 NA
ATOM     60  C   UNL A   1      49.290  29.277  27.140  1.00  0.00     0.031 C 
ATOM     61  C   UNL A   1      44.095  31.864  28.930  1.00  0.00     0.029 A 
ATOM     62  C   UNL A   1      45.027  30.938  28.487  1.00  0.00     0.049 A 
ATOM     63  H   UNL A   1      44.744  28.918  27.952  1.00  0.00     0.167 HD
ATOM     64  C   UNL A   1      47.292  30.165  27.831  1.00  0.00     0.074 A 
ATOM     65  C   UNL A   1      48.708  30.372  27.611  1.00  0.00     0.031 C 
ATOM     66  C   UNL A   1      46.440  31.125  28.272  1.00  0.00     0.037 A 
BRANCH  53  67
ATOM     67  C   UNL A   1      40.572  29.251  28.799  1.00  0.00     0.058 A 
ATOM     68  C   UNL A   1      39.621  29.442  27.783  1.00  0.00     0.135 A 
ATOM     69  C   UNL A   1      40.144  29.381  30.130  1.00  0.00     0.135 A 
ATOM     70  F   UNL A   1      39.981  29.347  26.494  1.00  0.00    -0.206 F 
ATOM     71  C   UNL A   1      38.304  29.782  28.075  1.00  0.00     0.059 A 
ATOM     72  C   UNL A   1      38.824  29.694  30.446  1.00  0.00     0.059 A 
ATOM     73  F   UNL A   1      41.012  29.210  31.140  1.00  0.00    -0.206 F 
ATOM     74  C   UNL A   1      37.916  29.909  29.409  1.00  0.00     0.060 A 
BRANCH  74  75
ATOM     75  S   UNL A   1      36.204  30.353  29.771  1.00  0.00     0.124 S 
ATOM     76  O   UNL A   1      36.267  31.810  29.719  1.00  0.00    -0.237 OA
ATOM     77  O   UNL A   1      35.476  29.711  28.681  1.00  0.00    -0.237 OA
ATOM     78  O   UNL A   1      35.979  29.781  31.095  1.00  0.00    -0.744 OA
ENDBRANCH  74  75
ENDBRANCH  53  67
BRANCH  54  79
ATOM     79  C   UNL A   1      49.849  26.533  26.270  1.00  0.00     0.058 A 
ATOM     80  C   UNL A   1      50.302  26.778  24.966  1.00  0.00     0.135 A 
ATOM     81  C   UNL A   1      50.739  25.926  27.170  1.00  0.00     0.135 A 
ATOM     82  F   UNL A   1      49.485  27.350  24.068  1.00  0.00    -0.206 F 
ATOM     83  C   UNL A   1      51.585  26.424  24.562  1.00  0.00     0.059 A 
ATOM     84  C   UNL A   1      52.035  25.583  26.795  1.00  0.00     0.059 A 
ATOM     85  F   UNL A   1      50.358  25.687  28.434  1.00  0.00    -0.206 F 
ATOM     86  C   UNL A   1      52.446  25.828  25.486  1.00  0.00     0.060 A 
BRANCH  86  87
ATOM     87  S   UNL A   1      54.128  25.424  24.969  1.00  0.00     0.124 S 
ATOM     88  O   UNL A   1      54.916  25.998  26.053  1.00  0.00    -0.237 OA
ATOM     89  O   UNL A   1      54.091  23.966  24.908  1.00  0.00    -0.237 OA
ATOM     90  O   UNL A   1      54.249  26.093  23.676  1.00  0.00    -0.744 OA
ENDBRANCH  86  87
ENDBRANCH  54  79
BRANCH  66  91
ATOM     91  C   UNL A   1      47.019  32.476  28.576  1.00  0.00     0.058 A 
ATOM     92  C   UNL A   1      47.081  33.487  27.605  1.00  0.00     0.135 A 
ATOM     93  C   UNL A   1      47.465  32.782  29.873  1.00  0.00     0.135 A 
ATOM     94  F   UNL A   1      46.673  33.242  26.350  1.00  0.00    -0.206 F 
ATOM     95  C   UNL A   1      47.583  34.749  27.902  1.00  0.00     0.059 A 
ATOM     96  C   UNL A   1      47.948  34.045  30.198  1.00  0.00     0.059 A 
ATOM     97  F   UNL A   1      47.417  31.853  30.841  1.00  0.00    -0.206 F 
ATOM     98  C   UNL A   1      48.014  35.019  29.203  1.00  0.00     0.060 A 
BRANCH  98  99
ATOM     99  S   UNL A   1      48.629  36.672  29.588  1.00  0.00     0.124 S 
ATOM    100  O   UNL A   1      49.007  36.525  30.990  1.00  0.00    -0.237 OA
ATOM    101  O   UNL A   1      49.734  36.824  28.646  1.00  0.00    -0.237 OA
ATOM    102  O   UNL A   1      47.475  37.530  29.334  1.00  0.00    -0.744 OA
ENDBRANCH  98  99
ENDBRANCH  66  91
ENDBRANCH  40  41
ENDBRANCH  32  35
ENDBRANCH  30  31
ENDBRANCH  29  30
ENDBRANCH   1  29
TORSDOF 18
ENDMDL
MODEL 2
REMARK VINA RESULT:     -12.5      0.600      8.026
REMARK SMILES CCC(=O)N1CCc2cc(C(=O)NC3(C(=O)NCCCCNC(=O)c4ccc(-c5c6nc(c(-c7c(F)cc(S(=O)(=O)[O-])cc7F)c7ccc([nH]7)c(-c7c(F)cc(S(=O)(=O)[O-])cc7F)c7nc(c(-c8c(F)cc(S(=O)(=O)[O-])cc8F)c8ccc5[nH]8)C=C7)C=C6)cc4)CCCC3)ccc21
REMARK SMILES IDX 19 1 18 2 17 3 15 4 16 5 14 7 91 8 94 9 92 10 93 11 13 12
REMARK SMILES IDX 11 13 12 14 10 16 5 17 6 18 97 19 7 20 8 21 96 22 9 23 95 24
REMARK SMILES IDX 3 25 4 26 2 27 1 28 20 29 21 30 22 31 23 32 24 34 25 35
REMARK SMILES IDX 26 36 90 37 27 38 89 39 28 40 29 41 30 42 83 43 31 44 88 45
REMARK SMILES IDX 82 46 84 47 32 48 87 49 81 50 80 51 33 53 67 54 46 55 66 56
REMARK SMILES IDX 47 57 50 58 65 59 85 60 48 61 49 62 64 64 86 65 51 66 34 67
REMARK SMILES IDX 35 68 44 69 36 70 37 71 43 72 45 73 38 74 39 75 40 76 41 77
REMARK SMILES IDX 42 78 68 79 69 80 78 81 70 82 71 83 77 84 79 85 72 86 73 87
REMARK SMILES IDX 74 88 75 89 76 90 52 91 53 92 62 93 54 94 55 95 61 96 63 97
REMARK SMILES IDX 56 98 57 99 58 100 59 101 60 102
REMARK H PARENT 17 6 13 15 22 33 84 52 50 63
REMARK Flexibility Score: inf
ROOT
ATOM      1  C   UNL A   1      37.490  20.421  24.940  1.00  0.00     0.023 C 
ENDROOT
BRANCH   1   2
ATOM      2  C   UNL A   1      36.063  20.941  24.781  1.00  0.00     0.116 C 
BRANCH   2   3
ATOM      3  N   UNL A   1      35.277  20.862  25.996  1.00  0.00    -0.354 N 
ATOM      4  C   UNL A   1      34.155  21.516  26.412  1.00  0.00     0.245 C 
ATOM      5  O   UNL A   1      33.648  21.107  27.467  1.00  0.00    -0.272 OA
ATOM      6  H   UNL A   1      35.619  20.209  26.648  1.00  0.00     0.163 HD
BRANCH   4   7
ATOM      7  C   UNL A   1      33.547  22.776  25.689  1.00  0.00     0.119 C 
ATOM      8  C   UNL A   1      33.449  22.584  24.173  1.00  0.00     0.038 C 
ATOM      9  C   UNL A   1      34.471  23.971  25.961  1.00  0.00     0.038 C 
ATOM     10  C   UNL A   1      34.369  23.626  23.531  1.00  0.00     0.003 C 
ATOM     11  C   UNL A   1      35.085  24.387  24.635  1.00  0.00     0.003 C 
BRANCH   7  12
ATOM     12  N   UNL A   1      32.223  22.987  26.360  1.00  0.00    -0.338 N 
ATOM     13  C   UNL A   1      31.281  23.978  26.486  1.00  0.00     0.252 C 
ATOM     14  O   UNL A   1      30.309  23.787  27.217  1.00  0.00    -0.269 OA
ATOM     15  H   UNL A   1      31.950  22.181  26.855  1.00  0.00     0.164 HD
BRANCH  13  16
ATOM     16  C   UNL A   1      31.305  25.225  25.686  1.00  0.00     0.040 A 
ATOM     17  N   UNL A   1      30.572  28.957  24.066  1.00  0.00    -0.312 N 
ATOM     18  C   UNL A   1      31.281  29.864  24.969  1.00  0.00     0.130 C 
ATOM     19  C   UNL A   1      30.875  27.643  24.416  1.00  0.00     0.047 A 
ATOM     20  C   UNL A   1      31.879  28.998  26.092  1.00  0.00     0.059 C 
ATOM     21  C   UNL A   1      31.498  27.616  25.659  1.00  0.00    -0.022 A 
ATOM     22  C   UNL A   1      30.685  26.483  23.699  1.00  0.00     0.027 A 
ATOM     23  C   UNL A   1      31.681  26.416  26.330  1.00  0.00     0.019 A 
ATOM     24  C   UNL A   1      30.956  25.265  24.333  1.00  0.00     0.016 A 
BRANCH  17  25
ATOM     25  C   UNL A   1      29.709  29.434  23.109  1.00  0.00     0.226 C 
ATOM     26  O   UNL A   1      29.827  29.108  21.924  1.00  0.00    -0.275 OA
BRANCH  25  27
ATOM     27  C   UNL A   1      28.899  30.684  23.465  1.00  0.00     0.097 C 
ATOM     28  C   UNL A   1      27.716  31.058  22.606  1.00  0.00     0.014 C 
ENDBRANCH  25  27
ENDBRANCH  17  25
ENDBRANCH  13  16
ENDBRANCH   7  12
ENDBRANCH   4   7
ENDBRANCH   2   3
ENDBRANCH   1   2
BRANCH   1  29
ATOM     29  C   UNL A   1      38.492  21.484  25.383  1.00  0.00     0.023 C 
BRANCH  29  30
ATOM     30  C   UNL A   1      39.448  21.067  26.496  1.00  0.00     0.116 C 
BRANCH  30  31
ATOM     31  N   UNL A   1      40.208  19.854  26.227  1.00  0.00    -0.352 N 
ATOM     32  C   UNL A   1      41.581  19.732  26.153  1.00  0.00     0.251 C 
ATOM     33  H   UNL A   1      39.686  19.032  26.082  1.00  0.00     0.163 HD
ATOM     34  O   UNL A   1      42.104  18.659  25.870  1.00  0.00    -0.269 OA
BRANCH  32  35
ATOM     35  C   UNL A   1      42.401  20.942  26.370  1.00  0.00     0.039 A 
ATOM     36  C   UNL A   1      42.777  21.711  25.267  1.00  0.00     0.014 A 
ATOM     37  C   UNL A   1      42.665  21.381  27.669  1.00  0.00     0.014 A 
ATOM     38  C   UNL A   1      43.336  22.974  25.473  1.00  0.00     0.010 A 
ATOM     39  C   UNL A   1      43.147  22.670  27.869  1.00  0.00     0.010 A 
ATOM     40  C   UNL A   1      43.476  23.485  26.774  1.00  0.00    -0.014 A 
BRANCH  40  41
ATOM     41  C   UNL A   1      43.941  24.877  27.015  1.00  0.00     0.031 A 
ATOM     42  C   UNL A   1      45.390  25.228  26.819  1.00  0.00     0.074 A 
ATOM     43  C   UNL A   1      43.080  25.800  27.493  1.00  0.00     0.049 A 
ATOM     44  N   UNL A   1      46.007  26.355  27.062  1.00  0.00    -0.248 NA
ATOM     45  C   UNL A   1      46.269  24.159  26.318  1.00  0.00     0.031 C 
ATOM     46  C   UNL A   1      41.665  25.567  27.793  1.00  0.00     0.029 A 
ATOM     47  N   UNL A   1      43.274  27.118  27.825  1.00  0.00    -0.354 N 
ATOM     48  C   UNL A   1      47.345  26.126  26.768  1.00  0.00     0.074 A 
ATOM     49  C   UNL A   1      47.460  24.736  26.379  1.00  0.00     0.031 C 
ATOM     50  C   UNL A   1      41.115  26.709  28.241  1.00  0.00     0.029 A 
ATOM     51  C   UNL A   1      42.141  27.745  28.291  1.00  0.00     0.049 A 
ATOM     52  H   UNL A   1      44.143  27.573  27.736  1.00  0.00     0.167 HD
ATOM     53  C   UNL A   1      48.381  26.997  26.792  1.00  0.00     0.037 A 
ATOM     54  C   UNL A   1      41.952  29.010  28.715  1.00  0.00     0.037 A 
ATOM     55  C   UNL A   1      48.255  28.389  27.136  1.00  0.00     0.049 A 
ATOM     56  C   UNL A   1      43.108  29.972  28.694  1.00  0.00     0.074 A 
ATOM     57  C   UNL A   1      49.229  29.371  27.116  1.00  0.00     0.029 A 
ATOM     58  N   UNL A   1      47.080  28.998  27.554  1.00  0.00    -0.354 N 
ATOM     59  N   UNL A   1      44.353  29.754  28.343  1.00  0.00    -0.248 NA
ATOM     60  C   UNL A   1      42.834  31.353  29.115  1.00  0.00     0.031 C 
ATOM     61  C   UNL A   1      48.651  30.568  27.554  1.00  0.00     0.029 A 
ATOM     62  C   UNL A   1      47.307  30.339  27.807  1.00  0.00     0.049 A 
ATOM     63  H   UNL A   1      46.213  28.542  27.655  1.00  0.00     0.167 HD
ATOM     64  C   UNL A   1      45.005  30.975  28.479  1.00  0.00     0.074 A 
ATOM     65  C   UNL A   1      44.015  31.930  28.933  1.00  0.00     0.031 C 
ATOM     66  C   UNL A   1      46.307  31.278  28.249  1.00  0.00     0.037 A 
BRANCH  53  67
ATOM     67  C   UNL A   1      49.739  26.470  26.422  1.00  0.00     0.058 A 
ATOM     68  C   UNL A   1      50.237  26.578  25.113  1.00  0.00     0.135 A 
ATOM     69  C   UNL A   1      50.561  25.871  27.389  1.00  0.00     0.135 A 
ATOM     70  F   UNL A   1      49.484  27.126  24.146  1.00  0.00    -0.206 F 
ATOM     71  C   UNL A   1      51.489  26.080  24.768  1.00  0.00     0.059 A 
ATOM     72  C   UNL A   1      51.829  25.390  27.072  1.00  0.00     0.059 A 
ATOM     73  F   UNL A   1      50.134  25.742  28.655  1.00  0.00    -0.206 F 
ATOM     74  C   UNL A   1      52.276  25.485  25.754  1.00  0.00     0.060 A 
BRANCH  74  75
ATOM     75  S   UNL A   1      53.898  24.841  25.291  1.00  0.00     0.124 S 
ATOM     76  O   UNL A   1      54.178  25.608  24.081  1.00  0.00    -0.237 OA
ATOM     77  O   UNL A   1      54.712  25.175  26.455  1.00  0.00    -0.237 OA
ATOM     78  O   UNL A   1      53.652  23.417  25.089  1.00  0.00    -0.744 OA
ENDBRANCH  74  75
ENDBRANCH  53  67
BRANCH  54  79
ATOM     79  C   UNL A   1      40.604  29.450  29.164  1.00  0.00     0.058 A 
ATOM     80  C   UNL A   1      39.566  29.643  28.241  1.00  0.00     0.135 A 
ATOM     81  C   UNL A   1      40.322  29.671  30.521  1.00  0.00     0.135 A 
ATOM     82  F   UNL A   1      39.789  29.451  26.932  1.00  0.00    -0.206 F 
ATOM     83  C   UNL A   1      38.299  30.053  28.643  1.00  0.00     0.059 A 
ATOM     84  C   UNL A   1      39.056  30.060  30.950  1.00  0.00     0.059 A 
ATOM     85  F   UNL A   1      41.277  29.482  31.445  1.00  0.00    -0.206 F 
ATOM     86  C   UNL A   1      38.053  30.257  30.002  1.00  0.00     0.060 A 
BRANCH  86  87
ATOM     87  S   UNL A   1      36.390  30.733  30.521  1.00  0.00     0.124 S 
ATOM     88  O   UNL A   1      36.634  32.034  31.131  1.00  0.00    -0.237 OA
ATOM     89  O   UNL A   1      35.665  30.747  29.255  1.00  0.00    -0.237 OA
ATOM     90  O   UNL A   1      36.009  29.664  31.440  1.00  0.00    -0.744 OA
ENDBRANCH  86  87
ENDBRANCH  54  79
BRANCH  66  91
ATOM     91  C   UNL A   1      46.731  32.704  28.451  1.00  0.00     0.058 A 
ATOM     92  C   UNL A   1      47.269  33.147  29.670  1.00  0.00     0.135 A 
ATOM     93  C   UNL A   1      46.653  33.625  27.394  1.00  0.00     0.135 A 
ATOM     94  F   UNL A   1      47.359  32.306  30.712  1.00  0.00    -0.206 F 
ATOM     95  C   UNL A   1      47.696  34.459  29.840  1.00  0.00     0.059 A 
ATOM     96  C   UNL A   1      47.096  34.935  27.535  1.00  0.00     0.059 A 
ATOM     97  F   UNL A   1      46.157  33.248  26.205  1.00  0.00    -0.206 F 
ATOM     98  C   UNL A   1      47.606  35.347  28.765  1.00  0.00     0.060 A 
BRANCH  98  99
ATOM     99  S   UNL A   1      48.198  37.038  28.986  1.00  0.00     0.124 S 
ATOM    100  O   UNL A   1      47.984  37.599  27.656  1.00  0.00    -0.237 OA
ATOM    101  O   UNL A   1      47.320  37.544  30.036  1.00  0.00    -0.237 OA
ATOM    102  O   UNL A   1      49.594  36.860  29.376  1.00  0.00    -0.744 OA
ENDBRANCH  98  99
ENDBRANCH  66  91
ENDBRANCH  40  41
ENDBRANCH  32  35
ENDBRANCH  30  31
ENDBRANCH  29  30
ENDBRANCH   1  29
TORSDOF 18
ENDMDL
MODEL 3
REMARK VINA RESULT:     -11.4      4.550     10.741
REMARK SMILES CCC(=O)N1CCc2cc(C(=O)NC3(C(=O)NCCCCNC(=O)c4ccc(-c5c6nc(c(-c7c(F)cc(S(=O)(=O)[O-])cc7F)c7ccc([nH]7)c(-c7c(F)cc(S(=O)(=O)[O-])cc7F)c7nc(c(-c8c(F)cc(S(=O)(=O)[O-])cc8F)c8ccc5[nH]8)C=C7)C=C6)cc4)CCCC3)ccc21
REMARK SMILES IDX 19 1 18 2 17 3 15 4 16 5 14 7 91 8 94 9 92 10 93 11 13 12
REMARK SMILES IDX 11 13 12 14 10 16 5 17 6 18 97 19 7 20 8 21 96 22 9 23 95 24
REMARK SMILES IDX 3 25 4 26 2 27 1 28 20 29 21 30 22 31 23 32 24 34 25 35
REMARK SMILES IDX 26 36 90 37 27 38 89 39 28 40 29 41 30 42 83 43 31 44 88 45
REMARK SMILES IDX 82 46 84 47 32 48 87 49 81 50 80 51 33 53 67 54 46 55 66 56
REMARK SMILES IDX 47 57 50 58 65 59 85 60 48 61 49 62 64 64 86 65 51 66 34 67
REMARK SMILES IDX 35 68 44 69 36 70 37 71 43 72 45 73 38 74 39 75 40 76 41 77
REMARK SMILES IDX 42 78 68 79 69 80 78 81 70 82 71 83 77 84 79 85 72 86 73 87
REMARK SMILES IDX 74 88 75 89 76 90 52 91 53 92 62 93 54 94 55 95 61 96 63 97
REMARK SMILES IDX 56 98 57 99 58 100 59 101 60 102
REMARK H PARENT 17 6 13 15 22 33 84 52 50 63
REMARK Flexibility Score: inf
ROOT
ATOM      1  C   UNL A   1      35.508  32.208  28.131  1.00  0.00     0.023 C 
ENDROOT
BRANCH   1   2
ATOM      2  C   UNL A   1      34.349  32.830  28.906  1.00  0.00     0.116 C 
BRANCH   2   3
ATOM      3  N   UNL A   1      34.302  32.434  30.300  1.00  0.00    -0.354 N 
ATOM      4  C   UNL A   1      34.438  33.134  31.462  1.00  0.00     0.245 C 
ATOM      5  O   UNL A   1      34.203  32.506  32.505  1.00  0.00    -0.272 OA
ATOM      6  H   UNL A   1      34.140  31.473  30.434  1.00  0.00     0.163 HD
BRANCH   4   7
ATOM      7  C   UNL A   1      34.947  34.623  31.542  1.00  0.00     0.119 C 
ATOM      8  C   UNL A   1      34.903  35.176  32.969  1.00  0.00     0.038 C 
ATOM      9  C   UNL A   1      34.030  35.486  30.666  1.00  0.00     0.038 C 
ATOM     10  C   UNL A   1      33.905  36.336  32.968  1.00  0.00     0.003 C 
ATOM     11  C   UNL A   1      33.282  36.438  31.584  1.00  0.00     0.003 C 
BRANCH   7  12
ATOM     12  N   UNL A   1      36.325  34.576  30.952  1.00  0.00    -0.338 N 
ATOM     13  C   UNL A   1      37.616  34.375  31.373  1.00  0.00     0.252 C 
ATOM     14  O   UNL A   1      38.533  34.489  30.559  1.00  0.00    -0.269 OA
ATOM     15  H   UNL A   1      36.295  34.737  29.982  1.00  0.00     0.164 HD
BRANCH  13  16
ATOM     16  C   UNL A   1      37.961  33.900  32.734  1.00  0.00     0.040 A 
ATOM     17  N   UNL A   1      37.929  32.271  36.533  1.00  0.00    -0.312 N 
ATOM     18  C   UNL A   1      38.154  30.845  36.292  1.00  0.00     0.130 C 
ATOM     19  C   UNL A   1      38.077  32.960  35.332  1.00  0.00     0.047 A 
ATOM     20  C   UNL A   1      38.220  30.656  34.767  1.00  0.00     0.059 C 
ATOM     21  C   UNL A   1      38.095  32.063  34.270  1.00  0.00    -0.022 A 
ATOM     22  C   UNL A   1      38.243  34.310  35.115  1.00  0.00     0.027 A 
ATOM     23  C   UNL A   1      37.993  32.514  32.962  1.00  0.00     0.019 A 
ATOM     24  C   UNL A   1      38.236  34.771  33.793  1.00  0.00     0.016 A 
BRANCH  17  25
ATOM     25  C   UNL A   1      37.561  32.735  37.773  1.00  0.00     0.226 C 
ATOM     26  O   UNL A   1      36.383  32.702  38.142  1.00  0.00    -0.275 OA
BRANCH  25  27
ATOM     27  C   UNL A   1      38.545  33.667  38.485  1.00  0.00     0.097 C 
ATOM     28  C   UNL A   1      39.869  33.113  38.952  1.00  0.00     0.014 C 
ENDBRANCH  25  27
ENDBRANCH  17  25
ENDBRANCH  13  16
ENDBRANCH   7  12
ENDBRANCH   4   7
ENDBRANCH   2   3
ENDBRANCH   1   2
BRANCH   1  29
ATOM     29  C   UNL A   1      35.229  30.795  27.626  1.00  0.00     0.023 C 
BRANCH  29  30
ATOM     30  C   UNL A   1      35.892  29.669  28.412  1.00  0.00     0.116 C 
BRANCH  30  31
ATOM     31  N   UNL A   1      35.655  29.704  29.849  1.00  0.00    -0.352 N 
ATOM     32  C   UNL A   1      36.606  29.722  30.849  1.00  0.00     0.251 C 
ATOM     33  H   UNL A   1      34.713  29.718  30.138  1.00  0.00     0.163 HD
ATOM     34  O   UNL A   1      36.278  29.703  32.031  1.00  0.00    -0.269 OA
BRANCH  32  35
ATOM     35  C   UNL A   1      38.030  29.708  30.456  1.00  0.00     0.039 A 
ATOM     36  C   UNL A   1      38.979  29.234  31.364  1.00  0.00     0.014 A 
ATOM     37  C   UNL A   1      38.394  30.027  29.145  1.00  0.00     0.014 A 
ATOM     38  C   UNL A   1      40.282  28.988  30.926  1.00  0.00     0.010 A 
ATOM     39  C   UNL A   1      39.670  29.704  28.694  1.00  0.00     0.010 A 
ATOM     40  C   UNL A   1      40.623  29.170  29.575  1.00  0.00    -0.014 A 
BRANCH  40  41
ATOM     41  C   UNL A   1      41.962  28.787  29.056  1.00  0.00     0.031 A 
ATOM     42  C   UNL A   1      43.047  29.822  28.943  1.00  0.00     0.074 A 
ATOM     43  C   UNL A   1      42.175  27.533  28.605  1.00  0.00     0.049 A 
ATOM     44  N   UNL A   1      44.247  29.710  28.434  1.00  0.00    -0.248 NA
ATOM     45  C   UNL A   1      42.729  31.172  29.435  1.00  0.00     0.031 C 
ATOM     46  C   UNL A   1      41.183  26.455  28.593  1.00  0.00     0.029 A 
ATOM     47  N   UNL A   1      43.293  26.956  28.055  1.00  0.00    -0.354 N 
ATOM     48  C   UNL A   1      44.815  30.974  28.521  1.00  0.00     0.074 A 
ATOM     49  C   UNL A   1      43.811  31.851  29.083  1.00  0.00     0.031 C 
ATOM     50  C   UNL A   1      41.744  25.344  28.085  1.00  0.00     0.029 A 
ATOM     51  C   UNL A   1      43.122  25.636  27.706  1.00  0.00     0.049 A 
ATOM     52  H   UNL A   1      44.140  27.442  27.923  1.00  0.00     0.167 HD
ATOM     53  C   UNL A   1      46.068  31.365  28.189  1.00  0.00     0.037 A 
ATOM     54  C   UNL A   1      43.977  24.762  27.140  1.00  0.00     0.037 A 
ATOM     55  C   UNL A   1      47.078  30.481  27.673  1.00  0.00     0.049 A 
ATOM     56  C   UNL A   1      45.378  25.208  26.818  1.00  0.00     0.074 A 
ATOM     57  C   UNL A   1      48.400  30.764  27.379  1.00  0.00     0.029 A 
ATOM     58  N   UNL A   1      46.882  29.139  27.381  1.00  0.00    -0.354 N 
ATOM     59  N   UNL A   1      45.920  26.392  26.975  1.00  0.00    -0.248 NA
ATOM     60  C   UNL A   1      46.285  24.200  26.254  1.00  0.00     0.031 C 
ATOM     61  C   UNL A   1      48.995  29.601  26.877  1.00  0.00     0.029 A 
ATOM     62  C   UNL A   1      48.053  28.583  26.898  1.00  0.00     0.049 A 
ATOM     63  H   UNL A   1      46.033  28.654  27.500  1.00  0.00     0.167 HD
ATOM     64  C   UNL A   1      47.238  26.266  26.551  1.00  0.00     0.074 A 
ATOM     65  C   UNL A   1      47.415  24.888  26.142  1.00  0.00     0.031 C 
ATOM     66  C   UNL A   1      48.214  27.206  26.504  1.00  0.00     0.037 A 
BRANCH  53  67
ATOM     67  C   UNL A   1      46.418  32.813  28.391  1.00  0.00     0.058 A 
ATOM     68  C   UNL A   1      46.955  33.277  29.603  1.00  0.00     0.135 A 
ATOM     69  C   UNL A   1      46.235  33.744  27.356  1.00  0.00     0.135 A 
ATOM     70  F   UNL A   1      47.133  32.433  30.631  1.00  0.00    -0.206 F 
ATOM     71  C   UNL A   1      47.268  34.620  29.793  1.00  0.00     0.059 A 
ATOM     72  C   UNL A   1      46.568  35.087  27.515  1.00  0.00     0.059 A 
ATOM     73  F   UNL A   1      45.724  33.354  26.177  1.00  0.00    -0.206 F 
ATOM     74  C   UNL A   1      47.068  35.517  28.743  1.00  0.00     0.060 A 
BRANCH  74  75
ATOM     75  S   UNL A   1      47.476  37.256  29.006  1.00  0.00     0.124 S 
ATOM     76  O   UNL A   1      46.759  37.536  30.247  1.00  0.00    -0.237 OA
ATOM     77  O   UNL A   1      48.932  37.224  29.109  1.00  0.00    -0.237 OA
ATOM     78  O   UNL A   1      46.948  37.911  27.814  1.00  0.00    -0.744 OA
ENDBRANCH  74  75
ENDBRANCH  53  67
BRANCH  54  79
ATOM     79  C   UNL A   1      43.544  23.364  26.873  1.00  0.00     0.058 A 
ATOM     80  C   UNL A   1      43.333  22.915  25.562  1.00  0.00     0.135 A 
ATOM     81  C   UNL A   1      43.348  22.448  27.919  1.00  0.00     0.135 A 
ATOM     82  F   UNL A   1      43.501  23.755  24.530  1.00  0.00    -0.206 F 
ATOM     83  C   UNL A   1      42.929  21.611  25.295  1.00  0.00     0.059 A 
ATOM     84  C   UNL A   1      42.966  21.133  27.675  1.00  0.00     0.059 A 
ATOM     85  F   UNL A   1      43.555  22.825  29.190  1.00  0.00    -0.206 F 
ATOM     86  C   UNL A   1      42.750  20.726  26.359  1.00  0.00     0.060 A 
BRANCH  86  87
ATOM     87  S   UNL A   1      42.282  19.019  25.998  1.00  0.00     0.124 S 
ATOM     88  O   UNL A   1      43.106  18.728  24.832  1.00  0.00    -0.237 OA
ATOM     89  O   UNL A   1      42.652  18.331  27.231  1.00  0.00    -0.237 OA
ATOM     90  O   UNL A   1      40.845  19.113  25.752  1.00  0.00    -0.744 OA
ENDBRANCH  86  87
ENDBRANCH  54  79
BRANCH  66  91
ATOM     91  C   UNL A   1      49.569  26.773  26.024  1.00  0.00     0.058 A 
ATOM     92  C   UNL A   1      49.980  26.976  24.697  1.00  0.00     0.135 A 
ATOM     93  C   UNL A   1      50.489  26.200  26.918  1.00  0.00     0.135 A 
ATOM     94  F   UNL A   1      49.135  27.514  23.804  1.00  0.00    -0.206 F 
ATOM     95  C   UNL A   1      51.251  26.608  24.267  1.00  0.00     0.059 A 
ATOM     96  C   UNL A   1      51.773  25.846  26.514  1.00  0.00     0.059 A 
ATOM     97  F   UNL A   1      50.148  25.995  28.199  1.00  0.00    -0.206 F 
ATOM     98  C   UNL A   1      52.141  26.044  25.185  1.00  0.00     0.060 A 
BRANCH  98  99
ATOM     99  S   UNL A   1      53.800  25.604  24.625  1.00  0.00     0.124 S 
ATOM    100  O   UNL A   1      53.841  24.176  24.924  1.00  0.00    -0.237 OA
ATOM    101  O   UNL A   1      53.757  25.954  23.208  1.00  0.00    -0.237 OA
ATOM    102  O   UNL A   1      54.668  26.444  25.445  1.00  0.00    -0.744 OA
ENDBRANCH  98  99
ENDBRANCH  66  91
ENDBRANCH  40  41
ENDBRANCH  32  35
ENDBRANCH  30  31
ENDBRANCH  29  30
ENDBRANCH   1  29
TORSDOF 18
ENDMDL
