MODEL 1
REMARK VINA RESULT:     -11.1      0.000      0.000
REMARK SMILES CCC[C@]1(C(=O)NCCCCNC(=O)c2ccc(-c3c4nc(c(-c5c(F)cc(S(=O)(=O)[O-])cc5F)c5ccc([nH]5)c(-c5c(F)cc(S(=O)(=O)[O-])cc5F)c5nc(c(-c6c(F)cc(S(=O)(=O)[O-])cc6F)c6ccc3[nH]6)C=C5)C=C4)cc2)CCN(C(=O)c2cccnc2C)C1
REMARK SMILES IDX 10 1 9 2 8 3 7 4 5 5 6 6 4 8 81 9 93 10 82 11 83 12 3 13
REMARK SMILES IDX 2 14 1 15 84 16 85 17 86 18 87 19 91 20 88 21 90 22 92 23
REMARK SMILES IDX 89 24 11 25 12 26 13 27 14 29 15 30 16 31 80 32 17 33 79 34
REMARK SMILES IDX 18 35 19 36 20 37 73 38 21 39 78 40 72 41 74 42 22 43 77 44
REMARK SMILES IDX 71 45 70 46 23 48 57 49 36 50 56 51 37 52 40 53 55 54 75 55
REMARK SMILES IDX 38 56 39 57 54 59 76 60 41 61 24 62 25 63 34 64 26 65 27 66
REMARK SMILES IDX 33 67 35 68 28 69 29 70 30 71 31 72 32 73 58 74 59 75 68 76
REMARK SMILES IDX 60 77 61 78 67 79 69 80 62 81 63 82 64 83 65 84 66 85 42 86
REMARK SMILES IDX 43 87 52 88 44 89 45 90 51 91 53 92 46 93 47 94 48 95 49 96
REMARK SMILES IDX 50 97
REMARK H PARENT 7 7 12 28 74 47 40 58
REMARK Flexibility Score: inf
ROOT
ATOM      1  C   UNL A   1      32.110  27.844  26.882  1.00  0.00     0.023 C 
ENDROOT
BRANCH   1   2
ATOM      2  C   UNL A   1      32.178  26.912  25.675  1.00  0.00     0.023 C 
BRANCH   2   3
ATOM      3  C   UNL A   1      31.844  25.454  25.963  1.00  0.00     0.116 C 
BRANCH   3   4
ATOM      4  N   UNL A   1      32.953  24.725  26.551  1.00  0.00    -0.356 N 
ATOM      5  C   UNL A   1      33.874  23.880  26.006  1.00  0.00     0.228 C 
ATOM      6  O   UNL A   1      34.771  23.504  26.769  1.00  0.00    -0.274 OA
ATOM      7  H   UNL A   1      33.060  24.866  27.520  1.00  0.00     0.163 HD
BRANCH   5   8
ATOM      8  C   UNL A   1      33.810  23.384  24.540  1.00  0.00     0.068 C 
ATOM      9  C   UNL A   1      32.378  22.930  24.177  1.00  0.00     0.040 C 
ATOM     10  C   UNL A   1      34.115  24.543  23.578  1.00  0.00     0.136 C 
ATOM     11  C   UNL A   1      32.167  23.411  22.750  1.00  0.00     0.121 C 
ATOM     12  N   UNL A   1      32.987  24.604  22.654  1.00  0.00    -0.337 N 
BRANCH   8  13
ATOM     13  C   UNL A   1      34.823  22.204  24.382  1.00  0.00     0.018 C 
BRANCH  13  14
ATOM     14  C   UNL A   1      36.276  22.482  23.962  1.00  0.00    -0.002 C 
ATOM     15  C   UNL A   1      37.301  21.459  24.422  1.00  0.00     0.004 C 
ENDBRANCH  13  14
ENDBRANCH   8  13
BRANCH  12  16
ATOM     16  C   UNL A   1      32.850  25.674  21.791  1.00  0.00     0.255 C 
ATOM     17  O   UNL A   1      33.239  25.648  20.626  1.00  0.00    -0.269 OA
BRANCH  16  18
ATOM     18  C   UNL A   1      32.135  26.877  22.251  1.00  0.00     0.061 A 
ATOM     19  C   UNL A   1      30.744  26.782  22.347  1.00  0.00     0.017 A 
ATOM     20  C   UNL A   1      32.748  28.101  22.525  1.00  0.00     0.050 A 
ATOM     21  C   UNL A   1      30.007  27.881  22.772  1.00  0.00     0.021 A 
ATOM     22  N   UNL A   1      32.036  29.170  22.980  1.00  0.00    -0.261 NA
ATOM     23  C   UNL A   1      34.215  28.355  22.347  1.00  0.00     0.067 C 
ATOM     24  C   UNL A   1      30.696  29.039  23.089  1.00  0.00     0.111 A 
ENDBRANCH  16  18
ENDBRANCH  12  16
ENDBRANCH   5   8
ENDBRANCH   3   4
ENDBRANCH   2   3
ENDBRANCH   1   2
BRANCH   1  25
ATOM     25  C   UNL A   1      33.448  28.404  27.356  1.00  0.00     0.116 C 
BRANCH  25  26
ATOM     26  N   UNL A   1      33.403  29.829  27.651  1.00  0.00    -0.352 N 
ATOM     27  C   UNL A   1      34.384  30.642  28.170  1.00  0.00     0.251 C 
ATOM     28  H   UNL A   1      32.548  30.274  27.452  1.00  0.00     0.163 HD
ATOM     29  O   UNL A   1      34.121  31.801  28.478  1.00  0.00    -0.269 OA
BRANCH  27  30
ATOM     30  C   UNL A   1      35.744  30.105  28.387  1.00  0.00     0.039 A 
ATOM     31  C   UNL A   1      36.649  30.102  27.322  1.00  0.00     0.014 A 
ATOM     32  C   UNL A   1      36.135  29.632  29.643  1.00  0.00     0.014 A 
ATOM     33  C   UNL A   1      37.970  29.702  27.540  1.00  0.00     0.010 A 
ATOM     34  C   UNL A   1      37.467  29.305  29.875  1.00  0.00     0.010 A 
ATOM     35  C   UNL A   1      38.400  29.342  28.827  1.00  0.00    -0.014 A 
BRANCH  35  36
ATOM     36  C   UNL A   1      39.824  29.016  29.104  1.00  0.00     0.031 A 
ATOM     37  C   UNL A   1      40.744  30.065  29.665  1.00  0.00     0.074 A 
ATOM     38  C   UNL A   1      40.304  27.799  28.773  1.00  0.00     0.049 A 
ATOM     39  N   UNL A   1      42.031  29.997  29.892  1.00  0.00    -0.248 NA
ATOM     40  C   UNL A   1      40.147  31.372  29.984  1.00  0.00     0.031 C 
ATOM     41  C   UNL A   1      39.526  26.718  28.165  1.00  0.00     0.029 A 
ATOM     42  N   UNL A   1      41.568  27.274  28.886  1.00  0.00    -0.354 N 
ATOM     43  C   UNL A   1      42.401  31.253  30.357  1.00  0.00     0.074 A 
ATOM     44  C   UNL A   1      41.212  32.078  30.337  1.00  0.00     0.031 C 
ATOM     45  C   UNL A   1      40.324  25.655  27.972  1.00  0.00     0.029 A 
ATOM     46  C   UNL A   1      41.676  25.988  28.409  1.00  0.00     0.049 A 
ATOM     47  H   UNL A   1      42.324  27.771  29.272  1.00  0.00     0.167 HD
ATOM     48  C   UNL A   1      43.615  31.675  30.782  1.00  0.00     0.037 A 
ATOM     49  C   UNL A   1      42.746  25.173  28.323  1.00  0.00     0.037 A 
ATOM     50  C   UNL A   1      44.787  30.840  30.835  1.00  0.00     0.049 A 
ATOM     51  C   UNL A   1      44.079  25.656  28.829  1.00  0.00     0.074 A 
ATOM     52  C   UNL A   1      46.042  31.151  31.325  1.00  0.00     0.029 A 
ATOM     53  N   UNL A   1      44.845  29.529  30.385  1.00  0.00    -0.354 N 
ATOM     54  N   UNL A   1      44.392  26.823  29.337  1.00  0.00    -0.248 NA
ATOM     55  C   UNL A   1      45.200  24.709  28.757  1.00  0.00     0.031 C 
ATOM     56  C   UNL A   1      46.873  30.041  31.134  1.00  0.00     0.029 A 
ATOM     57  C   UNL A   1      46.122  29.024  30.568  1.00  0.00     0.049 A 
ATOM     58  H   UNL A   1      44.092  29.031  29.993  1.00  0.00     0.167 HD
ATOM     59  C   UNL A   1      45.740  26.743  29.669  1.00  0.00     0.074 A 
ATOM     60  C   UNL A   1      46.179  25.409  29.315  1.00  0.00     0.031 C 
ATOM     61  C   UNL A   1      46.542  27.689  30.218  1.00  0.00     0.037 A 
BRANCH  48  62
ATOM     62  C   UNL A   1      43.740  33.105  31.232  1.00  0.00     0.058 A 
ATOM     63  C   UNL A   1      44.052  34.136  30.332  1.00  0.00     0.135 A 
ATOM     64  C   UNL A   1      43.503  33.454  32.572  1.00  0.00     0.135 A 
ATOM     65  F   UNL A   1      44.303  33.856  29.044  1.00  0.00    -0.206 F 
ATOM     66  C   UNL A   1      44.151  35.460  30.749  1.00  0.00     0.059 A 
ATOM     67  C   UNL A   1      43.570  34.775  33.005  1.00  0.00     0.059 A 
ATOM     68  F   UNL A   1      43.201  32.508  33.474  1.00  0.00    -0.206 F 
ATOM     69  C   UNL A   1      43.908  35.770  32.088  1.00  0.00     0.060 A 
BRANCH  69  70
ATOM     70  S   UNL A   1      44.028  37.494  32.610  1.00  0.00     0.124 S 
ATOM     71  O   UNL A   1      45.402  37.554  33.099  1.00  0.00    -0.237 OA
ATOM     72  O   UNL A   1      43.765  38.216  31.369  1.00  0.00    -0.237 OA
ATOM     73  O   UNL A   1      42.992  37.612  33.631  1.00  0.00    -0.744 OA
ENDBRANCH  69  70
ENDBRANCH  48  62
BRANCH  49  74
ATOM     74  C   UNL A   1      42.595  23.808  27.751  1.00  0.00     0.058 A 
ATOM     75  C   UNL A   1      42.457  22.688  28.585  1.00  0.00     0.135 A 
ATOM     76  C   UNL A   1      42.579  23.597  26.364  1.00  0.00     0.135 A 
ATOM     77  F   UNL A   1      42.473  22.837  29.917  1.00  0.00    -0.206 F 
ATOM     78  C   UNL A   1      42.323  21.405  28.064  1.00  0.00     0.059 A 
ATOM     79  C   UNL A   1      42.422  22.326  25.820  1.00  0.00     0.059 A 
ATOM     80  F   UNL A   1      42.690  24.638  25.524  1.00  0.00    -0.206 F 
ATOM     81  C   UNL A   1      42.305  21.234  26.679  1.00  0.00     0.060 A 
BRANCH  81  82
ATOM     82  S   UNL A   1      42.085  19.570  26.012  1.00  0.00     0.124 S 
ATOM     83  O   UNL A   1      42.959  19.604  24.845  1.00  0.00    -0.237 OA
ATOM     84  O   UNL A   1      42.531  18.733  27.121  1.00  0.00    -0.237 OA
ATOM     85  O   UNL A   1      40.654  19.510  25.729  1.00  0.00    -0.744 OA
ENDBRANCH  81  82
ENDBRANCH  49  74
BRANCH  61  86
ATOM     86  C   UNL A   1      47.967  27.309  30.501  1.00  0.00     0.058 A 
ATOM     87  C   UNL A   1      48.340  26.686  31.702  1.00  0.00     0.135 A 
ATOM     88  C   UNL A   1      48.964  27.519  29.533  1.00  0.00     0.135 A 
ATOM     89  F   UNL A   1      47.426  26.468  32.661  1.00  0.00    -0.206 F 
ATOM     90  C   UNL A   1      49.655  26.304  31.945  1.00  0.00     0.059 A 
ATOM     91  C   UNL A   1      50.280  27.123  29.745  1.00  0.00     0.059 A 
ATOM     92  F   UNL A   1      48.657  28.102  28.363  1.00  0.00    -0.206 F 
ATOM     93  C   UNL A   1      50.619  26.526  30.958  1.00  0.00     0.060 A 
BRANCH  93  94
ATOM     94  S   UNL A   1      52.316  25.995  31.269  1.00  0.00     0.124 S 
ATOM     95  O   UNL A   1      52.108  24.673  31.852  1.00  0.00    -0.237 OA
ATOM     96  O   UNL A   1      52.901  26.013  29.931  1.00  0.00    -0.237 OA
ATOM     97  O   UNL A   1      52.828  27.012  32.183  1.00  0.00    -0.744 OA
ENDBRANCH  93  94
ENDBRANCH  61  86
ENDBRANCH  35  36
ENDBRANCH  27  30
ENDBRANCH  25  26
ENDBRANCH   1  25
TORSDOF 18
ENDMDL
MODEL 2
REMARK VINA RESULT:     -11.1      4.791     10.202
REMARK SMILES CCC[C@]1(C(=O)NCCCCNC(=O)c2ccc(-c3c4nc(c(-c5c(F)cc(S(=O)(=O)[O-])cc5F)c5ccc([nH]5)c(-c5c(F)cc(S(=O)(=O)[O-])cc5F)c5nc(c(-c6c(F)cc(S(=O)(=O)[O-])cc6F)c6ccc3[nH]6)C=C5)C=C4)cc2)CCN(C(=O)c2cccnc2C)C1
REMARK SMILES IDX 10 1 9 2 8 3 7 4 5 5 6 6 4 8 81 9 93 10 82 11 83 12 3 13
REMARK SMILES IDX 2 14 1 15 84 16 85 17 86 18 87 19 91 20 88 21 90 22 92 23
REMARK SMILES IDX 89 24 11 25 12 26 13 27 14 29 15 30 16 31 80 32 17 33 79 34
REMARK SMILES IDX 18 35 19 36 20 37 73 38 21 39 78 40 72 41 74 42 22 43 77 44
REMARK SMILES IDX 71 45 70 46 23 48 57 49 36 50 56 51 37 52 40 53 55 54 75 55
REMARK SMILES IDX 38 56 39 57 54 59 76 60 41 61 24 62 25 63 34 64 26 65 27 66
REMARK SMILES IDX 33 67 35 68 28 69 29 70 30 71 31 72 32 73 58 74 59 75 68 76
REMARK SMILES IDX 60 77 61 78 67 79 69 80 62 81 63 82 64 83 65 84 66 85 42 86
REMARK SMILES IDX 43 87 52 88 44 89 45 90 51 91 53 92 46 93 47 94 48 95 49 96
REMARK SMILES IDX 50 97
REMARK H PARENT 7 7 12 28 74 47 40 58
REMARK Flexibility Score: inf
ROOT
ATOM      1  C   UNL A   1      37.448  23.489  25.472  1.00  0.00     0.023 C 
ENDROOT
BRANCH   1   2
ATOM      2  C   UNL A   1      37.669  22.021  25.115  1.00  0.00     0.023 C 
BRANCH   2   3
ATOM      3  C   UNL A   1      36.458  21.118  25.311  1.00  0.00     0.116 C 
BRANCH   3   4
ATOM      4  N   UNL A   1      35.618  21.530  26.421  1.00  0.00    -0.356 N 
ATOM      5  C   UNL A   1      34.305  21.892  26.480  1.00  0.00     0.228 C 
ATOM      6  O   UNL A   1      33.855  22.084  27.615  1.00  0.00    -0.274 OA
ATOM      7  H   UNL A   1      36.081  21.553  27.290  1.00  0.00     0.163 HD
BRANCH   5   8
ATOM      8  C   UNL A   1      33.419  22.085  25.224  1.00  0.00     0.068 C 
ATOM      9  C   UNL A   1      32.071  22.738  25.599  1.00  0.00     0.040 C 
ATOM     10  C   UNL A   1      34.086  23.075  24.256  1.00  0.00     0.136 C 
ATOM     11  C   UNL A   1      31.780  23.709  24.466  1.00  0.00     0.121 C 
ATOM     12  N   UNL A   1      33.094  24.115  24.003  1.00  0.00    -0.337 N 
BRANCH   8  13
ATOM     13  C   UNL A   1      33.194  20.682  24.569  1.00  0.00     0.018 C 
BRANCH  13  14
ATOM     14  C   UNL A   1      32.910  19.454  25.449  1.00  0.00    -0.002 C 
ATOM     15  C   UNL A   1      33.129  18.104  24.785  1.00  0.00     0.004 C 
ENDBRANCH  13  14
ENDBRANCH   8  13
BRANCH  12  16
ATOM     16  C   UNL A   1      33.451  25.271  23.336  1.00  0.00     0.255 C 
ATOM     17  O   UNL A   1      33.966  25.269  22.221  1.00  0.00    -0.269 OA
BRANCH  16  18
ATOM     18  C   UNL A   1      33.131  26.575  23.944  1.00  0.00     0.061 A 
ATOM     19  C   UNL A   1      33.913  26.968  25.034  1.00  0.00     0.017 A 
ATOM     20  C   UNL A   1      32.071  27.391  23.546  1.00  0.00     0.050 A 
ATOM     21  C   UNL A   1      33.664  28.185  25.655  1.00  0.00     0.021 A 
ATOM     22  N   UNL A   1      31.846  28.603  24.125  1.00  0.00    -0.261 NA
ATOM     23  C   UNL A   1      31.096  27.021  22.468  1.00  0.00     0.067 C 
ATOM     24  C   UNL A   1      32.638  28.968  25.158  1.00  0.00     0.111 A 
ENDBRANCH  16  18
ENDBRANCH  12  16
ENDBRANCH   5   8
ENDBRANCH   3   4
ENDBRANCH   2   3
ENDBRANCH   1   2
BRANCH   1  25
ATOM     25  C   UNL A   1      38.352  24.040  26.571  1.00  0.00     0.116 C 
BRANCH  25  26
ATOM     26  N   UNL A   1      39.770  23.888  26.278  1.00  0.00    -0.352 N 
ATOM     27  C   UNL A   1      40.830  24.671  26.676  1.00  0.00     0.251 C 
ATOM     28  H   UNL A   1      40.004  23.116  25.715  1.00  0.00     0.163 HD
ATOM     29  O   UNL A   1      41.950  24.464  26.219  1.00  0.00    -0.269 OA
BRANCH  27  30
ATOM     30  C   UNL A   1      40.607  25.781  27.626  1.00  0.00     0.039 A 
ATOM     31  C   UNL A   1      39.623  25.643  28.609  1.00  0.00     0.014 A 
ATOM     32  C   UNL A   1      41.384  26.941  27.566  1.00  0.00     0.014 A 
ATOM     33  C   UNL A   1      39.476  26.635  29.583  1.00  0.00     0.010 A 
ATOM     34  C   UNL A   1      41.286  27.891  28.579  1.00  0.00     0.010 A 
ATOM     35  C   UNL A   1      40.336  27.746  29.600  1.00  0.00    -0.014 A 
BRANCH  35  36
ATOM     36  C   UNL A   1      40.268  28.759  30.686  1.00  0.00     0.031 A 
ATOM     37  C   UNL A   1      41.137  28.617  31.907  1.00  0.00     0.074 A 
ATOM     38  C   UNL A   1      39.367  29.759  30.608  1.00  0.00     0.049 A 
ATOM     39  N   UNL A   1      41.159  29.348  32.992  1.00  0.00    -0.248 NA
ATOM     40  C   UNL A   1      42.082  27.489  31.923  1.00  0.00     0.031 C 
ATOM     41  C   UNL A   1      38.426  29.967  29.505  1.00  0.00     0.029 A 
ATOM     42  N   UNL A   1      39.083  30.780  31.482  1.00  0.00    -0.354 N 
ATOM     43  C   UNL A   1      42.100  28.757  33.826  1.00  0.00     0.074 A 
ATOM     44  C   UNL A   1      42.595  27.582  33.141  1.00  0.00     0.031 C 
ATOM     45  C   UNL A   1      37.680  31.054  29.762  1.00  0.00     0.029 A 
ATOM     46  C   UNL A   1      38.063  31.601  31.060  1.00  0.00     0.049 A 
ATOM     47  H   UNL A   1      39.563  30.911  32.331  1.00  0.00     0.167 HD
ATOM     48  C   UNL A   1      42.529  29.168  35.043  1.00  0.00     0.037 A 
ATOM     49  C   UNL A   1      37.492  32.667  31.655  1.00  0.00     0.037 A 
ATOM     50  C   UNL A   1      42.061  30.358  35.704  1.00  0.00     0.049 A 
ATOM     51  C   UNL A   1      38.007  33.120  32.995  1.00  0.00     0.074 A 
ATOM     52  C   UNL A   1      42.491  30.902  36.901  1.00  0.00     0.029 A 
ATOM     53  N   UNL A   1      41.059  31.189  35.224  1.00  0.00    -0.354 N 
ATOM     54  N   UNL A   1      38.952  32.593  33.736  1.00  0.00    -0.248 NA
ATOM     55  C   UNL A   1      37.384  34.318  33.576  1.00  0.00     0.031 C 
ATOM     56  C   UNL A   1      41.722  32.042  37.165  1.00  0.00     0.029 A 
ATOM     57  C   UNL A   1      40.844  32.231  36.110  1.00  0.00     0.049 A 
ATOM     58  H   UNL A   1      40.573  31.057  34.378  1.00  0.00     0.167 HD
ATOM     59  C   UNL A   1      39.055  33.408  34.858  1.00  0.00     0.074 A 
ATOM     60  C   UNL A   1      38.083  34.469  34.693  1.00  0.00     0.031 C 
ATOM     61  C   UNL A   1      39.879  33.287  35.928  1.00  0.00     0.037 A 
BRANCH  48  62
ATOM     62  C   UNL A   1      43.564  28.328  35.740  1.00  0.00     0.058 A 
ATOM     63  C   UNL A   1      43.204  27.317  36.646  1.00  0.00     0.135 A 
ATOM     64  C   UNL A   1      44.930  28.507  35.467  1.00  0.00     0.135 A 
ATOM     65  F   UNL A   1      41.914  27.113  36.955  1.00  0.00    -0.206 F 
ATOM     66  C   UNL A   1      44.163  26.531  37.276  1.00  0.00     0.059 A 
ATOM     67  C   UNL A   1      45.904  27.714  36.066  1.00  0.00     0.059 A 
ATOM     68  F   UNL A   1      45.329  29.458  34.609  1.00  0.00    -0.206 F 
ATOM     69  C   UNL A   1      45.512  26.737  36.980  1.00  0.00     0.060 A 
BRANCH  69  70
ATOM     70  S   UNL A   1      46.743  25.700  37.796  1.00  0.00     0.124 S 
ATOM     71  O   UNL A   1      46.618  26.139  39.183  1.00  0.00    -0.237 OA
ATOM     72  O   UNL A   1      46.256  24.353  37.513  1.00  0.00    -0.237 OA
ATOM     73  O   UNL A   1      47.990  26.065  37.132  1.00  0.00    -0.744 OA
ENDBRANCH  69  70
ENDBRANCH  48  62
BRANCH  49  74
ATOM     74  C   UNL A   1      36.383  33.390  30.979  1.00  0.00     0.058 A 
ATOM     75  C   UNL A   1      36.624  34.186  29.849  1.00  0.00     0.135 A 
ATOM     76  C   UNL A   1      35.062  33.294  31.442  1.00  0.00     0.135 A 
ATOM     77  F   UNL A   1      37.871  34.315  29.372  1.00  0.00    -0.206 F 
ATOM     78  C   UNL A   1      35.597  34.874  29.211  1.00  0.00     0.059 A 
ATOM     79  C   UNL A   1      34.015  33.954  30.806  1.00  0.00     0.059 A 
ATOM     80  F   UNL A   1      34.777  32.531  32.509  1.00  0.00    -0.206 F 
ATOM     81  C   UNL A   1      34.294  34.751  29.697  1.00  0.00     0.060 A 
BRANCH  81  82
ATOM     82  S   UNL A   1      32.961  35.612  28.834  1.00  0.00     0.124 S 
ATOM     83  O   UNL A   1      32.172  36.122  29.949  1.00  0.00    -0.237 OA
ATOM     84  O   UNL A   1      33.691  36.609  28.057  1.00  0.00    -0.237 OA
ATOM     85  O   UNL A   1      32.334  34.553  28.048  1.00  0.00    -0.744 OA
ENDBRANCH  81  82
ENDBRANCH  49  74
BRANCH  61  86
ATOM     86  C   UNL A   1      39.792  34.345  36.991  1.00  0.00     0.058 A 
ATOM     87  C   UNL A   1      39.005  34.174  38.140  1.00  0.00     0.135 A 
ATOM     88  C   UNL A   1      40.551  35.523  36.883  1.00  0.00     0.135 A 
ATOM     89  F   UNL A   1      38.258  33.068  38.287  1.00  0.00    -0.206 F 
ATOM     90  C   UNL A   1      38.956  35.142  39.137  1.00  0.00     0.059 A 
ATOM     91  C   UNL A   1      40.535  36.493  37.880  1.00  0.00     0.059 A 
ATOM     92  F   UNL A   1      41.327  35.731  35.808  1.00  0.00    -0.206 F 
ATOM     93  C   UNL A   1      39.726  36.299  38.998  1.00  0.00     0.060 A 
BRANCH  93  94
ATOM     94  S   UNL A   1      39.682  37.534  40.314  1.00  0.00     0.124 S 
ATOM     95  O   UNL A   1      41.103  37.771  40.543  1.00  0.00    -0.237 OA
ATOM     96  O   UNL A   1      38.949  38.632  39.690  1.00  0.00    -0.237 OA
ATOM     97  O   UNL A   1      38.976  36.853  41.395  1.00  0.00    -0.744 OA
ENDBRANCH  93  94
ENDBRANCH  61  86
ENDBRANCH  35  36
ENDBRANCH  27  30
ENDBRANCH  25  26
ENDBRANCH   1  25
TORSDOF 18
ENDMDL
MODEL 3
REMARK VINA RESULT:     -11.0      3.006      4.132
REMARK SMILES CCC[C@]1(C(=O)NCCCCNC(=O)c2ccc(-c3c4nc(c(-c5c(F)cc(S(=O)(=O)[O-])cc5F)c5ccc([nH]5)c(-c5c(F)cc(S(=O)(=O)[O-])cc5F)c5nc(c(-c6c(F)cc(S(=O)(=O)[O-])cc6F)c6ccc3[nH]6)C=C5)C=C4)cc2)CCN(C(=O)c2cccnc2C)C1
REMARK SMILES IDX 10 1 9 2 8 3 7 4 5 5 6 6 4 8 81 9 93 10 82 11 83 12 3 13
REMARK SMILES IDX 2 14 1 15 84 16 85 17 86 18 87 19 91 20 88 21 90 22 92 23
REMARK SMILES IDX 89 24 11 25 12 26 13 27 14 29 15 30 16 31 80 32 17 33 79 34
REMARK SMILES IDX 18 35 19 36 20 37 73 38 21 39 78 40 72 41 74 42 22 43 77 44
REMARK SMILES IDX 71 45 70 46 23 48 57 49 36 50 56 51 37 52 40 53 55 54 75 55
REMARK SMILES IDX 38 56 39 57 54 59 76 60 41 61 24 62 25 63 34 64 26 65 27 66
REMARK SMILES IDX 33 67 35 68 28 69 29 70 30 71 31 72 32 73 58 74 59 75 68 76
REMARK SMILES IDX 60 77 61 78 67 79 69 80 62 81 63 82 64 83 65 84 66 85 42 86
REMARK SMILES IDX 43 87 52 88 44 89 45 90 51 91 53 92 46 93 47 94 48 95 49 96
REMARK SMILES IDX 50 97
REMARK H PARENT 7 7 12 28 74 47 40 58
REMARK Flexibility Score: inf
ROOT
ATOM      1  C   UNL A   1      34.944  31.264  28.077  1.00  0.00     0.023 C 
ENDROOT
BRANCH   1   2
ATOM      2  C   UNL A   1      35.142  29.821  27.621  1.00  0.00     0.023 C 
BRANCH   2   3
ATOM      3  C   UNL A   1      34.052  29.275  26.707  1.00  0.00     0.116 C 
BRANCH   3   4
ATOM      4  N   UNL A   1      32.808  29.008  27.406  1.00  0.00    -0.356 N 
ATOM      5  C   UNL A   1      31.867  28.036  27.244  1.00  0.00     0.228 C 
ATOM      6  O   UNL A   1      30.964  28.020  28.088  1.00  0.00    -0.274 OA
ATOM      7  H   UNL A   1      32.608  29.645  28.130  1.00  0.00     0.163 HD
BRANCH   5   8
ATOM      8  C   UNL A   1      31.885  27.022  26.073  1.00  0.00     0.068 C 
ATOM      9  C   UNL A   1      30.621  26.134  26.097  1.00  0.00     0.040 C 
ATOM     10  C   UNL A   1      31.823  27.767  24.730  1.00  0.00     0.136 C 
ATOM     11  C   UNL A   1      30.232  25.972  24.636  1.00  0.00     0.121 C 
ATOM     12  N   UNL A   1      30.688  27.200  24.010  1.00  0.00    -0.337 N 
BRANCH   8  13
ATOM     13  C   UNL A   1      33.177  26.151  26.205  1.00  0.00     0.018 C 
BRANCH  13  14
ATOM     14  C   UNL A   1      34.012  25.810  24.959  1.00  0.00    -0.002 C 
ATOM     15  C   UNL A   1      33.570  24.577  24.189  1.00  0.00     0.004 C 
ENDBRANCH  13  14
ENDBRANCH   8  13
BRANCH  12  16
ATOM     16  C   UNL A   1      30.228  27.796  22.852  1.00  0.00     0.255 C 
ATOM     17  O   UNL A   1      30.542  27.407  21.730  1.00  0.00    -0.269 OA
BRANCH  16  18
ATOM     18  C   UNL A   1      29.255  28.898  22.952  1.00  0.00     0.061 A 
ATOM     19  C   UNL A   1      29.751  30.192  22.770  1.00  0.00     0.017 A 
ATOM     20  C   UNL A   1      27.908  28.732  23.278  1.00  0.00     0.050 A 
ATOM     21  C   UNL A   1      28.888  31.277  22.853  1.00  0.00     0.021 A 
ATOM     22  N   UNL A   1      27.048  29.788  23.322  1.00  0.00    -0.261 NA
ATOM     23  C   UNL A   1      27.290  27.406  23.608  1.00  0.00     0.067 C 
ATOM     24  C   UNL A   1      27.553  31.024  23.114  1.00  0.00     0.111 A 
ENDBRANCH  16  18
ENDBRANCH  12  16
ENDBRANCH   5   8
ENDBRANCH   3   4
ENDBRANCH   2   3
ENDBRANCH   1   2
BRANCH   1  25
ATOM     25  C   UNL A   1      35.930  31.761  29.130  1.00  0.00     0.116 C 
BRANCH  25  26
ATOM     26  N   UNL A   1      35.781  31.095  30.417  1.00  0.00    -0.352 N 
ATOM     27  C   UNL A   1      36.673  30.293  31.090  1.00  0.00     0.251 C 
ATOM     28  H   UNL A   1      34.919  31.238  30.868  1.00  0.00     0.163 HD
ATOM     29  O   UNL A   1      36.321  29.705  32.109  1.00  0.00    -0.269 OA
BRANCH  27  30
ATOM     30  C   UNL A   1      38.042  30.114  30.563  1.00  0.00     0.039 A 
ATOM     31  C   UNL A   1      39.108  30.025  31.463  1.00  0.00     0.014 A 
ATOM     32  C   UNL A   1      38.272  30.006  29.188  1.00  0.00     0.014 A 
ATOM     33  C   UNL A   1      40.392  29.745  30.988  1.00  0.00     0.010 A 
ATOM     34  C   UNL A   1      39.536  29.655  28.725  1.00  0.00     0.010 A 
ATOM     35  C   UNL A   1      40.608  29.515  29.619  1.00  0.00    -0.014 A 
BRANCH  35  36
ATOM     36  C   UNL A   1      41.943  29.111  29.105  1.00  0.00     0.031 A 
ATOM     37  C   UNL A   1      43.040  30.131  28.970  1.00  0.00     0.074 A 
ATOM     38  C   UNL A   1      42.139  27.845  28.684  1.00  0.00     0.049 A 
ATOM     39  N   UNL A   1      44.239  29.991  28.464  1.00  0.00    -0.248 NA
ATOM     40  C   UNL A   1      42.742  31.495  29.437  1.00  0.00     0.031 C 
ATOM     41  C   UNL A   1      41.133  26.780  28.704  1.00  0.00     0.029 A 
ATOM     42  N   UNL A   1      43.246  27.243  28.138  1.00  0.00    -0.354 N 
ATOM     43  C   UNL A   1      44.828  31.247  28.530  1.00  0.00     0.074 A 
ATOM     44  C   UNL A   1      43.840  32.148  29.083  1.00  0.00     0.031 C 
ATOM     45  C   UNL A   1      41.673  25.654  28.209  1.00  0.00     0.029 A 
ATOM     46  C   UNL A   1      43.049  25.923  27.805  1.00  0.00     0.049 A 
ATOM     47  H   UNL A   1      44.100  27.712  28.000  1.00  0.00     0.167 HD
ATOM     48  C   UNL A   1      46.084  31.613  28.182  1.00  0.00     0.037 A 
ATOM     49  C   UNL A   1      43.880  25.032  27.227  1.00  0.00     0.037 A 
ATOM     50  C   UNL A   1      47.076  30.705  27.667  1.00  0.00     0.049 A 
ATOM     51  C   UNL A   1      45.280  25.456  26.876  1.00  0.00     0.074 A 
ATOM     52  C   UNL A   1      48.400  30.962  27.360  1.00  0.00     0.029 A 
ATOM     53  N   UNL A   1      46.852  29.365  27.385  1.00  0.00    -0.354 N 
ATOM     54  N   UNL A   1      45.845  26.631  27.017  1.00  0.00    -0.248 NA
ATOM     55  C   UNL A   1      46.160  24.431  26.295  1.00  0.00     0.031 C 
ATOM     56  C   UNL A   1      48.968  29.787  26.854  1.00  0.00     0.029 A 
ATOM     57  C   UNL A   1      48.009  28.787  26.889  1.00  0.00     0.049 A 
ATOM     58  H   UNL A   1      45.997  28.895  27.517  1.00  0.00     0.167 HD
ATOM     59  C   UNL A   1      47.152  26.482  26.566  1.00  0.00     0.074 A 
ATOM     60  C   UNL A   1      47.297  25.100  26.159  1.00  0.00     0.031 C 
ATOM     61  C   UNL A   1      48.141  27.406  26.496  1.00  0.00     0.037 A 
BRANCH  48  62
ATOM     62  C   UNL A   1      46.464  33.059  28.352  1.00  0.00     0.058 A 
ATOM     63  C   UNL A   1      46.287  33.993  27.320  1.00  0.00     0.135 A 
ATOM     64  C   UNL A   1      46.971  33.523  29.577  1.00  0.00     0.135 A 
ATOM     65  F   UNL A   1      45.819  33.601  26.125  1.00  0.00    -0.206 F 
ATOM     66  C   UNL A   1      46.624  35.333  27.487  1.00  0.00     0.059 A 
ATOM     67  C   UNL A   1      47.290  34.864  29.774  1.00  0.00     0.059 A 
ATOM     68  F   UNL A   1      47.161  32.672  30.597  1.00  0.00    -0.206 F 
ATOM     69  C   UNL A   1      47.125  35.759  28.718  1.00  0.00     0.060 A 
BRANCH  69  70
ATOM     70  S   UNL A   1      47.545  37.502  28.922  1.00  0.00     0.124 S 
ATOM     71  O   UNL A   1      48.970  37.497  28.603  1.00  0.00    -0.237 OA
ATOM     72  O   UNL A   1      46.680  38.150  27.941  1.00  0.00    -0.237 OA
ATOM     73  O   UNL A   1      47.216  37.771  30.318  1.00  0.00    -0.744 OA
ENDBRANCH  69  70
ENDBRANCH  48  62
BRANCH  49  74
ATOM     74  C   UNL A   1      43.413  23.645  26.963  1.00  0.00     0.058 A 
ATOM     75  C   UNL A   1      43.341  22.699  27.997  1.00  0.00     0.135 A 
ATOM     76  C   UNL A   1      43.023  23.240  25.678  1.00  0.00     0.135 A 
ATOM     77  F   UNL A   1      43.709  23.036  29.242  1.00  0.00    -0.206 F 
ATOM     78  C   UNL A   1      42.914  21.396  27.763  1.00  0.00     0.059 A 
ATOM     79  C   UNL A   1      42.569  21.949  25.424  1.00  0.00     0.059 A 
ATOM     80  F   UNL A   1      43.056  24.113  24.658  1.00  0.00    -0.206 F 
ATOM     81  C   UNL A   1      42.529  21.030  26.472  1.00  0.00     0.060 A 
BRANCH  81  82
ATOM     82  S   UNL A   1      41.932  19.349  26.188  1.00  0.00     0.124 S 
ATOM     83  O   UNL A   1      42.249  18.707  27.458  1.00  0.00    -0.237 OA
ATOM     84  O   UNL A   1      40.514  19.568  25.918  1.00  0.00    -0.237 OA
ATOM     85  O   UNL A   1      42.718  18.906  25.040  1.00  0.00    -0.744 OA
ENDBRANCH  81  82
ENDBRANCH  49  74
BRANCH  61  86
ATOM     86  C   UNL A   1      49.480  26.949  25.991  1.00  0.00     0.058 A 
ATOM     87  C   UNL A   1      49.868  27.138  24.655  1.00  0.00     0.135 A 
ATOM     88  C   UNL A   1      50.408  26.365  26.868  1.00  0.00     0.135 A 
ATOM     89  F   UNL A   1      49.015  27.686  23.776  1.00  0.00    -0.206 F 
ATOM     90  C   UNL A   1      51.122  26.744  24.201  1.00  0.00     0.059 A 
ATOM     91  C   UNL A   1      51.677  25.986  26.441  1.00  0.00     0.059 A 
ATOM     92  F   UNL A   1      50.090  26.172  28.159  1.00  0.00    -0.206 F 
ATOM     93  C   UNL A   1      52.021  26.169  25.103  1.00  0.00     0.060 A 
BRANCH  93  94
ATOM     94  S   UNL A   1      53.659  25.694  24.511  1.00  0.00     0.124 S 
ATOM     95  O   UNL A   1      53.739  24.305  24.953  1.00  0.00    -0.237 OA
ATOM     96  O   UNL A   1      53.542  25.895  23.069  1.00  0.00    -0.237 OA
ATOM     97  O   UNL A   1      54.551  26.624  25.197  1.00  0.00    -0.744 OA
ENDBRANCH  93  94
ENDBRANCH  61  86
ENDBRANCH  35  36
ENDBRANCH  27  30
ENDBRANCH  25  26
ENDBRANCH   1  25
TORSDOF 18
ENDMDL
