MODEL 1
REMARK VINA RESULT:      -9.7      0.000      0.000
REMARK SMILES COc1cc(/C=C2/SC(=O)N(c3ccc(C)c(C)c3)C2=O)ccc1OCCC(=O)NCCCCNC(=O)c1ccc(-c2c3nc(c(-c4c(F)cc(S(=O)(=O)[O-])cc4F)c4ccc([nH]4)c(-c4c(F)cc(S(=O)(=O)[O-])cc4F)c4nc(c(-c5c(F)cc(S(=O)(=O)[O-])cc5F)c5ccc2[nH]5)C=C4)C=C3)cc1
REMARK SMILES IDX 31 1 30 2 28 3 29 4 27 6 26 7 25 8 24 9 3 10 4 11 5 12 23 13
REMARK SMILES IDX 22 14 2 15 1 16 6 17 7 18 8 19 20 20 9 21 11 22 21 23 10 24
REMARK SMILES IDX 12 25 13 26 19 27 14 28 17 29 15 30 18 31 16 32 32 33 33 34
REMARK SMILES IDX 34 35 35 36 36 37 37 39 38 40 39 41 103 42 40 43 102 44
REMARK SMILES IDX 41 45 42 46 43 47 96 48 44 49 101 50 95 51 97 52 45 53
REMARK SMILES IDX 100 54 94 55 93 56 46 58 80 59 59 60 79 61 60 62 63 63 78 64
REMARK SMILES IDX 98 65 61 66 62 67 77 69 99 70 64 71 47 72 48 73 57 74 49 75
REMARK SMILES IDX 50 76 56 77 58 78 51 79 52 80 53 81 54 82 55 83 81 84 82 85
REMARK SMILES IDX 91 86 83 87 84 88 90 89 92 90 85 91 86 92 87 93 88 94 89 95
REMARK SMILES IDX 65 96 66 97 75 98 67 99 68 100 74 101 76 102 69 103 70 104
REMARK SMILES IDX 71 105 72 106 73 107
REMARK H PARENT 30 5 35 38 97 57 63 68
REMARK Flexibility Score: inf
ROOT
ATOM      1  C   UNL A   1      42.456  20.385  26.116  1.00  0.00     0.116 C 
ENDROOT
BRANCH   1   2
ATOM      2  N   UNL A   1      43.764  19.875  25.748  1.00  0.00    -0.356 N 
ATOM      3  C   UNL A   1      44.769  20.499  25.070  1.00  0.00     0.223 C 
ATOM      4  O   UNL A   1      45.910  20.038  25.144  1.00  0.00    -0.275 OA
ATOM      5  H   UNL A   1      43.951  18.949  26.027  1.00  0.00     0.163 HD
BRANCH   3   6
ATOM      6  C   UNL A   1      44.487  21.768  24.302  1.00  0.00     0.141 C 
BRANCH   6   7
ATOM      7  C   UNL A   1      45.744  22.581  24.006  1.00  0.00     0.239 C 
BRANCH   7   8
ATOM      8  O   UNL A   1      45.695  23.946  24.420  1.00  0.00    -0.489 OA
BRANCH   8   9
ATOM      9  C   UNL A   1      46.282  24.394  25.569  1.00  0.00     0.161 A 
ATOM     10  C   UNL A   1      46.003  24.072  26.900  1.00  0.00     0.161 A 
ATOM     11  C   UNL A   1      46.877  24.453  27.936  1.00  0.00     0.058 A 
ATOM     12  C   UNL A   1      47.997  25.235  27.664  1.00  0.00    -0.020 A 
ATOM     13  C   UNL A   1      47.345  25.270  25.321  1.00  0.00     0.051 A 
ATOM     14  C   UNL A   1      48.200  25.680  26.351  1.00  0.00     0.012 A 
BRANCH  10  15
ATOM     15  O   UNL A   1      44.932  23.317  27.277  1.00  0.00    -0.493 OA
ATOM     16  C   UNL A   1      44.696  23.420  28.681  1.00  0.00     0.278 C 
ENDBRANCH  10  15
BRANCH  12  17
ATOM     17  C   UNL A   1      49.011  25.514  28.696  1.00  0.00     0.029 C 
ATOM     18  C   UNL A   1      48.784  26.325  29.738  1.00  0.00     0.083 C 
ATOM     19  S   UNL A   1      49.980  27.196  30.590  1.00  0.00    -0.022 SA
ATOM     20  C   UNL A   1      47.469  26.919  30.048  1.00  0.00     0.272 C 
ATOM     21  C   UNL A   1      48.925  28.630  30.615  1.00  0.00     0.298 C 
ATOM     22  N   UNL A   1      47.641  28.281  30.222  1.00  0.00    -0.236 N 
ATOM     23  O   UNL A   1      46.459  26.230  30.112  1.00  0.00    -0.268 OA
ATOM     24  O   UNL A   1      49.389  29.720  30.901  1.00  0.00    -0.260 OA
BRANCH  22  25
ATOM     25  C   UNL A   1      46.589  29.216  29.929  1.00  0.00     0.053 A 
ATOM     26  C   UNL A   1      45.834  29.807  30.952  1.00  0.00     0.027 A 
ATOM     27  C   UNL A   1      46.174  29.485  28.614  1.00  0.00     0.030 A 
ATOM     28  C   UNL A   1      44.721  30.606  30.688  1.00  0.00     0.006 A 
ATOM     29  C   UNL A   1      45.035  30.271  28.326  1.00  0.00    -0.046 A 
ATOM     30  C   UNL A   1      44.307  30.849  29.378  1.00  0.00    -0.048 A 
ATOM     31  C   UNL A   1      44.628  30.460  26.890  1.00  0.00     0.044 C 
ATOM     32  C   UNL A   1      43.080  31.693  29.183  1.00  0.00     0.044 C 
ENDBRANCH  22  25
ENDBRANCH  12  17
ENDBRANCH   8   9
ENDBRANCH   7   8
ENDBRANCH   6   7
ENDBRANCH   3   6
ENDBRANCH   1   2
BRANCH   1  33
ATOM     33  C   UNL A   1      42.272  20.660  27.606  1.00  0.00     0.023 C 
BRANCH  33  34
ATOM     34  C   UNL A   1      41.634  22.010  27.914  1.00  0.00     0.023 C 
BRANCH  34  35
ATOM     35  C   UNL A   1      40.928  22.688  26.755  1.00  0.00     0.116 C 
BRANCH  35  36
ATOM     36  N   UNL A   1      41.882  23.358  25.890  1.00  0.00    -0.352 N 
ATOM     37  C   UNL A   1      42.257  24.676  25.813  1.00  0.00     0.251 C 
ATOM     38  H   UNL A   1      42.339  22.766  25.250  1.00  0.00     0.163 HD
ATOM     39  O   UNL A   1      42.885  25.036  24.818  1.00  0.00    -0.269 OA
BRANCH  37  40
ATOM     40  C   UNL A   1      41.939  25.665  26.878  1.00  0.00     0.039 A 
ATOM     41  C   UNL A   1      42.837  26.722  27.085  1.00  0.00     0.014 A 
ATOM     42  C   UNL A   1      40.846  25.532  27.738  1.00  0.00     0.014 A 
ATOM     43  C   UNL A   1      42.645  27.623  28.136  1.00  0.00     0.010 A 
ATOM     44  C   UNL A   1      40.602  26.486  28.726  1.00  0.00     0.010 A 
ATOM     45  C   UNL A   1      41.519  27.520  28.965  1.00  0.00    -0.014 A 
BRANCH  45  46
ATOM     46  C   UNL A   1      41.308  28.434  30.119  1.00  0.00     0.031 A 
ATOM     47  C   UNL A   1      42.115  28.254  31.381  1.00  0.00     0.074 A 
ATOM     48  C   UNL A   1      40.351  29.382  30.067  1.00  0.00     0.049 A 
ATOM     49  N   UNL A   1      42.003  28.865  32.532  1.00  0.00    -0.248 NA
ATOM     50  C   UNL A   1      43.172  27.229  31.349  1.00  0.00     0.031 C 
ATOM     51  C   UNL A   1      39.487  29.647  28.918  1.00  0.00     0.029 A 
ATOM     52  N   UNL A   1      39.926  30.278  31.015  1.00  0.00    -0.354 N 
ATOM     53  C   UNL A   1      42.961  28.293  33.362  1.00  0.00     0.074 A 
ATOM     54  C   UNL A   1      43.601  27.241  32.603  1.00  0.00     0.031 C 
ATOM     55  C   UNL A   1      38.617  30.618  29.234  1.00  0.00     0.029 A 
ATOM     56  C   UNL A   1      38.849  31.033  30.613  1.00  0.00     0.049 A 
ATOM     57  H   UNL A   1      40.349  30.371  31.899  1.00  0.00     0.167 HD
ATOM     58  C   UNL A   1      43.300  28.630  34.630  1.00  0.00     0.037 A 
ATOM     59  C   UNL A   1      38.120  31.947  31.281  1.00  0.00     0.037 A 
ATOM     60  C   UNL A   1      42.686  29.701  35.370  1.00  0.00     0.049 A 
ATOM     61  C   UNL A   1      38.511  32.311  32.686  1.00  0.00     0.074 A 
ATOM     62  C   UNL A   1      43.002  30.171  36.632  1.00  0.00     0.029 A 
ATOM     63  N   UNL A   1      41.627  30.473  34.910  1.00  0.00    -0.354 N 
ATOM     64  N   UNL A   1      39.460  31.801  33.434  1.00  0.00    -0.248 NA
ATOM     65  C   UNL A   1      37.750  33.391  33.328  1.00  0.00     0.031 C 
ATOM     66  C   UNL A   1      42.113  31.204  36.950  1.00  0.00     0.029 A 
ATOM     67  C   UNL A   1      41.269  31.406  35.870  1.00  0.00     0.049 A 
ATOM     68  H   UNL A   1      41.196  30.374  34.032  1.00  0.00     0.167 HD
ATOM     69  C   UNL A   1      39.430  32.516  34.625  1.00  0.00     0.074 A 
ATOM     70  C   UNL A   1      38.372  33.499  34.495  1.00  0.00     0.031 C 
ATOM     71  C   UNL A   1      40.212  32.376  35.725  1.00  0.00     0.037 A 
BRANCH  58  72
ATOM     72  C   UNL A   1      44.397  27.835  35.287  1.00  0.00     0.058 A 
ATOM     73  C   UNL A   1      44.118  26.690  36.052  1.00  0.00     0.135 A 
ATOM     74  C   UNL A   1      45.741  28.218  35.154  1.00  0.00     0.135 A 
ATOM     75  F   UNL A   1      42.850  26.284  36.224  1.00  0.00    -0.206 F 
ATOM     76  C   UNL A   1      45.126  25.983  36.700  1.00  0.00     0.059 A 
ATOM     77  C   UNL A   1      46.769  27.509  35.769  1.00  0.00     0.059 A 
ATOM     78  F   UNL A   1      46.067  29.302  34.431  1.00  0.00    -0.206 F 
ATOM     79  C   UNL A   1      46.449  26.406  36.559  1.00  0.00     0.060 A 
BRANCH  79  80
ATOM     80  S   UNL A   1      47.743  25.497  37.430  1.00  0.00     0.124 S 
ATOM     81  O   UNL A   1      47.282  25.588  38.811  1.00  0.00    -0.237 OA
ATOM     82  O   UNL A   1      47.664  24.172  36.821  1.00  0.00    -0.237 OA
ATOM     83  O   UNL A   1      48.954  26.252  37.121  1.00  0.00    -0.744 OA
ENDBRANCH  79  80
ENDBRANCH  58  72
BRANCH  59  84
ATOM     84  C   UNL A   1      36.964  32.591  30.608  1.00  0.00     0.058 A 
ATOM     85  C   UNL A   1      35.647  32.257  30.952  1.00  0.00     0.135 A 
ATOM     86  C   UNL A   1      37.155  33.590  29.640  1.00  0.00     0.135 A 
ATOM     87  F   UNL A   1      35.415  31.305  31.867  1.00  0.00    -0.206 F 
ATOM     88  C   UNL A   1      34.557  32.883  30.355  1.00  0.00     0.059 A 
ATOM     89  C   UNL A   1      36.083  34.245  29.043  1.00  0.00     0.059 A 
ATOM     90  F   UNL A   1      38.398  33.958  29.289  1.00  0.00    -0.206 F 
ATOM     91  C   UNL A   1      34.786  33.880  29.403  1.00  0.00     0.060 A 
BRANCH  91  92
ATOM     92  S   UNL A   1      33.366  34.728  28.678  1.00  0.00     0.124 S 
ATOM     93  O   UNL A   1      32.528  34.953  29.850  1.00  0.00    -0.237 OA
ATOM     94  O   UNL A   1      33.979  35.917  28.095  1.00  0.00    -0.237 OA
ATOM     95  O   UNL A   1      32.854  33.759  27.713  1.00  0.00    -0.744 OA
ENDBRANCH  91  92
ENDBRANCH  59  84
BRANCH  71  96
ATOM     96  C   UNL A   1      39.972  33.328  36.864  1.00  0.00     0.058 A 
ATOM     97  C   UNL A   1      39.017  33.062  37.856  1.00  0.00     0.135 A 
ATOM     98  C   UNL A   1      40.737  34.499  36.983  1.00  0.00     0.135 A 
ATOM     99  F   UNL A   1      38.255  31.959  37.783  1.00  0.00    -0.206 F 
ATOM    100  C   UNL A   1      38.808  33.939  38.915  1.00  0.00     0.059 A 
ATOM    101  C   UNL A   1      40.563  35.378  38.047  1.00  0.00     0.059 A 
ATOM    102  F   UNL A   1      41.672  34.794  36.067  1.00  0.00    -0.206 F 
ATOM    103  C   UNL A   1      39.586  35.096  39.002  1.00  0.00     0.060 A 
BRANCH 103 104
ATOM    104  S   UNL A   1      39.326  36.214  40.395  1.00  0.00     0.124 S 
ATOM    105  O   UNL A   1      38.292  35.510  41.147  1.00  0.00    -0.237 OA
ATOM    106  O   UNL A   1      40.646  36.253  41.018  1.00  0.00    -0.237 OA
ATOM    107  O   UNL A   1      38.904  37.457  39.758  1.00  0.00    -0.744 OA
ENDBRANCH 103 104
ENDBRANCH  71  96
ENDBRANCH  45  46
ENDBRANCH  37  40
ENDBRANCH  35  36
ENDBRANCH  34  35
ENDBRANCH  33  34
ENDBRANCH   1  33
TORSDOF 20
ENDMDL
MODEL 2
REMARK VINA RESULT:      -9.5      1.594      8.202
REMARK SMILES COc1cc(/C=C2/SC(=O)N(c3ccc(C)c(C)c3)C2=O)ccc1OCCC(=O)NCCCCNC(=O)c1ccc(-c2c3nc(c(-c4c(F)cc(S(=O)(=O)[O-])cc4F)c4ccc([nH]4)c(-c4c(F)cc(S(=O)(=O)[O-])cc4F)c4nc(c(-c5c(F)cc(S(=O)(=O)[O-])cc5F)c5ccc2[nH]5)C=C4)C=C3)cc1
REMARK SMILES IDX 31 1 30 2 28 3 29 4 27 6 26 7 25 8 24 9 3 10 4 11 5 12 23 13
REMARK SMILES IDX 22 14 2 15 1 16 6 17 7 18 8 19 20 20 9 21 11 22 21 23 10 24
REMARK SMILES IDX 12 25 13 26 19 27 14 28 17 29 15 30 18 31 16 32 32 33 33 34
REMARK SMILES IDX 34 35 35 36 36 37 37 39 38 40 39 41 103 42 40 43 102 44
REMARK SMILES IDX 41 45 42 46 43 47 96 48 44 49 101 50 95 51 97 52 45 53
REMARK SMILES IDX 100 54 94 55 93 56 46 58 80 59 59 60 79 61 60 62 63 63 78 64
REMARK SMILES IDX 98 65 61 66 62 67 77 69 99 70 64 71 47 72 48 73 57 74 49 75
REMARK SMILES IDX 50 76 56 77 58 78 51 79 52 80 53 81 54 82 55 83 81 84 82 85
REMARK SMILES IDX 91 86 83 87 84 88 90 89 92 90 85 91 86 92 87 93 88 94 89 95
REMARK SMILES IDX 65 96 66 97 75 98 67 99 68 100 74 101 76 102 69 103 70 104
REMARK SMILES IDX 71 105 72 106 73 107
REMARK H PARENT 30 5 35 38 97 57 63 68
REMARK Flexibility Score: inf
ROOT
ATOM      1  C   UNL A   1      42.404  21.076  26.842  1.00  0.00     0.116 C 
ENDROOT
BRANCH   1   2
ATOM      2  N   UNL A   1      43.520  20.459  26.151  1.00  0.00    -0.356 N 
ATOM      3  C   UNL A   1      44.366  21.003  25.229  1.00  0.00     0.223 C 
ATOM      4  O   UNL A   1      45.441  20.443  25.007  1.00  0.00    -0.275 OA
ATOM      5  H   UNL A   1      43.691  19.516  26.379  1.00  0.00     0.163 HD
BRANCH   3   6
ATOM      6  C   UNL A   1      44.007  22.303  24.551  1.00  0.00     0.141 C 
BRANCH   6   7
ATOM      7  C   UNL A   1      45.192  22.956  23.844  1.00  0.00     0.239 C 
BRANCH   7   8
ATOM      8  O   UNL A   1      46.221  23.440  24.706  1.00  0.00    -0.489 OA
BRANCH   8   9
ATOM      9  C   UNL A   1      46.307  24.746  25.097  1.00  0.00     0.161 A 
ATOM     10  C   UNL A   1      47.126  25.772  24.616  1.00  0.00     0.161 A 
ATOM     11  C   UNL A   1      46.899  27.112  24.982  1.00  0.00     0.058 A 
ATOM     12  C   UNL A   1      45.903  27.436  25.900  1.00  0.00    -0.020 A 
ATOM     13  C   UNL A   1      45.385  25.067  26.100  1.00  0.00     0.051 A 
ATOM     14  C   UNL A   1      45.176  26.394  26.492  1.00  0.00     0.012 A 
BRANCH  10  15
ATOM     15  O   UNL A   1      48.132  25.564  23.719  1.00  0.00    -0.493 OA
ATOM     16  C   UNL A   1      48.793  26.787  23.392  1.00  0.00     0.278 C 
ENDBRANCH  10  15
BRANCH  12  17
ATOM     17  C   UNL A   1      45.538  28.835  26.180  1.00  0.00     0.029 C 
ATOM     18  C   UNL A   1      45.739  29.415  27.371  1.00  0.00     0.083 C 
ATOM     19  S   UNL A   1      44.838  30.722  27.997  1.00  0.00    -0.022 SA
ATOM     20  C   UNL A   1      46.464  28.774  28.487  1.00  0.00     0.272 C 
ATOM     21  C   UNL A   1      44.786  29.930  29.591  1.00  0.00     0.298 C 
ATOM     22  N   UNL A   1      45.677  28.867  29.621  1.00  0.00    -0.236 N 
ATOM     23  O   UNL A   1      47.568  28.274  28.323  1.00  0.00    -0.268 OA
ATOM     24  O   UNL A   1      44.001  30.321  30.437  1.00  0.00    -0.260 OA
BRANCH  22  25
ATOM     25  C   UNL A   1      45.747  27.884  30.668  1.00  0.00     0.053 A 
ATOM     26  C   UNL A   1      46.510  28.105  31.823  1.00  0.00     0.027 A 
ATOM     27  C   UNL A   1      45.172  26.610  30.535  1.00  0.00     0.030 A 
ATOM     28  C   UNL A   1      46.706  27.114  32.785  1.00  0.00     0.006 A 
ATOM     29  C   UNL A   1      45.379  25.583  31.486  1.00  0.00    -0.046 A 
ATOM     30  C   UNL A   1      46.147  25.844  32.632  1.00  0.00    -0.048 A 
ATOM     31  C   UNL A   1      44.772  24.230  31.235  1.00  0.00     0.044 C 
ATOM     32  C   UNL A   1      46.433  24.826  33.697  1.00  0.00     0.044 C 
ENDBRANCH  22  25
ENDBRANCH  12  17
ENDBRANCH   8   9
ENDBRANCH   7   8
ENDBRANCH   6   7
ENDBRANCH   3   6
ENDBRANCH   1   2
BRANCH   1  33
ATOM     33  C   UNL A   1      42.783  21.867  28.092  1.00  0.00     0.023 C 
BRANCH  33  34
ATOM     34  C   UNL A   1      41.842  23.026  28.401  1.00  0.00     0.023 C 
BRANCH  34  35
ATOM     35  C   UNL A   1      40.729  23.261  27.397  1.00  0.00     0.116 C 
BRANCH  35  36
ATOM     36  N   UNL A   1      41.174  24.140  26.330  1.00  0.00    -0.352 N 
ATOM     37  C   UNL A   1      41.138  25.507  26.215  1.00  0.00     0.251 C 
ATOM     38  H   UNL A   1      41.571  23.677  25.558  1.00  0.00     0.163 HD
ATOM     39  O   UNL A   1      41.330  25.994  25.101  1.00  0.00    -0.269 OA
BRANCH  37  40
ATOM     40  C   UNL A   1      40.882  26.405  27.374  1.00  0.00     0.039 A 
ATOM     41  C   UNL A   1      41.756  27.482  27.578  1.00  0.00     0.014 A 
ATOM     42  C   UNL A   1      39.877  26.164  28.315  1.00  0.00     0.014 A 
ATOM     43  C   UNL A   1      41.628  28.298  28.707  1.00  0.00     0.010 A 
ATOM     44  C   UNL A   1      39.690  27.035  29.389  1.00  0.00     0.010 A 
ATOM     45  C   UNL A   1      40.586  28.088  29.621  1.00  0.00    -0.014 A 
BRANCH  45  46
ATOM     46  C   UNL A   1      40.448  28.909  30.854  1.00  0.00     0.031 A 
ATOM     47  C   UNL A   1      39.431  30.022  30.910  1.00  0.00     0.074 A 
ATOM     48  C   UNL A   1      41.275  28.706  31.899  1.00  0.00     0.049 A 
ATOM     49  N   UNL A   1      39.234  30.920  31.839  1.00  0.00    -0.248 NA
ATOM     50  C   UNL A   1      38.533  30.155  29.750  1.00  0.00     0.031 C 
ATOM     51  C   UNL A   1      42.314  27.680  31.966  1.00  0.00     0.029 A 
ATOM     52  N   UNL A   1      41.388  29.372  33.093  1.00  0.00    -0.354 N 
ATOM     53  C   UNL A   1      38.204  31.731  31.374  1.00  0.00     0.074 A 
ATOM     54  C   UNL A   1      37.862  31.257  30.051  1.00  0.00     0.031 C 
ATOM     55  C   UNL A   1      42.979  27.800  33.125  1.00  0.00     0.029 A 
ATOM     56  C   UNL A   1      42.425  28.922  33.876  1.00  0.00     0.049 A 
ATOM     57  H   UNL A   1      40.787  30.103  33.363  1.00  0.00     0.167 HD
ATOM     58  C   UNL A   1      37.577  32.755  32.001  1.00  0.00     0.037 A 
ATOM     59  C   UNL A   1      42.889  29.367  35.059  1.00  0.00     0.037 A 
ATOM     60  C   UNL A   1      37.897  33.201  33.332  1.00  0.00     0.049 A 
ATOM     61  C   UNL A   1      42.182  30.504  35.742  1.00  0.00     0.074 A 
ATOM     62  C   UNL A   1      37.278  34.182  34.086  1.00  0.00     0.029 A 
ATOM     63  N   UNL A   1      38.925  32.689  34.111  1.00  0.00    -0.354 N 
ATOM     64  N   UNL A   1      41.170  31.220  35.312  1.00  0.00    -0.248 NA
ATOM     65  C   UNL A   1      42.662  30.877  37.078  1.00  0.00     0.031 C 
ATOM     66  C   UNL A   1      37.953  34.288  35.307  1.00  0.00     0.029 A 
ATOM     67  C   UNL A   1      38.968  33.344  35.331  1.00  0.00     0.049 A 
ATOM     68  H   UNL A   1      39.534  31.965  33.838  1.00  0.00     0.167 HD
ATOM     69  C   UNL A   1      40.873  32.110  36.338  1.00  0.00     0.074 A 
ATOM     70  C   UNL A   1      41.809  31.838  37.411  1.00  0.00     0.031 C 
ATOM     71  C   UNL A   1      39.907  33.062  36.388  1.00  0.00     0.037 A 
BRANCH  58  72
ATOM     72  C   UNL A   1      36.474  33.454  31.251  1.00  0.00     0.058 A 
ATOM     73  C   UNL A   1      35.126  33.306  31.619  1.00  0.00     0.135 A 
ATOM     74  C   UNL A   1      36.763  34.281  30.154  1.00  0.00     0.135 A 
ATOM     75  F   UNL A   1      34.790  32.517  32.652  1.00  0.00    -0.206 F 
ATOM     76  C   UNL A   1      34.103  33.912  30.897  1.00  0.00     0.059 A 
ATOM     77  C   UNL A   1      35.757  34.921  29.435  1.00  0.00     0.059 A 
ATOM     78  F   UNL A   1      38.033  34.464  29.761  1.00  0.00    -0.206 F 
ATOM     79  C   UNL A   1      34.428  34.712  29.801  1.00  0.00     0.060 A 
BRANCH  79  80
ATOM     80  S   UNL A   1      33.089  35.467  28.855  1.00  0.00     0.124 S 
ATOM     81  O   UNL A   1      32.256  36.016  29.920  1.00  0.00    -0.237 OA
ATOM     82  O   UNL A   1      33.795  36.447  28.035  1.00  0.00    -0.237 OA
ATOM     83  O   UNL A   1      32.514  34.343  28.124  1.00  0.00    -0.744 OA
ENDBRANCH  79  80
ENDBRANCH  58  72
BRANCH  59  84
ATOM     84  C   UNL A   1      44.072  28.711  35.673  1.00  0.00     0.058 A 
ATOM     85  C   UNL A   1      45.359  29.240  35.511  1.00  0.00     0.135 A 
ATOM     86  C   UNL A   1      43.929  27.568  36.475  1.00  0.00     0.135 A 
ATOM     87  F   UNL A   1      45.545  30.328  34.750  1.00  0.00    -0.206 F 
ATOM     88  C   UNL A   1      46.467  28.655  36.115  1.00  0.00     0.059 A 
ATOM     89  C   UNL A   1      45.018  26.976  37.105  1.00  0.00     0.059 A 
ATOM     90  F   UNL A   1      42.713  27.033  36.674  1.00  0.00    -0.206 F 
ATOM     91  C   UNL A   1      46.286  27.524  36.914  1.00  0.00     0.060 A 
BRANCH  91  92
ATOM     92  S   UNL A   1      47.723  26.807  37.741  1.00  0.00     0.124 S 
ATOM     93  O   UNL A   1      48.779  27.736  37.355  1.00  0.00    -0.237 OA
ATOM     94  O   UNL A   1      47.324  26.845  39.144  1.00  0.00    -0.237 OA
ATOM     95  O   UNL A   1      47.813  25.472  37.159  1.00  0.00    -0.744 OA
ENDBRANCH  91  92
ENDBRANCH  59  84
BRANCH  71  96
ATOM     96  C   UNL A   1      39.796  33.860  37.657  1.00  0.00     0.058 A 
ATOM     97  C   UNL A   1      40.518  35.048  37.845  1.00  0.00     0.135 A 
ATOM     98  C   UNL A   1      38.925  33.451  38.679  1.00  0.00     0.135 A 
ATOM     99  F   UNL A   1      41.369  35.478  36.900  1.00  0.00    -0.206 F 
ATOM    100  C   UNL A   1      40.401  35.791  39.016  1.00  0.00     0.059 A 
ATOM    101  C   UNL A   1      38.774  34.191  39.848  1.00  0.00     0.059 A 
ATOM    102  F   UNL A   1      38.203  32.328  38.545  1.00  0.00    -0.206 F 
ATOM    103  C   UNL A   1      39.527  35.353  40.012  1.00  0.00     0.060 A 
BRANCH 103 104
ATOM    104  S   UNL A   1      39.362  36.338  41.516  1.00  0.00     0.124 S 
ATOM    105  O   UNL A   1      38.968  37.635  40.975  1.00  0.00    -0.237 OA
ATOM    106  O   UNL A   1      38.327  35.618  42.252  1.00  0.00    -0.237 OA
ATOM    107  O   UNL A   1      40.696  36.281  42.107  1.00  0.00    -0.744 OA
ENDBRANCH 103 104
ENDBRANCH  71  96
ENDBRANCH  45  46
ENDBRANCH  37  40
ENDBRANCH  35  36
ENDBRANCH  34  35
ENDBRANCH  33  34
ENDBRANCH   1  33
TORSDOF 20
ENDMDL
MODEL 3
REMARK VINA RESULT:      -9.3      6.804     12.781
REMARK SMILES COc1cc(/C=C2/SC(=O)N(c3ccc(C)c(C)c3)C2=O)ccc1OCCC(=O)NCCCCNC(=O)c1ccc(-c2c3nc(c(-c4c(F)cc(S(=O)(=O)[O-])cc4F)c4ccc([nH]4)c(-c4c(F)cc(S(=O)(=O)[O-])cc4F)c4nc(c(-c5c(F)cc(S(=O)(=O)[O-])cc5F)c5ccc2[nH]5)C=C4)C=C3)cc1
REMARK SMILES IDX 31 1 30 2 28 3 29 4 27 6 26 7 25 8 24 9 3 10 4 11 5 12 23 13
REMARK SMILES IDX 22 14 2 15 1 16 6 17 7 18 8 19 20 20 9 21 11 22 21 23 10 24
REMARK SMILES IDX 12 25 13 26 19 27 14 28 17 29 15 30 18 31 16 32 32 33 33 34
REMARK SMILES IDX 34 35 35 36 36 37 37 39 38 40 39 41 103 42 40 43 102 44
REMARK SMILES IDX 41 45 42 46 43 47 96 48 44 49 101 50 95 51 97 52 45 53
REMARK SMILES IDX 100 54 94 55 93 56 46 58 80 59 59 60 79 61 60 62 63 63 78 64
REMARK SMILES IDX 98 65 61 66 62 67 77 69 99 70 64 71 47 72 48 73 57 74 49 75
REMARK SMILES IDX 50 76 56 77 58 78 51 79 52 80 53 81 54 82 55 83 81 84 82 85
REMARK SMILES IDX 91 86 83 87 84 88 90 89 92 90 85 91 86 92 87 93 88 94 89 95
REMARK SMILES IDX 65 96 66 97 75 98 67 99 68 100 74 101 76 102 69 103 70 104
REMARK SMILES IDX 71 105 72 106 73 107
REMARK H PARENT 30 5 35 38 97 57 63 68
REMARK Flexibility Score: inf
ROOT
ATOM      1  C   UNL A   1      47.165  21.266  36.280  1.00  0.00     0.116 C 
ENDROOT
BRANCH   1   2
ATOM      2  N   UNL A   1      46.268  21.033  37.397  1.00  0.00    -0.356 N 
ATOM      3  C   UNL A   1      46.569  20.842  38.714  1.00  0.00     0.223 C 
ATOM      4  O   UNL A   1      45.679  20.994  39.553  1.00  0.00    -0.275 OA
ATOM      5  H   UNL A   1      45.309  21.009  37.173  1.00  0.00     0.163 HD
BRANCH   3   6
ATOM      6  C   UNL A   1      47.984  20.516  39.125  1.00  0.00     0.141 C 
BRANCH   6   7
ATOM      7  C   UNL A   1      48.287  19.021  39.096  1.00  0.00     0.239 C 
BRANCH   7   8
ATOM      8  O   UNL A   1      47.282  18.188  39.673  1.00  0.00    -0.489 OA
BRANCH   8   9
ATOM      9  C   UNL A   1      46.980  18.204  41.005  1.00  0.00     0.161 A 
ATOM     10  C   UNL A   1      45.739  18.120  41.643  1.00  0.00     0.161 A 
ATOM     11  C   UNL A   1      45.651  17.910  43.032  1.00  0.00     0.058 A 
ATOM     12  C   UNL A   1      46.801  17.866  43.815  1.00  0.00    -0.020 A 
ATOM     13  C   UNL A   1      48.122  18.270  41.813  1.00  0.00     0.051 A 
ATOM     14  C   UNL A   1      48.039  18.094  43.199  1.00  0.00     0.012 A 
BRANCH  10  15
ATOM     15  O   UNL A   1      44.552  18.157  40.972  1.00  0.00    -0.493 OA
ATOM     16  C   UNL A   1      44.230  16.880  40.422  1.00  0.00     0.278 C 
ENDBRANCH  10  15
BRANCH  12  17
ATOM     17  C   UNL A   1      46.751  17.491  45.239  1.00  0.00     0.029 C 
ATOM     18  C   UNL A   1      46.336  16.290  45.660  1.00  0.00     0.083 C 
ATOM     19  S   UNL A   1      45.652  15.962  47.190  1.00  0.00    -0.022 SA
ATOM     20  C   UNL A   1      46.013  15.167  44.758  1.00  0.00     0.272 C 
ATOM     21  C   UNL A   1      44.419  14.931  46.423  1.00  0.00     0.298 C 
ATOM     22  N   UNL A   1      44.763  14.682  45.102  1.00  0.00    -0.236 N 
ATOM     23  O   UNL A   1      46.791  14.810  43.884  1.00  0.00    -0.268 OA
ATOM     24  O   UNL A   1      43.430  14.598  47.053  1.00  0.00    -0.260 OA
BRANCH  22  25
ATOM     25  C   UNL A   1      43.901  14.065  44.132  1.00  0.00     0.053 A 
ATOM     26  C   UNL A   1      43.193  14.832  43.195  1.00  0.00     0.027 A 
ATOM     27  C   UNL A   1      43.619  12.689  44.152  1.00  0.00     0.030 A 
ATOM     28  C   UNL A   1      42.247  14.270  42.338  1.00  0.00     0.006 A 
ATOM     29  C   UNL A   1      42.646  12.104  43.308  1.00  0.00    -0.046 A 
ATOM     30  C   UNL A   1      41.960  12.905  42.381  1.00  0.00    -0.048 A 
ATOM     31  C   UNL A   1      42.366  10.632  43.437  1.00  0.00     0.044 C 
ATOM     32  C   UNL A   1      40.905  12.387  41.446  1.00  0.00     0.044 C 
ENDBRANCH  22  25
ENDBRANCH  12  17
ENDBRANCH   8   9
ENDBRANCH   7   8
ENDBRANCH   6   7
ENDBRANCH   3   6
ENDBRANCH   1   2
BRANCH   1  33
ATOM     33  C   UNL A   1      47.220  22.713  35.795  1.00  0.00     0.023 C 
BRANCH  33  34
ATOM     34  C   UNL A   1      48.344  23.534  36.417  1.00  0.00     0.023 C 
BRANCH  34  35
ATOM     35  C   UNL A   1      48.252  25.036  36.220  1.00  0.00     0.116 C 
BRANCH  35  36
ATOM     36  N   UNL A   1      48.172  25.720  37.499  1.00  0.00    -0.352 N 
ATOM     37  C   UNL A   1      47.436  26.809  37.892  1.00  0.00     0.251 C 
ATOM     38  H   UNL A   1      48.741  25.337  38.204  1.00  0.00     0.163 HD
ATOM     39  O   UNL A   1      47.746  27.359  38.949  1.00  0.00    -0.269 OA
BRANCH  37  40
ATOM     40  C   UNL A   1      46.292  27.336  37.100  1.00  0.00     0.039 A 
ATOM     41  C   UNL A   1      46.534  28.403  36.223  1.00  0.00     0.014 A 
ATOM     42  C   UNL A   1      44.980  26.883  37.263  1.00  0.00     0.014 A 
ATOM     43  C   UNL A   1      45.481  29.006  35.528  1.00  0.00     0.010 A 
ATOM     44  C   UNL A   1      43.944  27.421  36.499  1.00  0.00     0.010 A 
ATOM     45  C   UNL A   1      44.174  28.516  35.653  1.00  0.00    -0.014 A 
BRANCH  45  46
ATOM     46  C   UNL A   1      43.024  29.162  34.964  1.00  0.00     0.031 A 
ATOM     47  C   UNL A   1      42.648  28.739  33.566  1.00  0.00     0.074 A 
ATOM     48  C   UNL A   1      42.359  30.172  35.559  1.00  0.00     0.049 A 
ATOM     49  N   UNL A   1      41.761  29.253  32.754  1.00  0.00    -0.248 NA
ATOM     50  C   UNL A   1      43.389  27.600  32.998  1.00  0.00     0.031 C 
ATOM     51  C   UNL A   1      42.636  30.692  36.897  1.00  0.00     0.029 A 
ATOM     52  N   UNL A   1      41.333  30.960  35.102  1.00  0.00    -0.354 N 
ATOM     53  C   UNL A   1      41.845  28.513  31.579  1.00  0.00     0.074 A 
ATOM     54  C   UNL A   1      42.915  27.556  31.761  1.00  0.00     0.031 C 
ATOM     55  C   UNL A   1      41.821  31.729  37.145  1.00  0.00     0.029 A 
ATOM     56  C   UNL A   1      40.977  31.959  35.977  1.00  0.00     0.049 A 
ATOM     57  H   UNL A   1      40.895  30.825  34.231  1.00  0.00     0.167 HD
ATOM     58  C   UNL A   1      41.083  28.599  30.463  1.00  0.00     0.037 A 
ATOM     59  C   UNL A   1      40.081  32.957  35.853  1.00  0.00     0.037 A 
ATOM     60  C   UNL A   1      39.996  29.528  30.299  1.00  0.00     0.049 A 
ATOM     61  C   UNL A   1      39.243  33.037  34.608  1.00  0.00     0.074 A 
ATOM     62  C   UNL A   1      39.117  29.651  29.238  1.00  0.00     0.029 A 
ATOM     63  N   UNL A   1      39.636  30.495  31.228  1.00  0.00    -0.354 N 
ATOM     64  N   UNL A   1      39.296  32.290  33.531  1.00  0.00    -0.248 NA
ATOM     65  C   UNL A   1      38.208  34.077  34.571  1.00  0.00     0.031 C 
ATOM     66  C   UNL A   1      38.248  30.714  29.509  1.00  0.00     0.029 A 
ATOM     67  C   UNL A   1      38.559  31.228  30.758  1.00  0.00     0.049 A 
ATOM     68  H   UNL A   1      40.081  30.639  32.094  1.00  0.00     0.167 HD
ATOM     69  C   UNL A   1      38.282  32.751  32.699  1.00  0.00     0.074 A 
ATOM     70  C   UNL A   1      37.629  33.838  33.401  1.00  0.00     0.031 C 
ATOM     71  C   UNL A   1      37.921  32.309  31.468  1.00  0.00     0.037 A 
BRANCH  58  72
ATOM     72  C   UNL A   1      41.396  27.650  29.336  1.00  0.00     0.058 A 
ATOM     73  C   UNL A   1      40.576  26.543  29.057  1.00  0.00     0.135 A 
ATOM     74  C   UNL A   1      42.526  27.844  28.527  1.00  0.00     0.135 A 
ATOM     75  F   UNL A   1      39.489  26.301  29.807  1.00  0.00    -0.206 F 
ATOM     76  C   UNL A   1      40.891  25.639  28.048  1.00  0.00     0.059 A 
ATOM     77  C   UNL A   1      42.846  26.968  27.493  1.00  0.00     0.059 A 
ATOM     78  F   UNL A   1      43.344  28.887  28.745  1.00  0.00    -0.206 F 
ATOM     79  C   UNL A   1      42.034  25.855  27.276  1.00  0.00     0.060 A 
BRANCH  79  80
ATOM     80  S   UNL A   1      42.448  24.657  25.991  1.00  0.00     0.124 S 
ATOM     81  O   UNL A   1      41.302  23.756  26.054  1.00  0.00    -0.237 OA
ATOM     82  O   UNL A   1      42.531  25.492  24.796  1.00  0.00    -0.237 OA
ATOM     83  O   UNL A   1      43.715  24.095  26.446  1.00  0.00    -0.744 OA
ENDBRANCH  79  80
ENDBRANCH  58  72
BRANCH  59  84
ATOM     84  C   UNL A   1      39.925  33.940  36.955  1.00  0.00     0.058 A 
ATOM     85  C   UNL A   1      40.526  35.204  36.889  1.00  0.00     0.135 A 
ATOM     86  C   UNL A   1      39.131  33.648  38.076  1.00  0.00     0.135 A 
ATOM     87  F   UNL A   1      41.297  35.525  35.841  1.00  0.00    -0.206 F 
ATOM     88  C   UNL A   1      40.353  36.145  37.899  1.00  0.00     0.059 A 
ATOM     89  C   UNL A   1      38.927  34.580  39.089  1.00  0.00     0.059 A 
ATOM     90  F   UNL A   1      38.522  32.457  38.177  1.00  0.00    -0.206 F 
ATOM     91  C   UNL A   1      39.548  35.825  38.995  1.00  0.00     0.060 A 
BRANCH  91  92
ATOM     92  S   UNL A   1      39.282  37.075  40.271  1.00  0.00     0.124 S 
ATOM     93  O   UNL A   1      38.796  38.202  39.482  1.00  0.00    -0.237 OA
ATOM     94  O   UNL A   1      38.297  36.432  41.134  1.00  0.00    -0.237 OA
ATOM     95  O   UNL A   1      40.607  37.241  40.859  1.00  0.00    -0.744 OA
ENDBRANCH  91  92
ENDBRANCH  59  84
BRANCH  71  96
ATOM     96  C   UNL A   1      36.748  32.983  30.814  1.00  0.00     0.058 A 
ATOM     97  C   UNL A   1      35.435  32.773  31.261  1.00  0.00     0.135 A 
ATOM     98  C   UNL A   1      36.946  33.881  29.753  1.00  0.00     0.135 A 
ATOM     99  F   UNL A   1      35.193  31.918  32.268  1.00  0.00    -0.206 F 
ATOM    100  C   UNL A   1      34.353  33.410  30.661  1.00  0.00     0.059 A 
ATOM    101  C   UNL A   1      35.882  34.548  29.154  1.00  0.00     0.059 A 
ATOM    102  F   UNL A   1      38.183  34.125  29.295  1.00  0.00    -0.206 F 
ATOM    103  C   UNL A   1      34.587  34.295  29.607  1.00  0.00     0.060 A 
BRANCH 103 104
ATOM    104  S   UNL A   1      33.180  35.138  28.853  1.00  0.00     0.124 S 
ATOM    105  O   UNL A   1      33.820  36.311  28.267  1.00  0.00    -0.237 OA
ATOM    106  O   UNL A   1      32.689  34.144  27.904  1.00  0.00    -0.237 OA
ATOM    107  O   UNL A   1      32.297  35.403  29.985  1.00  0.00    -0.744 OA
ENDBRANCH 103 104
ENDBRANCH  71  96
ENDBRANCH  45  46
ENDBRANCH  37  40
ENDBRANCH  35  36
ENDBRANCH  34  35
ENDBRANCH  33  34
ENDBRANCH   1  33
TORSDOF 20
ENDMDL
