MODEL 1
REMARK VINA RESULT:     -13.0      0.000      0.000
REMARK SMILES O=C(NCCCCNC(=O)c1ccc(-c2c3nc(c(-c4c(F)cc(S(=O)(=O)[O-])cc4F)c4ccc([nH]4)c(-c4c(F)cc(S(=O)(=O)[O-])cc4F)c4nc(c(-c5c(F)cc(S(=O)(=O)[O-])cc5F)c5ccc2[nH]5)C=C4)C=C3)cc1)c1ccc(NC(=O)[C@@H]2CC=CC[C@@H]2C(=O)Nc2ccc(Br)cc2)cc1
REMARK SMILES IDX 5 1 4 2 3 3 1 4 2 5 77 7 78 8 101 9 79 10 100 11 80 12 81 13
REMARK SMILES IDX 82 14 83 16 84 17 85 18 89 19 86 20 88 21 87 22 90 23 91 24
REMARK SMILES IDX 92 25 93 27 94 28 99 29 95 30 98 31 96 32 97 33 6 34 7 35
REMARK SMILES IDX 8 36 9 37 10 39 11 40 12 41 76 42 13 43 75 44 14 45 15 46
REMARK SMILES IDX 16 47 69 48 17 49 74 50 68 51 70 52 18 53 73 54 67 55 66 56
REMARK SMILES IDX 19 58 53 59 32 60 52 61 33 62 36 63 51 64 71 65 34 66 35 67
REMARK SMILES IDX 50 69 72 70 37 71 20 72 21 73 30 74 22 75 23 76 29 77 31 78
REMARK SMILES IDX 24 79 25 80 26 81 27 82 28 83 54 84 55 85 64 86 56 87 57 88
REMARK SMILES IDX 63 89 65 90 58 91 59 92 60 93 61 94 62 95 38 96 39 97 48 98
REMARK SMILES IDX 40 99 41 100 47 101 49 102 42 103 43 104 44 105 45 106
REMARK SMILES IDX 46 107
REMARK H PARENT 3 6 81 15 92 26 8 38 70 57 36 68
REMARK Flexibility Score: inf
ROOT
ATOM      1  C   UNL A   1      40.335  22.256  27.545  1.00  0.00     0.023 C 
ENDROOT
BRANCH   1   2
ATOM      2  C   UNL A   1      39.293  22.786  26.577  1.00  0.00     0.116 C 
BRANCH   2   3
ATOM      3  N   UNL A   1      38.877  21.828  25.559  1.00  0.00    -0.352 N 
ATOM      4  O   UNL A   1      37.404  20.698  24.253  1.00  0.00    -0.269 OA
ATOM      5  C   UNL A   1      37.615  21.608  25.049  1.00  0.00     0.251 C 
ATOM      6  H   UNL A   1      39.594  21.264  25.186  1.00  0.00     0.163 HD
BRANCH   5   7
ATOM      7  C   UNL A   1      36.496  22.475  25.478  1.00  0.00     0.039 A 
ATOM      8  C   UNL A   1      35.634  22.044  26.475  1.00  0.00     0.016 A 
ATOM      9  C   UNL A   1      36.261  23.703  24.858  1.00  0.00     0.016 A 
ATOM     10  C   UNL A   1      34.455  22.736  26.723  1.00  0.00     0.027 A 
ATOM     11  C   UNL A   1      35.138  24.464  25.223  1.00  0.00     0.027 A 
ATOM     12  C   UNL A   1      34.220  23.990  26.175  1.00  0.00     0.041 A 
BRANCH  12  13
ATOM     13  N   UNL A   1      33.149  24.837  26.525  1.00  0.00    -0.326 N 
ATOM     14  C   UNL A   1      32.596  25.980  26.007  1.00  0.00     0.228 C 
ATOM     15  H   UNL A   1      32.685  24.534  27.338  1.00  0.00     0.169 HD
ATOM     16  O   UNL A   1      31.652  26.465  26.640  1.00  0.00    -0.274 OA
BRANCH  14  17
ATOM     17  C   UNL A   1      33.137  26.665  24.759  1.00  0.00     0.095 C 
ATOM     18  C   UNL A   1      32.765  28.154  24.666  1.00  0.00     0.041 C 
ATOM     19  C   UNL A   1      32.843  25.929  23.432  1.00  0.00     0.095 C 
ATOM     20  C   UNL A   1      33.334  28.777  23.419  1.00  0.00    -0.030 C 
ATOM     21  C   UNL A   1      33.698  26.561  22.309  1.00  0.00     0.041 C 
ATOM     22  C   UNL A   1      33.779  28.059  22.376  1.00  0.00    -0.030 C 
BRANCH  19  23
ATOM     23  C   UNL A   1      31.378  25.820  23.005  1.00  0.00     0.228 C 
ATOM     24  O   UNL A   1      30.726  26.784  22.606  1.00  0.00    -0.274 OA
ATOM     25  N   UNL A   1      30.790  24.573  22.975  1.00  0.00    -0.326 N 
ATOM     26  H   UNL A   1      29.939  24.525  22.482  1.00  0.00     0.169 HD
BRANCH  25  27
ATOM     27  C   UNL A   1      31.218  23.357  23.540  1.00  0.00     0.041 A 
ATOM     28  C   UNL A   1      31.997  22.506  22.751  1.00  0.00     0.027 A 
ATOM     29  C   UNL A   1      30.879  22.960  24.837  1.00  0.00     0.027 A 
ATOM     30  C   UNL A   1      32.528  21.331  23.292  1.00  0.00     0.018 A 
ATOM     31  C   UNL A   1      31.395  21.779  25.378  1.00  0.00     0.018 A 
ATOM     32  C   UNL A   1      32.237  20.981  24.609  1.00  0.00     0.018 A 
ATOM     33  Br  UNL A   1      32.980  19.412  25.355  1.00  0.00    -0.051 Br
ENDBRANCH  25  27
ENDBRANCH  19  23
ENDBRANCH  14  17
ENDBRANCH  12  13
ENDBRANCH   5   7
ENDBRANCH   2   3
ENDBRANCH   1   2
BRANCH   1  34
ATOM     34  C   UNL A   1      41.736  22.095  26.971  1.00  0.00     0.023 C 
BRANCH  34  35
ATOM     35  C   UNL A   1      42.605  23.348  26.976  1.00  0.00     0.116 C 
BRANCH  35  36
ATOM     36  N   UNL A   1      42.331  24.253  25.871  1.00  0.00    -0.352 N 
ATOM     37  C   UNL A   1      41.906  25.561  25.888  1.00  0.00     0.251 C 
ATOM     38  H   UNL A   1      42.471  23.871  24.973  1.00  0.00     0.163 HD
ATOM     39  O   UNL A   1      41.635  26.123  24.830  1.00  0.00    -0.269 OA
BRANCH  37  40
ATOM     40  C   UNL A   1      41.736  26.277  27.172  1.00  0.00     0.039 A 
ATOM     41  C   UNL A   1      42.667  27.259  27.522  1.00  0.00     0.014 A 
ATOM     42  C   UNL A   1      40.662  26.000  28.022  1.00  0.00     0.014 A 
ATOM     43  C   UNL A   1      42.475  28.015  28.680  1.00  0.00     0.010 A 
ATOM     44  C   UNL A   1      40.428  26.809  29.133  1.00  0.00     0.010 A 
ATOM     45  C   UNL A   1      41.331  27.825  29.474  1.00  0.00    -0.014 A 
BRANCH  45  46
ATOM     46  C   UNL A   1      41.063  28.700  30.644  1.00  0.00     0.031 A 
ATOM     47  C   UNL A   1      41.889  28.582  31.897  1.00  0.00     0.074 A 
ATOM     48  C   UNL A   1      40.038  29.573  30.597  1.00  0.00     0.049 A 
ATOM     49  N   UNL A   1      41.809  29.271  33.006  1.00  0.00    -0.248 NA
ATOM     50  C   UNL A   1      42.921  27.534  31.916  1.00  0.00     0.031 C 
ATOM     51  C   UNL A   1      39.115  29.735  29.471  1.00  0.00     0.029 A 
ATOM     52  N   UNL A   1      39.598  30.492  31.517  1.00  0.00    -0.354 N 
ATOM     53  C   UNL A   1      42.763  28.731  33.860  1.00  0.00     0.074 A 
ATOM     54  C   UNL A   1      43.376  27.624  33.158  1.00  0.00     0.031 C 
ATOM     55  C   UNL A   1      38.249  30.724  29.747  1.00  0.00     0.029 A 
ATOM     56  C   UNL A   1      38.538  31.249  31.079  1.00  0.00     0.049 A 
ATOM     57  H   UNL A   1      40.004  30.599  32.408  1.00  0.00     0.167 HD
ATOM     58  C   UNL A   1      43.112  29.132  35.107  1.00  0.00     0.037 A 
ATOM     59  C   UNL A   1      37.882  32.264  31.673  1.00  0.00     0.037 A 
ATOM     60  C   UNL A   1      42.525  30.255  35.790  1.00  0.00     0.049 A 
ATOM     61  C   UNL A   1      38.318  32.722  33.037  1.00  0.00     0.074 A 
ATOM     62  C   UNL A   1      42.869  30.794  37.017  1.00  0.00     0.029 A 
ATOM     63  N   UNL A   1      41.468  31.012  35.304  1.00  0.00    -0.354 N 
ATOM     64  N   UNL A   1      39.280  32.253  33.795  1.00  0.00    -0.248 NA
ATOM     65  C   UNL A   1      37.587  33.855  33.619  1.00  0.00     0.031 C 
ATOM     66  C   UNL A   1      41.998  31.857  37.289  1.00  0.00     0.029 A 
ATOM     67  C   UNL A   1      41.136  32.002  36.214  1.00  0.00     0.049 A 
ATOM     68  H   UNL A   1      41.020  30.866  34.439  1.00  0.00     0.167 HD
ATOM     69  C   UNL A   1      39.287  33.051  34.935  1.00  0.00     0.074 A 
ATOM     70  C   UNL A   1      38.241  34.038  34.757  1.00  0.00     0.031 C 
ATOM     71  C   UNL A   1      40.088  32.975  36.026  1.00  0.00     0.037 A 
BRANCH  58  72
ATOM     72  C   UNL A   1      44.186  28.346  35.808  1.00  0.00     0.058 A 
ATOM     73  C   UNL A   1      45.549  28.642  35.636  1.00  0.00     0.135 A 
ATOM     74  C   UNL A   1      43.850  27.288  36.667  1.00  0.00     0.135 A 
ATOM     75  F   UNL A   1      45.927  29.634  34.814  1.00  0.00    -0.206 F 
ATOM     76  C   UNL A   1      46.540  27.891  36.259  1.00  0.00     0.059 A 
ATOM     77  C   UNL A   1      44.825  26.540  37.321  1.00  0.00     0.059 A 
ATOM     78  F   UNL A   1      42.563  26.963  36.869  1.00  0.00    -0.206 F 
ATOM     79  C   UNL A   1      46.169  26.837  37.094  1.00  0.00     0.060 A 
BRANCH  79  80
ATOM     80  S   UNL A   1      47.465  25.856  37.880  1.00  0.00     0.124 S 
ATOM     81  O   UNL A   1      47.192  24.529  37.338  1.00  0.00    -0.237 OA
ATOM     82  O   UNL A   1      48.683  26.498  37.396  1.00  0.00    -0.237 OA
ATOM     83  O   UNL A   1      47.198  26.021  39.305  1.00  0.00    -0.744 OA
ENDBRANCH  79  80
ENDBRANCH  58  72
BRANCH  59  84
ATOM     84  C   UNL A   1      36.784  32.960  30.952  1.00  0.00     0.058 A 
ATOM     85  C   UNL A   1      35.446  32.739  31.308  1.00  0.00     0.135 A 
ATOM     86  C   UNL A   1      37.047  33.871  29.920  1.00  0.00     0.135 A 
ATOM     87  F   UNL A   1      35.146  31.872  32.287  1.00  0.00    -0.206 F 
ATOM     88  C   UNL A   1      34.403  33.389  30.657  1.00  0.00     0.059 A 
ATOM     89  C   UNL A   1      36.023  34.548  29.266  1.00  0.00     0.059 A 
ATOM     90  F   UNL A   1      38.314  34.128  29.556  1.00  0.00    -0.206 F 
ATOM     91  C   UNL A   1      34.703  34.294  29.638  1.00  0.00     0.060 A 
BRANCH  91  92
ATOM     92  S   UNL A   1      33.345  35.182  28.842  1.00  0.00     0.124 S 
ATOM     93  O   UNL A   1      34.060  36.242  28.140  1.00  0.00    -0.237 OA
ATOM     94  O   UNL A   1      32.752  34.147  28.001  1.00  0.00    -0.237 OA
ATOM     95  O   UNL A   1      32.522  35.611  29.968  1.00  0.00    -0.744 OA
ENDBRANCH  91  92
ENDBRANCH  59  84
BRANCH  71  96
ATOM     96  C   UNL A   1      39.876  34.007  37.097  1.00  0.00     0.058 A 
ATOM     97  C   UNL A   1      39.047  33.760  38.203  1.00  0.00     0.135 A 
ATOM     98  C   UNL A   1      40.509  35.258  37.016  1.00  0.00     0.135 A 
ATOM     99  F   UNL A   1      38.414  32.583  38.325  1.00  0.00    -0.206 F 
ATOM    100  C   UNL A   1      38.819  34.735  39.170  1.00  0.00     0.059 A 
ATOM    101  C   UNL A   1      40.316  36.236  37.984  1.00  0.00     0.059 A 
ATOM    102  F   UNL A   1      41.323  35.538  35.985  1.00  0.00    -0.206 F 
ATOM    103  C   UNL A   1      39.452  35.973  39.047  1.00  0.00     0.060 A 
BRANCH 103 104
ATOM    104  S   UNL A   1      39.143  37.237  40.299  1.00  0.00     0.124 S 
ATOM    105  O   UNL A   1      38.528  36.451  41.362  1.00  0.00    -0.237 OA
ATOM    106  O   UNL A   1      40.485  37.741  40.578  1.00  0.00    -0.237 OA
ATOM    107  O   UNL A   1      38.258  38.177  39.618  1.00  0.00    -0.744 OA
ENDBRANCH 103 104
ENDBRANCH  71  96
ENDBRANCH  45  46
ENDBRANCH  37  40
ENDBRANCH  35  36
ENDBRANCH  34  35
ENDBRANCH   1  34
TORSDOF 18
ENDMDL
MODEL 2
REMARK VINA RESULT:     -12.6      6.225     11.445
REMARK SMILES O=C(NCCCCNC(=O)c1ccc(-c2c3nc(c(-c4c(F)cc(S(=O)(=O)[O-])cc4F)c4ccc([nH]4)c(-c4c(F)cc(S(=O)(=O)[O-])cc4F)c4nc(c(-c5c(F)cc(S(=O)(=O)[O-])cc5F)c5ccc2[nH]5)C=C4)C=C3)cc1)c1ccc(NC(=O)[C@@H]2CC=CC[C@@H]2C(=O)Nc2ccc(Br)cc2)cc1
REMARK SMILES IDX 5 1 4 2 3 3 1 4 2 5 77 7 78 8 101 9 79 10 100 11 80 12 81 13
REMARK SMILES IDX 82 14 83 16 84 17 85 18 89 19 86 20 88 21 87 22 90 23 91 24
REMARK SMILES IDX 92 25 93 27 94 28 99 29 95 30 98 31 96 32 97 33 6 34 7 35
REMARK SMILES IDX 8 36 9 37 10 39 11 40 12 41 76 42 13 43 75 44 14 45 15 46
REMARK SMILES IDX 16 47 69 48 17 49 74 50 68 51 70 52 18 53 73 54 67 55 66 56
REMARK SMILES IDX 19 58 53 59 32 60 52 61 33 62 36 63 51 64 71 65 34 66 35 67
REMARK SMILES IDX 50 69 72 70 37 71 20 72 21 73 30 74 22 75 23 76 29 77 31 78
REMARK SMILES IDX 24 79 25 80 26 81 27 82 28 83 54 84 55 85 64 86 56 87 57 88
REMARK SMILES IDX 63 89 65 90 58 91 59 92 60 93 61 94 62 95 38 96 39 97 48 98
REMARK SMILES IDX 40 99 41 100 47 101 49 102 42 103 43 104 44 105 45 106
REMARK SMILES IDX 46 107
REMARK H PARENT 3 6 81 15 92 26 8 38 70 57 36 68
REMARK Flexibility Score: inf
ROOT
ATOM      1  C   UNL A   1      35.860  31.983  27.783  1.00  0.00     0.023 C 
ENDROOT
BRANCH   1   2
ATOM      2  C   UNL A   1      35.007  30.733  27.664  1.00  0.00     0.116 C 
BRANCH   2   3
ATOM      3  N   UNL A   1      33.572  30.986  27.636  1.00  0.00    -0.352 N 
ATOM      4  O   UNL A   1      31.430  30.715  26.932  1.00  0.00    -0.269 OA
ATOM      5  C   UNL A   1      32.594  30.326  26.921  1.00  0.00     0.251 C 
ATOM      6  H   UNL A   1      33.258  31.728  28.205  1.00  0.00     0.163 HD
BRANCH   5   7
ATOM      7  C   UNL A   1      32.959  29.138  26.118  1.00  0.00     0.039 A 
ATOM      8  C   UNL A   1      33.002  27.889  26.716  1.00  0.00     0.016 A 
ATOM      9  C   UNL A   1      33.311  29.263  24.774  1.00  0.00     0.016 A 
ATOM     10  C   UNL A   1      33.562  26.813  26.041  1.00  0.00     0.027 A 
ATOM     11  C   UNL A   1      33.741  28.133  24.059  1.00  0.00     0.027 A 
ATOM     12  C   UNL A   1      33.862  26.882  24.686  1.00  0.00     0.041 A 
BRANCH  12  13
ATOM     13  N   UNL A   1      34.249  25.786  23.887  1.00  0.00    -0.326 N 
ATOM     14  C   UNL A   1      34.372  24.433  24.077  1.00  0.00     0.228 C 
ATOM     15  H   UNL A   1      34.488  26.059  22.973  1.00  0.00     0.169 HD
ATOM     16  O   UNL A   1      34.788  23.783  23.112  1.00  0.00    -0.274 OA
BRANCH  14  17
ATOM     17  C   UNL A   1      34.078  23.757  25.409  1.00  0.00     0.095 C 
ATOM     18  C   UNL A   1      34.722  22.368  25.548  1.00  0.00     0.041 C 
ATOM     19  C   UNL A   1      32.585  23.727  25.809  1.00  0.00     0.095 C 
ATOM     20  C   UNL A   1      34.403  21.755  26.885  1.00  0.00    -0.030 C 
ATOM     21  C   UNL A   1      32.472  23.299  27.290  1.00  0.00     0.041 C 
ATOM     22  C   UNL A   1      33.413  22.195  27.678  1.00  0.00    -0.030 C 
BRANCH  19  23
ATOM     23  C   UNL A   1      31.645  22.899  24.930  1.00  0.00     0.228 C 
ATOM     24  O   UNL A   1      31.622  21.670  24.951  1.00  0.00    -0.274 OA
ATOM     25  N   UNL A   1      30.718  23.559  24.151  1.00  0.00    -0.326 N 
ATOM     26  H   UNL A   1      29.998  22.992  23.790  1.00  0.00     0.169 HD
BRANCH  25  27
ATOM     27  C   UNL A   1      30.641  24.917  23.790  1.00  0.00     0.041 A 
ATOM     28  C   UNL A   1      31.199  25.303  22.568  1.00  0.00     0.027 A 
ATOM     29  C   UNL A   1      30.055  25.889  24.607  1.00  0.00     0.027 A 
ATOM     30  C   UNL A   1      31.067  26.621  22.117  1.00  0.00     0.018 A 
ATOM     31  C   UNL A   1      29.934  27.210  24.168  1.00  0.00     0.018 A 
ATOM     32  C   UNL A   1      30.420  27.565  22.913  1.00  0.00     0.018 A 
ATOM     33  Br  UNL A   1      30.210  29.337  22.293  1.00  0.00    -0.051 Br
ENDBRANCH  25  27
ENDBRANCH  19  23
ENDBRANCH  14  17
ENDBRANCH  12  13
ENDBRANCH   5   7
ENDBRANCH   2   3
ENDBRANCH   1   2
BRANCH   1  34
ATOM     34  C   UNL A   1      35.527  32.889  28.961  1.00  0.00     0.023 C 
BRANCH  34  35
ATOM     35  C   UNL A   1      36.419  32.738  30.189  1.00  0.00     0.116 C 
BRANCH  35  36
ATOM     36  N   UNL A   1      36.095  31.579  31.007  1.00  0.00    -0.352 N 
ATOM     37  C   UNL A   1      36.815  30.427  31.226  1.00  0.00     0.251 C 
ATOM     38  H   UNL A   1      35.229  31.625  31.474  1.00  0.00     0.163 HD
ATOM     39  O   UNL A   1      36.313  29.516  31.879  1.00  0.00    -0.269 OA
BRANCH  37  40
ATOM     40  C   UNL A   1      38.168  30.267  30.648  1.00  0.00     0.039 A 
ATOM     41  C   UNL A   1      39.270  30.258  31.508  1.00  0.00     0.014 A 
ATOM     42  C   UNL A   1      38.357  30.111  29.271  1.00  0.00     0.014 A 
ATOM     43  C   UNL A   1      40.546  30.012  30.997  1.00  0.00     0.010 A 
ATOM     44  C   UNL A   1      39.618  29.786  28.775  1.00  0.00     0.010 A 
ATOM     45  C   UNL A   1      40.725  29.732  29.632  1.00  0.00    -0.014 A 
BRANCH  45  46
ATOM     46  C   UNL A   1      42.062  29.359  29.101  1.00  0.00     0.031 A 
ATOM     47  C   UNL A   1      42.326  27.968  28.591  1.00  0.00     0.074 A 
ATOM     48  C   UNL A   1      43.060  30.265  29.126  1.00  0.00     0.049 A 
ATOM     49  N   UNL A   1      43.423  27.471  28.079  1.00  0.00    -0.248 NA
ATOM     50  C   UNL A   1      41.221  27.001  28.695  1.00  0.00     0.031 C 
ATOM     51  C   UNL A   1      42.956  31.625  29.661  1.00  0.00     0.029 A 
ATOM     52  N   UNL A   1      44.357  30.183  28.687  1.00  0.00    -0.354 N 
ATOM     53  C   UNL A   1      43.149  26.134  27.818  1.00  0.00     0.074 A 
ATOM     54  C   UNL A   1      41.798  25.885  28.274  1.00  0.00     0.031 C 
ATOM     55  C   UNL A   1      44.124  32.262  29.479  1.00  0.00     0.029 A 
ATOM     56  C   UNL A   1      45.067  31.351  28.837  1.00  0.00     0.049 A 
ATOM     57  H   UNL A   1      44.745  29.364  28.300  1.00  0.00     0.167 HD
ATOM     58  C   UNL A   1      43.941  25.203  27.233  1.00  0.00     0.037 A 
ATOM     59  C   UNL A   1      46.329  31.660  28.484  1.00  0.00     0.037 A 
ATOM     60  C   UNL A   1      45.273  25.462  26.748  1.00  0.00     0.049 A 
ATOM     61  C   UNL A   1      47.173  30.625  27.794  1.00  0.00     0.074 A 
ATOM     62  C   UNL A   1      46.122  24.611  26.064  1.00  0.00     0.029 A 
ATOM     63  N   UNL A   1      45.949  26.664  26.899  1.00  0.00    -0.354 N 
ATOM     64  N   UNL A   1      46.867  29.389  27.478  1.00  0.00    -0.248 NA
ATOM     65  C   UNL A   1      48.528  31.033  27.401  1.00  0.00     0.031 C 
ATOM     66  C   UNL A   1      47.326  25.287  25.830  1.00  0.00     0.029 A 
ATOM     67  C   UNL A   1      47.212  26.572  26.336  1.00  0.00     0.049 A 
ATOM     68  H   UNL A   1      45.584  27.465  27.341  1.00  0.00     0.167 HD
ATOM     69  C   UNL A   1      47.985  28.878  26.825  1.00  0.00     0.074 A 
ATOM     70  C   UNL A   1      48.966  29.944  26.783  1.00  0.00     0.031 C 
ATOM     71  C   UNL A   1      48.179  27.640  26.306  1.00  0.00     0.037 A 
BRANCH  58  72
ATOM     72  C   UNL A   1      43.380  23.816  27.083  1.00  0.00     0.058 A 
ATOM     73  C   UNL A   1      42.945  23.326  25.841  1.00  0.00     0.135 A 
ATOM     74  C   UNL A   1      43.281  22.963  28.194  1.00  0.00     0.135 A 
ATOM     75  F   UNL A   1      43.004  24.104  24.749  1.00  0.00    -0.206 F 
ATOM     76  C   UNL A   1      42.394  22.055  25.713  1.00  0.00     0.059 A 
ATOM     77  C   UNL A   1      42.756  21.678  28.084  1.00  0.00     0.059 A 
ATOM     78  F   UNL A   1      43.683  23.379  29.405  1.00  0.00    -0.206 F 
ATOM     79  C   UNL A   1      42.297  21.241  26.841  1.00  0.00     0.060 A 
BRANCH  79  80
ATOM     80  S   UNL A   1      41.561  19.601  26.666  1.00  0.00     0.124 S 
ATOM     81  O   UNL A   1      41.949  19.254  25.303  1.00  0.00    -0.237 OA
ATOM     82  O   UNL A   1      42.223  18.844  27.724  1.00  0.00    -0.237 OA
ATOM     83  O   UNL A   1      40.137  19.845  26.872  1.00  0.00    -0.744 OA
ENDBRANCH  79  80
ENDBRANCH  58  72
BRANCH  59  84
ATOM     84  C   UNL A   1      46.848  33.033  28.717  1.00  0.00     0.058 A 
ATOM     85  C   UNL A   1      46.709  34.023  27.734  1.00  0.00     0.135 A 
ATOM     86  C   UNL A   1      47.465  33.388  29.924  1.00  0.00     0.135 A 
ATOM     87  F   UNL A   1      46.129  33.727  26.561  1.00  0.00    -0.206 F 
ATOM     88  C   UNL A   1      47.175  35.318  27.934  1.00  0.00     0.059 A 
ATOM     89  C   UNL A   1      47.922  34.682  30.157  1.00  0.00     0.059 A 
ATOM     90  F   UNL A   1      47.605  32.479  30.902  1.00  0.00    -0.206 F 
ATOM     91  C   UNL A   1      47.778  35.638  29.151  1.00  0.00     0.060 A 
BRANCH  91  92
ATOM     92  S   UNL A   1      48.322  37.339  29.427  1.00  0.00     0.124 S 
ATOM     93  O   UNL A   1      49.228  37.177  30.559  1.00  0.00    -0.237 OA
ATOM     94  O   UNL A   1      48.947  37.673  28.152  1.00  0.00    -0.237 OA
ATOM     95  O   UNL A   1      47.077  38.045  29.710  1.00  0.00    -0.744 OA
ENDBRANCH  91  92
ENDBRANCH  59  84
BRANCH  71  96
ATOM     96  C   UNL A   1      49.495  27.389  25.626  1.00  0.00     0.058 A 
ATOM     97  C   UNL A   1      49.638  27.505  24.234  1.00  0.00     0.135 A 
ATOM     98  C   UNL A   1      50.627  27.029  26.375  1.00  0.00     0.135 A 
ATOM     99  F   UNL A   1      48.585  27.840  23.472  1.00  0.00    -0.206 F 
ATOM    100  C   UNL A   1      50.847  27.229  23.604  1.00  0.00     0.059 A 
ATOM    101  C   UNL A   1      51.852  26.775  25.768  1.00  0.00     0.059 A 
ATOM    102  F   UNL A   1      50.546  26.919  27.711  1.00  0.00    -0.206 F 
ATOM    103  C   UNL A   1      51.946  26.856  24.379  1.00  0.00     0.060 A 
BRANCH 103 104
ATOM    104  S   UNL A   1      53.510  26.489  23.555  1.00  0.00     0.124 S 
ATOM    105  O   UNL A   1      54.032  25.410  24.386  1.00  0.00    -0.237 OA
ATOM    106  O   UNL A   1      53.080  26.105  22.214  1.00  0.00    -0.237 OA
ATOM    107  O   UNL A   1      54.237  27.753  23.633  1.00  0.00    -0.744 OA
ENDBRANCH 103 104
ENDBRANCH  71  96
ENDBRANCH  45  46
ENDBRANCH  37  40
ENDBRANCH  35  36
ENDBRANCH  34  35
ENDBRANCH   1  34
TORSDOF 18
ENDMDL
MODEL 3
REMARK VINA RESULT:     -12.4      4.573     10.107
REMARK SMILES O=C(NCCCCNC(=O)c1ccc(-c2c3nc(c(-c4c(F)cc(S(=O)(=O)[O-])cc4F)c4ccc([nH]4)c(-c4c(F)cc(S(=O)(=O)[O-])cc4F)c4nc(c(-c5c(F)cc(S(=O)(=O)[O-])cc5F)c5ccc2[nH]5)C=C4)C=C3)cc1)c1ccc(NC(=O)[C@@H]2CC=CC[C@@H]2C(=O)Nc2ccc(Br)cc2)cc1
REMARK SMILES IDX 5 1 4 2 3 3 1 4 2 5 77 7 78 8 101 9 79 10 100 11 80 12 81 13
REMARK SMILES IDX 82 14 83 16 84 17 85 18 89 19 86 20 88 21 87 22 90 23 91 24
REMARK SMILES IDX 92 25 93 27 94 28 99 29 95 30 98 31 96 32 97 33 6 34 7 35
REMARK SMILES IDX 8 36 9 37 10 39 11 40 12 41 76 42 13 43 75 44 14 45 15 46
REMARK SMILES IDX 16 47 69 48 17 49 74 50 68 51 70 52 18 53 73 54 67 55 66 56
REMARK SMILES IDX 19 58 53 59 32 60 52 61 33 62 36 63 51 64 71 65 34 66 35 67
REMARK SMILES IDX 50 69 72 70 37 71 20 72 21 73 30 74 22 75 23 76 29 77 31 78
REMARK SMILES IDX 24 79 25 80 26 81 27 82 28 83 54 84 55 85 64 86 56 87 57 88
REMARK SMILES IDX 63 89 65 90 58 91 59 92 60 93 61 94 62 95 38 96 39 97 48 98
REMARK SMILES IDX 40 99 41 100 47 101 49 102 42 103 43 104 44 105 45 106
REMARK SMILES IDX 46 107
REMARK H PARENT 3 6 81 15 92 26 8 38 70 57 36 68
REMARK Flexibility Score: inf
ROOT
ATOM      1  C   UNL A   1      33.417  29.244  24.716  1.00  0.00     0.023 C 
ENDROOT
BRANCH   1   2
ATOM      2  C   UNL A   1      33.366  28.863  23.247  1.00  0.00     0.116 C 
BRANCH   2   3
ATOM      3  N   UNL A   1      32.191  29.358  22.539  1.00  0.00    -0.352 N 
ATOM      4  O   UNL A   1      30.092  29.257  21.680  1.00  0.00    -0.269 OA
ATOM      5  C   UNL A   1      30.962  28.752  22.383  1.00  0.00     0.251 C 
ATOM      6  H   UNL A   1      32.289  30.243  22.117  1.00  0.00     0.163 HD
BRANCH   5   7
ATOM      7  C   UNL A   1      30.693  27.468  23.066  1.00  0.00     0.039 A 
ATOM      8  C   UNL A   1      30.051  27.461  24.295  1.00  0.00     0.016 A 
ATOM      9  C   UNL A   1      31.122  26.260  22.515  1.00  0.00     0.016 A 
ATOM     10  C   UNL A   1      30.001  26.296  25.048  1.00  0.00     0.027 A 
ATOM     11  C   UNL A   1      30.934  25.063  23.228  1.00  0.00     0.027 A 
ATOM     12  C   UNL A   1      30.357  25.066  24.508  1.00  0.00     0.041 A 
BRANCH  12  13
ATOM     13  N   UNL A   1      30.154  23.820  25.135  1.00  0.00    -0.326 N 
ATOM     14  C   UNL A   1      30.945  22.924  25.809  1.00  0.00     0.228 C 
ATOM     15  H   UNL A   1      29.219  23.521  25.074  1.00  0.00     0.169 HD
ATOM     16  O   UNL A   1      30.390  21.889  26.194  1.00  0.00    -0.274 OA
BRANCH  14  17
ATOM     17  C   UNL A   1      32.436  23.142  26.027  1.00  0.00     0.095 C 
ATOM     18  C   UNL A   1      32.916  24.548  25.631  1.00  0.00     0.041 C 
ATOM     19  C   UNL A   1      33.349  22.048  25.427  1.00  0.00     0.095 C 
ATOM     20  C   UNL A   1      34.393  24.705  25.876  1.00  0.00    -0.030 C 
ATOM     21  C   UNL A   1      34.781  22.231  25.979  1.00  0.00     0.041 C 
ATOM     22  C   UNL A   1      35.221  23.665  26.062  1.00  0.00    -0.030 C 
BRANCH  19  23
ATOM     23  C   UNL A   1      33.366  21.913  23.902  1.00  0.00     0.228 C 
ATOM     24  O   UNL A   1      33.451  22.881  23.149  1.00  0.00    -0.274 OA
ATOM     25  N   UNL A   1      33.383  20.649  23.352  1.00  0.00    -0.326 N 
ATOM     26  H   UNL A   1      33.625  20.614  22.398  1.00  0.00     0.169 HD
BRANCH  25  27
ATOM     27  C   UNL A   1      33.109  19.401  23.941  1.00  0.00     0.041 A 
ATOM     28  C   UNL A   1      33.114  18.272  23.116  1.00  0.00     0.027 A 
ATOM     29  C   UNL A   1      32.813  19.250  25.299  1.00  0.00     0.027 A 
ATOM     30  C   UNL A   1      32.942  16.997  23.666  1.00  0.00     0.018 A 
ATOM     31  C   UNL A   1      32.625  17.979  25.850  1.00  0.00     0.018 A 
ATOM     32  C   UNL A   1      32.714  16.856  25.033  1.00  0.00     0.018 A 
ATOM     33  Br  UNL A   1      32.516  15.133  25.784  1.00  0.00    -0.051 Br
ENDBRANCH  25  27
ENDBRANCH  19  23
ENDBRANCH  14  17
ENDBRANCH  12  13
ENDBRANCH   5   7
ENDBRANCH   2   3
ENDBRANCH   1   2
BRANCH   1  34
ATOM     34  C   UNL A   1      33.175  28.102  25.694  1.00  0.00     0.023 C 
BRANCH  34  35
ATOM     35  C   UNL A   1      33.614  28.354  27.133  1.00  0.00     0.116 C 
BRANCH  35  36
ATOM     36  N   UNL A   1      33.560  29.754  27.523  1.00  0.00    -0.352 N 
ATOM     37  C   UNL A   1      34.535  30.554  28.071  1.00  0.00     0.251 C 
ATOM     38  H   UNL A   1      32.693  30.197  27.372  1.00  0.00     0.163 HD
ATOM     39  O   UNL A   1      34.253  31.696  28.424  1.00  0.00    -0.269 OA
BRANCH  37  40
ATOM     40  C   UNL A   1      35.906  30.032  28.273  1.00  0.00     0.039 A 
ATOM     41  C   UNL A   1      36.815  30.105  27.214  1.00  0.00     0.014 A 
ATOM     42  C   UNL A   1      36.304  29.489  29.498  1.00  0.00     0.014 A 
ATOM     43  C   UNL A   1      38.140  29.710  27.409  1.00  0.00     0.010 A 
ATOM     44  C   UNL A   1      37.644  29.171  29.715  1.00  0.00     0.010 A 
ATOM     45  C   UNL A   1      38.576  29.278  28.674  1.00  0.00    -0.014 A 
BRANCH  45  46
ATOM     46  C   UNL A   1      40.007  28.963  28.918  1.00  0.00     0.031 A 
ATOM     47  C   UNL A   1      40.921  29.979  29.549  1.00  0.00     0.074 A 
ATOM     48  C   UNL A   1      40.498  27.772  28.524  1.00  0.00     0.049 A 
ATOM     49  N   UNL A   1      42.190  29.872  29.851  1.00  0.00    -0.248 NA
ATOM     50  C   UNL A   1      40.341  31.296  29.854  1.00  0.00     0.031 C 
ATOM     51  C   UNL A   1      39.736  26.727  27.835  1.00  0.00     0.029 A 
ATOM     52  N   UNL A   1      41.755  27.234  28.647  1.00  0.00    -0.354 N 
ATOM     53  C   UNL A   1      42.565  31.108  30.362  1.00  0.00     0.074 A 
ATOM     54  C   UNL A   1      41.401  31.965  30.284  1.00  0.00     0.031 C 
ATOM     55  C   UNL A   1      40.527  25.660  27.638  1.00  0.00     0.029 A 
ATOM     56  C   UNL A   1      41.858  25.952  28.162  1.00  0.00     0.049 A 
ATOM     57  H   UNL A   1      42.513  27.721  29.045  1.00  0.00     0.167 HD
ATOM     58  C   UNL A   1      43.761  31.490  30.871  1.00  0.00     0.037 A 
ATOM     59  C   UNL A   1      42.901  25.100  28.154  1.00  0.00     0.037 A 
ATOM     60  C   UNL A   1      44.908  30.625  30.980  1.00  0.00     0.049 A 
ATOM     61  C   UNL A   1      44.205  25.530  28.767  1.00  0.00     0.074 A 
ATOM     62  C   UNL A   1      46.136  30.890  31.559  1.00  0.00     0.029 A 
ATOM     63  N   UNL A   1      44.966  29.326  30.498  1.00  0.00    -0.354 N 
ATOM     64  N   UNL A   1      44.516  26.676  29.324  1.00  0.00    -0.248 NA
ATOM     65  C   UNL A   1      45.294  24.544  28.759  1.00  0.00     0.031 C 
ATOM     66  C   UNL A   1      46.950  29.762  31.396  1.00  0.00     0.029 A 
ATOM     67  C   UNL A   1      46.215  28.782  30.750  1.00  0.00     0.049 A 
ATOM     68  H   UNL A   1      44.228  28.859  30.043  1.00  0.00     0.167 HD
ATOM     69  C   UNL A   1      45.831  26.540  29.758  1.00  0.00     0.074 A 
ATOM     70  C   UNL A   1      46.249  25.197  29.408  1.00  0.00     0.031 C 
ATOM     71  C   UNL A   1      46.619  27.445  30.391  1.00  0.00     0.037 A 
BRANCH  58  72
ATOM     72  C   UNL A   1      43.884  32.910  31.352  1.00  0.00     0.058 A 
ATOM     73  C   UNL A   1      44.255  33.953  30.487  1.00  0.00     0.135 A 
ATOM     74  C   UNL A   1      43.621  33.234  32.693  1.00  0.00     0.135 A 
ATOM     75  F   UNL A   1      44.532  33.697  29.199  1.00  0.00    -0.206 F 
ATOM     76  C   UNL A   1      44.402  35.259  30.944  1.00  0.00     0.059 A 
ATOM     77  C   UNL A   1      43.737  34.539  33.165  1.00  0.00     0.059 A 
ATOM     78  F   UNL A   1      43.261  32.277  33.562  1.00  0.00    -0.206 F 
ATOM     79  C   UNL A   1      44.147  35.541  32.286  1.00  0.00     0.060 A 
BRANCH  79  80
ATOM     80  S   UNL A   1      44.361  37.235  32.871  1.00  0.00     0.124 S 
ATOM     81  O   UNL A   1      45.540  37.101  33.722  1.00  0.00    -0.237 OA
ATOM     82  O   UNL A   1      44.559  37.975  31.629  1.00  0.00    -0.237 OA
ATOM     83  O   UNL A   1      43.111  37.513  33.570  1.00  0.00    -0.744 OA
ENDBRANCH  79  80
ENDBRANCH  58  72
BRANCH  59  84
ATOM     84  C   UNL A   1      42.733  23.729  27.605  1.00  0.00     0.058 A 
ATOM     85  C   UNL A   1      42.458  22.650  28.457  1.00  0.00     0.135 A 
ATOM     86  C   UNL A   1      42.818  23.474  26.229  1.00  0.00     0.135 A 
ATOM     87  F   UNL A   1      42.374  22.845  29.782  1.00  0.00    -0.206 F 
ATOM     88  C   UNL A   1      42.285  21.360  27.966  1.00  0.00     0.059 A 
ATOM     89  C   UNL A   1      42.629  22.197  25.711  1.00  0.00     0.059 A 
ATOM     90  F   UNL A   1      43.062  24.479  25.373  1.00  0.00    -0.206 F 
ATOM     91  C   UNL A   1      42.369  21.145  26.589  1.00  0.00     0.060 A 
BRANCH  91  92
ATOM     92  S   UNL A   1      42.078  19.479  25.954  1.00  0.00     0.124 S 
ATOM     93  O   UNL A   1      42.556  18.656  27.060  1.00  0.00    -0.237 OA
ATOM     94  O   UNL A   1      40.636  19.480  25.735  1.00  0.00    -0.237 OA
ATOM     95  O   UNL A   1      42.887  19.439  24.740  1.00  0.00    -0.744 OA
ENDBRANCH  91  92
ENDBRANCH  59  84
BRANCH  71  96
ATOM     96  C   UNL A   1      48.002  26.995  30.766  1.00  0.00     0.058 A 
ATOM     97  C   UNL A   1      48.271  26.400  32.009  1.00  0.00     0.135 A 
ATOM     98  C   UNL A   1      49.072  27.160  29.872  1.00  0.00     0.135 A 
ATOM     99  F   UNL A   1      47.284  26.224  32.902  1.00  0.00    -0.206 F 
ATOM    100  C   UNL A   1      49.561  26.023  32.369  1.00  0.00     0.059 A 
ATOM    101  C   UNL A   1      50.364  26.767  30.201  1.00  0.00     0.059 A 
ATOM    102  F   UNL A   1      48.865  27.711  28.665  1.00  0.00    -0.206 F 
ATOM    103  C   UNL A   1      50.603  26.219  31.461  1.00  0.00     0.060 A 
BRANCH 103 104
ATOM    104  S   UNL A   1      52.276  25.739  31.939  1.00  0.00     0.124 S 
ATOM    105  O   UNL A   1      52.507  26.595  33.097  1.00  0.00    -0.237 OA
ATOM    106  O   UNL A   1      52.129  24.315  32.223  1.00  0.00    -0.237 OA
ATOM    107  O   UNL A   1      53.069  26.056  30.754  1.00  0.00    -0.744 OA
ENDBRANCH 103 104
ENDBRANCH  71  96
ENDBRANCH  45  46
ENDBRANCH  37  40
ENDBRANCH  35  36
ENDBRANCH  34  35
ENDBRANCH   1  34
TORSDOF 18
ENDMDL
