MODEL 1
REMARK VINA RESULT:     -11.7      0.000      0.000
REMARK SMILES C[C@H](C(=O)NCCCCNC(=O)c1ccc(-c2c3nc(c(-c4c(F)cc(S(=O)(=O)[O-])cc4F)c4ccc([nH]4)c(-c4c(F)cc(S(=O)(=O)[O-])cc4F)c4nc(c(-c5c(F)cc(S(=O)(=O)[O-])cc5F)c5ccc2[nH]5)C=C4)C=C3)cc1)c1ccc(C[C@H]2CCC[C@@H]2O)cc1
REMARK SMILES IDX 7 1 6 2 5 3 3 4 4 5 2 7 1 8 79 9 80 10 91 11 81 12 90 13
REMARK SMILES IDX 82 14 83 15 84 16 85 17 88 18 86 19 87 20 89 21 8 23 9 24
REMARK SMILES IDX 10 25 11 26 12 28 13 29 14 30 78 31 15 32 77 33 16 34 17 35
REMARK SMILES IDX 18 36 71 37 19 38 76 39 70 40 72 41 20 42 75 43 69 44 68 45
REMARK SMILES IDX 21 47 55 48 34 49 54 50 35 51 38 52 53 53 73 54 36 55 37 56
REMARK SMILES IDX 52 58 74 59 39 60 22 61 23 62 32 63 24 64 25 65 31 66 33 67
REMARK SMILES IDX 26 68 27 69 28 70 29 71 30 72 56 73 57 74 66 75 58 76 59 77
REMARK SMILES IDX 65 78 67 79 60 80 61 81 62 82 63 83 64 84 40 85 41 86 50 87
REMARK SMILES IDX 42 88 43 89 49 90 51 91 44 92 45 93 46 94 47 95 48 96
REMARK H PARENT 5 6 89 22 10 27 72 46 38 57
REMARK Flexibility Score: inf
ROOT
ATOM      1  C   UNL A   1      32.004  26.878  26.547  1.00  0.00     0.023 C 
ENDROOT
BRANCH   1   2
ATOM      2  C   UNL A   1      33.331  26.243  26.134  1.00  0.00     0.116 C 
BRANCH   2   3
ATOM      3  N   UNL A   1      33.182  24.837  25.818  1.00  0.00    -0.356 N 
ATOM      4  C   UNL A   1      32.973  24.226  24.612  1.00  0.00     0.227 C 
ATOM      5  O   UNL A   1      32.848  22.999  24.622  1.00  0.00    -0.274 OA
ATOM      6  H   UNL A   1      33.239  24.227  26.588  1.00  0.00     0.163 HD
BRANCH   4   7
ATOM      7  C   UNL A   1      32.987  25.033  23.298  1.00  0.00     0.105 C 
ATOM      8  C   UNL A   1      33.086  24.098  22.088  1.00  0.00     0.023 C 
BRANCH   7   9
ATOM      9  C   UNL A   1      31.807  25.977  23.128  1.00  0.00    -0.036 A 
ATOM     10  C   UNL A   1      32.035  27.279  22.656  1.00  0.00     0.005 A 
ATOM     11  C   UNL A   1      30.500  25.608  23.473  1.00  0.00     0.005 A 
ATOM     12  C   UNL A   1      31.008  28.223  22.645  1.00  0.00     0.004 A 
ATOM     13  C   UNL A   1      29.475  26.562  23.472  1.00  0.00     0.004 A 
ATOM     14  C   UNL A   1      29.731  27.890  23.105  1.00  0.00    -0.048 A 
BRANCH  14  15
ATOM     15  C   UNL A   1      28.663  28.954  23.214  1.00  0.00     0.041 C 
BRANCH  15  16
ATOM     16  C   UNL A   1      28.930  30.289  22.491  1.00  0.00     0.022 C 
ATOM     17  C   UNL A   1      28.121  30.528  21.211  1.00  0.00     0.007 C 
ATOM     18  C   UNL A   1      28.693  31.568  23.297  1.00  0.00     0.117 C 
ATOM     19  C   UNL A   1      28.071  32.050  21.028  1.00  0.00     0.003 C 
ATOM     20  C   UNL A   1      28.785  32.654  22.231  1.00  0.00     0.032 C 
BRANCH  18  21
ATOM     21  O   UNL A   1      29.656  31.737  24.322  1.00  0.00    -0.393 OA
ATOM     22  H   UNL A   1      29.638  30.968  24.913  1.00  0.00     0.210 HD
ENDBRANCH  18  21
ENDBRANCH  15  16
ENDBRANCH  14  15
ENDBRANCH   7   9
ENDBRANCH   4   7
ENDBRANCH   2   3
ENDBRANCH   1   2
BRANCH   1  23
ATOM     23  C   UNL A   1      32.119  28.252  27.207  1.00  0.00     0.023 C 
BRANCH  23  24
ATOM     24  C   UNL A   1      33.536  28.801  27.302  1.00  0.00     0.116 C 
BRANCH  24  25
ATOM     25  N   UNL A   1      33.582  30.179  27.773  1.00  0.00    -0.352 N 
ATOM     26  C   UNL A   1      34.604  30.837  28.418  1.00  0.00     0.251 C 
ATOM     27  H   UNL A   1      32.771  30.713  27.609  1.00  0.00     0.163 HD
ATOM     28  O   UNL A   1      34.417  31.948  28.904  1.00  0.00    -0.269 OA
BRANCH  26  29
ATOM     29  C   UNL A   1      35.918  30.172  28.546  1.00  0.00     0.039 A 
ATOM     30  C   UNL A   1      36.767  30.117  27.438  1.00  0.00     0.014 A 
ATOM     31  C   UNL A   1      36.329  29.664  29.780  1.00  0.00     0.014 A 
ATOM     32  C   UNL A   1      38.072  29.642  27.596  1.00  0.00     0.010 A 
ATOM     33  C   UNL A   1      37.647  29.258  29.950  1.00  0.00     0.010 A 
ATOM     34  C   UNL A   1      38.538  29.263  28.865  1.00  0.00    -0.014 A 
BRANCH  34  35
ATOM     35  C   UNL A   1      39.963  28.924  29.111  1.00  0.00     0.031 A 
ATOM     36  C   UNL A   1      40.930  29.996  29.530  1.00  0.00     0.074 A 
ATOM     37  C   UNL A   1      40.406  27.683  28.824  1.00  0.00     0.049 A 
ATOM     38  N   UNL A   1      42.233  29.940  29.622  1.00  0.00    -0.248 NA
ATOM     39  C   UNL A   1      40.360  31.314  29.859  1.00  0.00     0.031 C 
ATOM     40  C   UNL A   1      39.573  26.574  28.349  1.00  0.00     0.029 A 
ATOM     41  N   UNL A   1      41.673  27.153  28.850  1.00  0.00    -0.354 N 
ATOM     42  C   UNL A   1      42.642  31.218  29.986  1.00  0.00     0.074 A 
ATOM     43  C   UNL A   1      41.452  32.035  30.077  1.00  0.00     0.031 C 
ATOM     44  C   UNL A   1      40.351  25.501  28.124  1.00  0.00     0.029 A 
ATOM     45  C   UNL A   1      41.740  25.857  28.393  1.00  0.00     0.049 A 
ATOM     46  H   UNL A   1      42.459  27.653  29.168  1.00  0.00     0.167 HD
ATOM     47  C   UNL A   1      43.897  31.660  30.235  1.00  0.00     0.037 A 
ATOM     48  C   UNL A   1      42.801  25.054  28.179  1.00  0.00     0.037 A 
ATOM     49  C   UNL A   1      45.069  30.826  30.192  1.00  0.00     0.049 A 
ATOM     50  C   UNL A   1      44.184  25.573  28.474  1.00  0.00     0.074 A 
ATOM     51  C   UNL A   1      46.367  31.155  30.544  1.00  0.00     0.029 A 
ATOM     52  N   UNL A   1      45.090  29.507  29.766  1.00  0.00    -0.354 N 
ATOM     53  N   UNL A   1      44.542  26.754  28.915  1.00  0.00    -0.248 NA
ATOM     54  C   UNL A   1      45.306  24.653  28.239  1.00  0.00     0.031 C 
ATOM     55  C   UNL A   1      47.182  30.049  30.286  1.00  0.00     0.029 A 
ATOM     56  C   UNL A   1      46.385  29.019  29.813  1.00  0.00     0.049 A 
ATOM     57  H   UNL A   1      44.302  28.994  29.475  1.00  0.00     0.167 HD
ATOM     58  C   UNL A   1      45.927  26.715  29.024  1.00  0.00     0.074 A 
ATOM     59  C   UNL A   1      46.342  25.388  28.622  1.00  0.00     0.031 C 
ATOM     60  C   UNL A   1      46.781  27.692  29.415  1.00  0.00     0.037 A 
BRANCH  47  61
ATOM     61  C   UNL A   1      44.084  33.108  30.587  1.00  0.00     0.058 A 
ATOM     62  C   UNL A   1      44.361  34.073  29.606  1.00  0.00     0.135 A 
ATOM     63  C   UNL A   1      43.890  33.547  31.906  1.00  0.00     0.135 A 
ATOM     64  F   UNL A   1      44.571  33.703  28.333  1.00  0.00    -0.206 F 
ATOM     65  C   UNL A   1      44.439  35.425  29.923  1.00  0.00     0.059 A 
ATOM     66  C   UNL A   1      43.941  34.897  32.241  1.00  0.00     0.059 A 
ATOM     67  F   UNL A   1      43.629  32.663  32.881  1.00  0.00    -0.206 F 
ATOM     68  C   UNL A   1      44.220  35.828  31.241  1.00  0.00     0.060 A 
BRANCH  68  69
ATOM     69  S   UNL A   1      44.271  37.592  31.621  1.00  0.00     0.124 S 
ATOM     70  O   UNL A   1      43.626  38.163  30.444  1.00  0.00    -0.237 OA
ATOM     71  O   UNL A   1      43.506  37.666  32.861  1.00  0.00    -0.237 OA
ATOM     72  O   UNL A   1      45.698  37.871  31.752  1.00  0.00    -0.744 OA
ENDBRANCH  68  69
ENDBRANCH  47  61
BRANCH  48  73
ATOM     73  C   UNL A   1      42.610  23.684  27.631  1.00  0.00     0.058 A 
ATOM     74  C   UNL A   1      42.469  22.579  28.483  1.00  0.00     0.135 A 
ATOM     75  C   UNL A   1      42.592  23.451  26.248  1.00  0.00     0.135 A 
ATOM     76  F   UNL A   1      42.488  22.751  29.813  1.00  0.00    -0.206 F 
ATOM     77  C   UNL A   1      42.345  21.286  27.985  1.00  0.00     0.059 A 
ATOM     78  C   UNL A   1      42.442  22.170  25.724  1.00  0.00     0.059 A 
ATOM     79  F   UNL A   1      42.705  24.475  25.390  1.00  0.00    -0.206 F 
ATOM     80  C   UNL A   1      42.339  21.091  26.602  1.00  0.00     0.060 A 
BRANCH  80  81
ATOM     81  S   UNL A   1      42.161  19.412  25.962  1.00  0.00     0.124 S 
ATOM     82  O   UNL A   1      42.996  19.465  24.768  1.00  0.00    -0.237 OA
ATOM     83  O   UNL A   1      42.674  18.605  27.065  1.00  0.00    -0.237 OA
ATOM     84  O   UNL A   1      40.725  19.296  25.726  1.00  0.00    -0.744 OA
ENDBRANCH  80  81
ENDBRANCH  48  73
BRANCH  60  85
ATOM     85  C   UNL A   1      48.246  27.364  29.444  1.00  0.00     0.058 A 
ATOM     86  C   UNL A   1      49.080  27.653  28.354  1.00  0.00     0.135 A 
ATOM     87  C   UNL A   1      48.833  26.821  30.597  1.00  0.00     0.135 A 
ATOM     88  F   UNL A   1      48.565  28.163  27.224  1.00  0.00    -0.206 F 
ATOM     89  C   UNL A   1      50.448  27.405  28.402  1.00  0.00     0.059 A 
ATOM     90  C   UNL A   1      50.202  26.588  30.678  1.00  0.00     0.059 A 
ATOM     91  F   UNL A   1      48.078  26.534  31.670  1.00  0.00    -0.206 F 
ATOM     92  C   UNL A   1      51.000  26.877  29.571  1.00  0.00     0.060 A 
BRANCH  92  93
ATOM     93  S   UNL A   1      52.785  26.612  29.640  1.00  0.00     0.124 S 
ATOM     94  O   UNL A   1      53.043  26.009  28.337  1.00  0.00    -0.237 OA
ATOM     95  O   UNL A   1      53.297  27.966  29.827  1.00  0.00    -0.237 OA
ATOM     96  O   UNL A   1      52.951  25.723  30.787  1.00  0.00    -0.744 OA
ENDBRANCH  92  93
ENDBRANCH  60  85
ENDBRANCH  34  35
ENDBRANCH  26  29
ENDBRANCH  24  25
ENDBRANCH  23  24
ENDBRANCH   1  23
TORSDOF 18
ENDMDL
MODEL 2
REMARK VINA RESULT:     -11.7      5.272     11.578
REMARK SMILES C[C@H](C(=O)NCCCCNC(=O)c1ccc(-c2c3nc(c(-c4c(F)cc(S(=O)(=O)[O-])cc4F)c4ccc([nH]4)c(-c4c(F)cc(S(=O)(=O)[O-])cc4F)c4nc(c(-c5c(F)cc(S(=O)(=O)[O-])cc5F)c5ccc2[nH]5)C=C4)C=C3)cc1)c1ccc(C[C@H]2CCC[C@@H]2O)cc1
REMARK SMILES IDX 7 1 6 2 5 3 3 4 4 5 2 7 1 8 79 9 80 10 91 11 81 12 90 13
REMARK SMILES IDX 82 14 83 15 84 16 85 17 88 18 86 19 87 20 89 21 8 23 9 24
REMARK SMILES IDX 10 25 11 26 12 28 13 29 14 30 78 31 15 32 77 33 16 34 17 35
REMARK SMILES IDX 18 36 71 37 19 38 76 39 70 40 72 41 20 42 75 43 69 44 68 45
REMARK SMILES IDX 21 47 55 48 34 49 54 50 35 51 38 52 53 53 73 54 36 55 37 56
REMARK SMILES IDX 52 58 74 59 39 60 22 61 23 62 32 63 24 64 25 65 31 66 33 67
REMARK SMILES IDX 26 68 27 69 28 70 29 71 30 72 56 73 57 74 66 75 58 76 59 77
REMARK SMILES IDX 65 78 67 79 60 80 61 81 62 82 63 83 64 84 40 85 41 86 50 87
REMARK SMILES IDX 42 88 43 89 49 90 51 91 44 92 45 93 46 94 47 95 48 96
REMARK H PARENT 5 6 89 22 10 27 72 46 38 57
REMARK Flexibility Score: inf
ROOT
ATOM      1  C   UNL A   1      42.842  23.337  28.664  1.00  0.00     0.023 C 
ENDROOT
BRANCH   1   2
ATOM      2  C   UNL A   1      44.327  23.119  28.953  1.00  0.00     0.116 C 
BRANCH   2   3
ATOM      3  N   UNL A   1      45.084  22.880  27.741  1.00  0.00    -0.356 N 
ATOM      4  C   UNL A   1      46.066  23.632  27.157  1.00  0.00     0.227 C 
ATOM      5  O   UNL A   1      46.532  23.212  26.094  1.00  0.00    -0.274 OA
ATOM      6  H   UNL A   1      44.857  22.049  27.265  1.00  0.00     0.163 HD
BRANCH   4   7
ATOM      7  C   UNL A   1      46.619  24.894  27.848  1.00  0.00     0.105 C 
ATOM      8  C   UNL A   1      48.109  25.074  27.537  1.00  0.00     0.023 C 
BRANCH   7   9
ATOM      9  C   UNL A   1      45.864  26.172  27.520  1.00  0.00    -0.036 A 
ATOM     10  C   UNL A   1      46.187  27.354  28.205  1.00  0.00     0.005 A 
ATOM     11  C   UNL A   1      44.818  26.204  26.588  1.00  0.00     0.005 A 
ATOM     12  C   UNL A   1      45.409  28.502  28.055  1.00  0.00     0.004 A 
ATOM     13  C   UNL A   1      44.032  27.354  26.449  1.00  0.00     0.004 A 
ATOM     14  C   UNL A   1      44.290  28.497  27.217  1.00  0.00    -0.048 A 
BRANCH  14  15
ATOM     15  C   UNL A   1      43.379  29.702  27.163  1.00  0.00     0.041 C 
BRANCH  15  16
ATOM     16  C   UNL A   1      43.932  31.023  27.731  1.00  0.00     0.022 C 
ATOM     17  C   UNL A   1      44.380  32.060  26.694  1.00  0.00     0.007 C 
ATOM     18  C   UNL A   1      43.002  31.824  28.644  1.00  0.00     0.117 C 
ATOM     19  C   UNL A   1      44.296  33.419  27.400  1.00  0.00     0.003 C 
ATOM     20  C   UNL A   1      43.741  33.148  28.793  1.00  0.00     0.032 C 
BRANCH  18  21
ATOM     21  O   UNL A   1      42.795  31.180  29.889  1.00  0.00    -0.393 OA
ATOM     22  H   UNL A   1      41.880  30.863  29.941  1.00  0.00     0.210 HD
ENDBRANCH  18  21
ENDBRANCH  15  16
ENDBRANCH  14  15
ENDBRANCH   7   9
ENDBRANCH   4   7
ENDBRANCH   2   3
ENDBRANCH   1   2
BRANCH   1  23
ATOM     23  C   UNL A   1      42.167  22.226  27.860  1.00  0.00     0.023 C 
BRANCH  23  24
ATOM     24  C   UNL A   1      41.979  22.529  26.380  1.00  0.00     0.116 C 
BRANCH  24  25
ATOM     25  N   UNL A   1      40.618  22.292  25.918  1.00  0.00    -0.352 N 
ATOM     26  C   UNL A   1      39.483  23.030  26.162  1.00  0.00     0.251 C 
ATOM     27  H   UNL A   1      40.492  21.494  25.355  1.00  0.00     0.163 HD
ATOM     28  O   UNL A   1      38.380  22.596  25.842  1.00  0.00    -0.269 OA
BRANCH  26  29
ATOM     29  C   UNL A   1      39.609  24.335  26.844  1.00  0.00     0.039 A 
ATOM     30  C   UNL A   1      39.057  24.497  28.117  1.00  0.00     0.014 A 
ATOM     31  C   UNL A   1      40.329  25.372  26.247  1.00  0.00     0.014 A 
ATOM     32  C   UNL A   1      39.317  25.667  28.835  1.00  0.00     0.010 A 
ATOM     33  C   UNL A   1      40.644  26.504  26.989  1.00  0.00     0.010 A 
ATOM     34  C   UNL A   1      40.159  26.654  28.298  1.00  0.00    -0.014 A 
BRANCH  34  35
ATOM     35  C   UNL A   1      40.605  27.827  29.094  1.00  0.00     0.031 A 
ATOM     36  C   UNL A   1      41.854  27.740  29.926  1.00  0.00     0.074 A 
ATOM     37  C   UNL A   1      39.810  28.914  29.169  1.00  0.00     0.049 A 
ATOM     38  N   UNL A   1      42.309  28.581  30.817  1.00  0.00    -0.248 NA
ATOM     39  C   UNL A   1      42.683  26.534  29.759  1.00  0.00     0.031 C 
ATOM     40  C   UNL A   1      38.542  29.090  28.456  1.00  0.00     0.029 A 
ATOM     41  N   UNL A   1      39.930  30.064  29.911  1.00  0.00    -0.354 N 
ATOM     42  C   UNL A   1      43.456  27.995  31.339  1.00  0.00     0.074 A 
ATOM     43  C   UNL A   1      43.617  26.717  30.682  1.00  0.00     0.031 C 
ATOM     44  C   UNL A   1      38.000  30.270  28.800  1.00  0.00     0.029 A 
ATOM     45  C   UNL A   1      38.855  30.915  29.790  1.00  0.00     0.049 A 
ATOM     46  H   UNL A   1      40.712  30.261  30.477  1.00  0.00     0.167 HD
ATOM     47  C   UNL A   1      44.304  28.490  32.271  1.00  0.00     0.037 A 
ATOM     48  C   UNL A   1      38.571  32.067  30.428  1.00  0.00     0.037 A 
ATOM     49  C   UNL A   1      44.165  29.787  32.881  1.00  0.00     0.049 A 
ATOM     50  C   UNL A   1      39.539  32.596  31.453  1.00  0.00     0.074 A 
ATOM     51  C   UNL A   1      45.037  30.424  33.746  1.00  0.00     0.029 A 
ATOM     52  N   UNL A   1      43.086  30.637  32.699  1.00  0.00    -0.354 N 
ATOM     53  N   UNL A   1      40.671  32.076  31.860  1.00  0.00    -0.248 NA
ATOM     54  C   UNL A   1      39.190  33.864  32.109  1.00  0.00     0.031 C 
ATOM     55  C   UNL A   1      44.464  31.641  34.126  1.00  0.00     0.029 A 
ATOM     56  C   UNL A   1      43.254  31.779  33.464  1.00  0.00     0.049 A 
ATOM     57  H   UNL A   1      42.316  30.457  32.113  1.00  0.00     0.167 HD
ATOM     58  C   UNL A   1      41.176  32.959  32.808  1.00  0.00     0.074 A 
ATOM     59  C   UNL A   1      40.237  34.057  32.900  1.00  0.00     0.031 C 
ATOM     60  C   UNL A   1      42.312  32.866  33.540  1.00  0.00     0.037 A 
BRANCH  47  61
ATOM     61  C   UNL A   1      45.470  27.643  32.693  1.00  0.00     0.058 A 
ATOM     62  C   UNL A   1      46.741  27.803  32.119  1.00  0.00     0.135 A 
ATOM     63  C   UNL A   1      45.336  26.730  33.752  1.00  0.00     0.135 A 
ATOM     64  F   UNL A   1      46.919  28.651  31.094  1.00  0.00    -0.206 F 
ATOM     65  C   UNL A   1      47.839  27.084  32.580  1.00  0.00     0.059 A 
ATOM     66  C   UNL A   1      46.426  26.017  34.243  1.00  0.00     0.059 A 
ATOM     67  F   UNL A   1      44.140  26.537  34.330  1.00  0.00    -0.206 F 
ATOM     68  C   UNL A   1      47.673  26.199  33.647  1.00  0.00     0.060 A 
BRANCH  68  69
ATOM     69  S   UNL A   1      49.121  25.317  34.267  1.00  0.00     0.124 S 
ATOM     70  O   UNL A   1      48.985  24.028  33.598  1.00  0.00    -0.237 OA
ATOM     71  O   UNL A   1      50.220  26.158  33.804  1.00  0.00    -0.237 OA
ATOM     72  O   UNL A   1      48.916  25.299  35.712  1.00  0.00    -0.744 OA
ENDBRANCH  68  69
ENDBRANCH  47  61
BRANCH  48  73
ATOM     73  C   UNL A   1      37.303  32.792  30.143  1.00  0.00     0.058 A 
ATOM     74  C   UNL A   1      36.120  32.473  30.825  1.00  0.00     0.135 A 
ATOM     75  C   UNL A   1      37.245  33.798  29.167  1.00  0.00     0.135 A 
ATOM     76  F   UNL A   1      36.124  31.513  31.762  1.00  0.00    -0.206 F 
ATOM     77  C   UNL A   1      34.916  33.104  30.530  1.00  0.00     0.059 A 
ATOM     78  C   UNL A   1      36.058  34.463  28.872  1.00  0.00     0.059 A 
ATOM     79  F   UNL A   1      38.352  34.153  28.499  1.00  0.00    -0.206 F 
ATOM     80  C   UNL A   1      34.894  34.095  29.547  1.00  0.00     0.060 A 
BRANCH  80  81
ATOM     81  S   UNL A   1      33.331  34.922  29.180  1.00  0.00     0.124 S 
ATOM     82  O   UNL A   1      32.738  34.009  28.211  1.00  0.00    -0.237 OA
ATOM     83  O   UNL A   1      32.691  34.967  30.491  1.00  0.00    -0.237 OA
ATOM     84  O   UNL A   1      33.755  36.216  28.654  1.00  0.00    -0.744 OA
ENDBRANCH  80  81
ENDBRANCH  48  73
BRANCH  60  85
ATOM     85  C   UNL A   1      42.615  33.985  34.496  1.00  0.00     0.058 A 
ATOM     86  C   UNL A   1      42.190  33.938  35.832  1.00  0.00     0.135 A 
ATOM     87  C   UNL A   1      43.396  35.078  34.091  1.00  0.00     0.135 A 
ATOM     88  F   UNL A   1      41.431  32.919  36.266  1.00  0.00    -0.206 F 
ATOM     89  C   UNL A   1      42.521  34.944  36.734  1.00  0.00     0.059 A 
ATOM     90  C   UNL A   1      43.761  36.083  34.981  1.00  0.00     0.059 A 
ATOM     91  F   UNL A   1      43.834  35.164  32.825  1.00  0.00    -0.206 F 
ATOM     92  C   UNL A   1      43.312  36.011  36.299  1.00  0.00     0.060 A 
BRANCH  92  93
ATOM     93  S   UNL A   1      43.781  37.281  37.493  1.00  0.00     0.124 S 
ATOM     94  O   UNL A   1      44.036  38.423  36.622  1.00  0.00    -0.237 OA
ATOM     95  O   UNL A   1      42.592  37.377  38.334  1.00  0.00    -0.237 OA
ATOM     96  O   UNL A   1      44.958  36.714  38.146  1.00  0.00    -0.744 OA
ENDBRANCH  92  93
ENDBRANCH  60  85
ENDBRANCH  34  35
ENDBRANCH  26  29
ENDBRANCH  24  25
ENDBRANCH  23  24
ENDBRANCH   1  23
TORSDOF 18
ENDMDL
MODEL 3
REMARK VINA RESULT:     -11.5      5.673     10.132
REMARK SMILES C[C@H](C(=O)NCCCCNC(=O)c1ccc(-c2c3nc(c(-c4c(F)cc(S(=O)(=O)[O-])cc4F)c4ccc([nH]4)c(-c4c(F)cc(S(=O)(=O)[O-])cc4F)c4nc(c(-c5c(F)cc(S(=O)(=O)[O-])cc5F)c5ccc2[nH]5)C=C4)C=C3)cc1)c1ccc(C[C@H]2CCC[C@@H]2O)cc1
REMARK SMILES IDX 7 1 6 2 5 3 3 4 4 5 2 7 1 8 79 9 80 10 91 11 81 12 90 13
REMARK SMILES IDX 82 14 83 15 84 16 85 17 88 18 86 19 87 20 89 21 8 23 9 24
REMARK SMILES IDX 10 25 11 26 12 28 13 29 14 30 78 31 15 32 77 33 16 34 17 35
REMARK SMILES IDX 18 36 71 37 19 38 76 39 70 40 72 41 20 42 75 43 69 44 68 45
REMARK SMILES IDX 21 47 55 48 34 49 54 50 35 51 38 52 53 53 73 54 36 55 37 56
REMARK SMILES IDX 52 58 74 59 39 60 22 61 23 62 32 63 24 64 25 65 31 66 33 67
REMARK SMILES IDX 26 68 27 69 28 70 29 71 30 72 56 73 57 74 66 75 58 76 59 77
REMARK SMILES IDX 65 78 67 79 60 80 61 81 62 82 63 83 64 84 40 85 41 86 50 87
REMARK SMILES IDX 42 88 43 89 49 90 51 91 44 92 45 93 46 94 47 95 48 96
REMARK H PARENT 5 6 89 22 10 27 72 46 38 57
REMARK Flexibility Score: inf
ROOT
ATOM      1  C   UNL A   1      37.721  22.186  25.441  1.00  0.00     0.023 C 
ENDROOT
BRANCH   1   2
ATOM      2  C   UNL A   1      36.386  21.512  25.123  1.00  0.00     0.116 C 
BRANCH   2   3
ATOM      3  N   UNL A   1      35.573  21.338  26.311  1.00  0.00    -0.356 N 
ATOM      4  C   UNL A   1      34.308  21.782  26.581  1.00  0.00     0.227 C 
ATOM      5  O   UNL A   1      33.851  21.519  27.697  1.00  0.00    -0.274 OA
ATOM      6  H   UNL A   1      35.996  20.822  27.034  1.00  0.00     0.163 HD
BRANCH   4   7
ATOM      7  C   UNL A   1      33.467  22.494  25.503  1.00  0.00     0.105 C 
ATOM      8  C   UNL A   1      32.080  21.854  25.385  1.00  0.00     0.023 C 
BRANCH   7   9
ATOM      9  C   UNL A   1      33.329  23.995  25.705  1.00  0.00    -0.036 A 
ATOM     10  C   UNL A   1      32.243  24.490  26.445  1.00  0.00     0.005 A 
ATOM     11  C   UNL A   1      34.224  24.910  25.136  1.00  0.00     0.005 A 
ATOM     12  C   UNL A   1      31.990  25.860  26.511  1.00  0.00     0.004 A 
ATOM     13  C   UNL A   1      33.960  26.284  25.194  1.00  0.00     0.004 A 
ATOM     14  C   UNL A   1      32.815  26.768  25.839  1.00  0.00    -0.048 A 
BRANCH  14  15
ATOM     15  C   UNL A   1      32.456  28.236  25.807  1.00  0.00     0.041 C 
BRANCH  15  16
ATOM     16  C   UNL A   1      33.094  29.136  26.883  1.00  0.00     0.022 C 
ATOM     17  C   UNL A   1      34.598  28.940  27.112  1.00  0.00     0.007 C 
ATOM     18  C   UNL A   1      32.967  30.647  26.682  1.00  0.00     0.117 C 
ATOM     19  C   UNL A   1      35.105  30.260  27.705  1.00  0.00     0.003 C 
ATOM     20  C   UNL A   1      33.909  31.205  27.741  1.00  0.00     0.032 C 
BRANCH  18  21
ATOM     21  O   UNL A   1      31.635  31.097  26.855  1.00  0.00    -0.393 OA
ATOM     22  H   UNL A   1      31.280  31.395  26.003  1.00  0.00     0.210 HD
ENDBRANCH  18  21
ENDBRANCH  15  16
ENDBRANCH  14  15
ENDBRANCH   7   9
ENDBRANCH   4   7
ENDBRANCH   2   3
ENDBRANCH   1   2
BRANCH   1  23
ATOM     23  C   UNL A   1      37.623  23.644  25.885  1.00  0.00     0.023 C 
BRANCH  23  24
ATOM     24  C   UNL A   1      38.823  24.159  26.668  1.00  0.00     0.116 C 
BRANCH  24  25
ATOM     25  N   UNL A   1      39.895  24.649  25.811  1.00  0.00    -0.352 N 
ATOM     26  C   UNL A   1      40.784  25.673  26.042  1.00  0.00     0.251 C 
ATOM     27  H   UNL A   1      39.997  24.185  24.949  1.00  0.00     0.163 HD
ATOM     28  O   UNL A   1      41.515  26.074  25.141  1.00  0.00    -0.269 OA
BRANCH  26  29
ATOM     29  C   UNL A   1      40.821  26.304  27.377  1.00  0.00     0.039 A 
ATOM     30  C   UNL A   1      41.694  27.371  27.605  1.00  0.00     0.014 A 
ATOM     31  C   UNL A   1      39.944  25.879  28.378  1.00  0.00     0.014 A 
ATOM     32  C   UNL A   1      41.613  28.079  28.808  1.00  0.00     0.010 A 
ATOM     33  C   UNL A   1      39.819  26.628  29.543  1.00  0.00     0.010 A 
ATOM     34  C   UNL A   1      40.637  27.747  29.760  1.00  0.00    -0.014 A 
BRANCH  34  35
ATOM     35  C   UNL A   1      40.399  28.580  30.967  1.00  0.00     0.031 A 
ATOM     36  C   UNL A   1      39.347  29.654  30.945  1.00  0.00     0.074 A 
ATOM     37  C   UNL A   1      41.223  28.457  32.028  1.00  0.00     0.049 A 
ATOM     38  N   UNL A   1      39.110  30.593  31.822  1.00  0.00    -0.248 NA
ATOM     39  C   UNL A   1      38.467  29.699  29.764  1.00  0.00     0.031 C 
ATOM     40  C   UNL A   1      42.321  27.492  32.142  1.00  0.00     0.029 A 
ATOM     41  N   UNL A   1      41.292  29.171  33.199  1.00  0.00    -0.354 N 
ATOM     42  C   UNL A   1      38.079  31.358  31.290  1.00  0.00     0.074 A 
ATOM     43  C   UNL A   1      37.750  30.789  30.001  1.00  0.00     0.031 C 
ATOM     44  C   UNL A   1      42.956  27.680  33.311  1.00  0.00     0.029 A 
ATOM     45  C   UNL A   1      42.342  28.805  34.009  1.00  0.00     0.049 A 
ATOM     46  H   UNL A   1      40.650  29.879  33.437  1.00  0.00     0.167 HD
ATOM     47  C   UNL A   1      37.457  32.428  31.836  1.00  0.00     0.037 A 
ATOM     48  C   UNL A   1      42.785  29.334  35.166  1.00  0.00     0.037 A 
ATOM     49  C   UNL A   1      37.756  32.956  33.142  1.00  0.00     0.049 A 
ATOM     50  C   UNL A   1      42.066  30.519  35.754  1.00  0.00     0.074 A 
ATOM     51  C   UNL A   1      37.100  33.961  33.830  1.00  0.00     0.029 A 
ATOM     52  N   UNL A   1      38.798  32.529  33.950  1.00  0.00    -0.354 N 
ATOM     53  N   UNL A   1      41.027  31.166  35.283  1.00  0.00    -0.248 NA
ATOM     54  C   UNL A   1      42.579  31.049  37.025  1.00  0.00     0.031 C 
ATOM     55  C   UNL A   1      37.774  34.177  35.035  1.00  0.00     0.029 A 
ATOM     56  C   UNL A   1      38.825  33.277  35.116  1.00  0.00     0.049 A 
ATOM     57  H   UNL A   1      39.425  31.803  33.729  1.00  0.00     0.167 HD
ATOM     58  C   UNL A   1      40.755  32.170  36.206  1.00  0.00     0.074 A 
ATOM     59  C   UNL A   1      41.724  32.032  37.273  1.00  0.00     0.031 C 
ATOM     60  C   UNL A   1      39.792  33.123  36.171  1.00  0.00     0.037 A 
BRANCH  47  61
ATOM     61  C   UNL A   1      36.379  33.108  31.041  1.00  0.00     0.058 A 
ATOM     62  C   UNL A   1      35.027  33.017  31.406  1.00  0.00     0.135 A 
ATOM     63  C   UNL A   1      36.714  33.938  29.959  1.00  0.00     0.135 A 
ATOM     64  F   UNL A   1      34.653  32.224  32.423  1.00  0.00    -0.206 F 
ATOM     65  C   UNL A   1      34.044  33.725  30.724  1.00  0.00     0.059 A 
ATOM     66  C   UNL A   1      35.749  34.673  29.277  1.00  0.00     0.059 A 
ATOM     67  F   UNL A   1      37.992  34.054  29.567  1.00  0.00    -0.206 F 
ATOM     68  C   UNL A   1      34.415  34.557  29.666  1.00  0.00     0.060 A 
BRANCH  68  69
ATOM     69  S   UNL A   1      33.131  35.511  28.829  1.00  0.00     0.124 S 
ATOM     70  O   UNL A   1      33.927  36.460  28.059  1.00  0.00    -0.237 OA
ATOM     71  O   UNL A   1      32.439  34.488  28.053  1.00  0.00    -0.237 OA
ATOM     72  O   UNL A   1      32.362  36.085  29.929  1.00  0.00    -0.744 OA
ENDBRANCH  68  69
ENDBRANCH  47  61
BRANCH  48  73
ATOM     73  C   UNL A   1      43.987  28.772  35.840  1.00  0.00     0.058 A 
ATOM     74  C   UNL A   1      45.264  29.301  35.600  1.00  0.00     0.135 A 
ATOM     75  C   UNL A   1      43.886  27.680  36.715  1.00  0.00     0.135 A 
ATOM     76  F   UNL A   1      45.412  30.341  34.765  1.00  0.00    -0.206 F 
ATOM     77  C   UNL A   1      46.402  28.750  36.179  1.00  0.00     0.059 A 
ATOM     78  C   UNL A   1      45.006  27.128  37.328  1.00  0.00     0.059 A 
ATOM     79  F   UNL A   1      42.686  27.148  36.992  1.00  0.00    -0.206 F 
ATOM     80  C   UNL A   1      46.263  27.659  37.039  1.00  0.00     0.060 A 
BRANCH  80  81
ATOM     81  S   UNL A   1      47.743  26.958  37.801  1.00  0.00     0.124 S 
ATOM     82  O   UNL A   1      47.866  27.775  39.003  1.00  0.00    -0.237 OA
ATOM     83  O   UNL A   1      47.353  25.567  38.011  1.00  0.00    -0.237 OA
ATOM     84  O   UNL A   1      48.771  27.166  36.786  1.00  0.00    -0.744 OA
ENDBRANCH  80  81
ENDBRANCH  48  73
BRANCH  60  85
ATOM     85  C   UNL A   1      39.726  34.085  37.323  1.00  0.00     0.058 A 
ATOM     86  C   UNL A   1      40.293  35.366  37.238  1.00  0.00     0.135 A 
ATOM     87  C   UNL A   1      39.029  33.749  38.494  1.00  0.00     0.135 A 
ATOM     88  F   UNL A   1      40.978  35.731  36.143  1.00  0.00    -0.206 F 
ATOM     89  C   UNL A   1      40.179  36.279  38.280  1.00  0.00     0.059 A 
ATOM     90  C   UNL A   1      38.881  34.655  39.539  1.00  0.00     0.059 A 
ATOM     91  F   UNL A   1      38.462  32.539  38.620  1.00  0.00    -0.206 F 
ATOM     92  C   UNL A   1      39.467  35.915  39.426  1.00  0.00     0.060 A 
BRANCH  92  93
ATOM     93  S   UNL A   1      39.280  37.130  40.749  1.00  0.00     0.124 S 
ATOM     94  O   UNL A   1      38.617  36.341  41.781  1.00  0.00    -0.237 OA
ATOM     95  O   UNL A   1      40.662  37.506  41.027  1.00  0.00    -0.237 OA
ATOM     96  O   UNL A   1      38.465  38.175  40.136  1.00  0.00    -0.744 OA
ENDBRANCH  92  93
ENDBRANCH  60  85
ENDBRANCH  34  35
ENDBRANCH  26  29
ENDBRANCH  24  25
ENDBRANCH  23  24
ENDBRANCH   1  23
TORSDOF 18
ENDMDL
