MODEL 1
REMARK VINA RESULT:     -11.4      0.000      0.000
REMARK SMILES C/C(C(=O)NCCCCNC(=O)c1ccc(-c2c3nc(c(-c4c(F)cc(S(=O)(=O)[O-])cc4F)c4ccc([nH]4)c(-c4c(F)cc(S(=O)(=O)[O-])cc4F)c4nc(c(-c5c(F)cc(S(=O)(=O)[O-])cc5F)c5ccc2[nH]5)C=C4)C=C3)cc1)=C(\C)C(=O)NCc1cscc1C
REMARK SMILES IDX 7 1 6 2 5 3 3 4 4 5 2 7 1 8 79 9 80 10 81 11 82 12 83 13
REMARK SMILES IDX 84 15 85 16 86 17 89 18 87 19 88 20 90 21 8 22 9 23 10 24
REMARK SMILES IDX 11 25 12 27 13 28 14 29 78 30 15 31 77 32 16 33 17 34 18 35
REMARK SMILES IDX 71 36 19 37 76 38 70 39 72 40 20 41 75 42 69 43 68 44 21 46
REMARK SMILES IDX 55 47 34 48 54 49 35 50 38 51 53 52 73 53 36 54 37 55 52 57
REMARK SMILES IDX 74 58 39 59 22 60 23 61 32 62 24 63 25 64 31 65 33 66 26 67
REMARK SMILES IDX 27 68 28 69 29 70 30 71 56 72 57 73 66 74 58 75 59 76 65 77
REMARK SMILES IDX 67 78 60 79 61 80 62 81 63 82 64 83 40 84 41 85 50 86 42 87
REMARK SMILES IDX 43 88 49 89 51 90 44 91 45 92 46 93 47 94 48 95
REMARK H PARENT 5 6 83 14 10 26 72 45 38 56
REMARK Flexibility Score: inf
ROOT
ATOM      1  C   UNL A   1      37.692  22.044  25.252  1.00  0.00     0.023 C 
ENDROOT
BRANCH   1   2
ATOM      2  C   UNL A   1      36.491  21.240  24.731  1.00  0.00     0.116 C 
BRANCH   2   3
ATOM      3  N   UNL A   1      35.451  21.149  25.737  1.00  0.00    -0.352 N 
ATOM      4  C   UNL A   1      34.090  21.083  25.740  1.00  0.00     0.247 C 
ATOM      5  O   UNL A   1      33.604  21.343  26.837  1.00  0.00    -0.270 OA
ATOM      6  H   UNL A   1      35.821  21.130  26.650  1.00  0.00     0.163 HD
BRANCH   4   7
ATOM      7  C   UNL A   1      33.246  20.803  24.505  1.00  0.00     0.022 C 
ATOM      8  C   UNL A   1      32.759  19.383  24.354  1.00  0.00     0.051 C 
ATOM      9  C   UNL A   1      32.945  21.710  23.517  1.00  0.00     0.022 C 
ATOM     10  C   UNL A   1      32.051  21.295  22.377  1.00  0.00     0.051 C 
BRANCH   9  11
ATOM     11  C   UNL A   1      33.401  23.160  23.459  1.00  0.00     0.247 C 
ATOM     12  O   UNL A   1      34.431  23.521  22.897  1.00  0.00    -0.270 OA
ATOM     13  N   UNL A   1      32.740  24.212  24.005  1.00  0.00    -0.348 N 
ATOM     14  H   UNL A   1      33.285  25.028  23.925  1.00  0.00     0.164 HD
BRANCH  13  15
ATOM     15  C   UNL A   1      31.488  24.517  24.666  1.00  0.00     0.153 C 
BRANCH  15  16
ATOM     16  C   UNL A   1      31.519  25.952  25.111  1.00  0.00    -0.015 A 
ATOM     17  C   UNL A   1      31.827  26.338  26.405  1.00  0.00     0.070 A 
ATOM     18  C   UNL A   1      31.252  27.109  24.279  1.00  0.00    -0.035 A 
ATOM     19  S   UNL A   1      31.807  28.027  26.627  1.00  0.00    -0.152 S 
ATOM     20  C   UNL A   1      31.375  28.284  24.999  1.00  0.00     0.068 A 
ATOM     21  C   UNL A   1      30.877  27.077  22.834  1.00  0.00     0.045 C 
ENDBRANCH  15  16
ENDBRANCH  13  15
ENDBRANCH   9  11
ENDBRANCH   4   7
ENDBRANCH   2   3
ENDBRANCH   1   2
BRANCH   1  22
ATOM     22  C   UNL A   1      37.439  23.534  25.474  1.00  0.00     0.023 C 
BRANCH  22  23
ATOM     23  C   UNL A   1      38.375  24.212  26.461  1.00  0.00     0.116 C 
BRANCH  23  24
ATOM     24  N   UNL A   1      39.783  24.021  26.145  1.00  0.00    -0.352 N 
ATOM     25  C   UNL A   1      40.858  24.750  26.588  1.00  0.00     0.251 C 
ATOM     26  H   UNL A   1      39.990  23.274  25.536  1.00  0.00     0.163 HD
ATOM     27  O   UNL A   1      41.984  24.521  26.153  1.00  0.00    -0.269 OA
BRANCH  25  28
ATOM     28  C   UNL A   1      40.632  25.839  27.557  1.00  0.00     0.039 A 
ATOM     29  C   UNL A   1      39.626  25.691  28.513  1.00  0.00     0.014 A 
ATOM     30  C   UNL A   1      41.453  26.970  27.555  1.00  0.00     0.014 A 
ATOM     31  C   UNL A   1      39.485  26.652  29.515  1.00  0.00     0.010 A 
ATOM     32  C   UNL A   1      41.357  27.889  28.593  1.00  0.00     0.010 A 
ATOM     33  C   UNL A   1      40.374  27.738  29.582  1.00  0.00    -0.014 A 
BRANCH  33  34
ATOM     34  C   UNL A   1      40.293  28.730  30.683  1.00  0.00     0.031 A 
ATOM     35  C   UNL A   1      41.170  28.579  31.894  1.00  0.00     0.074 A 
ATOM     36  C   UNL A   1      39.381  29.719  30.618  1.00  0.00     0.049 A 
ATOM     37  N   UNL A   1      41.197  29.295  32.986  1.00  0.00    -0.248 NA
ATOM     38  C   UNL A   1      42.123  27.457  31.887  1.00  0.00     0.031 C 
ATOM     39  C   UNL A   1      38.436  29.932  29.518  1.00  0.00     0.029 A 
ATOM     40  N   UNL A   1      39.088  30.727  31.503  1.00  0.00    -0.354 N 
ATOM     41  C   UNL A   1      42.154  28.704  33.802  1.00  0.00     0.074 A 
ATOM     42  C   UNL A   1      42.648  27.540  33.099  1.00  0.00     0.031 C 
ATOM     43  C   UNL A   1      37.684  31.013  29.786  1.00  0.00     0.029 A 
ATOM     44  C   UNL A   1      38.069  31.550  31.087  1.00  0.00     0.049 A 
ATOM     45  H   UNL A   1      39.564  30.847  32.357  1.00  0.00     0.167 HD
ATOM     46  C   UNL A   1      42.598  29.109  35.016  1.00  0.00     0.037 A 
ATOM     47  C   UNL A   1      37.505  32.614  31.691  1.00  0.00     0.037 A 
ATOM     48  C   UNL A   1      42.121  30.285  35.693  1.00  0.00     0.049 A 
ATOM     49  C   UNL A   1      38.027  33.054  33.032  1.00  0.00     0.074 A 
ATOM     50  C   UNL A   1      42.547  30.817  36.898  1.00  0.00     0.029 A 
ATOM     51  N   UNL A   1      41.110  31.114  35.226  1.00  0.00    -0.354 N 
ATOM     52  N   UNL A   1      38.979  32.521  33.760  1.00  0.00    -0.248 NA
ATOM     53  C   UNL A   1      37.403  34.242  33.630  1.00  0.00     0.031 C 
ATOM     54  C   UNL A   1      41.771  31.948  37.174  1.00  0.00     0.029 A 
ATOM     55  C   UNL A   1      40.890  32.144  36.123  1.00  0.00     0.049 A 
ATOM     56  H   UNL A   1      40.623  30.986  34.380  1.00  0.00     0.167 HD
ATOM     57  C   UNL A   1      39.087  33.324  34.890  1.00  0.00     0.074 A 
ATOM     58  C   UNL A   1      38.110  34.384  34.744  1.00  0.00     0.031 C 
ATOM     59  C   UNL A   1      39.918  33.196  35.954  1.00  0.00     0.037 A 
BRANCH  46  60
ATOM     60  C   UNL A   1      43.660  28.278  35.680  1.00  0.00     0.058 A 
ATOM     61  C   UNL A   1      45.025  28.502  35.440  1.00  0.00     0.135 A 
ATOM     62  C   UNL A   1      43.312  27.262  36.586  1.00  0.00     0.135 A 
ATOM     63  F   UNL A   1      45.412  29.449  34.570  1.00  0.00    -0.206 F 
ATOM     64  C   UNL A   1      46.008  27.730  36.051  1.00  0.00     0.059 A 
ATOM     65  C   UNL A   1      44.280  26.496  37.229  1.00  0.00     0.059 A 
ATOM     66  F   UNL A   1      42.022  27.005  36.849  1.00  0.00    -0.206 F 
ATOM     67  C   UNL A   1      45.624  26.727  36.943  1.00  0.00     0.060 A 
BRANCH  67  68
ATOM     68  S   UNL A   1      46.912  25.736  37.730  1.00  0.00     0.124 S 
ATOM     69  O   UNL A   1      48.032  25.936  36.815  1.00  0.00    -0.237 OA
ATOM     70  O   UNL A   1      47.042  26.372  39.037  1.00  0.00    -0.237 OA
ATOM     71  O   UNL A   1      46.345  24.391  37.744  1.00  0.00    -0.744 OA
ENDBRANCH  67  68
ENDBRANCH  46  60
BRANCH  47  72
ATOM     72  C   UNL A   1      36.405  33.354  31.017  1.00  0.00     0.058 A 
ATOM     73  C   UNL A   1      36.669  34.201  29.932  1.00  0.00     0.135 A 
ATOM     74  C   UNL A   1      35.072  33.218  31.433  1.00  0.00     0.135 A 
ATOM     75  F   UNL A   1      37.928  34.367  29.501  1.00  0.00    -0.206 F 
ATOM     76  C   UNL A   1      35.652  34.903  29.292  1.00  0.00     0.059 A 
ATOM     77  C   UNL A   1      34.036  33.892  30.795  1.00  0.00     0.059 A 
ATOM     78  F   UNL A   1      34.766  32.405  32.456  1.00  0.00    -0.206 F 
ATOM     79  C   UNL A   1      34.337  34.740  29.730  1.00  0.00     0.060 A 
BRANCH  79  80
ATOM     80  S   UNL A   1      33.020  35.619  28.861  1.00  0.00     0.124 S 
ATOM     81  O   UNL A   1      32.484  34.570  28.003  1.00  0.00    -0.237 OA
ATOM     82  O   UNL A   1      32.160  36.047  29.961  1.00  0.00    -0.237 OA
ATOM     83  O   UNL A   1      33.730  36.696  28.178  1.00  0.00    -0.744 OA
ENDBRANCH  79  80
ENDBRANCH  47  72
BRANCH  59  84
ATOM     84  C   UNL A   1      39.834  34.244  37.026  1.00  0.00     0.058 A 
ATOM     85  C   UNL A   1      40.503  35.472  36.909  1.00  0.00     0.135 A 
ATOM     86  C   UNL A   1      39.032  34.037  38.161  1.00  0.00     0.135 A 
ATOM     87  F   UNL A   1      41.287  35.716  35.847  1.00  0.00    -0.206 F 
ATOM     88  C   UNL A   1      40.394  36.453  37.889  1.00  0.00     0.059 A 
ATOM     89  C   UNL A   1      38.888  35.014  39.140  1.00  0.00     0.059 A 
ATOM     90  F   UNL A   1      38.364  32.883  38.315  1.00  0.00    -0.206 F 
ATOM     91  C   UNL A   1      39.582  36.215  39.001  1.00  0.00     0.060 A 
BRANCH  91  92
ATOM     92  S   UNL A   1      39.420  37.510  40.248  1.00  0.00     0.124 S 
ATOM     93  O   UNL A   1      40.793  37.987  40.358  1.00  0.00    -0.237 OA
ATOM     94  O   UNL A   1      38.476  38.431  39.622  1.00  0.00    -0.237 OA
ATOM     95  O   UNL A   1      38.908  36.795  41.414  1.00  0.00    -0.744 OA
ENDBRANCH  91  92
ENDBRANCH  59  84
ENDBRANCH  33  34
ENDBRANCH  25  28
ENDBRANCH  23  24
ENDBRANCH  22  23
ENDBRANCH   1  22
TORSDOF 17
ENDMDL
MODEL 2
REMARK VINA RESULT:     -11.3      4.803     10.489
REMARK SMILES C/C(C(=O)NCCCCNC(=O)c1ccc(-c2c3nc(c(-c4c(F)cc(S(=O)(=O)[O-])cc4F)c4ccc([nH]4)c(-c4c(F)cc(S(=O)(=O)[O-])cc4F)c4nc(c(-c5c(F)cc(S(=O)(=O)[O-])cc5F)c5ccc2[nH]5)C=C4)C=C3)cc1)=C(\C)C(=O)NCc1cscc1C
REMARK SMILES IDX 7 1 6 2 5 3 3 4 4 5 2 7 1 8 79 9 80 10 81 11 82 12 83 13
REMARK SMILES IDX 84 15 85 16 86 17 89 18 87 19 88 20 90 21 8 22 9 23 10 24
REMARK SMILES IDX 11 25 12 27 13 28 14 29 78 30 15 31 77 32 16 33 17 34 18 35
REMARK SMILES IDX 71 36 19 37 76 38 70 39 72 40 20 41 75 42 69 43 68 44 21 46
REMARK SMILES IDX 55 47 34 48 54 49 35 50 38 51 53 52 73 53 36 54 37 55 52 57
REMARK SMILES IDX 74 58 39 59 22 60 23 61 32 62 24 63 25 64 31 65 33 66 26 67
REMARK SMILES IDX 27 68 28 69 29 70 30 71 56 72 57 73 66 74 58 75 59 76 65 77
REMARK SMILES IDX 67 78 60 79 61 80 62 81 63 82 64 83 40 84 41 85 50 86 42 87
REMARK SMILES IDX 43 88 49 89 51 90 44 91 45 92 46 93 47 94 48 95
REMARK H PARENT 5 6 83 14 10 26 72 45 38 56
REMARK Flexibility Score: inf
ROOT
ATOM      1  C   UNL A   1      34.046  26.663  25.364  1.00  0.00     0.023 C 
ENDROOT
BRANCH   1   2
ATOM      2  C   UNL A   1      32.932  25.611  25.466  1.00  0.00     0.116 C 
BRANCH   2   3
ATOM      3  N   UNL A   1      33.292  24.563  26.402  1.00  0.00    -0.352 N 
ATOM      4  C   UNL A   1      34.192  23.540  26.433  1.00  0.00     0.247 C 
ATOM      5  O   UNL A   1      33.929  22.701  27.289  1.00  0.00    -0.270 OA
ATOM      6  H   UNL A   1      32.748  24.599  27.223  1.00  0.00     0.163 HD
BRANCH   4   7
ATOM      7  C   UNL A   1      35.354  23.396  25.461  1.00  0.00     0.022 C 
ATOM      8  C   UNL A   1      36.730  23.568  26.058  1.00  0.00     0.051 C 
ATOM      9  C   UNL A   1      35.247  23.178  24.109  1.00  0.00     0.022 C 
ATOM     10  C   UNL A   1      36.495  23.006  23.284  1.00  0.00     0.051 C 
BRANCH   9  11
ATOM     11  C   UNL A   1      33.952  23.047  23.320  1.00  0.00     0.247 C 
ATOM     12  O   UNL A   1      33.727  23.669  22.286  1.00  0.00    -0.270 OA
ATOM     13  N   UNL A   1      32.911  22.243  23.651  1.00  0.00    -0.348 N 
ATOM     14  H   UNL A   1      32.152  22.412  23.046  1.00  0.00     0.164 HD
BRANCH  13  15
ATOM     15  C   UNL A   1      32.559  21.216  24.609  1.00  0.00     0.153 C 
BRANCH  15  16
ATOM     16  C   UNL A   1      32.493  19.896  23.893  1.00  0.00    -0.015 A 
ATOM     17  C   UNL A   1      32.298  19.784  22.527  1.00  0.00     0.070 A 
ATOM     18  C   UNL A   1      32.629  18.587  24.503  1.00  0.00    -0.035 A 
ATOM     19  S   UNL A   1      32.284  18.170  21.979  1.00  0.00    -0.152 S 
ATOM     20  C   UNL A   1      32.527  17.581  23.558  1.00  0.00     0.068 A 
ATOM     21  C   UNL A   1      32.841  18.319  25.956  1.00  0.00     0.045 C 
ENDBRANCH  15  16
ENDBRANCH  13  15
ENDBRANCH   9  11
ENDBRANCH   4   7
ENDBRANCH   2   3
ENDBRANCH   1   2
BRANCH   1  22
ATOM     22  C   UNL A   1      33.640  28.089  25.734  1.00  0.00     0.023 C 
BRANCH  22  23
ATOM     23  C   UNL A   1      33.536  28.367  27.225  1.00  0.00     0.116 C 
BRANCH  23  24
ATOM     24  N   UNL A   1      33.429  29.784  27.542  1.00  0.00    -0.352 N 
ATOM     25  C   UNL A   1      34.389  30.609  28.071  1.00  0.00     0.251 C 
ATOM     26  H   UNL A   1      32.558  30.203  27.351  1.00  0.00     0.163 HD
ATOM     27  O   UNL A   1      34.113  31.769  28.370  1.00  0.00    -0.269 OA
BRANCH  25  28
ATOM     28  C   UNL A   1      35.739  30.069  28.317  1.00  0.00     0.039 A 
ATOM     29  C   UNL A   1      36.668  30.082  27.275  1.00  0.00     0.014 A 
ATOM     30  C   UNL A   1      36.099  29.611  29.587  1.00  0.00     0.014 A 
ATOM     31  C   UNL A   1      37.986  29.695  27.526  1.00  0.00     0.010 A 
ATOM     32  C   UNL A   1      37.426  29.294  29.852  1.00  0.00     0.010 A 
ATOM     33  C   UNL A   1      38.381  29.333  28.825  1.00  0.00    -0.014 A 
BRANCH  33  34
ATOM     34  C   UNL A   1      39.792  28.994  29.132  1.00  0.00     0.031 A 
ATOM     35  C   UNL A   1      40.695  30.027  29.745  1.00  0.00     0.074 A 
ATOM     36  C   UNL A   1      40.272  27.782  28.792  1.00  0.00     0.049 A 
ATOM     37  N   UNL A   1      41.970  29.948  30.020  1.00  0.00    -0.248 NA
ATOM     38  C   UNL A   1      40.091  31.331  30.064  1.00  0.00     0.031 C 
ATOM     39  C   UNL A   1      39.503  26.718  28.140  1.00  0.00     0.029 A 
ATOM     40  N   UNL A   1      41.525  27.242  28.936  1.00  0.00    -0.354 N 
ATOM     41  C   UNL A   1      42.325  31.192  30.529  1.00  0.00     0.074 A 
ATOM     42  C   UNL A   1      41.142  32.023  30.476  1.00  0.00     0.031 C 
ATOM     43  C   UNL A   1      40.297  25.649  27.959  1.00  0.00     0.029 A 
ATOM     44  C   UNL A   1      41.635  25.961  28.451  1.00  0.00     0.049 A 
ATOM     45  H   UNL A   1      42.276  27.729  29.348  1.00  0.00     0.167 HD
ATOM     46  C   UNL A   1      43.521  31.596  31.017  1.00  0.00     0.037 A 
ATOM     47  C   UNL A   1      42.698  25.134  28.403  1.00  0.00     0.037 A 
ATOM     48  C   UNL A   1      44.684  30.752  31.092  1.00  0.00     0.049 A 
ATOM     49  C   UNL A   1      44.012  25.601  28.966  1.00  0.00     0.074 A 
ATOM     50  C   UNL A   1      45.927  31.045  31.625  1.00  0.00     0.029 A 
ATOM     51  N   UNL A   1      44.749  29.449  30.621  1.00  0.00    -0.354 N 
ATOM     52  N   UNL A   1      44.313  26.759  29.504  1.00  0.00    -0.248 NA
ATOM     53  C   UNL A   1      45.129  24.647  28.924  1.00  0.00     0.031 C 
ATOM     54  C   UNL A   1      46.753  29.930  31.445  1.00  0.00     0.029 A 
ATOM     55  C   UNL A   1      46.013  28.928  30.838  1.00  0.00     0.049 A 
ATOM     56  H   UNL A   1      44.004  28.966  30.195  1.00  0.00     0.167 HD
ATOM     57  C   UNL A   1      45.646  26.664  29.888  1.00  0.00     0.074 A 
ATOM     58  C   UNL A   1      46.090  25.333  29.530  1.00  0.00     0.031 C 
ATOM     59  C   UNL A   1      46.432  27.595  30.482  1.00  0.00     0.037 A 
BRANCH  46  60
ATOM     60  C   UNL A   1      43.625  33.010  31.518  1.00  0.00     0.058 A 
ATOM     61  C   UNL A   1      43.407  33.329  32.868  1.00  0.00     0.135 A 
ATOM     62  C   UNL A   1      43.972  34.055  30.646  1.00  0.00     0.135 A 
ATOM     63  F   UNL A   1      43.055  32.371  33.741  1.00  0.00    -0.206 F 
ATOM     64  C   UNL A   1      43.498  34.637  33.330  1.00  0.00     0.059 A 
ATOM     65  C   UNL A   1      44.095  35.367  31.093  1.00  0.00     0.059 A 
ATOM     66  F   UNL A   1      44.189  33.806  29.346  1.00  0.00    -0.206 F 
ATOM     67  C   UNL A   1      43.841  35.650  32.434  1.00  0.00     0.060 A 
BRANCH  67  68
ATOM     68  S   UNL A   1      43.960  37.343  33.051  1.00  0.00     0.124 S 
ATOM     69  O   UNL A   1      43.895  38.109  31.810  1.00  0.00    -0.237 OA
ATOM     70  O   UNL A   1      42.791  37.443  33.918  1.00  0.00    -0.237 OA
ATOM     71  O   UNL A   1      45.249  37.366  33.735  1.00  0.00    -0.744 OA
ENDBRANCH  67  68
ENDBRANCH  46  60
BRANCH  47  72
ATOM     72  C   UNL A   1      42.552  23.771  27.826  1.00  0.00     0.058 A 
ATOM     73  C   UNL A   1      42.574  23.571  26.439  1.00  0.00     0.135 A 
ATOM     74  C   UNL A   1      42.404  22.643  28.648  1.00  0.00     0.135 A 
ATOM     75  F   UNL A   1      42.709  24.620  25.612  1.00  0.00    -0.206 F 
ATOM     76  C   UNL A   1      42.437  22.303  25.882  1.00  0.00     0.059 A 
ATOM     77  C   UNL A   1      42.289  21.363  28.116  1.00  0.00     0.059 A 
ATOM     78  F   UNL A   1      42.396  22.780  29.982  1.00  0.00    -0.206 F 
ATOM     79  C   UNL A   1      42.296  21.204  26.730  1.00  0.00     0.060 A 
BRANCH  79  80
ATOM     80  S   UNL A   1      42.167  19.557  25.999  1.00  0.00     0.124 S 
ATOM     81  O   UNL A   1      40.740  19.476  25.712  1.00  0.00    -0.237 OA
ATOM     82  O   UNL A   1      43.047  19.666  24.839  1.00  0.00    -0.237 OA
ATOM     83  O   UNL A   1      42.650  18.681  27.061  1.00  0.00    -0.744 OA
ENDBRANCH  79  80
ENDBRANCH  47  72
BRANCH  59  84
ATOM     84  C   UNL A   1      47.842  27.198  30.816  1.00  0.00     0.058 A 
ATOM     85  C   UNL A   1      48.173  26.628  32.054  1.00  0.00     0.135 A 
ATOM     86  C   UNL A   1      48.864  27.342  29.863  1.00  0.00     0.135 A 
ATOM     87  F   UNL A   1      47.233  26.475  33.000  1.00  0.00    -0.206 F 
ATOM     88  C   UNL A   1      49.474  26.230  32.344  1.00  0.00     0.059 A 
ATOM     89  C   UNL A   1      50.166  26.927  30.122  1.00  0.00     0.059 A 
ATOM     90  F   UNL A   1      48.597  27.873  28.659  1.00  0.00    -0.206 F 
ATOM     91  C   UNL A   1      50.464  26.383  31.370  1.00  0.00     0.060 A 
BRANCH  91  92
ATOM     92  S   UNL A   1      52.140  25.829  31.745  1.00  0.00     0.124 S 
ATOM     93  O   UNL A   1      52.851  26.194  30.525  1.00  0.00    -0.237 OA
ATOM     94  O   UNL A   1      52.472  26.613  32.931  1.00  0.00    -0.237 OA
ATOM     95  O   UNL A   1      51.980  24.395  31.974  1.00  0.00    -0.744 OA
ENDBRANCH  91  92
ENDBRANCH  59  84
ENDBRANCH  33  34
ENDBRANCH  25  28
ENDBRANCH  23  24
ENDBRANCH  22  23
ENDBRANCH   1  22
TORSDOF 17
ENDMDL
MODEL 3
REMARK VINA RESULT:     -11.3      5.098     10.591
REMARK SMILES C/C(C(=O)NCCCCNC(=O)c1ccc(-c2c3nc(c(-c4c(F)cc(S(=O)(=O)[O-])cc4F)c4ccc([nH]4)c(-c4c(F)cc(S(=O)(=O)[O-])cc4F)c4nc(c(-c5c(F)cc(S(=O)(=O)[O-])cc5F)c5ccc2[nH]5)C=C4)C=C3)cc1)=C(\C)C(=O)NCc1cscc1C
REMARK SMILES IDX 7 1 6 2 5 3 3 4 4 5 2 7 1 8 79 9 80 10 81 11 82 12 83 13
REMARK SMILES IDX 84 15 85 16 86 17 89 18 87 19 88 20 90 21 8 22 9 23 10 24
REMARK SMILES IDX 11 25 12 27 13 28 14 29 78 30 15 31 77 32 16 33 17 34 18 35
REMARK SMILES IDX 71 36 19 37 76 38 70 39 72 40 20 41 75 42 69 43 68 44 21 46
REMARK SMILES IDX 55 47 34 48 54 49 35 50 38 51 53 52 73 53 36 54 37 55 52 57
REMARK SMILES IDX 74 58 39 59 22 60 23 61 32 62 24 63 25 64 31 65 33 66 26 67
REMARK SMILES IDX 27 68 28 69 29 70 30 71 56 72 57 73 66 74 58 75 59 76 65 77
REMARK SMILES IDX 67 78 60 79 61 80 62 81 63 82 64 83 40 84 41 85 50 86 42 87
REMARK SMILES IDX 43 88 49 89 51 90 44 91 45 92 46 93 47 94 48 95
REMARK H PARENT 5 6 83 14 10 26 72 45 38 56
REMARK Flexibility Score: inf
ROOT
ATOM      1  C   UNL A   1      32.419  29.785  25.411  1.00  0.00     0.023 C 
ENDROOT
BRANCH   1   2
ATOM      2  C   UNL A   1      31.149  28.929  25.284  1.00  0.00     0.116 C 
BRANCH   2   3
ATOM      3  N   UNL A   1      30.650  28.939  23.922  1.00  0.00    -0.352 N 
ATOM      4  C   UNL A   1      30.305  28.001  22.995  1.00  0.00     0.247 C 
ATOM      5  O   UNL A   1      30.239  28.459  21.858  1.00  0.00    -0.270 OA
ATOM      6  H   UNL A   1      30.530  29.855  23.581  1.00  0.00     0.163 HD
BRANCH   4   7
ATOM      7  C   UNL A   1      30.105  26.526  23.307  1.00  0.00     0.022 C 
ATOM      8  C   UNL A   1      28.885  26.192  24.132  1.00  0.00     0.051 C 
ATOM      9  C   UNL A   1      30.953  25.507  22.947  1.00  0.00     0.022 C 
ATOM     10  C   UNL A   1      30.591  24.085  23.286  1.00  0.00     0.051 C 
BRANCH   9  11
ATOM     11  C   UNL A   1      32.259  25.655  22.179  1.00  0.00     0.247 C 
ATOM     12  O   UNL A   1      32.346  25.504  20.964  1.00  0.00    -0.270 OA
ATOM     13  N   UNL A   1      33.459  25.969  22.726  1.00  0.00    -0.348 N 
ATOM     14  H   UNL A   1      34.166  25.903  22.044  1.00  0.00     0.164 HD
BRANCH  13  15
ATOM     15  C   UNL A   1      34.033  26.371  23.994  1.00  0.00     0.153 C 
BRANCH  15  16
ATOM     16  C   UNL A   1      34.129  25.162  24.881  1.00  0.00    -0.015 A 
ATOM     17  C   UNL A   1      35.122  24.205  24.753  1.00  0.00     0.070 A 
ATOM     18  C   UNL A   1      33.234  24.833  25.973  1.00  0.00    -0.035 A 
ATOM     19  S   UNL A   1      35.001  22.952  25.902  1.00  0.00    -0.152 S 
ATOM     20  C   UNL A   1      33.611  23.654  26.592  1.00  0.00     0.068 A 
ATOM     21  C   UNL A   1      32.044  25.629  26.398  1.00  0.00     0.045 C 
ENDBRANCH  15  16
ENDBRANCH  13  15
ENDBRANCH   9  11
ENDBRANCH   4   7
ENDBRANCH   2   3
ENDBRANCH   1   2
BRANCH   1  22
ATOM     22  C   UNL A   1      33.692  29.023  25.775  1.00  0.00     0.023 C 
BRANCH  22  23
ATOM     23  C   UNL A   1      33.985  28.920  27.263  1.00  0.00     0.116 C 
BRANCH  23  24
ATOM     24  N   UNL A   1      33.825  30.183  27.970  1.00  0.00    -0.352 N 
ATOM     25  C   UNL A   1      34.746  30.843  28.744  1.00  0.00     0.251 C 
ATOM     26  H   UNL A   1      32.945  30.617  27.882  1.00  0.00     0.163 HD
ATOM     27  O   UNL A   1      34.426  31.860  29.355  1.00  0.00    -0.269 OA
BRANCH  25  28
ATOM     28  C   UNL A   1      36.107  30.289  28.865  1.00  0.00     0.039 A 
ATOM     29  C   UNL A   1      36.977  30.399  27.780  1.00  0.00     0.014 A 
ATOM     30  C   UNL A   1      36.536  29.720  30.068  1.00  0.00     0.014 A 
ATOM     31  C   UNL A   1      38.306  29.996  27.922  1.00  0.00     0.010 A 
ATOM     32  C   UNL A   1      37.875  29.385  30.229  1.00  0.00     0.010 A 
ATOM     33  C   UNL A   1      38.772  29.521  29.159  1.00  0.00    -0.014 A 
BRANCH  33  34
ATOM     34  C   UNL A   1      40.198  29.161  29.356  1.00  0.00     0.031 A 
ATOM     35  C   UNL A   1      41.158  30.178  29.905  1.00  0.00     0.074 A 
ATOM     36  C   UNL A   1      40.633  27.945  28.973  1.00  0.00     0.049 A 
ATOM     37  N   UNL A   1      42.449  30.081  30.082  1.00  0.00    -0.248 NA
ATOM     38  C   UNL A   1      40.598  31.487  30.277  1.00  0.00     0.031 C 
ATOM     39  C   UNL A   1      39.804  26.896  28.375  1.00  0.00     0.029 A 
ATOM     40  N   UNL A   1      41.887  27.388  29.019  1.00  0.00    -0.354 N 
ATOM     41  C   UNL A   1      42.858  31.316  30.570  1.00  0.00     0.074 A 
ATOM     42  C   UNL A   1      41.686  32.163  30.612  1.00  0.00     0.031 C 
ATOM     43  C   UNL A   1      40.567  25.818  28.128  1.00  0.00     0.029 A 
ATOM     44  C   UNL A   1      41.942  26.109  28.519  1.00  0.00     0.049 A 
ATOM     45  H   UNL A   1      42.673  27.862  29.375  1.00  0.00     0.167 HD
ATOM     46  C   UNL A   1      44.093  31.701  30.969  1.00  0.00     0.037 A 
ATOM     47  C   UNL A   1      42.987  25.269  28.385  1.00  0.00     0.037 A 
ATOM     48  C   UNL A   1      45.247  30.841  30.950  1.00  0.00     0.049 A 
ATOM     49  C   UNL A   1      44.347  25.714  28.850  1.00  0.00     0.074 A 
ATOM     50  C   UNL A   1      46.531  31.114  31.389  1.00  0.00     0.029 A 
ATOM     51  N   UNL A   1      45.258  29.541  30.468  1.00  0.00    -0.354 N 
ATOM     52  N   UNL A   1      44.703  26.864  29.371  1.00  0.00    -0.248 NA
ATOM     53  C   UNL A   1      45.444  24.747  28.717  1.00  0.00     0.031 C 
ATOM     54  C   UNL A   1      47.326  29.990  31.140  1.00  0.00     0.029 A 
ATOM     55  C   UNL A   1      46.528  29.002  30.585  1.00  0.00     0.049 A 
ATOM     56  H   UNL A   1      44.477  29.070  30.097  1.00  0.00     0.167 HD
ATOM     57  C   UNL A   1      46.060  26.750  29.652  1.00  0.00     0.074 A 
ATOM     58  C   UNL A   1      46.457  25.416  29.253  1.00  0.00     0.031 C 
ATOM     59  C   UNL A   1      46.901  27.666  30.190  1.00  0.00     0.037 A 
BRANCH  46  60
ATOM     60  C   UNL A   1      44.255  33.110  31.469  1.00  0.00     0.058 A 
ATOM     61  C   UNL A   1      44.606  34.160  30.605  1.00  0.00     0.135 A 
ATOM     62  C   UNL A   1      44.031  33.420  32.821  1.00  0.00     0.135 A 
ATOM     63  F   UNL A   1      44.848  33.916  29.307  1.00  0.00    -0.206 F 
ATOM     64  C   UNL A   1      44.760  35.462  31.069  1.00  0.00     0.059 A 
ATOM     65  C   UNL A   1      44.153  34.721  33.300  1.00  0.00     0.059 A 
ATOM     66  F   UNL A   1      43.696  32.454  33.689  1.00  0.00    -0.206 F 
ATOM     67  C   UNL A   1      44.533  35.732  32.419  1.00  0.00     0.060 A 
BRANCH  67  68
ATOM     68  S   UNL A   1      44.733  37.428  33.004  1.00  0.00     0.124 S 
ATOM     69  O   UNL A   1      46.153  37.452  33.344  1.00  0.00    -0.237 OA
ATOM     70  O   UNL A   1      44.350  38.211  31.834  1.00  0.00    -0.237 OA
ATOM     71  O   UNL A   1      43.816  37.508  34.137  1.00  0.00    -0.744 OA
ENDBRANCH  67  68
ENDBRANCH  46  60
BRANCH  47  72
ATOM     72  C   UNL A   1      42.780  23.912  27.813  1.00  0.00     0.058 A 
ATOM     73  C   UNL A   1      42.629  22.796  28.648  1.00  0.00     0.135 A 
ATOM     74  C   UNL A   1      42.715  23.705  26.427  1.00  0.00     0.135 A 
ATOM     75  F   UNL A   1      42.689  22.942  29.981  1.00  0.00    -0.206 F 
ATOM     76  C   UNL A   1      42.438  21.518  28.131  1.00  0.00     0.059 A 
ATOM     77  C   UNL A   1      42.501  22.442  25.886  1.00  0.00     0.059 A 
ATOM     78  F   UNL A   1      42.835  24.744  25.586  1.00  0.00    -0.206 F 
ATOM     79  C   UNL A   1      42.374  21.352  26.747  1.00  0.00     0.060 A 
BRANCH  79  80
ATOM     80  S   UNL A   1      42.078  19.697  26.087  1.00  0.00     0.124 S 
ATOM     81  O   UNL A   1      43.045  19.638  24.997  1.00  0.00    -0.237 OA
ATOM     82  O   UNL A   1      42.364  18.850  27.241  1.00  0.00    -0.237 OA
ATOM     83  O   UNL A   1      40.675  19.743  25.686  1.00  0.00    -0.744 OA
ENDBRANCH  79  80
ENDBRANCH  47  72
BRANCH  59  84
ATOM     84  C   UNL A   1      48.327  27.249  30.414  1.00  0.00     0.058 A 
ATOM     85  C   UNL A   1      49.336  27.555  29.490  1.00  0.00     0.135 A 
ATOM     86  C   UNL A   1      48.694  26.580  31.593  1.00  0.00     0.135 A 
ATOM     87  F   UNL A   1      49.036  28.187  28.344  1.00  0.00    -0.206 F 
ATOM     88  C   UNL A   1      50.661  27.196  29.718  1.00  0.00     0.059 A 
ATOM     89  C   UNL A   1      50.016  26.234  31.853  1.00  0.00     0.059 A 
ATOM     90  F   UNL A   1      47.766  26.272  32.513  1.00  0.00    -0.206 F 
ATOM     91  C   UNL A   1      50.991  26.537  30.905  1.00  0.00     0.060 A 
BRANCH  91  92
ATOM     92  S   UNL A   1      52.719  26.110  31.206  1.00  0.00     0.124 S 
ATOM     93  O   UNL A   1      53.188  27.280  31.940  1.00  0.00    -0.237 OA
ATOM     94  O   UNL A   1      52.606  24.878  31.982  1.00  0.00    -0.237 OA
ATOM     95  O   UNL A   1      53.268  25.949  29.863  1.00  0.00    -0.744 OA
ENDBRANCH  91  92
ENDBRANCH  59  84
ENDBRANCH  33  34
ENDBRANCH  25  28
ENDBRANCH  23  24
ENDBRANCH  22  23
ENDBRANCH   1  22
TORSDOF 17
ENDMDL
