MODEL 1
REMARK VINA RESULT:     -11.3      0.000      0.000
REMARK SMILES CC(C)Cc1ccc([C@H](CC[C@@H](C)O)C(=O)NCCCCNC(=O)c2ccc(-c3c4nc(c(-c5c(F)cc(S(=O)(=O)[O-])cc5F)c5ccc([nH]5)c(-c5c(F)cc(S(=O)(=O)[O-])cc5F)c5nc(c(-c6c(F)cc(S(=O)(=O)[O-])cc6F)c6ccc3[nH]6)C=C5)C=C4)cc2)cc1
REMARK SMILES IDX 19 1 18 2 17 3 15 4 16 5 9 7 8 8 5 9 6 10 92 11 7 12 91 13
REMARK SMILES IDX 4 14 2 15 1 16 3 17 10 18 11 19 12 20 13 21 14 22 20 24
REMARK SMILES IDX 21 25 22 26 23 27 24 29 25 30 26 31 90 32 27 33 89 34 28 35
REMARK SMILES IDX 29 36 30 37 83 38 31 39 88 40 82 41 84 42 32 43 87 44 81 45
REMARK SMILES IDX 80 46 33 48 67 49 46 50 66 51 47 52 50 53 65 54 85 55 48 56
REMARK SMILES IDX 49 57 64 59 86 60 51 61 34 62 35 63 44 64 36 65 37 66 43 67
REMARK SMILES IDX 45 68 38 69 39 70 40 71 41 72 42 73 68 74 69 75 78 76 70 77
REMARK SMILES IDX 71 78 77 79 79 80 72 81 73 82 74 83 75 84 76 85 52 86 53 87
REMARK SMILES IDX 62 88 54 89 55 90 61 91 63 92 56 93 57 94 58 95 59 96 60 97
REMARK H PARENT 17 6 14 23 22 28 84 47 50 58
REMARK Flexibility Score: inf
ROOT
ATOM      1  C   UNL A   1      37.812  22.160  25.586  1.00  0.00     0.023 C 
ENDROOT
BRANCH   1   2
ATOM      2  C   UNL A   1      36.668  21.253  25.144  1.00  0.00     0.116 C 
BRANCH   2   3
ATOM      3  N   UNL A   1      35.552  21.238  26.073  1.00  0.00    -0.356 N 
ATOM      4  C   UNL A   1      34.208  21.149  25.849  1.00  0.00     0.227 C 
ATOM      5  O   UNL A   1      33.472  21.047  26.835  1.00  0.00    -0.274 OA
ATOM      6  H   UNL A   1      35.808  21.304  27.022  1.00  0.00     0.163 HD
BRANCH   4   7
ATOM      7  C   UNL A   1      33.612  21.171  24.428  1.00  0.00     0.108 C 
BRANCH   7   8
ATOM      8  C   UNL A   1      33.347  22.627  24.016  1.00  0.00    -0.036 A 
ATOM      9  C   UNL A   1      33.263  25.441  23.691  1.00  0.00    -0.048 A 
ATOM     10  C   UNL A   1      34.303  24.692  23.131  1.00  0.00     0.004 A 
ATOM     11  C   UNL A   1      32.197  24.756  24.287  1.00  0.00     0.004 A 
ATOM     12  C   UNL A   1      34.340  23.304  23.284  1.00  0.00     0.005 A 
ATOM     13  C   UNL A   1      32.233  23.366  24.441  1.00  0.00     0.005 A 
BRANCH   9  14
ATOM     14  C   UNL A   1      33.310  26.952  23.653  1.00  0.00     0.038 C 
BRANCH  14  15
ATOM     15  C   UNL A   1      32.851  27.651  24.956  1.00  0.00    -0.013 C 
ATOM     16  C   UNL A   1      33.790  27.370  26.133  1.00  0.00     0.008 C 
ATOM     17  C   UNL A   1      32.751  29.162  24.730  1.00  0.00     0.008 C 
ENDBRANCH  14  15
ENDBRANCH   9  14
ENDBRANCH   7   8
BRANCH   7  18
ATOM     18  C   UNL A   1      32.433  20.177  24.309  1.00  0.00     0.021 C 
BRANCH  18  19
ATOM     19  C   UNL A   1      32.778  18.677  24.361  1.00  0.00     0.032 C 
BRANCH  19  20
ATOM     20  C   UNL A   1      33.113  17.919  23.070  1.00  0.00     0.111 C 
ATOM     21  C   UNL A   1      33.852  16.604  23.263  1.00  0.00     0.038 C 
BRANCH  20  22
ATOM     22  O   UNL A   1      31.868  17.633  22.417  1.00  0.00    -0.393 OA
ATOM     23  H   UNL A   1      31.215  18.308  22.657  1.00  0.00     0.210 HD
ENDBRANCH  20  22
ENDBRANCH  19  20
ENDBRANCH  18  19
ENDBRANCH   7  18
ENDBRANCH   4   7
ENDBRANCH   2   3
ENDBRANCH   1   2
BRANCH   1  24
ATOM     24  C   UNL A   1      37.389  23.577  25.959  1.00  0.00     0.023 C 
BRANCH  24  25
ATOM     25  C   UNL A   1      38.447  24.366  26.716  1.00  0.00     0.116 C 
BRANCH  25  26
ATOM     26  N   UNL A   1      39.762  24.267  26.097  1.00  0.00    -0.352 N 
ATOM     27  C   UNL A   1      40.893  25.000  26.359  1.00  0.00     0.251 C 
ATOM     28  H   UNL A   1      39.852  23.582  25.396  1.00  0.00     0.163 HD
ATOM     29  O   UNL A   1      41.871  24.911  25.626  1.00  0.00    -0.269 OA
BRANCH  27  30
ATOM     30  C   UNL A   1      40.903  25.911  27.521  1.00  0.00     0.039 A 
ATOM     31  C   UNL A   1      41.814  26.968  27.548  1.00  0.00     0.014 A 
ATOM     32  C   UNL A   1      39.985  25.737  28.561  1.00  0.00     0.014 A 
ATOM     33  C   UNL A   1      41.763  27.890  28.593  1.00  0.00     0.010 A 
ATOM     34  C   UNL A   1      39.884  26.700  29.556  1.00  0.00     0.010 A 
ATOM     35  C   UNL A   1      40.775  27.783  29.586  1.00  0.00    -0.014 A 
BRANCH  35  36
ATOM     36  C   UNL A   1      40.656  28.787  30.671  1.00  0.00     0.031 A 
ATOM     37  C   UNL A   1      41.533  28.680  31.889  1.00  0.00     0.074 A 
ATOM     38  C   UNL A   1      39.712  29.745  30.593  1.00  0.00     0.049 A 
ATOM     39  N   UNL A   1      41.523  29.401  32.979  1.00  0.00    -0.248 NA
ATOM     40  C   UNL A   1      42.531  27.598  31.894  1.00  0.00     0.031 C 
ATOM     41  C   UNL A   1      38.769  29.917  29.485  1.00  0.00     0.029 A 
ATOM     42  N   UNL A   1      39.379  30.749  31.467  1.00  0.00    -0.354 N 
ATOM     43  C   UNL A   1      42.498  28.852  33.804  1.00  0.00     0.074 A 
ATOM     44  C   UNL A   1      43.041  27.704  33.112  1.00  0.00     0.031 C 
ATOM     45  C   UNL A   1      37.980  30.974  29.736  1.00  0.00     0.029 A 
ATOM     46  C   UNL A   1      38.333  31.531  31.039  1.00  0.00     0.049 A 
ATOM     47  H   UNL A   1      39.845  30.895  32.322  1.00  0.00     0.167 HD
ATOM     48  C   UNL A   1      42.918  29.281  35.017  1.00  0.00     0.037 A 
ATOM     49  C   UNL A   1      37.722  32.575  31.632  1.00  0.00     0.037 A 
ATOM     50  C   UNL A   1      42.392  30.442  35.684  1.00  0.00     0.049 A 
ATOM     51  C   UNL A   1      38.211  33.037  32.977  1.00  0.00     0.074 A 
ATOM     52  C   UNL A   1      42.790  30.998  36.887  1.00  0.00     0.029 A 
ATOM     53  N   UNL A   1      41.351  31.226  35.206  1.00  0.00    -0.354 N 
ATOM     54  N   UNL A   1      39.178  32.545  33.716  1.00  0.00    -0.248 NA
ATOM     55  C   UNL A   1      37.532  34.198  33.570  1.00  0.00     0.031 C 
ATOM     56  C   UNL A   1      41.963  32.095  37.155  1.00  0.00     0.029 A 
ATOM     57  C   UNL A   1      41.081  32.251  36.097  1.00  0.00     0.049 A 
ATOM     58  H   UNL A   1      40.875  31.076  34.357  1.00  0.00     0.167 HD
ATOM     59  C   UNL A   1      39.241  33.353  34.847  1.00  0.00     0.074 A 
ATOM     60  C   UNL A   1      38.222  34.371  34.689  1.00  0.00     0.031 C 
ATOM     61  C   UNL A   1      40.068  33.260  35.917  1.00  0.00     0.037 A 
BRANCH  48  62
ATOM     62  C   UNL A   1      44.007  28.495  35.695  1.00  0.00     0.058 A 
ATOM     63  C   UNL A   1      45.365  28.774  35.470  1.00  0.00     0.135 A 
ATOM     64  C   UNL A   1      43.692  27.471  36.602  1.00  0.00     0.135 A 
ATOM     65  F   UNL A   1      45.724  29.732  34.601  1.00  0.00    -0.206 F 
ATOM     66  C   UNL A   1      46.371  28.044  36.094  1.00  0.00     0.059 A 
ATOM     67  C   UNL A   1      44.682  26.747  37.260  1.00  0.00     0.059 A 
ATOM     68  F   UNL A   1      42.411  27.161  36.853  1.00  0.00    -0.206 F 
ATOM     69  C   UNL A   1      46.019  27.030  36.987  1.00  0.00     0.060 A 
BRANCH  69  70
ATOM     70  S   UNL A   1      47.337  26.095  37.791  1.00  0.00     0.124 S 
ATOM     71  O   UNL A   1      48.527  26.758  37.264  1.00  0.00    -0.237 OA
ATOM     72  O   UNL A   1      47.063  26.323  39.207  1.00  0.00    -0.237 OA
ATOM     73  O   UNL A   1      47.120  24.730  37.324  1.00  0.00    -0.744 OA
ENDBRANCH  69  70
ENDBRANCH  48  62
BRANCH  49  74
ATOM     74  C   UNL A   1      36.599  33.268  30.946  1.00  0.00     0.058 A 
ATOM     75  C   UNL A   1      36.832  34.082  29.827  1.00  0.00     0.135 A 
ATOM     76  C   UNL A   1      35.273  33.120  31.381  1.00  0.00     0.135 A 
ATOM     77  F   UNL A   1      38.083  34.259  29.376  1.00  0.00    -0.206 F 
ATOM     78  C   UNL A   1      35.794  34.737  29.173  1.00  0.00     0.059 A 
ATOM     79  C   UNL A   1      34.215  33.744  30.728  1.00  0.00     0.059 A 
ATOM     80  F   UNL A   1      34.995  32.338  32.435  1.00  0.00    -0.206 F 
ATOM     81  C   UNL A   1      34.487  34.560  29.630  1.00  0.00     0.060 A 
BRANCH  81  82
ATOM     82  S   UNL A   1      33.142  35.376  28.743  1.00  0.00     0.124 S 
ATOM     83  O   UNL A   1      33.868  36.353  27.942  1.00  0.00    -0.237 OA
ATOM     84  O   UNL A   1      32.541  34.266  28.010  1.00  0.00    -0.237 OA
ATOM     85  O   UNL A   1      32.319  35.925  29.817  1.00  0.00    -0.744 OA
ENDBRANCH  81  82
ENDBRANCH  49  74
BRANCH  61  86
ATOM     86  C   UNL A   1      39.931  34.305  36.989  1.00  0.00     0.058 A 
ATOM     87  C   UNL A   1      40.651  35.509  36.943  1.00  0.00     0.135 A 
ATOM     88  C   UNL A   1      39.022  34.122  38.044  1.00  0.00     0.135 A 
ATOM     89  F   UNL A   1      41.536  35.729  35.959  1.00  0.00    -0.206 F 
ATOM     90  C   UNL A   1      40.488  36.489  37.917  1.00  0.00     0.059 A 
ATOM     91  C   UNL A   1      38.824  35.100  39.014  1.00  0.00     0.059 A 
ATOM     92  F   UNL A   1      38.302  32.993  38.129  1.00  0.00    -0.206 F 
ATOM     93  C   UNL A   1      39.571  36.276  38.948  1.00  0.00     0.060 A 
BRANCH  93  94
ATOM     94  S   UNL A   1      39.339  37.572  40.182  1.00  0.00     0.124 S 
ATOM     95  O   UNL A   1      38.995  36.792  41.366  1.00  0.00    -0.237 OA
ATOM     96  O   UNL A   1      40.647  38.219  40.207  1.00  0.00    -0.237 OA
ATOM     97  O   UNL A   1      38.258  38.381  39.627  1.00  0.00    -0.744 OA
ENDBRANCH  93  94
ENDBRANCH  61  86
ENDBRANCH  35  36
ENDBRANCH  27  30
ENDBRANCH  25  26
ENDBRANCH  24  25
ENDBRANCH   1  24
TORSDOF 21
ENDMDL
MODEL 2
REMARK VINA RESULT:     -11.0      6.673     12.236
REMARK SMILES CC(C)Cc1ccc([C@H](CC[C@@H](C)O)C(=O)NCCCCNC(=O)c2ccc(-c3c4nc(c(-c5c(F)cc(S(=O)(=O)[O-])cc5F)c5ccc([nH]5)c(-c5c(F)cc(S(=O)(=O)[O-])cc5F)c5nc(c(-c6c(F)cc(S(=O)(=O)[O-])cc6F)c6ccc3[nH]6)C=C5)C=C4)cc2)cc1
REMARK SMILES IDX 19 1 18 2 17 3 15 4 16 5 9 7 8 8 5 9 6 10 92 11 7 12 91 13
REMARK SMILES IDX 4 14 2 15 1 16 3 17 10 18 11 19 12 20 13 21 14 22 20 24
REMARK SMILES IDX 21 25 22 26 23 27 24 29 25 30 26 31 90 32 27 33 89 34 28 35
REMARK SMILES IDX 29 36 30 37 83 38 31 39 88 40 82 41 84 42 32 43 87 44 81 45
REMARK SMILES IDX 80 46 33 48 67 49 46 50 66 51 47 52 50 53 65 54 85 55 48 56
REMARK SMILES IDX 49 57 64 59 86 60 51 61 34 62 35 63 44 64 36 65 37 66 43 67
REMARK SMILES IDX 45 68 38 69 39 70 40 71 41 72 42 73 68 74 69 75 78 76 70 77
REMARK SMILES IDX 71 78 77 79 79 80 72 81 73 82 74 83 75 84 76 85 52 86 53 87
REMARK SMILES IDX 62 88 54 89 55 90 61 91 63 92 56 93 57 94 58 95 59 96 60 97
REMARK H PARENT 17 6 14 23 22 28 84 47 50 58
REMARK Flexibility Score: inf
ROOT
ATOM      1  C   UNL A   1      33.227  28.418  27.241  1.00  0.00     0.023 C 
ENDROOT
BRANCH   1   2
ATOM      2  C   UNL A   1      31.897  28.419  26.494  1.00  0.00     0.116 C 
BRANCH   2   3
ATOM      3  N   UNL A   1      31.071  27.261  26.785  1.00  0.00    -0.356 N 
ATOM      4  C   UNL A   1      30.481  26.356  25.949  1.00  0.00     0.227 C 
ATOM      5  O   UNL A   1      29.914  25.389  26.466  1.00  0.00    -0.274 OA
ATOM      6  H   UNL A   1      30.909  27.102  27.743  1.00  0.00     0.163 HD
BRANCH   4   7
ATOM      7  C   UNL A   1      30.512  26.516  24.417  1.00  0.00     0.108 C 
BRANCH   7   8
ATOM      8  C   UNL A   1      31.739  25.775  23.859  1.00  0.00    -0.036 A 
ATOM      9  C   UNL A   1      33.865  24.001  23.260  1.00  0.00    -0.048 A 
ATOM     10  C   UNL A   1      32.571  23.741  22.798  1.00  0.00     0.004 A 
ATOM     11  C   UNL A   1      34.110  25.224  23.896  1.00  0.00     0.004 A 
ATOM     12  C   UNL A   1      31.524  24.620  23.086  1.00  0.00     0.005 A 
ATOM     13  C   UNL A   1      33.062  26.105  24.186  1.00  0.00     0.005 A 
BRANCH   9  14
ATOM     14  C   UNL A   1      34.959  22.973  23.076  1.00  0.00     0.038 C 
BRANCH  14  15
ATOM     15  C   UNL A   1      35.612  22.475  24.387  1.00  0.00    -0.013 C 
ATOM     16  C   UNL A   1      34.850  21.305  25.016  1.00  0.00     0.008 C 
ATOM     17  C   UNL A   1      37.062  22.060  24.123  1.00  0.00     0.008 C 
ENDBRANCH  14  15
ENDBRANCH   9  14
ENDBRANCH   7   8
BRANCH   7  18
ATOM     18  C   UNL A   1      30.338  27.998  24.012  1.00  0.00     0.021 C 
BRANCH  18  19
ATOM     19  C   UNL A   1      29.731  28.274  22.624  1.00  0.00     0.032 C 
BRANCH  19  20
ATOM     20  C   UNL A   1      29.541  29.717  22.140  1.00  0.00     0.111 C 
ATOM     21  C   UNL A   1      29.143  30.715  23.216  1.00  0.00     0.038 C 
BRANCH  20  22
ATOM     22  O   UNL A   1      30.795  30.143  21.589  1.00  0.00    -0.393 OA
ATOM     23  H   UNL A   1      31.491  29.522  21.851  1.00  0.00     0.210 HD
ENDBRANCH  20  22
ENDBRANCH  19  20
ENDBRANCH  18  19
ENDBRANCH   7  18
ENDBRANCH   4   7
ENDBRANCH   2   3
ENDBRANCH   1   2
BRANCH   1  24
ATOM     24  C   UNL A   1      33.921  29.775  27.302  1.00  0.00     0.023 C 
BRANCH  24  25
ATOM     25  C   UNL A   1      35.309  29.740  27.924  1.00  0.00     0.116 C 
BRANCH  25  26
ATOM     26  N   UNL A   1      35.390  30.525  29.148  1.00  0.00    -0.352 N 
ATOM     27  C   UNL A   1      36.442  30.652  30.020  1.00  0.00     0.251 C 
ATOM     28  H   UNL A   1      34.579  31.032  29.383  1.00  0.00     0.163 HD
ATOM     29  O   UNL A   1      36.287  31.213  31.099  1.00  0.00    -0.269 OA
BRANCH  27  30
ATOM     30  C   UNL A   1      37.753  30.083  29.649  1.00  0.00     0.039 A 
ATOM     31  C   UNL A   1      38.142  30.091  28.308  1.00  0.00     0.014 A 
ATOM     32  C   UNL A   1      38.607  29.579  30.634  1.00  0.00     0.014 A 
ATOM     33  C   UNL A   1      39.418  29.647  27.963  1.00  0.00     0.010 A 
ATOM     34  C   UNL A   1      39.904  29.214  30.298  1.00  0.00     0.010 A 
ATOM     35  C   UNL A   1      40.321  29.239  28.958  1.00  0.00    -0.014 A 
BRANCH  35  36
ATOM     36  C   UNL A   1      41.707  28.826  28.626  1.00  0.00     0.031 A 
ATOM     37  C   UNL A   1      42.805  29.854  28.594  1.00  0.00     0.074 A 
ATOM     38  C   UNL A   1      41.958  27.548  28.282  1.00  0.00     0.049 A 
ATOM     39  N   UNL A   1      44.056  29.713  28.244  1.00  0.00    -0.248 NA
ATOM     40  C   UNL A   1      42.439  31.228  28.977  1.00  0.00     0.031 C 
ATOM     41  C   UNL A   1      40.962  26.475  28.225  1.00  0.00     0.029 A 
ATOM     42  N   UNL A   1      43.125  26.936  27.901  1.00  0.00    -0.354 N 
ATOM     43  C   UNL A   1      44.622  30.979  28.348  1.00  0.00     0.074 A 
ATOM     44  C   UNL A   1      43.565  31.885  28.739  1.00  0.00     0.031 C 
ATOM     45  C   UNL A   1      41.565  25.334  27.854  1.00  0.00     0.029 A 
ATOM     46  C   UNL A   1      42.979  25.601  27.609  1.00  0.00     0.049 A 
ATOM     47  H   UNL A   1      43.987  27.409  27.843  1.00  0.00     0.167 HD
ATOM     48  C   UNL A   1      45.911  31.347  28.158  1.00  0.00     0.037 A 
ATOM     49  C   UNL A   1      43.882  24.696  27.183  1.00  0.00     0.037 A 
ATOM     50  C   UNL A   1      46.962  30.432  27.797  1.00  0.00     0.049 A 
ATOM     51  C   UNL A   1      45.309  25.127  26.984  1.00  0.00     0.074 A 
ATOM     52  C   UNL A   1      48.311  30.692  27.640  1.00  0.00     0.029 A 
ATOM     53  N   UNL A   1      46.780  29.081  27.536  1.00  0.00    -0.354 N 
ATOM     54  N   UNL A   1      45.840  26.316  27.149  1.00  0.00    -0.248 NA
ATOM     55  C   UNL A   1      46.261  24.097  26.548  1.00  0.00     0.031 C 
ATOM     56  C   UNL A   1      48.940  29.505  27.244  1.00  0.00     0.029 A 
ATOM     57  C   UNL A   1      47.990  28.497  27.203  1.00  0.00     0.049 A 
ATOM     58  H   UNL A   1      45.918  28.608  27.583  1.00  0.00     0.167 HD
ATOM     59  C   UNL A   1      47.194  26.170  26.862  1.00  0.00     0.074 A 
ATOM     60  C   UNL A   1      47.401  24.776  26.525  1.00  0.00     0.031 C 
ATOM     61  C   UNL A   1      48.176  27.105  26.879  1.00  0.00     0.037 A 
BRANCH  48  62
ATOM     62  C   UNL A   1      46.255  32.799  28.346  1.00  0.00     0.058 A 
ATOM     63  C   UNL A   1      46.160  33.721  27.292  1.00  0.00     0.135 A 
ATOM     64  C   UNL A   1      46.658  33.282  29.602  1.00  0.00     0.135 A 
ATOM     65  F   UNL A   1      45.795  33.312  26.066  1.00  0.00    -0.206 F 
ATOM     66  C   UNL A   1      46.481  35.063  27.466  1.00  0.00     0.059 A 
ATOM     67  C   UNL A   1      46.957  34.627  29.807  1.00  0.00     0.059 A 
ATOM     68  F   UNL A   1      46.768  32.445  30.644  1.00  0.00    -0.206 F 
ATOM     69  C   UNL A   1      46.881  35.506  28.728  1.00  0.00     0.060 A 
BRANCH  69  70
ATOM     70  S   UNL A   1      47.292  37.251  28.937  1.00  0.00     0.124 S 
ATOM     71  O   UNL A   1      48.730  37.243  28.683  1.00  0.00    -0.237 OA
ATOM     72  O   UNL A   1      46.473  37.891  27.912  1.00  0.00    -0.237 OA
ATOM     73  O   UNL A   1      46.900  37.530  30.315  1.00  0.00    -0.744 OA
ENDBRANCH  69  70
ENDBRANCH  48  62
BRANCH  49  74
ATOM     74  C   UNL A   1      43.467  23.288  26.942  1.00  0.00     0.058 A 
ATOM     75  C   UNL A   1      43.186  22.426  28.012  1.00  0.00     0.135 A 
ATOM     76  C   UNL A   1      43.325  22.780  25.641  1.00  0.00     0.135 A 
ATOM     77  F   UNL A   1      43.311  22.863  29.274  1.00  0.00    -0.206 F 
ATOM     78  C   UNL A   1      42.797  21.108  27.804  1.00  0.00     0.059 A 
ATOM     79  C   UNL A   1      42.913  21.473  25.406  1.00  0.00     0.059 A 
ATOM     80  F   UNL A   1      43.564  23.570  24.581  1.00  0.00    -0.206 F 
ATOM     81  C   UNL A   1      42.660  20.641  26.496  1.00  0.00     0.060 A 
BRANCH  81  82
ATOM     82  S   UNL A   1      42.105  18.941  26.237  1.00  0.00     0.124 S 
ATOM     83  O   UNL A   1      42.275  18.371  27.568  1.00  0.00    -0.237 OA
ATOM     84  O   UNL A   1      40.728  19.133  25.794  1.00  0.00    -0.237 OA
ATOM     85  O   UNL A   1      43.020  18.443  25.214  1.00  0.00    -0.744 OA
ENDBRANCH  81  82
ENDBRANCH  49  74
BRANCH  61  86
ATOM     86  C   UNL A   1      49.571  26.648  26.554  1.00  0.00     0.058 A 
ATOM     87  C   UNL A   1      50.453  26.207  27.552  1.00  0.00     0.135 A 
ATOM     88  C   UNL A   1      50.007  26.596  25.220  1.00  0.00     0.135 A 
ATOM     89  F   UNL A   1      50.087  26.242  28.842  1.00  0.00    -0.206 F 
ATOM     90  C   UNL A   1      51.729  25.746  27.240  1.00  0.00     0.059 A 
ATOM     91  C   UNL A   1      51.268  26.114  24.883  1.00  0.00     0.059 A 
ATOM     92  F   UNL A   1      49.197  26.997  24.227  1.00  0.00    -0.206 F 
ATOM     93  C   UNL A   1      52.126  25.702  25.902  1.00  0.00     0.060 A 
BRANCH  93  94
ATOM     94  S   UNL A   1      53.768  25.064  25.507  1.00  0.00     0.124 S 
ATOM     95  O   UNL A   1      53.488  23.648  25.293  1.00  0.00    -0.237 OA
ATOM     96  O   UNL A   1      54.122  25.827  24.314  1.00  0.00    -0.237 OA
ATOM     97  O   UNL A   1      54.550  25.376  26.699  1.00  0.00    -0.744 OA
ENDBRANCH  93  94
ENDBRANCH  61  86
ENDBRANCH  35  36
ENDBRANCH  27  30
ENDBRANCH  25  26
ENDBRANCH  24  25
ENDBRANCH   1  24
TORSDOF 21
ENDMDL
MODEL 3
REMARK VINA RESULT:     -10.9      6.731     11.999
REMARK SMILES CC(C)Cc1ccc([C@H](CC[C@@H](C)O)C(=O)NCCCCNC(=O)c2ccc(-c3c4nc(c(-c5c(F)cc(S(=O)(=O)[O-])cc5F)c5ccc([nH]5)c(-c5c(F)cc(S(=O)(=O)[O-])cc5F)c5nc(c(-c6c(F)cc(S(=O)(=O)[O-])cc6F)c6ccc3[nH]6)C=C5)C=C4)cc2)cc1
REMARK SMILES IDX 19 1 18 2 17 3 15 4 16 5 9 7 8 8 5 9 6 10 92 11 7 12 91 13
REMARK SMILES IDX 4 14 2 15 1 16 3 17 10 18 11 19 12 20 13 21 14 22 20 24
REMARK SMILES IDX 21 25 22 26 23 27 24 29 25 30 26 31 90 32 27 33 89 34 28 35
REMARK SMILES IDX 29 36 30 37 83 38 31 39 88 40 82 41 84 42 32 43 87 44 81 45
REMARK SMILES IDX 80 46 33 48 67 49 46 50 66 51 47 52 50 53 65 54 85 55 48 56
REMARK SMILES IDX 49 57 64 59 86 60 51 61 34 62 35 63 44 64 36 65 37 66 43 67
REMARK SMILES IDX 45 68 38 69 39 70 40 71 41 72 42 73 68 74 69 75 78 76 70 77
REMARK SMILES IDX 71 78 77 79 79 80 72 81 73 82 74 83 75 84 76 85 52 86 53 87
REMARK SMILES IDX 62 88 54 89 55 90 61 91 63 92 56 93 57 94 58 95 59 96 60 97
REMARK H PARENT 17 6 14 23 22 28 84 47 50 58
REMARK Flexibility Score: inf
ROOT
ATOM      1  C   UNL A   1      33.470  28.185  26.983  1.00  0.00     0.023 C 
ENDROOT
BRANCH   1   2
ATOM      2  C   UNL A   1      32.114  27.982  26.316  1.00  0.00     0.116 C 
BRANCH   2   3
ATOM      3  N   UNL A   1      31.405  26.809  26.795  1.00  0.00    -0.356 N 
ATOM      4  C   UNL A   1      31.064  25.652  26.156  1.00  0.00     0.227 C 
ATOM      5  O   UNL A   1      30.551  24.756  26.833  1.00  0.00    -0.274 OA
ATOM      6  H   UNL A   1      31.122  26.857  27.737  1.00  0.00     0.163 HD
BRANCH   4   7
ATOM      7  C   UNL A   1      31.305  25.449  24.647  1.00  0.00     0.108 C 
BRANCH   7   8
ATOM      8  C   UNL A   1      30.343  26.352  23.858  1.00  0.00    -0.036 A 
ATOM      9  C   UNL A   1      28.749  28.443  22.802  1.00  0.00    -0.048 A 
ATOM     10  C   UNL A   1      30.109  28.358  22.487  1.00  0.00     0.004 A 
ATOM     11  C   UNL A   1      28.169  27.396  23.527  1.00  0.00     0.004 A 
ATOM     12  C   UNL A   1      30.893  27.323  23.001  1.00  0.00     0.005 A 
ATOM     13  C   UNL A   1      28.953  26.358  24.044  1.00  0.00     0.005 A 
BRANCH   9  14
ATOM     14  C   UNL A   1      27.943  29.647  22.368  1.00  0.00     0.038 C 
BRANCH  14  15
ATOM     15  C   UNL A   1      28.438  31.000  22.933  1.00  0.00    -0.013 C 
ATOM     16  C   UNL A   1      28.750  32.017  21.831  1.00  0.00     0.008 C 
ATOM     17  C   UNL A   1      27.391  31.582  23.886  1.00  0.00     0.008 C 
ENDBRANCH  14  15
ENDBRANCH   9  14
ENDBRANCH   7   8
BRANCH   7  18
ATOM     18  C   UNL A   1      31.316  23.945  24.287  1.00  0.00     0.021 C 
BRANCH  18  19
ATOM     19  C   UNL A   1      32.578  23.148  24.665  1.00  0.00     0.032 C 
BRANCH  19  20
ATOM     20  C   UNL A   1      32.450  21.790  25.367  1.00  0.00     0.111 C 
ATOM     21  C   UNL A   1      33.764  21.077  25.646  1.00  0.00     0.038 C 
BRANCH  20  22
ATOM     22  O   UNL A   1      31.803  22.028  26.625  1.00  0.00    -0.393 OA
ATOM     23  H   UNL A   1      31.404  21.204  26.944  1.00  0.00     0.210 HD
ENDBRANCH  20  22
ENDBRANCH  19  20
ENDBRANCH  18  19
ENDBRANCH   7  18
ENDBRANCH   4   7
ENDBRANCH   2   3
ENDBRANCH   1   2
BRANCH   1  24
ATOM     24  C   UNL A   1      33.922  29.639  27.071  1.00  0.00     0.023 C 
BRANCH  24  25
ATOM     25  C   UNL A   1      35.322  29.826  27.634  1.00  0.00     0.116 C 
BRANCH  25  26
ATOM     26  N   UNL A   1      35.310  30.328  29.001  1.00  0.00    -0.352 N 
ATOM     27  C   UNL A   1      36.285  30.228  29.963  1.00  0.00     0.251 C 
ATOM     28  H   UNL A   1      34.491  30.802  29.273  1.00  0.00     0.163 HD
ATOM     29  O   UNL A   1      36.046  30.552  31.121  1.00  0.00    -0.269 OA
BRANCH  27  30
ATOM     30  C   UNL A   1      37.613  29.706  29.585  1.00  0.00     0.039 A 
ATOM     31  C   UNL A   1      38.043  29.835  28.263  1.00  0.00     0.014 A 
ATOM     32  C   UNL A   1      38.441  29.125  30.549  1.00  0.00     0.014 A 
ATOM     33  C   UNL A   1      39.335  29.434  27.922  1.00  0.00     0.010 A 
ATOM     34  C   UNL A   1      39.752  28.802  30.225  1.00  0.00     0.010 A 
ATOM     35  C   UNL A   1      40.211  28.948  28.906  1.00  0.00    -0.014 A 
BRANCH  35  36
ATOM     36  C   UNL A   1      41.611  28.578  28.583  1.00  0.00     0.031 A 
ATOM     37  C   UNL A   1      42.680  29.637  28.572  1.00  0.00     0.074 A 
ATOM     38  C   UNL A   1      41.902  27.311  28.231  1.00  0.00     0.049 A 
ATOM     39  N   UNL A   1      43.938  29.535  28.233  1.00  0.00    -0.248 NA
ATOM     40  C   UNL A   1      42.271  30.996  28.964  1.00  0.00     0.031 C 
ATOM     41  C   UNL A   1      40.938  26.210  28.154  1.00  0.00     0.029 A 
ATOM     42  N   UNL A   1      43.090  26.736  27.856  1.00  0.00    -0.354 N 
ATOM     43  C   UNL A   1      44.466  30.816  28.353  1.00  0.00     0.074 A 
ATOM     44  C   UNL A   1      43.379  31.687  28.743  1.00  0.00     0.031 C 
ATOM     45  C   UNL A   1      41.576  25.090  27.779  1.00  0.00     0.029 A 
ATOM     46  C   UNL A   1      42.984  25.400  27.550  1.00  0.00     0.049 A 
ATOM     47  H   UNL A   1      43.938  27.233  27.810  1.00  0.00     0.167 HD
ATOM     48  C   UNL A   1      45.746  31.222  28.180  1.00  0.00     0.037 A 
ATOM     49  C   UNL A   1      43.916  24.525  27.125  1.00  0.00     0.037 A 
ATOM     50  C   UNL A   1      46.825  30.341  27.821  1.00  0.00     0.049 A 
ATOM     51  C   UNL A   1      45.333  24.998  26.944  1.00  0.00     0.074 A 
ATOM     52  C   UNL A   1      48.168  30.640  27.679  1.00  0.00     0.029 A 
ATOM     53  N   UNL A   1      46.685  28.988  27.546  1.00  0.00    -0.354 N 
ATOM     54  N   UNL A   1      45.828  26.200  27.125  1.00  0.00    -0.248 NA
ATOM     55  C   UNL A   1      46.318  23.999  26.508  1.00  0.00     0.031 C 
ATOM     56  C   UNL A   1      48.834  29.475  27.279  1.00  0.00     0.029 A 
ATOM     57  C   UNL A   1      47.914  28.441  27.219  1.00  0.00     0.049 A 
ATOM     58  H   UNL A   1      45.836  28.490  27.580  1.00  0.00     0.167 HD
ATOM     59  C   UNL A   1      47.188  26.096  26.850  1.00  0.00     0.074 A 
ATOM     60  C   UNL A   1      47.438  24.711  26.503  1.00  0.00     0.031 C 
ATOM     61  C   UNL A   1      48.143  27.058  26.884  1.00  0.00     0.037 A 
BRANCH  48  62
ATOM     62  C   UNL A   1      46.046  32.681  28.384  1.00  0.00     0.058 A 
ATOM     63  C   UNL A   1      46.527  33.169  29.610  1.00  0.00     0.135 A 
ATOM     64  C   UNL A   1      45.880  33.600  27.335  1.00  0.00     0.135 A 
ATOM     65  F   UNL A   1      46.690  32.338  30.652  1.00  0.00    -0.206 F 
ATOM     66  C   UNL A   1      46.802  34.519  29.800  1.00  0.00     0.059 A 
ATOM     67  C   UNL A   1      46.177  34.951  27.493  1.00  0.00     0.059 A 
ATOM     68  F   UNL A   1      45.423  33.189  26.143  1.00  0.00    -0.206 F 
ATOM     69  C   UNL A   1      46.621  35.404  28.735  1.00  0.00     0.060 A 
BRANCH  69  70
ATOM     70  S   UNL A   1      46.985  37.152  28.996  1.00  0.00     0.124 S 
ATOM     71  O   UNL A   1      48.212  37.078  29.785  1.00  0.00    -0.237 OA
ATOM     72  O   UNL A   1      47.141  37.647  27.632  1.00  0.00    -0.237 OA
ATOM     73  O   UNL A   1      45.810  37.642  29.709  1.00  0.00    -0.744 OA
ENDBRANCH  69  70
ENDBRANCH  48  62
BRANCH  49  74
ATOM     74  C   UNL A   1      43.544  23.108  26.867  1.00  0.00     0.058 A 
ATOM     75  C   UNL A   1      43.258  22.234  27.926  1.00  0.00     0.135 A 
ATOM     76  C   UNL A   1      43.451  22.603  25.561  1.00  0.00     0.135 A 
ATOM     77  F   UNL A   1      43.337  22.668  29.193  1.00  0.00    -0.206 F 
ATOM     78  C   UNL A   1      42.908  20.907  27.703  1.00  0.00     0.059 A 
ATOM     79  C   UNL A   1      43.078  21.286  25.310  1.00  0.00     0.059 A 
ATOM     80  F   UNL A   1      43.698  23.403  24.511  1.00  0.00    -0.206 F 
ATOM     81  C   UNL A   1      42.818  20.443  26.389  1.00  0.00     0.060 A 
BRANCH  81  82
ATOM     82  S   UNL A   1      42.314  18.731  26.109  1.00  0.00     0.124 S 
ATOM     83  O   UNL A   1      42.507  18.147  27.430  1.00  0.00    -0.237 OA
ATOM     84  O   UNL A   1      40.929  18.887  25.674  1.00  0.00    -0.237 OA
ATOM     85  O   UNL A   1      43.239  18.276  25.075  1.00  0.00    -0.744 OA
ENDBRANCH  81  82
ENDBRANCH  49  74
BRANCH  61  86
ATOM     86  C   UNL A   1      49.553  26.644  26.570  1.00  0.00     0.058 A 
ATOM     87  C   UNL A   1      50.082  26.750  25.274  1.00  0.00     0.135 A 
ATOM     88  C   UNL A   1      50.403  26.190  27.592  1.00  0.00     0.135 A 
ATOM     89  F   UNL A   1      49.309  27.172  24.261  1.00  0.00    -0.206 F 
ATOM     90  C   UNL A   1      51.401  26.403  24.999  1.00  0.00     0.059 A 
ATOM     91  C   UNL A   1      51.733  25.863  27.344  1.00  0.00     0.059 A 
ATOM     92  F   UNL A   1      49.949  26.079  28.850  1.00  0.00    -0.206 F 
ATOM     93  C   UNL A   1      52.219  25.963  26.041  1.00  0.00     0.060 A 
BRANCH  93  94
ATOM     94  S   UNL A   1      53.939  25.556  25.678  1.00  0.00     0.124 S 
ATOM     95  O   UNL A   1      54.417  26.801  25.086  1.00  0.00    -0.237 OA
ATOM     96  O   UNL A   1      54.472  25.237  26.999  1.00  0.00    -0.237 OA
ATOM     97  O   UNL A   1      53.836  24.425  24.761  1.00  0.00    -0.744 OA
ENDBRANCH  93  94
ENDBRANCH  61  86
ENDBRANCH  35  36
ENDBRANCH  27  30
ENDBRANCH  25  26
ENDBRANCH  24  25
ENDBRANCH   1  24
TORSDOF 21
ENDMDL
