MODEL 1
REMARK VINA RESULT:     -11.8      0.000      0.000
REMARK SMILES C[N@@H+](CC(=O)NCCCCNC(=O)c1ccc(-c2c3nc(c(-c4c(F)cc(S(=O)(=O)[O-])cc4F)c4ccc([nH]4)c(-c4c(F)cc(S(=O)(=O)[O-])cc4F)c4nc(c(-c5c(F)cc(S(=O)(=O)[O-])cc5F)c5ccc2[nH]5)C=C4)C=C3)cc1)Cc1cccc2c1OCCO2
REMARK SMILES IDX 8 1 7 2 6 3 4 4 5 5 3 7 2 8 1 9 80 11 81 12 82 13 86 14
REMARK SMILES IDX 83 15 85 16 87 17 84 18 90 19 88 20 89 21 9 22 10 23 11 24
REMARK SMILES IDX 12 25 13 27 14 28 15 29 79 30 16 31 78 32 17 33 18 34 19 35
REMARK SMILES IDX 72 36 20 37 77 38 71 39 73 40 21 41 76 42 70 43 69 44 22 46
REMARK SMILES IDX 56 47 35 48 55 49 36 50 39 51 54 52 74 53 37 54 38 55 53 57
REMARK SMILES IDX 75 58 40 59 23 60 24 61 33 62 25 63 26 64 32 65 34 66 27 67
REMARK SMILES IDX 28 68 29 69 30 70 31 71 57 72 58 73 67 74 59 75 60 76 66 77
REMARK SMILES IDX 68 78 61 79 62 80 63 81 64 82 65 83 41 84 42 85 51 86 43 87
REMARK SMILES IDX 44 88 50 89 52 90 45 91 46 92 47 93 48 94 49 95
REMARK H PARENT 6 6 2 10 11 26 73 45 39 56
REMARK Flexibility Score: inf
ROOT
ATOM      1  C   UNL A   1      33.355  29.561  26.587  1.00  0.00     0.023 C 
ENDROOT
BRANCH   1   2
ATOM      2  C   UNL A   1      32.293  28.464  25.897  1.00  0.00     0.116 C 
BRANCH   2   3
ATOM      3  N   UNL A   1      31.354  28.362  24.092  1.00  0.00    -0.351 N 
ATOM      4  C   UNL A   1      31.076  27.585  22.901  1.00  0.00     0.275 C 
ATOM      5  O   UNL A   1      30.446  28.207  22.027  1.00  0.00    -0.269 OA
ATOM      6  H   UNL A   1      30.881  29.219  23.978  1.00  0.00     0.163 HD
BRANCH   4   7
ATOM      7  C   UNL A   1      31.376  26.022  22.653  1.00  0.00     0.363 C 
BRANCH   7   8
ATOM      8  N   UNL A   1      32.144  25.164  23.614  1.00  0.00    -0.326 N 
ATOM      9  C   UNL A   1      31.513  24.832  24.890  1.00  0.00     0.333 C 
ATOM     10  H   UNL A   1      32.102  24.302  23.072  1.00  0.00     0.348 HD
BRANCH   8  11
ATOM     11  C   UNL A   1      33.553  25.470  23.783  1.00  0.00     0.303 C 
BRANCH  11  12
ATOM     12  C   UNL A   1      34.443  24.320  24.136  1.00  0.00     0.052 A 
ATOM     13  C   UNL A   1      35.204  24.420  25.344  1.00  0.00     0.014 A 
ATOM     14  C   UNL A   1      34.359  23.033  23.640  1.00  0.00     0.170 A 
ATOM     15  C   UNL A   1      35.755  23.320  26.117  1.00  0.00     0.005 A 
ATOM     16  C   UNL A   1      34.858  21.758  24.668  1.00  0.00     0.161 A 
ATOM     17  O   UNL A   1      33.140  22.720  22.365  1.00  0.00    -0.486 OA
ATOM     18  C   UNL A   1      35.566  21.965  25.822  1.00  0.00     0.050 A 
ATOM     19  O   UNL A   1      34.027  20.240  24.714  1.00  0.00    -0.486 OA
ATOM     20  C   UNL A   1      32.025  21.206  22.394  1.00  0.00     0.271 C 
ATOM     21  C   UNL A   1      32.557  19.841  23.669  1.00  0.00     0.271 C 
ENDBRANCH  11  12
ENDBRANCH   8  11
ENDBRANCH   7   8
ENDBRANCH   4   7
ENDBRANCH   2   3
ENDBRANCH   1   2
BRANCH   1  22
ATOM     22  C   UNL A   1      32.660  30.860  27.037  1.00  0.00     0.023 C 
BRANCH  22  23
ATOM     23  C   UNL A   1      33.530  31.967  27.616  1.00  0.00     0.116 C 
BRANCH  23  24
ATOM     24  N   UNL A   1      32.889  33.255  27.784  1.00  0.00    -0.352 N 
ATOM     25  C   UNL A   1      33.313  34.228  28.671  1.00  0.00     0.251 C 
ATOM     26  H   UNL A   1      32.098  33.451  27.231  1.00  0.00     0.163 HD
ATOM     27  O   UNL A   1      32.701  35.277  28.821  1.00  0.00    -0.269 OA
BRANCH  25  28
ATOM     28  C   UNL A   1      34.520  33.925  29.476  1.00  0.00     0.039 A 
ATOM     29  C   UNL A   1      34.407  33.031  30.539  1.00  0.00     0.014 A 
ATOM     30  C   UNL A   1      35.775  34.384  29.059  1.00  0.00     0.014 A 
ATOM     31  C   UNL A   1      35.565  32.569  31.165  1.00  0.00     0.010 A 
ATOM     32  C   UNL A   1      36.929  33.851  29.630  1.00  0.00     0.010 A 
ATOM     33  C   UNL A   1      36.839  32.951  30.703  1.00  0.00    -0.014 A 
BRANCH  33  34
ATOM     34  C   UNL A   1      38.056  32.422  31.378  1.00  0.00     0.031 A 
ATOM     35  C   UNL A   1      38.470  32.954  32.725  1.00  0.00     0.074 A 
ATOM     36  C   UNL A   1      38.761  31.424  30.805  1.00  0.00     0.049 A 
ATOM     37  N   UNL A   1      39.397  32.513  33.536  1.00  0.00    -0.248 NA
ATOM     38  C   UNL A   1      37.764  34.147  33.221  1.00  0.00     0.031 C 
ATOM     39  C   UNL A   1      38.502  30.864  29.476  1.00  0.00     0.029 A 
ATOM     40  N   UNL A   1      39.817  30.683  31.275  1.00  0.00    -0.354 N 
ATOM     41  C   UNL A   1      39.373  33.358  34.639  1.00  0.00     0.074 A 
ATOM     42  C   UNL A   1      38.395  34.386  34.360  1.00  0.00     0.031 C 
ATOM     43  C   UNL A   1      39.333  29.830  29.265  1.00  0.00     0.029 A 
ATOM     44  C   UNL A   1      40.204  29.671  30.426  1.00  0.00     0.049 A 
ATOM     45  H   UNL A   1      40.255  30.859  32.139  1.00  0.00     0.167 HD
ATOM     46  C   UNL A   1      40.073  33.270  35.794  1.00  0.00     0.037 A 
ATOM     47  C   UNL A   1      41.144  28.715  30.571  1.00  0.00     0.037 A 
ATOM     48  C   UNL A   1      41.047  32.244  36.067  1.00  0.00     0.049 A 
ATOM     49  C   UNL A   1      41.921  28.644  31.860  1.00  0.00     0.074 A 
ATOM     50  C   UNL A   1      41.783  32.042  37.220  1.00  0.00     0.029 A 
ATOM     51  N   UNL A   1      41.430  31.255  35.171  1.00  0.00    -0.354 N 
ATOM     52  N   UNL A   1      41.822  29.401  32.927  1.00  0.00    -0.248 NA
ATOM     53  C   UNL A   1      42.924  27.577  31.970  1.00  0.00     0.031 C 
ATOM     54  C   UNL A   1      42.658  30.973  36.999  1.00  0.00     0.029 A 
ATOM     55  C   UNL A   1      42.414  30.460  35.736  1.00  0.00     0.049 A 
ATOM     56  H   UNL A   1      41.058  31.136  34.267  1.00  0.00     0.167 HD
ATOM     57  C   UNL A   1      42.732  28.885  33.846  1.00  0.00     0.074 A 
ATOM     58  C   UNL A   1      43.349  27.736  33.215  1.00  0.00     0.031 C 
ATOM     59  C   UNL A   1      43.028  29.321  35.096  1.00  0.00     0.037 A 
BRANCH  46  60
ATOM     60  C   UNL A   1      39.816  34.313  36.851  1.00  0.00     0.058 A 
ATOM     61  C   UNL A   1      38.968  34.066  37.944  1.00  0.00     0.135 A 
ATOM     62  C   UNL A   1      40.453  35.562  36.791  1.00  0.00     0.135 A 
ATOM     63  F   UNL A   1      38.316  32.896  38.046  1.00  0.00    -0.206 F 
ATOM     64  C   UNL A   1      38.740  35.029  38.922  1.00  0.00     0.059 A 
ATOM     65  C   UNL A   1      40.266  36.528  37.776  1.00  0.00     0.059 A 
ATOM     66  F   UNL A   1      41.271  35.857  35.768  1.00  0.00    -0.206 F 
ATOM     67  C   UNL A   1      39.396  36.257  38.830  1.00  0.00     0.060 A 
BRANCH  67  68
ATOM     68  S   UNL A   1      39.097  37.490  40.115  1.00  0.00     0.124 S 
ATOM     69  O   UNL A   1      38.165  38.390  39.442  1.00  0.00    -0.237 OA
ATOM     70  O   UNL A   1      38.532  36.684  41.192  1.00  0.00    -0.237 OA
ATOM     71  O   UNL A   1      40.423  38.040  40.374  1.00  0.00    -0.744 OA
ENDBRANCH  67  68
ENDBRANCH  46  60
BRANCH  47  72
ATOM     72  C   UNL A   1      41.386  27.731  29.478  1.00  0.00     0.058 A 
ATOM     73  C   UNL A   1      42.532  27.797  28.671  1.00  0.00     0.135 A 
ATOM     74  C   UNL A   1      40.465  26.704  29.216  1.00  0.00     0.135 A 
ATOM     75  F   UNL A   1      43.440  28.765  28.872  1.00  0.00    -0.206 F 
ATOM     76  C   UNL A   1      42.748  26.895  27.632  1.00  0.00     0.059 A 
ATOM     77  C   UNL A   1      40.675  25.771  28.206  1.00  0.00     0.059 A 
ATOM     78  F   UNL A   1      39.357  26.585  29.965  1.00  0.00    -0.206 F 
ATOM     79  C   UNL A   1      41.814  25.881  27.411  1.00  0.00     0.060 A 
BRANCH  79  80
ATOM     80  S   UNL A   1      42.126  24.687  26.092  1.00  0.00     0.124 S 
ATOM     81  O   UNL A   1      42.186  25.552  24.919  1.00  0.00    -0.237 OA
ATOM     82  O   UNL A   1      43.390  24.092  26.513  1.00  0.00    -0.237 OA
ATOM     83  O   UNL A   1      40.969  23.800  26.162  1.00  0.00    -0.744 OA
ENDBRANCH  79  80
ENDBRANCH  47  72
BRANCH  59  84
ATOM     84  C   UNL A   1      44.042  28.529  35.881  1.00  0.00     0.058 A 
ATOM     85  C   UNL A   1      45.418  28.806  35.814  1.00  0.00     0.135 A 
ATOM     86  C   UNL A   1      43.628  27.485  36.725  1.00  0.00     0.135 A 
ATOM     87  F   UNL A   1      45.872  29.793  35.025  1.00  0.00    -0.206 F 
ATOM     88  C   UNL A   1      46.349  28.042  36.511  1.00  0.00     0.059 A 
ATOM     89  C   UNL A   1      44.539  26.735  37.462  1.00  0.00     0.059 A 
ATOM     90  F   UNL A   1      42.325  27.187  36.844  1.00  0.00    -0.206 F 
ATOM     91  C   UNL A   1      45.898  27.005  37.329  1.00  0.00     0.060 A 
BRANCH  91  92
ATOM     92  S   UNL A   1      47.117  26.015  38.219  1.00  0.00     0.124 S 
ATOM     93  O   UNL A   1      48.110  27.023  38.577  1.00  0.00    -0.237 OA
ATOM     94  O   UNL A   1      46.333  25.477  39.327  1.00  0.00    -0.237 OA
ATOM     95  O   UNL A   1      47.548  25.033  37.229  1.00  0.00    -0.744 OA
ENDBRANCH  91  92
ENDBRANCH  59  84
ENDBRANCH  33  34
ENDBRANCH  25  28
ENDBRANCH  23  24
ENDBRANCH  22  23
ENDBRANCH   1  22
TORSDOF 17
ENDMDL
MODEL 2
REMARK VINA RESULT:     -11.7      6.135     11.963
REMARK SMILES C[N@@H+](CC(=O)NCCCCNC(=O)c1ccc(-c2c3nc(c(-c4c(F)cc(S(=O)(=O)[O-])cc4F)c4ccc([nH]4)c(-c4c(F)cc(S(=O)(=O)[O-])cc4F)c4nc(c(-c5c(F)cc(S(=O)(=O)[O-])cc5F)c5ccc2[nH]5)C=C4)C=C3)cc1)Cc1cccc2c1OCCO2
REMARK SMILES IDX 8 1 7 2 6 3 4 4 5 5 3 7 2 8 1 9 80 11 81 12 82 13 86 14
REMARK SMILES IDX 83 15 85 16 87 17 84 18 90 19 88 20 89 21 9 22 10 23 11 24
REMARK SMILES IDX 12 25 13 27 14 28 15 29 79 30 16 31 78 32 17 33 18 34 19 35
REMARK SMILES IDX 72 36 20 37 77 38 71 39 73 40 21 41 76 42 70 43 69 44 22 46
REMARK SMILES IDX 56 47 35 48 55 49 36 50 39 51 54 52 74 53 37 54 38 55 53 57
REMARK SMILES IDX 75 58 40 59 23 60 24 61 33 62 25 63 26 64 32 65 34 66 27 67
REMARK SMILES IDX 28 68 29 69 30 70 31 71 57 72 58 73 67 74 59 75 60 76 66 77
REMARK SMILES IDX 68 78 61 79 62 80 63 81 64 82 65 83 41 84 42 85 51 86 43 87
REMARK SMILES IDX 44 88 50 89 52 90 45 91 46 92 47 93 48 94 49 95
REMARK H PARENT 6 6 2 10 11 26 73 45 39 56
REMARK Flexibility Score: inf
ROOT
ATOM      1  C   UNL A   1      37.539  22.742  25.726  1.00  0.00     0.023 C 
ENDROOT
BRANCH   1   2
ATOM      2  C   UNL A   1      35.891  22.580  25.475  1.00  0.00     0.116 C 
BRANCH   2   3
ATOM      3  N   UNL A   1      34.272  22.609  26.711  1.00  0.00    -0.351 N 
ATOM      4  C   UNL A   1      32.865  22.917  26.876  1.00  0.00     0.275 C 
ATOM      5  O   UNL A   1      32.453  22.787  28.042  1.00  0.00    -0.269 OA
ATOM      6  H   UNL A   1      34.581  22.260  27.578  1.00  0.00     0.163 HD
BRANCH   4   7
ATOM      7  C   UNL A   1      31.795  23.274  25.727  1.00  0.00     0.363 C 
BRANCH   7   8
ATOM      8  N   UNL A   1      31.842  24.533  24.914  1.00  0.00    -0.326 N 
ATOM      9  C   UNL A   1      30.584  25.048  24.376  1.00  0.00     0.333 C 
ATOM     10  H   UNL A   1      32.074  25.166  25.679  1.00  0.00     0.348 HD
BRANCH   8  11
ATOM     11  C   UNL A   1      32.920  24.649  23.948  1.00  0.00     0.303 C 
BRANCH  11  12
ATOM     12  C   UNL A   1      33.518  26.011  23.784  1.00  0.00     0.052 A 
ATOM     13  C   UNL A   1      33.670  26.508  22.450  1.00  0.00     0.014 A 
ATOM     14  C   UNL A   1      33.615  26.990  24.754  1.00  0.00     0.170 A 
ATOM     15  C   UNL A   1      33.781  27.901  22.051  1.00  0.00     0.005 A 
ATOM     16  C   UNL A   1      33.559  28.620  24.236  1.00  0.00     0.161 A 
ATOM     17  O   UNL A   1      33.073  26.565  26.408  1.00  0.00    -0.486 OA
ATOM     18  C   UNL A   1      33.691  28.991  22.924  1.00  0.00     0.050 A 
ATOM     19  O   UNL A   1      32.738  29.843  25.146  1.00  0.00    -0.486 OA
ATOM     20  C   UNL A   1      32.005  27.717  27.441  1.00  0.00     0.271 C 
ATOM     21  C   UNL A   1      31.867  29.525  26.743  1.00  0.00     0.271 C 
ENDBRANCH  11  12
ENDBRANCH   8  11
ENDBRANCH   7   8
ENDBRANCH   4   7
ENDBRANCH   2   3
ENDBRANCH   1   2
BRANCH   1  22
ATOM     22  C   UNL A   1      38.314  21.440  25.443  1.00  0.00     0.023 C 
BRANCH  22  23
ATOM     23  C   UNL A   1      39.464  21.081  26.373  1.00  0.00     0.116 C 
BRANCH  23  24
ATOM     24  N   UNL A   1      40.197  19.876  26.041  1.00  0.00    -0.352 N 
ATOM     25  C   UNL A   1      41.577  19.781  26.028  1.00  0.00     0.251 C 
ATOM     26  H   UNL A   1      39.678  19.072  25.809  1.00  0.00     0.163 HD
ATOM     27  O   UNL A   1      42.150  18.757  25.679  1.00  0.00    -0.269 OA
BRANCH  25  28
ATOM     28  C   UNL A   1      42.339  20.994  26.405  1.00  0.00     0.039 A 
ATOM     29  C   UNL A   1      42.609  21.946  25.424  1.00  0.00     0.014 A 
ATOM     30  C   UNL A   1      42.616  21.258  27.751  1.00  0.00     0.014 A 
ATOM     31  C   UNL A   1      43.128  23.184  25.802  1.00  0.00     0.010 A 
ATOM     32  C   UNL A   1      43.051  22.528  28.130  1.00  0.00     0.010 A 
ATOM     33  C   UNL A   1      43.331  23.500  27.159  1.00  0.00    -0.014 A 
BRANCH  33  34
ATOM     34  C   UNL A   1      43.864  24.839  27.531  1.00  0.00     0.031 A 
ATOM     35  C   UNL A   1      45.311  25.176  27.283  1.00  0.00     0.074 A 
ATOM     36  C   UNL A   1      43.036  25.773  28.044  1.00  0.00     0.049 A 
ATOM     37  N   UNL A   1      45.919  26.330  27.390  1.00  0.00    -0.248 NA
ATOM     38  C   UNL A   1      46.197  24.073  26.878  1.00  0.00     0.031 C 
ATOM     39  C   UNL A   1      41.629  25.554  28.390  1.00  0.00     0.029 A 
ATOM     40  N   UNL A   1      43.244  27.099  28.334  1.00  0.00    -0.354 N 
ATOM     41  C   UNL A   1      47.246  26.095  27.050  1.00  0.00     0.074 A 
ATOM     42  C   UNL A   1      47.375  24.676  26.811  1.00  0.00     0.031 C 
ATOM     43  C   UNL A   1      41.087  26.717  28.787  1.00  0.00     0.029 A 
ATOM     44  C   UNL A   1      42.111  27.758  28.754  1.00  0.00     0.049 A 
ATOM     45  H   UNL A   1      44.122  27.536  28.251  1.00  0.00     0.167 HD
ATOM     46  C   UNL A   1      48.259  26.983  26.915  1.00  0.00     0.037 A 
ATOM     47  C   UNL A   1      41.914  29.055  29.063  1.00  0.00     0.037 A 
ATOM     48  C   UNL A   1      48.126  28.397  27.155  1.00  0.00     0.049 A 
ATOM     49  C   UNL A   1      43.059  30.023  28.917  1.00  0.00     0.074 A 
ATOM     50  C   UNL A   1      49.080  29.387  27.009  1.00  0.00     0.029 A 
ATOM     51  N   UNL A   1      46.970  29.021  27.604  1.00  0.00    -0.354 N 
ATOM     52  N   UNL A   1      44.286  29.796  28.511  1.00  0.00    -0.248 NA
ATOM     53  C   UNL A   1      42.788  31.426  29.256  1.00  0.00     0.031 C 
ATOM     54  C   UNL A   1      48.522  30.599  27.431  1.00  0.00     0.029 A 
ATOM     55  C   UNL A   1      47.197  30.377  27.769  1.00  0.00     0.049 A 
ATOM     56  H   UNL A   1      46.115  28.566  27.780  1.00  0.00     0.167 HD
ATOM     57  C   UNL A   1      44.925  31.033  28.519  1.00  0.00     0.074 A 
ATOM     58  C   UNL A   1      43.939  32.004  28.945  1.00  0.00     0.031 C 
ATOM     59  C   UNL A   1      46.209  31.336  28.201  1.00  0.00     0.037 A 
BRANCH  46  60
ATOM     60  C   UNL A   1      49.604  26.452  26.490  1.00  0.00     0.058 A 
ATOM     61  C   UNL A   1      50.008  26.449  25.144  1.00  0.00     0.135 A 
ATOM     62  C   UNL A   1      50.515  25.972  27.444  1.00  0.00     0.135 A 
ATOM     63  F   UNL A   1      49.171  26.878  24.184  1.00  0.00    -0.206 F 
ATOM     64  C   UNL A   1      51.253  25.965  24.758  1.00  0.00     0.059 A 
ATOM     65  C   UNL A   1      51.780  25.516  27.083  1.00  0.00     0.059 A 
ATOM     66  F   UNL A   1      50.184  25.947  28.745  1.00  0.00    -0.206 F 
ATOM     67  C   UNL A   1      52.134  25.503  25.736  1.00  0.00     0.060 A 
BRANCH  67  68
ATOM     68  S   UNL A   1      53.751  24.889  25.217  1.00  0.00     0.124 S 
ATOM     69  O   UNL A   1      54.593  25.304  26.335  1.00  0.00    -0.237 OA
ATOM     70  O   UNL A   1      53.515  23.455  25.100  1.00  0.00    -0.237 OA
ATOM     71  O   UNL A   1      53.992  25.589  23.959  1.00  0.00    -0.744 OA
ENDBRANCH  67  68
ENDBRANCH  46  60
BRANCH  47  72
ATOM     72  C   UNL A   1      40.573  29.522  29.516  1.00  0.00     0.058 A 
ATOM     73  C   UNL A   1      39.519  29.717  28.611  1.00  0.00     0.135 A 
ATOM     74  C   UNL A   1      40.322  29.787  30.872  1.00  0.00     0.135 A 
ATOM     75  F   UNL A   1      39.707  29.487  27.302  1.00  0.00    -0.206 F 
ATOM     76  C   UNL A   1      38.272  30.177  29.027  1.00  0.00     0.059 A 
ATOM     77  C   UNL A   1      39.075  30.215  31.317  1.00  0.00     0.059 A 
ATOM     78  F   UNL A   1      41.289  29.605  31.784  1.00  0.00    -0.206 F 
ATOM     79  C   UNL A   1      38.059  30.419  30.385  1.00  0.00     0.060 A 
BRANCH  79  80
ATOM     80  S   UNL A   1      36.425  30.971  30.922  1.00  0.00     0.124 S 
ATOM     81  O   UNL A   1      36.027  29.888  31.813  1.00  0.00    -0.237 OA
ATOM     82  O   UNL A   1      36.730  32.247  31.562  1.00  0.00    -0.237 OA
ATOM     83  O   UNL A   1      35.677  31.067  29.673  1.00  0.00    -0.744 OA
ENDBRANCH  79  80
ENDBRANCH  47  72
BRANCH  59  84
ATOM     84  C   UNL A   1      46.613  32.787  28.270  1.00  0.00     0.058 A 
ATOM     85  C   UNL A   1      47.191  33.346  29.422  1.00  0.00     0.135 A 
ATOM     86  C   UNL A   1      46.429  33.627  27.159  1.00  0.00     0.135 A 
ATOM     87  F   UNL A   1      47.391  32.592  30.513  1.00  0.00    -0.206 F 
ATOM     88  C   UNL A   1      47.521  34.697  29.487  1.00  0.00     0.059 A 
ATOM     89  C   UNL A   1      46.789  34.970  27.189  1.00  0.00     0.059 A 
ATOM     90  F   UNL A   1      45.898  33.144  26.025  1.00  0.00    -0.206 F 
ATOM     91  C   UNL A   1      47.313  35.501  28.366  1.00  0.00     0.060 A 
BRANCH  91  92
ATOM     92  S   UNL A   1      47.735  37.253  28.468  1.00  0.00     0.124 S 
ATOM     93  O   UNL A   1      46.782  37.727  29.466  1.00  0.00    -0.237 OA
ATOM     94  O   UNL A   1      49.131  37.213  28.894  1.00  0.00    -0.237 OA
ATOM     95  O   UNL A   1      47.515  37.738  27.109  1.00  0.00    -0.744 OA
ENDBRANCH  91  92
ENDBRANCH  59  84
ENDBRANCH  33  34
ENDBRANCH  25  28
ENDBRANCH  23  24
ENDBRANCH  22  23
ENDBRANCH   1  22
TORSDOF 17
ENDMDL
MODEL 3
REMARK VINA RESULT:     -11.7      5.666     10.206
REMARK SMILES C[N@@H+](CC(=O)NCCCCNC(=O)c1ccc(-c2c3nc(c(-c4c(F)cc(S(=O)(=O)[O-])cc4F)c4ccc([nH]4)c(-c4c(F)cc(S(=O)(=O)[O-])cc4F)c4nc(c(-c5c(F)cc(S(=O)(=O)[O-])cc5F)c5ccc2[nH]5)C=C4)C=C3)cc1)Cc1cccc2c1OCCO2
REMARK SMILES IDX 8 1 7 2 6 3 4 4 5 5 3 7 2 8 1 9 80 11 81 12 82 13 86 14
REMARK SMILES IDX 83 15 85 16 87 17 84 18 90 19 88 20 89 21 9 22 10 23 11 24
REMARK SMILES IDX 12 25 13 27 14 28 15 29 79 30 16 31 78 32 17 33 18 34 19 35
REMARK SMILES IDX 72 36 20 37 77 38 71 39 73 40 21 41 76 42 70 43 69 44 22 46
REMARK SMILES IDX 56 47 35 48 55 49 36 50 39 51 54 52 74 53 37 54 38 55 53 57
REMARK SMILES IDX 75 58 40 59 23 60 24 61 33 62 25 63 26 64 32 65 34 66 27 67
REMARK SMILES IDX 28 68 29 69 30 70 31 71 57 72 58 73 67 74 59 75 60 76 66 77
REMARK SMILES IDX 68 78 61 79 62 80 63 81 64 82 65 83 41 84 42 85 51 86 43 87
REMARK SMILES IDX 44 88 50 89 52 90 45 91 46 92 47 93 48 94 49 95
REMARK H PARENT 6 6 2 10 11 26 73 45 39 56
REMARK Flexibility Score: inf
ROOT
ATOM      1  C   UNL A   1      31.812  28.544  26.790  1.00  0.00     0.023 C 
ENDROOT
BRANCH   1   2
ATOM      2  C   UNL A   1      31.672  29.636  25.526  1.00  0.00     0.116 C 
BRANCH   2   3
ATOM      3  N   UNL A   1      30.762  29.568  23.705  1.00  0.00    -0.351 N 
ATOM      4  C   UNL A   1      30.581  28.858  22.455  1.00  0.00     0.275 C 
ATOM      5  O   UNL A   1      29.890  29.470  21.622  1.00  0.00    -0.269 OA
ATOM      6  H   UNL A   1      30.196  30.372  23.650  1.00  0.00     0.163 HD
BRANCH   4   7
ATOM      7  C   UNL A   1      31.058  27.363  22.094  1.00  0.00     0.363 C 
BRANCH   7   8
ATOM      8  N   UNL A   1      32.277  26.718  22.683  1.00  0.00    -0.326 N 
ATOM      9  C   UNL A   1      33.576  27.046  22.097  1.00  0.00     0.333 C 
ATOM     10  H   UNL A   1      32.263  27.214  23.573  1.00  0.00     0.348 HD
BRANCH   8  11
ATOM     11  C   UNL A   1      32.182  25.305  23.003  1.00  0.00     0.303 C 
BRANCH  11  12
ATOM     12  C   UNL A   1      32.488  24.924  24.417  1.00  0.00     0.052 A 
ATOM     13  C   UNL A   1      31.380  24.658  25.283  1.00  0.00     0.014 A 
ATOM     14  C   UNL A   1      33.693  24.451  24.899  1.00  0.00     0.170 A 
ATOM     15  C   UNL A   1      31.400  23.862  26.499  1.00  0.00     0.005 A 
ATOM     16  C   UNL A   1      33.642  23.370  26.226  1.00  0.00     0.161 A 
ATOM     17  O   UNL A   1      35.069  24.384  23.753  1.00  0.00    -0.486 OA
ATOM     18  C   UNL A   1      32.516  23.168  26.980  1.00  0.00     0.050 A 
ATOM     19  O   UNL A   1      34.722  22.023  26.353  1.00  0.00    -0.486 OA
ATOM     20  C   UNL A   1      36.211  22.894  23.642  1.00  0.00     0.271 C 
ATOM     21  C   UNL A   1      36.024  21.629  25.104  1.00  0.00     0.271 C 
ENDBRANCH  11  12
ENDBRANCH   8  11
ENDBRANCH   7   8
ENDBRANCH   4   7
ENDBRANCH   2   3
ENDBRANCH   1   2
BRANCH   1  22
ATOM     22  C   UNL A   1      33.173  27.821  26.803  1.00  0.00     0.023 C 
BRANCH  22  23
ATOM     23  C   UNL A   1      34.395  28.615  27.245  1.00  0.00     0.116 C 
BRANCH  23  24
ATOM     24  N   UNL A   1      34.127  29.858  27.940  1.00  0.00    -0.352 N 
ATOM     25  C   UNL A   1      35.067  30.558  28.674  1.00  0.00     0.251 C 
ATOM     26  H   UNL A   1      33.216  30.228  27.886  1.00  0.00     0.163 HD
ATOM     27  O   UNL A   1      34.776  31.572  29.296  1.00  0.00    -0.269 OA
BRANCH  25  28
ATOM     28  C   UNL A   1      36.438  29.999  28.722  1.00  0.00     0.039 A 
ATOM     29  C   UNL A   1      37.261  30.150  27.609  1.00  0.00     0.014 A 
ATOM     30  C   UNL A   1      36.949  29.499  29.926  1.00  0.00     0.014 A 
ATOM     31  C   UNL A   1      38.615  29.828  27.715  1.00  0.00     0.010 A 
ATOM     32  C   UNL A   1      38.318  29.263  30.050  1.00  0.00     0.010 A 
ATOM     33  C   UNL A   1      39.165  29.406  28.941  1.00  0.00    -0.014 A 
BRANCH  33  34
ATOM     34  C   UNL A   1      40.617  29.093  29.027  1.00  0.00     0.031 A 
ATOM     35  C   UNL A   1      41.125  27.730  28.634  1.00  0.00     0.074 A 
ATOM     36  C   UNL A   1      41.489  30.050  29.408  1.00  0.00     0.049 A 
ATOM     37  N   UNL A   1      42.359  27.321  28.488  1.00  0.00    -0.248 NA
ATOM     38  C   UNL A   1      40.119  26.685  28.386  1.00  0.00     0.031 C 
ATOM     39  C   UNL A   1      41.121  31.389  29.874  1.00  0.00     0.029 A 
ATOM     40  N   UNL A   1      42.862  30.057  29.436  1.00  0.00    -0.354 N 
ATOM     41  C   UNL A   1      42.276  25.984  28.118  1.00  0.00     0.074 A 
ATOM     42  C   UNL A   1      40.876  25.628  28.136  1.00  0.00     0.031 C 
ATOM     43  C   UNL A   1      42.237  32.105  30.082  1.00  0.00     0.029 A 
ATOM     44  C   UNL A   1      43.402  31.271  29.795  1.00  0.00     0.049 A 
ATOM     45  H   UNL A   1      43.409  29.267  29.220  1.00  0.00     0.167 HD
ATOM     46  C   UNL A   1      43.271  25.138  27.760  1.00  0.00     0.037 A 
ATOM     47  C   UNL A   1      44.687  31.673  29.872  1.00  0.00     0.037 A 
ATOM     48  C   UNL A   1      44.665  25.498  27.743  1.00  0.00     0.049 A 
ATOM     49  C   UNL A   1      45.777  30.710  29.481  1.00  0.00     0.074 A 
ATOM     50  C   UNL A   1      45.748  24.727  27.359  1.00  0.00     0.029 A 
ATOM     51  N   UNL A   1      45.173  26.728  28.139  1.00  0.00    -0.354 N 
ATOM     52  N   UNL A   1      45.673  29.475  29.049  1.00  0.00    -0.248 NA
ATOM     53  C   UNL A   1      47.158  31.201  29.571  1.00  0.00     0.031 C 
ATOM     54  C   UNL A   1      46.914  25.466  27.585  1.00  0.00     0.029 A 
ATOM     55  C   UNL A   1      46.555  26.725  28.038  1.00  0.00     0.049 A 
ATOM     56  H   UNL A   1      44.631  27.489  28.448  1.00  0.00     0.167 HD
ATOM     57  C   UNL A   1      46.974  29.051  28.791  1.00  0.00     0.074 A 
ATOM     58  C   UNL A   1      47.841  30.172  29.090  1.00  0.00     0.031 C 
ATOM     59  C   UNL A   1      47.410  27.846  28.345  1.00  0.00     0.037 A 
BRANCH  46  60
ATOM     60  C   UNL A   1      42.888  23.736  27.359  1.00  0.00     0.058 A 
ATOM     61  C   UNL A   1      42.750  23.362  26.011  1.00  0.00     0.135 A 
ATOM     62  C   UNL A   1      42.690  22.745  28.333  1.00  0.00     0.135 A 
ATOM     63  F   UNL A   1      42.908  24.273  25.036  1.00  0.00    -0.206 F 
ATOM     64  C   UNL A   1      42.404  22.066  25.646  1.00  0.00     0.059 A 
ATOM     65  C   UNL A   1      42.377  21.433  27.989  1.00  0.00     0.059 A 
ATOM     66  F   UNL A   1      42.804  23.044  29.637  1.00  0.00    -0.206 F 
ATOM     67  C   UNL A   1      42.222  21.106  26.643  1.00  0.00     0.060 A 
BRANCH  67  68
ATOM     68  S   UNL A   1      41.785  19.426  26.149  1.00  0.00     0.124 S 
ATOM     69  O   UNL A   1      42.665  19.221  25.003  1.00  0.00    -0.237 OA
ATOM     70  O   UNL A   1      42.112  18.656  27.345  1.00  0.00    -0.237 OA
ATOM     71  O   UNL A   1      40.362  19.522  25.837  1.00  0.00    -0.744 OA
ENDBRANCH  67  68
ENDBRANCH  46  60
BRANCH  47  72
ATOM     72  C   UNL A   1      45.013  33.059  30.311  1.00  0.00     0.058 A 
ATOM     73  C   UNL A   1      45.169  33.381  31.668  1.00  0.00     0.135 A 
ATOM     74  C   UNL A   1      45.169  34.094  29.376  1.00  0.00     0.135 A 
ATOM     75  F   UNL A   1      45.021  32.432  32.605  1.00  0.00    -0.206 F 
ATOM     76  C   UNL A   1      45.449  34.680  32.084  1.00  0.00     0.059 A 
ATOM     77  C   UNL A   1      45.482  35.393  29.764  1.00  0.00     0.059 A 
ATOM     78  F   UNL A   1      45.044  33.841  28.063  1.00  0.00    -0.206 F 
ATOM     79  C   UNL A   1      45.608  35.679  31.122  1.00  0.00     0.060 A 
BRANCH  79  80
ATOM     80  S   UNL A   1      46.017  37.352  31.667  1.00  0.00     0.124 S 
ATOM     81  O   UNL A   1      46.877  37.086  32.815  1.00  0.00    -0.237 OA
ATOM     82  O   UNL A   1      46.675  37.905  30.488  1.00  0.00    -0.237 OA
ATOM     83  O   UNL A   1      44.713  37.931  31.978  1.00  0.00    -0.744 OA
ENDBRANCH  79  80
ENDBRANCH  47  72
BRANCH  59  84
ATOM     84  C   UNL A   1      48.892  27.688  28.120  1.00  0.00     0.058 A 
ATOM     85  C   UNL A   1      49.753  27.222  29.128  1.00  0.00     0.135 A 
ATOM     86  C   UNL A   1      49.457  27.996  26.871  1.00  0.00     0.135 A 
ATOM     87  F   UNL A   1      49.270  26.911  30.341  1.00  0.00    -0.206 F 
ATOM     88  C   UNL A   1      51.126  27.120  28.921  1.00  0.00     0.059 A 
ATOM     89  C   UNL A   1      50.820  27.863  26.631  1.00  0.00     0.059 A 
ATOM     90  F   UNL A   1      48.681  28.429  25.865  1.00  0.00    -0.206 F 
ATOM     91  C   UNL A   1      51.650  27.447  27.670  1.00  0.00     0.060 A 
BRANCH  91  92
ATOM     92  S   UNL A   1      53.433  27.320  27.419  1.00  0.00     0.124 S 
ATOM     93  O   UNL A   1      53.551  27.609  25.994  1.00  0.00    -0.237 OA
ATOM     94  O   UNL A   1      53.948  28.348  28.319  1.00  0.00    -0.237 OA
ATOM     95  O   UNL A   1      53.735  25.946  27.808  1.00  0.00    -0.744 OA
ENDBRANCH  91  92
ENDBRANCH  59  84
ENDBRANCH  33  34
ENDBRANCH  25  28
ENDBRANCH  23  24
ENDBRANCH  22  23
ENDBRANCH   1  22
TORSDOF 17
ENDMDL
