MODEL 1
REMARK VINA RESULT:     -12.5      0.000      0.000
REMARK SMILES Cc1cc(-c2cncc(C(=O)NCCCCNC(=O)c3ccc(-c4c5nc(c(-c6c(F)cc(S(=O)(=O)[O-])cc6F)c6ccc([nH]6)c(-c6c(F)cc(S(=O)(=O)[O-])cc6F)c6nc(c(-c7c(F)cc(S(=O)(=O)[O-])cc7F)c7ccc4[nH]7)C=C6)C=C5)cc3)c2)ccc1F
REMARK SMILES IDX 15 1 14 2 13 3 12 4 10 5 11 6 9 8 5 9 6 10 86 11 7 12 8 13
REMARK SMILES IDX 4 14 1 15 2 16 3 17 89 18 88 19 90 20 87 21 16 22 17 23
REMARK SMILES IDX 18 24 19 26 20 27 21 28 85 29 22 30 84 31 23 32 24 33 25 34
REMARK SMILES IDX 78 35 26 36 83 37 77 38 79 39 27 40 82 41 76 42 75 43 28 45
REMARK SMILES IDX 62 46 41 47 61 48 42 49 45 50 60 51 80 52 43 53 44 54 59 56
REMARK SMILES IDX 81 57 46 58 29 59 30 60 39 61 31 62 32 63 38 64 40 65 33 66
REMARK SMILES IDX 34 67 35 68 36 69 37 70 63 71 64 72 73 73 65 74 66 75 72 76
REMARK SMILES IDX 74 77 67 78 68 79 69 80 70 81 71 82 47 83 48 84 57 85 49 86
REMARK SMILES IDX 50 87 56 88 58 89 51 90 52 91 53 92 54 93 55 94
REMARK H PARENT 12 7 17 25 79 44 45 55
REMARK Flexibility Score: inf
ROOT
ATOM      1  C   UNL A   1      40.489  21.137  26.963  1.00  0.00     0.023 C 
ENDROOT
BRANCH   1   2
ATOM      2  C   UNL A   1      41.830  20.401  27.070  1.00  0.00     0.023 C 
BRANCH   2   3
ATOM      3  C   UNL A   1      42.252  19.658  25.798  1.00  0.00     0.116 C 
BRANCH   3   4
ATOM      4  N   UNL A   1      43.677  19.804  25.547  1.00  0.00    -0.352 N 
ATOM      5  C   UNL A   1      44.529  20.879  25.516  1.00  0.00     0.252 C 
ATOM      6  O   UNL A   1      45.704  20.652  25.218  1.00  0.00    -0.269 OA
ATOM      7  H   UNL A   1      44.126  18.948  25.358  1.00  0.00     0.163 HD
BRANCH   5   8
ATOM      8  C   UNL A   1      44.148  22.277  25.847  1.00  0.00     0.058 A 
ATOM      9  C   UNL A   1      44.014  24.274  27.241  1.00  0.00     0.001 A 
ATOM     10  C   UNL A   1      43.448  24.933  26.157  1.00  0.00     0.119 A 
ATOM     11  C   UNL A   1      44.325  22.916  27.070  1.00  0.00     0.025 A 
ATOM     12  N   UNL A   1      43.202  24.349  24.963  1.00  0.00    -0.263 NA
ATOM     13  C   UNL A   1      43.570  23.045  24.837  1.00  0.00     0.124 A 
BRANCH   9  14
ATOM     14  C   UNL A   1      44.361  24.942  28.497  1.00  0.00    -0.016 A 
ATOM     15  C   UNL A   1      47.517  25.554  30.570  1.00  0.00     0.047 C 
ATOM     16  C   UNL A   1      46.084  25.542  30.134  1.00  0.00    -0.015 A 
ATOM     17  C   UNL A   1      45.709  24.983  28.906  1.00  0.00     0.015 A 
ATOM     18  C   UNL A   1      45.087  26.074  30.950  1.00  0.00     0.126 A 
ATOM     19  C   UNL A   1      43.749  26.051  30.566  1.00  0.00     0.040 A 
ATOM     20  F   UNL A   1      45.412  26.620  32.131  1.00  0.00    -0.207 F 
ATOM     21  C   UNL A   1      43.384  25.486  29.341  1.00  0.00     0.012 A 
ENDBRANCH   9  14
ENDBRANCH   5   8
ENDBRANCH   3   4
ENDBRANCH   2   3
ENDBRANCH   1   2
BRANCH   1  22
ATOM     22  C   UNL A   1      40.532  22.588  27.411  1.00  0.00     0.116 C 
BRANCH  22  23
ATOM     23  N   UNL A   1      40.242  23.532  26.343  1.00  0.00    -0.352 N 
ATOM     24  C   UNL A   1      39.361  24.569  26.637  1.00  0.00     0.251 C 
ATOM     25  H   UNL A   1      40.650  23.440  25.452  1.00  0.00     0.163 HD
ATOM     26  O   UNL A   1      38.155  24.453  26.500  1.00  0.00    -0.269 OA
BRANCH  24  27
ATOM     27  C   UNL A   1      39.975  25.697  27.405  1.00  0.00     0.039 A 
ATOM     28  C   UNL A   1      40.490  26.803  26.718  1.00  0.00     0.014 A 
ATOM     29  C   UNL A   1      39.800  25.759  28.790  1.00  0.00     0.014 A 
ATOM     30  C   UNL A   1      40.696  28.007  27.398  1.00  0.00     0.010 A 
ATOM     31  C   UNL A   1      39.928  26.960  29.444  1.00  0.00     0.010 A 
ATOM     32  C   UNL A   1      40.349  28.098  28.750  1.00  0.00    -0.014 A 
BRANCH  32  33
ATOM     33  C   UNL A   1      40.327  29.341  29.518  1.00  0.00     0.031 A 
ATOM     34  C   UNL A   1      39.195  30.286  29.444  1.00  0.00     0.074 A 
ATOM     35  C   UNL A   1      41.355  29.583  30.357  1.00  0.00     0.049 A 
ATOM     36  N   UNL A   1      39.292  31.547  29.698  1.00  0.00    -0.248 NA
ATOM     37  C   UNL A   1      37.843  29.877  29.079  1.00  0.00     0.031 C 
ATOM     38  C   UNL A   1      41.508  30.634  31.351  1.00  0.00     0.029 A 
ATOM     39  N   UNL A   1      42.613  28.993  30.286  1.00  0.00    -0.354 N 
ATOM     40  C   UNL A   1      38.019  32.069  29.772  1.00  0.00     0.074 A 
ATOM     41  C   UNL A   1      37.155  31.001  29.318  1.00  0.00     0.031 C 
ATOM     42  C   UNL A   1      42.823  30.809  31.581  1.00  0.00     0.029 A 
ATOM     43  C   UNL A   1      43.548  29.974  30.632  1.00  0.00     0.049 A 
ATOM     44  H   UNL A   1      42.807  28.059  30.041  1.00  0.00     0.167 HD
ATOM     45  C   UNL A   1      37.831  33.305  30.323  1.00  0.00     0.037 A 
ATOM     46  C   UNL A   1      44.398  30.415  29.652  1.00  0.00     0.037 A 
ATOM     47  C   UNL A   1      39.105  33.900  30.727  1.00  0.00     0.049 A 
ATOM     48  C   UNL A   1      44.175  31.859  29.260  1.00  0.00     0.074 A 
ATOM     49  C   UNL A   1      39.799  33.957  31.924  1.00  0.00     0.029 A 
ATOM     50  N   UNL A   1      40.002  34.285  29.749  1.00  0.00    -0.354 N 
ATOM     51  N   UNL A   1      43.227  32.618  29.738  1.00  0.00    -0.248 NA
ATOM     52  C   UNL A   1      44.981  32.550  28.253  1.00  0.00     0.031 C 
ATOM     53  C   UNL A   1      41.144  34.331  31.642  1.00  0.00     0.029 A 
ATOM     54  C   UNL A   1      41.260  34.515  30.276  1.00  0.00     0.049 A 
ATOM     55  H   UNL A   1      39.775  34.382  28.796  1.00  0.00     0.167 HD
ATOM     56  C   UNL A   1      43.256  33.835  29.117  1.00  0.00     0.074 A 
ATOM     57  C   UNL A   1      44.380  33.751  28.201  1.00  0.00     0.031 C 
ATOM     58  C   UNL A   1      42.350  34.822  29.367  1.00  0.00     0.037 A 
BRANCH  45  59
ATOM     59  C   UNL A   1      36.485  33.883  30.708  1.00  0.00     0.058 A 
ATOM     60  C   UNL A   1      35.550  34.253  29.714  1.00  0.00     0.135 A 
ATOM     61  C   UNL A   1      36.059  34.116  32.031  1.00  0.00     0.135 A 
ATOM     62  F   UNL A   1      35.778  34.018  28.415  1.00  0.00    -0.206 F 
ATOM     63  C   UNL A   1      34.344  34.895  30.001  1.00  0.00     0.059 A 
ATOM     64  C   UNL A   1      34.877  34.802  32.342  1.00  0.00     0.059 A 
ATOM     65  F   UNL A   1      36.757  33.650  33.076  1.00  0.00    -0.206 F 
ATOM     66  C   UNL A   1      34.029  35.200  31.317  1.00  0.00     0.060 A 
BRANCH  66  67
ATOM     67  S   UNL A   1      32.513  36.118  31.650  1.00  0.00     0.124 S 
ATOM     68  O   UNL A   1      32.012  36.381  30.304  1.00  0.00    -0.237 OA
ATOM     69  O   UNL A   1      31.743  35.163  32.437  1.00  0.00    -0.237 OA
ATOM     70  O   UNL A   1      32.982  37.296  32.375  1.00  0.00    -0.744 OA
ENDBRANCH  66  67
ENDBRANCH  45  59
BRANCH  46  71
ATOM     71  C   UNL A   1      44.787  29.301  28.721  1.00  0.00     0.058 A 
ATOM     72  C   UNL A   1      44.122  29.237  27.478  1.00  0.00     0.135 A 
ATOM     73  C   UNL A   1      46.052  28.696  28.804  1.00  0.00     0.135 A 
ATOM     74  F   UNL A   1      42.905  29.792  27.340  1.00  0.00    -0.206 F 
ATOM     75  C   UNL A   1      44.757  28.776  26.329  1.00  0.00     0.059 A 
ATOM     76  C   UNL A   1      46.703  28.215  27.662  1.00  0.00     0.059 A 
ATOM     77  F   UNL A   1      46.728  28.698  29.962  1.00  0.00    -0.206 F 
ATOM     78  C   UNL A   1      46.075  28.335  26.420  1.00  0.00     0.060 A 
BRANCH  78  79
ATOM     79  S   UNL A   1      46.985  28.069  24.877  1.00  0.00     0.124 S 
ATOM     80  O   UNL A   1      46.554  29.205  24.068  1.00  0.00    -0.237 OA
ATOM     81  O   UNL A   1      48.376  28.115  25.325  1.00  0.00    -0.237 OA
ATOM     82  O   UNL A   1      46.519  26.764  24.424  1.00  0.00    -0.744 OA
ENDBRANCH  78  79
ENDBRANCH  46  71
BRANCH  58  83
ATOM     83  C   UNL A   1      42.444  36.177  28.737  1.00  0.00     0.058 A 
ATOM     84  C   UNL A   1      41.925  36.433  27.458  1.00  0.00     0.135 A 
ATOM     85  C   UNL A   1      43.149  37.231  29.352  1.00  0.00     0.135 A 
ATOM     86  F   UNL A   1      41.299  35.465  26.767  1.00  0.00    -0.206 F 
ATOM     87  C   UNL A   1      42.035  37.682  26.852  1.00  0.00     0.059 A 
ATOM     88  C   UNL A   1      43.315  38.472  28.745  1.00  0.00     0.059 A 
ATOM     89  F   UNL A   1      43.672  37.098  30.580  1.00  0.00    -0.206 F 
ATOM     90  C   UNL A   1      42.723  38.699  27.509  1.00  0.00     0.060 A 
BRANCH  90  91
ATOM     91  S   UNL A   1      42.846  40.325  26.745  1.00  0.00     0.124 S 
ATOM     92  O   UNL A   1      43.229  41.180  27.866  1.00  0.00    -0.237 OA
ATOM     93  O   UNL A   1      43.883  40.095  25.745  1.00  0.00    -0.237 OA
ATOM     94  O   UNL A   1      41.503  40.554  26.222  1.00  0.00    -0.744 OA
ENDBRANCH  90  91
ENDBRANCH  58  83
ENDBRANCH  32  33
ENDBRANCH  24  27
ENDBRANCH  22  23
ENDBRANCH   1  22
TORSDOF 15
ENDMDL
MODEL 2
REMARK VINA RESULT:     -12.3      5.180     12.446
REMARK SMILES Cc1cc(-c2cncc(C(=O)NCCCCNC(=O)c3ccc(-c4c5nc(c(-c6c(F)cc(S(=O)(=O)[O-])cc6F)c6ccc([nH]6)c(-c6c(F)cc(S(=O)(=O)[O-])cc6F)c6nc(c(-c7c(F)cc(S(=O)(=O)[O-])cc7F)c7ccc4[nH]7)C=C6)C=C5)cc3)c2)ccc1F
REMARK SMILES IDX 15 1 14 2 13 3 12 4 10 5 11 6 9 8 5 9 6 10 86 11 7 12 8 13
REMARK SMILES IDX 4 14 1 15 2 16 3 17 89 18 88 19 90 20 87 21 16 22 17 23
REMARK SMILES IDX 18 24 19 26 20 27 21 28 85 29 22 30 84 31 23 32 24 33 25 34
REMARK SMILES IDX 78 35 26 36 83 37 77 38 79 39 27 40 82 41 76 42 75 43 28 45
REMARK SMILES IDX 62 46 41 47 61 48 42 49 45 50 60 51 80 52 43 53 44 54 59 56
REMARK SMILES IDX 81 57 46 58 29 59 30 60 39 61 31 62 32 63 38 64 40 65 33 66
REMARK SMILES IDX 34 67 35 68 36 69 37 70 63 71 64 72 73 73 65 74 66 75 72 76
REMARK SMILES IDX 74 77 67 78 68 79 69 80 70 81 71 82 47 83 48 84 57 85 49 86
REMARK SMILES IDX 50 87 56 88 58 89 51 90 52 91 53 92 54 93 55 94
REMARK H PARENT 12 7 17 25 79 44 45 55
REMARK Flexibility Score: inf
ROOT
ATOM      1  C   UNL A   1      34.714  29.332  26.885  1.00  0.00     0.023 C 
ENDROOT
BRANCH   1   2
ATOM      2  C   UNL A   1      33.504  28.756  26.140  1.00  0.00     0.023 C 
BRANCH   2   3
ATOM      3  C   UNL A   1      33.429  27.225  26.137  1.00  0.00     0.116 C 
BRANCH   3   4
ATOM      4  N   UNL A   1      32.073  26.760  26.380  1.00  0.00    -0.352 N 
ATOM      5  C   UNL A   1      31.449  25.546  26.246  1.00  0.00     0.252 C 
ATOM      6  O   UNL A   1      30.243  25.506  26.503  1.00  0.00    -0.269 OA
ATOM      7  H   UNL A   1      31.475  27.469  26.711  1.00  0.00     0.163 HD
BRANCH   5   8
ATOM      8  C   UNL A   1      32.123  24.280  25.852  1.00  0.00     0.058 A 
ATOM      9  C   UNL A   1      34.024  22.812  25.431  1.00  0.00     0.001 A 
ATOM     10  C   UNL A   1      33.117  21.782  25.213  1.00  0.00     0.119 A 
ATOM     11  C   UNL A   1      33.492  24.080  25.716  1.00  0.00     0.025 A 
ATOM     12  N   UNL A   1      31.775  21.932  25.278  1.00  0.00    -0.263 NA
ATOM     13  C   UNL A   1      31.317  23.170  25.607  1.00  0.00     0.124 A 
BRANCH   9  14
ATOM     14  C   UNL A   1      35.475  22.616  25.450  1.00  0.00    -0.016 A 
ATOM     15  C   UNL A   1      37.922  19.722  24.932  1.00  0.00     0.047 C 
ATOM     16  C   UNL A   1      37.376  21.085  25.227  1.00  0.00    -0.015 A 
ATOM     17  C   UNL A   1      36.002  21.345  25.148  1.00  0.00     0.015 A 
ATOM     18  C   UNL A   1      38.225  22.125  25.603  1.00  0.00     0.126 A 
ATOM     19  C   UNL A   1      37.729  23.391  25.902  1.00  0.00     0.040 A 
ATOM     20  F   UNL A   1      39.546  21.911  25.686  1.00  0.00    -0.207 F 
ATOM     21  C   UNL A   1      36.355  23.639  25.825  1.00  0.00     0.012 A 
ENDBRANCH   9  14
ENDBRANCH   5   8
ENDBRANCH   3   4
ENDBRANCH   2   3
ENDBRANCH   1   2
BRANCH   1  22
ATOM     22  C   UNL A   1      34.359  30.230  28.058  1.00  0.00     0.116 C 
BRANCH  22  23
ATOM     23  N   UNL A   1      35.429  31.138  28.436  1.00  0.00    -0.352 N 
ATOM     24  C   UNL A   1      36.253  30.744  29.487  1.00  0.00     0.251 C 
ATOM     25  H   UNL A   1      35.565  31.995  27.971  1.00  0.00     0.163 HD
ATOM     26  O   UNL A   1      35.988  30.999  30.650  1.00  0.00    -0.269 OA
BRANCH  24  27
ATOM     27  C   UNL A   1      37.299  29.744  29.105  1.00  0.00     0.039 A 
ATOM     28  C   UNL A   1      38.052  29.939  27.942  1.00  0.00     0.014 A 
ATOM     29  C   UNL A   1      37.690  28.774  30.031  1.00  0.00     0.014 A 
ATOM     30  C   UNL A   1      39.264  29.262  27.778  1.00  0.00     0.010 A 
ATOM     31  C   UNL A   1      38.916  28.166  29.910  1.00  0.00     0.010 A 
ATOM     32  C   UNL A   1      39.724  28.425  28.800  1.00  0.00    -0.014 A 
BRANCH  32  33
ATOM     33  C   UNL A   1      41.054  27.823  28.841  1.00  0.00     0.031 A 
ATOM     34  C   UNL A   1      41.306  26.446  28.370  1.00  0.00     0.074 A 
ATOM     35  C   UNL A   1      42.080  28.587  29.272  1.00  0.00     0.049 A 
ATOM     36  N   UNL A   1      42.284  25.712  28.781  1.00  0.00    -0.248 NA
ATOM     37  C   UNL A   1      40.465  25.782  27.379  1.00  0.00     0.031 C 
ATOM     38  C   UNL A   1      43.508  28.310  29.256  1.00  0.00     0.029 A 
ATOM     39  N   UNL A   1      41.962  29.736  30.048  1.00  0.00    -0.354 N 
ATOM     40  C   UNL A   1      42.359  24.603  27.966  1.00  0.00     0.074 A 
ATOM     41  C   UNL A   1      41.166  24.664  27.148  1.00  0.00     0.031 C 
ATOM     42  C   UNL A   1      44.095  29.067  30.202  1.00  0.00     0.029 A 
ATOM     43  C   UNL A   1      43.036  29.738  30.944  1.00  0.00     0.049 A 
ATOM     44  H   UNL A   1      41.256  30.419  29.978  1.00  0.00     0.167 HD
ATOM     45  C   UNL A   1      43.482  23.826  27.992  1.00  0.00     0.037 A 
ATOM     46  C   UNL A   1      42.753  29.575  32.274  1.00  0.00     0.037 A 
ATOM     47  C   UNL A   1      44.446  24.327  28.972  1.00  0.00     0.049 A 
ATOM     48  C   UNL A   1      43.275  28.277  32.851  1.00  0.00     0.074 A 
ATOM     49  C   UNL A   1      45.555  25.153  28.890  1.00  0.00     0.029 A 
ATOM     50  N   UNL A   1      44.141  24.232  30.316  1.00  0.00    -0.354 N 
ATOM     51  N   UNL A   1      43.877  27.348  32.159  1.00  0.00    -0.248 NA
ATOM     52  C   UNL A   1      43.113  27.901  34.256  1.00  0.00     0.031 C 
ATOM     53  C   UNL A   1      45.878  25.595  30.204  1.00  0.00     0.029 A 
ATOM     54  C   UNL A   1      44.975  25.026  31.083  1.00  0.00     0.049 A 
ATOM     55  H   UNL A   1      43.421  23.670  30.683  1.00  0.00     0.167 HD
ATOM     56  C   UNL A   1      44.145  26.277  32.964  1.00  0.00     0.074 A 
ATOM     57  C   UNL A   1      43.658  26.673  34.274  1.00  0.00     0.031 C 
ATOM     58  C   UNL A   1      44.722  25.129  32.509  1.00  0.00     0.037 A 
BRANCH  45  59
ATOM     59  C   UNL A   1      43.811  22.749  26.978  1.00  0.00     0.058 A 
ATOM     60  C   UNL A   1      43.009  21.590  26.874  1.00  0.00     0.135 A 
ATOM     61  C   UNL A   1      44.908  22.787  26.094  1.00  0.00     0.135 A 
ATOM     62  F   UNL A   1      41.887  21.447  27.591  1.00  0.00    -0.206 F 
ATOM     63  C   UNL A   1      43.326  20.515  26.042  1.00  0.00     0.059 A 
ATOM     64  C   UNL A   1      45.274  21.701  25.286  1.00  0.00     0.059 A 
ATOM     65  F   UNL A   1      45.645  23.897  25.951  1.00  0.00    -0.206 F 
ATOM     66  C   UNL A   1      44.481  20.561  25.276  1.00  0.00     0.060 A 
BRANCH  66  67
ATOM     67  S   UNL A   1      44.919  19.118  24.287  1.00  0.00     0.124 S 
ATOM     68  O   UNL A   1      44.114  18.068  24.905  1.00  0.00    -0.237 OA
ATOM     69  O   UNL A   1      44.508  19.527  22.950  1.00  0.00    -0.237 OA
ATOM     70  O   UNL A   1      46.360  18.991  24.490  1.00  0.00    -0.744 OA
ENDBRANCH  66  67
ENDBRANCH  45  59
BRANCH  46  71
ATOM     71  C   UNL A   1      41.462  30.246  32.648  1.00  0.00     0.058 A 
ATOM     72  C   UNL A   1      40.383  29.412  33.012  1.00  0.00     0.135 A 
ATOM     73  C   UNL A   1      41.444  31.565  33.130  1.00  0.00     0.135 A 
ATOM     74  F   UNL A   1      40.342  28.142  32.575  1.00  0.00    -0.206 F 
ATOM     75  C   UNL A   1      39.442  29.801  33.961  1.00  0.00     0.059 A 
ATOM     76  C   UNL A   1      40.499  31.980  34.075  1.00  0.00     0.059 A 
ATOM     77  F   UNL A   1      42.425  32.419  32.801  1.00  0.00    -0.206 F 
ATOM     78  C   UNL A   1      39.554  31.063  34.540  1.00  0.00     0.060 A 
BRANCH  78  79
ATOM     79  S   UNL A   1      38.542  31.414  36.000  1.00  0.00     0.124 S 
ATOM     80  O   UNL A   1      37.327  31.964  35.406  1.00  0.00    -0.237 OA
ATOM     81  O   UNL A   1      38.396  30.088  36.601  1.00  0.00    -0.237 OA
ATOM     82  O   UNL A   1      39.351  32.357  36.761  1.00  0.00    -0.744 OA
ENDBRANCH  78  79
ENDBRANCH  46  71
BRANCH  58  83
ATOM     83  C   UNL A   1      45.082  23.996  33.420  1.00  0.00     0.058 A 
ATOM     84  C   UNL A   1      46.364  23.879  33.979  1.00  0.00     0.135 A 
ATOM     85  C   UNL A   1      44.186  22.938  33.675  1.00  0.00     0.135 A 
ATOM     86  F   UNL A   1      47.306  24.805  33.732  1.00  0.00    -0.206 F 
ATOM     87  C   UNL A   1      46.717  22.813  34.803  1.00  0.00     0.059 A 
ATOM     88  C   UNL A   1      44.532  21.839  34.453  1.00  0.00     0.059 A 
ATOM     89  F   UNL A   1      42.931  22.958  33.201  1.00  0.00    -0.206 F 
ATOM     90  C   UNL A   1      45.790  21.803  35.042  1.00  0.00     0.060 A 
BRANCH  90  91
ATOM     91  S   UNL A   1      46.228  20.435  36.128  1.00  0.00     0.124 S 
ATOM     92  O   UNL A   1      45.657  20.844  37.409  1.00  0.00    -0.237 OA
ATOM     93  O   UNL A   1      45.559  19.319  35.469  1.00  0.00    -0.237 OA
ATOM     94  O   UNL A   1      47.686  20.418  36.077  1.00  0.00    -0.744 OA
ENDBRANCH  90  91
ENDBRANCH  58  83
ENDBRANCH  32  33
ENDBRANCH  24  27
ENDBRANCH  22  23
ENDBRANCH   1  22
TORSDOF 15
ENDMDL
MODEL 3
REMARK VINA RESULT:     -12.0      2.560      5.108
REMARK SMILES Cc1cc(-c2cncc(C(=O)NCCCCNC(=O)c3ccc(-c4c5nc(c(-c6c(F)cc(S(=O)(=O)[O-])cc6F)c6ccc([nH]6)c(-c6c(F)cc(S(=O)(=O)[O-])cc6F)c6nc(c(-c7c(F)cc(S(=O)(=O)[O-])cc7F)c7ccc4[nH]7)C=C6)C=C5)cc3)c2)ccc1F
REMARK SMILES IDX 15 1 14 2 13 3 12 4 10 5 11 6 9 8 5 9 6 10 86 11 7 12 8 13
REMARK SMILES IDX 4 14 1 15 2 16 3 17 89 18 88 19 90 20 87 21 16 22 17 23
REMARK SMILES IDX 18 24 19 26 20 27 21 28 85 29 22 30 84 31 23 32 24 33 25 34
REMARK SMILES IDX 78 35 26 36 83 37 77 38 79 39 27 40 82 41 76 42 75 43 28 45
REMARK SMILES IDX 62 46 41 47 61 48 42 49 45 50 60 51 80 52 43 53 44 54 59 56
REMARK SMILES IDX 81 57 46 58 29 59 30 60 39 61 31 62 32 63 38 64 40 65 33 66
REMARK SMILES IDX 34 67 35 68 36 69 37 70 63 71 64 72 73 73 65 74 66 75 72 76
REMARK SMILES IDX 74 77 67 78 68 79 69 80 70 81 71 82 47 83 48 84 57 85 49 86
REMARK SMILES IDX 50 87 56 88 58 89 51 90 52 91 53 92 54 93 55 94
REMARK H PARENT 12 7 17 25 79 44 45 55
REMARK Flexibility Score: inf
ROOT
ATOM      1  C   UNL A   1      39.955  21.338  26.883  1.00  0.00     0.023 C 
ENDROOT
BRANCH   1   2
ATOM      2  C   UNL A   1      39.307  21.058  25.522  1.00  0.00     0.023 C 
BRANCH   2   3
ATOM      3  C   UNL A   1      37.809  21.379  25.452  1.00  0.00     0.116 C 
BRANCH   3   4
ATOM      4  N   UNL A   1      37.469  22.048  24.207  1.00  0.00    -0.352 N 
ATOM      5  C   UNL A   1      36.395  22.796  23.796  1.00  0.00     0.252 C 
ATOM      6  O   UNL A   1      36.402  23.188  22.626  1.00  0.00    -0.269 OA
ATOM      7  H   UNL A   1      38.157  21.941  23.510  1.00  0.00     0.163 HD
BRANCH   5   8
ATOM      8  C   UNL A   1      35.252  23.193  24.660  1.00  0.00     0.058 A 
ATOM      9  C   UNL A   1      33.640  24.737  25.642  1.00  0.00     0.001 A 
ATOM     10  C   UNL A   1      33.025  23.641  26.235  1.00  0.00     0.119 A 
ATOM     11  C   UNL A   1      34.792  24.487  24.880  1.00  0.00     0.025 A 
ATOM     12  N   UNL A   1      33.461  22.368  26.101  1.00  0.00    -0.263 NA
ATOM     13  C   UNL A   1      34.552  22.178  25.310  1.00  0.00     0.124 A 
BRANCH   9  14
ATOM     14  C   UNL A   1      33.104  26.097  25.717  1.00  0.00    -0.016 A 
ATOM     15  C   UNL A   1      34.251  29.495  27.050  1.00  0.00     0.047 C 
ATOM     16  C   UNL A   1      33.406  28.422  26.435  1.00  0.00    -0.015 A 
ATOM     17  C   UNL A   1      33.899  27.122  26.270  1.00  0.00     0.015 A 
ATOM     18  C   UNL A   1      32.102  28.691  26.026  1.00  0.00     0.126 A 
ATOM     19  C   UNL A   1      31.298  27.698  25.472  1.00  0.00     0.040 A 
ATOM     20  F   UNL A   1      31.599  29.926  26.166  1.00  0.00    -0.207 F 
ATOM     21  C   UNL A   1      31.797  26.402  25.316  1.00  0.00     0.012 A 
ENDBRANCH   9  14
ENDBRANCH   5   8
ENDBRANCH   3   4
ENDBRANCH   2   3
ENDBRANCH   1   2
BRANCH   1  22
ATOM     22  C   UNL A   1      40.719  22.649  26.955  1.00  0.00     0.116 C 
BRANCH  22  23
ATOM     23  N   UNL A   1      40.236  23.653  26.021  1.00  0.00    -0.352 N 
ATOM     24  C   UNL A   1      39.322  24.583  26.507  1.00  0.00     0.251 C 
ATOM     25  H   UNL A   1      40.541  23.673  25.085  1.00  0.00     0.163 HD
ATOM     26  O   UNL A   1      38.120  24.378  26.495  1.00  0.00    -0.269 OA
BRANCH  24  27
ATOM     27  C   UNL A   1      39.938  25.689  27.306  1.00  0.00     0.039 A 
ATOM     28  C   UNL A   1      40.508  26.784  26.647  1.00  0.00     0.014 A 
ATOM     29  C   UNL A   1      39.712  25.747  28.684  1.00  0.00     0.014 A 
ATOM     30  C   UNL A   1      40.722  27.978  27.343  1.00  0.00     0.010 A 
ATOM     31  C   UNL A   1      39.850  26.941  29.351  1.00  0.00     0.010 A 
ATOM     32  C   UNL A   1      40.327  28.070  28.682  1.00  0.00    -0.014 A 
BRANCH  32  33
ATOM     33  C   UNL A   1      40.310  29.309  29.457  1.00  0.00     0.031 A 
ATOM     34  C   UNL A   1      39.193  30.270  29.372  1.00  0.00     0.074 A 
ATOM     35  C   UNL A   1      41.329  29.531  30.314  1.00  0.00     0.049 A 
ATOM     36  N   UNL A   1      39.304  31.528  29.636  1.00  0.00    -0.248 NA
ATOM     37  C   UNL A   1      37.841  29.882  28.983  1.00  0.00     0.031 C 
ATOM     38  C   UNL A   1      41.481  30.574  31.316  1.00  0.00     0.029 A 
ATOM     39  N   UNL A   1      42.579  28.923  30.258  1.00  0.00    -0.354 N 
ATOM     40  C   UNL A   1      38.037  32.067  29.694  1.00  0.00     0.074 A 
ATOM     41  C   UNL A   1      37.165  31.014  29.219  1.00  0.00     0.031 C 
ATOM     42  C   UNL A   1      42.795  30.728  31.568  1.00  0.00     0.029 A 
ATOM     43  C   UNL A   1      43.522  29.889  30.624  1.00  0.00     0.049 A 
ATOM     44  H   UNL A   1      42.764  27.989  30.010  1.00  0.00     0.167 HD
ATOM     45  C   UNL A   1      37.858  33.302  30.250  1.00  0.00     0.037 A 
ATOM     46  C   UNL A   1      44.393  30.324  29.661  1.00  0.00     0.037 A 
ATOM     47  C   UNL A   1      39.133  33.877  30.678  1.00  0.00     0.049 A 
ATOM     48  C   UNL A   1      44.197  31.774  29.275  1.00  0.00     0.074 A 
ATOM     49  C   UNL A   1      39.810  33.916  31.886  1.00  0.00     0.029 A 
ATOM     50  N   UNL A   1      40.051  34.255  29.716  1.00  0.00    -0.354 N 
ATOM     51  N   UNL A   1      43.252  32.543  29.743  1.00  0.00    -0.248 NA
ATOM     52  C   UNL A   1      45.028  32.460  28.285  1.00  0.00     0.031 C 
ATOM     53  C   UNL A   1      41.164  34.274  31.626  1.00  0.00     0.029 A 
ATOM     54  C   UNL A   1      41.303  34.464  30.263  1.00  0.00     0.049 A 
ATOM     55  H   UNL A   1      39.840  34.361  28.760  1.00  0.00     0.167 HD
ATOM     56  C   UNL A   1      43.308  33.763  29.131  1.00  0.00     0.074 A 
ATOM     57  C   UNL A   1      44.444  33.669  28.231  1.00  0.00     0.031 C 
ATOM     58  C   UNL A   1      42.412  34.762  29.373  1.00  0.00     0.037 A 
BRANCH  45  59
ATOM     59  C   UNL A   1      36.514  33.897  30.618  1.00  0.00     0.058 A 
ATOM     60  C   UNL A   1      35.589  34.261  29.613  1.00  0.00     0.135 A 
ATOM     61  C   UNL A   1      36.081  34.151  31.935  1.00  0.00     0.135 A 
ATOM     62  F   UNL A   1      35.824  34.007  28.319  1.00  0.00    -0.206 F 
ATOM     63  C   UNL A   1      34.387  34.917  29.884  1.00  0.00     0.059 A 
ATOM     64  C   UNL A   1      34.903  34.851  32.229  1.00  0.00     0.059 A 
ATOM     65  F   UNL A   1      36.768  33.693  32.991  1.00  0.00    -0.206 F 
ATOM     66  C   UNL A   1      34.066  35.242  31.193  1.00  0.00     0.060 A 
BRANCH  66  67
ATOM     67  S   UNL A   1      32.556  36.177  31.503  1.00  0.00     0.124 S 
ATOM     68  O   UNL A   1      31.995  36.310  30.161  1.00  0.00    -0.237 OA
ATOM     69  O   UNL A   1      31.829  35.294  32.408  1.00  0.00    -0.237 OA
ATOM     70  O   UNL A   1      33.041  37.421  32.095  1.00  0.00    -0.744 OA
ENDBRANCH  66  67
ENDBRANCH  45  59
BRANCH  46  71
ATOM     71  C   UNL A   1      44.781  29.211  28.729  1.00  0.00     0.058 A 
ATOM     72  C   UNL A   1      44.170  29.192  27.457  1.00  0.00     0.135 A 
ATOM     73  C   UNL A   1      46.018  28.558  28.856  1.00  0.00     0.135 A 
ATOM     74  F   UNL A   1      42.982  29.795  27.276  1.00  0.00    -0.206 F 
ATOM     75  C   UNL A   1      44.837  28.725  26.328  1.00  0.00     0.059 A 
ATOM     76  C   UNL A   1      46.700  28.070  27.735  1.00  0.00     0.059 A 
ATOM     77  F   UNL A   1      46.642  28.515  30.042  1.00  0.00    -0.206 F 
ATOM     78  C   UNL A   1      46.133  28.233  26.470  1.00  0.00     0.060 A 
BRANCH  78  79
ATOM     79  S   UNL A   1      47.099  27.956  24.963  1.00  0.00     0.124 S 
ATOM     80  O   UNL A   1      46.664  29.060  24.113  1.00  0.00    -0.237 OA
ATOM     81  O   UNL A   1      48.474  28.052  25.454  1.00  0.00    -0.237 OA
ATOM     82  O   UNL A   1      46.684  26.629  24.528  1.00  0.00    -0.744 OA
ENDBRANCH  78  79
ENDBRANCH  46  71
BRANCH  58  83
ATOM     83  C   UNL A   1      42.535  36.119  28.754  1.00  0.00     0.058 A 
ATOM     84  C   UNL A   1      43.095  37.200  29.453  1.00  0.00     0.135 A 
ATOM     85  C   UNL A   1      41.999  36.402  27.481  1.00  0.00     0.135 A 
ATOM     86  F   UNL A   1      43.566  37.038  30.700  1.00  0.00    -0.206 F 
ATOM     87  C   UNL A   1      43.186  38.473  28.895  1.00  0.00     0.059 A 
ATOM     88  C   UNL A   1      42.033  37.676  26.924  1.00  0.00     0.059 A 
ATOM     89  F   UNL A   1      41.455  35.439  26.723  1.00  0.00    -0.206 F 
ATOM     90  C   UNL A   1      42.661  38.699  27.625  1.00  0.00     0.060 A 
BRANCH  90  91
ATOM     91  S   UNL A   1      42.799  40.335  26.886  1.00  0.00     0.124 S 
ATOM     92  O   UNL A   1      43.281  41.151  27.998  1.00  0.00    -0.237 OA
ATOM     93  O   UNL A   1      43.765  40.089  25.821  1.00  0.00    -0.237 OA
ATOM     94  O   UNL A   1      41.437  40.624  26.450  1.00  0.00    -0.744 OA
ENDBRANCH  90  91
ENDBRANCH  58  83
ENDBRANCH  32  33
ENDBRANCH  24  27
ENDBRANCH  22  23
ENDBRANCH   1  22
TORSDOF 15
ENDMDL
