MODEL 1
REMARK VINA RESULT:     -12.5      0.000      0.000
REMARK SMILES O=C(NCCCCNC(=O)c1ccc(-c2c3nc(c(-c4c(F)cc(S(=O)(=O)[O-])cc4F)c4ccc([nH]4)c(-c4c(F)cc(S(=O)(=O)[O-])cc4F)c4nc(c(-c5c(F)cc(S(=O)(=O)[O-])cc5F)c5ccc2[nH]5)C=C4)C=C3)cc1)c1ccc(C[C@H]2SC(=O)N(c3ccccc3)C2=O)cc1
REMARK SMILES IDX 5 1 4 2 3 3 1 4 2 5 77 7 78 8 96 9 79 10 95 11 80 12 81 13
REMARK SMILES IDX 82 14 83 15 93 16 84 17 86 18 94 19 85 20 87 21 88 22 92 23
REMARK SMILES IDX 89 24 91 25 90 26 6 27 7 28 8 29 9 30 10 32 11 33 12 34
REMARK SMILES IDX 76 35 13 36 75 37 14 38 15 39 16 40 69 41 17 42 74 43 68 44
REMARK SMILES IDX 70 45 18 46 73 47 67 48 66 49 19 51 53 52 32 53 52 54 33 55
REMARK SMILES IDX 36 56 51 57 71 58 34 59 35 60 50 62 72 63 37 64 20 65 21 66
REMARK SMILES IDX 30 67 22 68 23 69 29 70 31 71 24 72 25 73 26 74 27 75 28 76
REMARK SMILES IDX 54 77 55 78 64 79 56 80 57 81 63 82 65 83 58 84 59 85 60 86
REMARK SMILES IDX 61 87 62 88 38 89 39 90 48 91 40 92 41 93 47 94 49 95 42 96
REMARK SMILES IDX 43 97 44 98 45 99 46 100
REMARK H PARENT 3 6 8 31 70 50 36 61
REMARK Flexibility Score: inf
ROOT
ATOM      1  C   UNL A   1      33.217  29.332  24.842  1.00  0.00     0.023 C 
ENDROOT
BRANCH   1   2
ATOM      2  C   UNL A   1      33.000  29.050  23.359  1.00  0.00     0.116 C 
BRANCH   2   3
ATOM      3  N   UNL A   1      31.633  29.315  22.934  1.00  0.00    -0.352 N 
ATOM      4  O   UNL A   1      29.555  28.777  22.203  1.00  0.00    -0.269 OA
ATOM      5  C   UNL A   1      30.621  28.418  22.691  1.00  0.00     0.251 C 
ATOM      6  H   UNL A   1      31.403  30.264  22.804  1.00  0.00     0.163 HD
BRANCH   5   7
ATOM      7  C   UNL A   1      30.843  26.995  23.003  1.00  0.00     0.039 A 
ATOM      8  C   UNL A   1      30.280  26.431  24.148  1.00  0.00     0.014 A 
ATOM      9  C   UNL A   1      31.653  26.232  22.160  1.00  0.00     0.014 A 
ATOM     10  C   UNL A   1      30.607  25.125  24.503  1.00  0.00     0.004 A 
ATOM     11  C   UNL A   1      31.985  24.925  22.522  1.00  0.00     0.004 A 
ATOM     12  C   UNL A   1      31.493  24.372  23.715  1.00  0.00    -0.046 A 
BRANCH  12  13
ATOM     13  C   UNL A   1      31.923  22.995  24.163  1.00  0.00     0.060 C 
BRANCH  13  14
ATOM     14  C   UNL A   1      33.067  22.376  23.338  1.00  0.00     0.151 C 
ATOM     15  S   UNL A   1      34.712  22.688  24.029  1.00  0.00    -0.050 SA
ATOM     16  C   UNL A   1      32.921  20.867  23.380  1.00  0.00     0.248 C 
ATOM     17  C   UNL A   1      34.791  21.109  24.781  1.00  0.00     0.293 C 
ATOM     18  N   UNL A   1      33.806  20.288  24.279  1.00  0.00    -0.240 N 
ATOM     19  O   UNL A   1      32.025  20.305  22.752  1.00  0.00    -0.273 OA
ATOM     20  O   UNL A   1      35.666  20.856  25.591  1.00  0.00    -0.261 OA
BRANCH  18  21
ATOM     21  C   UNL A   1      33.703  18.919  24.673  1.00  0.00     0.053 A 
ATOM     22  C   UNL A   1      32.673  18.480  25.518  1.00  0.00     0.027 A 
ATOM     23  C   UNL A   1      34.646  17.974  24.237  1.00  0.00     0.027 A 
ATOM     24  C   UNL A   1      32.588  17.142  25.914  1.00  0.00     0.002 A 
ATOM     25  C   UNL A   1      34.578  16.642  24.655  1.00  0.00     0.002 A 
ATOM     26  C   UNL A   1      33.546  16.225  25.490  1.00  0.00     0.000 A 
ENDBRANCH  18  21
ENDBRANCH  13  14
ENDBRANCH  12  13
ENDBRANCH   5   7
ENDBRANCH   2   3
ENDBRANCH   1   2
BRANCH   1  27
ATOM     27  C   UNL A   1      33.456  28.098  25.709  1.00  0.00     0.023 C 
BRANCH  27  28
ATOM     28  C   UNL A   1      33.489  28.351  27.211  1.00  0.00     0.116 C 
BRANCH  28  29
ATOM     29  N   UNL A   1      33.420  29.764  27.554  1.00  0.00    -0.352 N 
ATOM     30  C   UNL A   1      34.382  30.574  28.112  1.00  0.00     0.251 C 
ATOM     31  H   UNL A   1      32.560  30.203  27.359  1.00  0.00     0.163 HD
ATOM     32  O   UNL A   1      34.093  31.715  28.457  1.00  0.00    -0.269 OA
BRANCH  30  33
ATOM     33  C   UNL A   1      35.752  30.056  28.323  1.00  0.00     0.039 A 
ATOM     34  C   UNL A   1      36.663  30.102  27.264  1.00  0.00     0.014 A 
ATOM     35  C   UNL A   1      36.147  29.546  29.562  1.00  0.00     0.014 A 
ATOM     36  C   UNL A   1      37.987  29.706  27.471  1.00  0.00     0.010 A 
ATOM     37  C   UNL A   1      37.484  29.234  29.790  1.00  0.00     0.010 A 
ATOM     38  C   UNL A   1      38.420  29.309  28.747  1.00  0.00    -0.014 A 
BRANCH  38  39
ATOM     39  C   UNL A   1      39.846  28.979  29.011  1.00  0.00     0.031 A 
ATOM     40  C   UNL A   1      40.765  30.009  29.612  1.00  0.00     0.074 A 
ATOM     41  C   UNL A   1      40.330  27.773  28.653  1.00  0.00     0.049 A 
ATOM     42  N   UNL A   1      42.045  29.926  29.871  1.00  0.00    -0.248 NA
ATOM     43  C   UNL A   1      40.172  31.316  29.943  1.00  0.00     0.031 C 
ATOM     44  C   UNL A   1      39.553  26.704  28.020  1.00  0.00     0.029 A 
ATOM     45  N   UNL A   1      41.591  27.243  28.762  1.00  0.00    -0.354 N 
ATOM     46  C   UNL A   1      42.412  31.167  30.379  1.00  0.00     0.074 A 
ATOM     47  C   UNL A   1      41.234  32.004  30.336  1.00  0.00     0.031 C 
ATOM     48  C   UNL A   1      40.345  25.636  27.831  1.00  0.00     0.029 A 
ATOM     49  C   UNL A   1      41.694  25.957  28.287  1.00  0.00     0.049 A 
ATOM     50  H   UNL A   1      42.351  27.737  29.146  1.00  0.00     0.167 HD
ATOM     51  C   UNL A   1      43.615  31.565  30.860  1.00  0.00     0.037 A 
ATOM     52  C   UNL A   1      42.756  25.129  28.221  1.00  0.00     0.037 A 
ATOM     53  C   UNL A   1      44.781  30.721  30.912  1.00  0.00     0.049 A 
ATOM     54  C   UNL A   1      44.087  25.602  28.740  1.00  0.00     0.074 A 
ATOM     55  C   UNL A   1      46.030  31.011  31.434  1.00  0.00     0.029 A 
ATOM     56  N   UNL A   1      44.846  29.426  30.419  1.00  0.00    -0.354 N 
ATOM     57  N   UNL A   1      44.400  26.754  29.283  1.00  0.00    -0.248 NA
ATOM     58  C   UNL A   1      45.210  24.660  28.640  1.00  0.00     0.031 C 
ATOM     59  C   UNL A   1      46.865  29.912  31.206  1.00  0.00     0.029 A 
ATOM     60  C   UNL A   1      46.121  28.913  30.597  1.00  0.00     0.049 A 
ATOM     61  H   UNL A   1      44.096  28.942  30.003  1.00  0.00     0.167 HD
ATOM     62  C   UNL A   1      45.746  26.664  29.621  1.00  0.00     0.074 A 
ATOM     63  C   UNL A   1      46.185  25.339  29.229  1.00  0.00     0.031 C 
ATOM     64  C   UNL A   1      46.545  27.590  30.206  1.00  0.00     0.037 A 
BRANCH  51  65
ATOM     65  C   UNL A   1      43.728  32.982  31.359  1.00  0.00     0.058 A 
ATOM     66  C   UNL A   1      44.082  34.042  30.508  1.00  0.00     0.135 A 
ATOM     67  C   UNL A   1      43.465  33.288  32.706  1.00  0.00     0.135 A 
ATOM     68  F   UNL A   1      44.356  33.808  29.214  1.00  0.00    -0.206 F 
ATOM     69  C   UNL A   1      44.216  35.343  30.980  1.00  0.00     0.059 A 
ATOM     70  C   UNL A   1      43.561  34.589  33.192  1.00  0.00     0.059 A 
ATOM     71  F   UNL A   1      43.118  32.317  33.565  1.00  0.00    -0.206 F 
ATOM     72  C   UNL A   1      43.957  35.606  32.326  1.00  0.00     0.060 A 
BRANCH  72  73
ATOM     73  S   UNL A   1      44.156  37.297  32.927  1.00  0.00     0.124 S 
ATOM     74  O   UNL A   1      45.422  37.202  33.648  1.00  0.00    -0.237 OA
ATOM     75  O   UNL A   1      44.189  38.067  31.688  1.00  0.00    -0.237 OA
ATOM     76  O   UNL A   1      42.974  37.504  33.760  1.00  0.00    -0.744 OA
ENDBRANCH  72  73
ENDBRANCH  51  65
BRANCH  52  77
ATOM     77  C   UNL A   1      42.596  23.753  27.676  1.00  0.00     0.058 A 
ATOM     78  C   UNL A   1      42.435  22.655  28.534  1.00  0.00     0.135 A 
ATOM     79  C   UNL A   1      42.590  23.507  26.294  1.00  0.00     0.135 A 
ATOM     80  F   UNL A   1      42.442  22.838  29.864  1.00  0.00    -0.206 F 
ATOM     81  C   UNL A   1      42.289  21.361  28.046  1.00  0.00     0.059 A 
ATOM     82  C   UNL A   1      42.418  22.225  25.779  1.00  0.00     0.059 A 
ATOM     83  F   UNL A   1      42.725  24.524  25.428  1.00  0.00    -0.206 F 
ATOM     84  C   UNL A   1      42.278  21.157  26.665  1.00  0.00     0.060 A 
BRANCH  84  85
ATOM     85  S   UNL A   1      42.038  19.478  26.043  1.00  0.00     0.124 S 
ATOM     86  O   UNL A   1      42.474  18.678  27.181  1.00  0.00    -0.237 OA
ATOM     87  O   UNL A   1      40.607  19.460  25.758  1.00  0.00    -0.237 OA
ATOM     88  O   UNL A   1      42.904  19.429  24.868  1.00  0.00    -0.744 OA
ENDBRANCH  84  85
ENDBRANCH  52  77
BRANCH  64  89
ATOM     89  C   UNL A   1      47.968  27.195  30.499  1.00  0.00     0.058 A 
ATOM     90  C   UNL A   1      49.015  27.478  29.608  1.00  0.00     0.135 A 
ATOM     91  C   UNL A   1      48.292  26.561  31.710  1.00  0.00     0.135 A 
ATOM     92  F   UNL A   1      48.760  28.075  28.433  1.00  0.00    -0.206 F 
ATOM     93  C   UNL A   1      50.329  27.124  29.895  1.00  0.00     0.059 A 
ATOM     94  C   UNL A   1      49.604  26.227  32.032  1.00  0.00     0.059 A 
ATOM     95  F   UNL A   1      47.332  26.276  32.603  1.00  0.00    -0.206 F 
ATOM     96  C   UNL A   1      50.614  26.500  31.111  1.00  0.00     0.060 A 
BRANCH  96  97
ATOM     97  S   UNL A   1      52.328  26.073  31.484  1.00  0.00     0.124 S 
ATOM     98  O   UNL A   1      52.184  24.730  32.038  1.00  0.00    -0.237 OA
ATOM     99  O   UNL A   1      52.962  26.153  30.172  1.00  0.00    -0.237 OA
ATOM    100  O   UNL A   1      52.737  27.103  32.436  1.00  0.00    -0.744 OA
ENDBRANCH  96  97
ENDBRANCH  64  89
ENDBRANCH  38  39
ENDBRANCH  30  33
ENDBRANCH  28  29
ENDBRANCH  27  28
ENDBRANCH   1  27
TORSDOF 17
ENDMDL
MODEL 2
REMARK VINA RESULT:     -12.0      1.331      2.232
REMARK SMILES O=C(NCCCCNC(=O)c1ccc(-c2c3nc(c(-c4c(F)cc(S(=O)(=O)[O-])cc4F)c4ccc([nH]4)c(-c4c(F)cc(S(=O)(=O)[O-])cc4F)c4nc(c(-c5c(F)cc(S(=O)(=O)[O-])cc5F)c5ccc2[nH]5)C=C4)C=C3)cc1)c1ccc(C[C@H]2SC(=O)N(c3ccccc3)C2=O)cc1
REMARK SMILES IDX 5 1 4 2 3 3 1 4 2 5 77 7 78 8 96 9 79 10 95 11 80 12 81 13
REMARK SMILES IDX 82 14 83 15 93 16 84 17 86 18 94 19 85 20 87 21 88 22 92 23
REMARK SMILES IDX 89 24 91 25 90 26 6 27 7 28 8 29 9 30 10 32 11 33 12 34
REMARK SMILES IDX 76 35 13 36 75 37 14 38 15 39 16 40 69 41 17 42 74 43 68 44
REMARK SMILES IDX 70 45 18 46 73 47 67 48 66 49 19 51 53 52 32 53 52 54 33 55
REMARK SMILES IDX 36 56 51 57 71 58 34 59 35 60 50 62 72 63 37 64 20 65 21 66
REMARK SMILES IDX 30 67 22 68 23 69 29 70 31 71 24 72 25 73 26 74 27 75 28 76
REMARK SMILES IDX 54 77 55 78 64 79 56 80 57 81 63 82 65 83 58 84 59 85 60 86
REMARK SMILES IDX 61 87 62 88 38 89 39 90 48 91 40 92 41 93 47 94 49 95 42 96
REMARK SMILES IDX 43 97 44 98 45 99 46 100
REMARK H PARENT 3 6 8 31 70 50 36 61
REMARK Flexibility Score: inf
ROOT
ATOM      1  C   UNL A   1      32.958  29.100  24.633  1.00  0.00     0.023 C 
ENDROOT
BRANCH   1   2
ATOM      2  C   UNL A   1      32.387  28.449  23.376  1.00  0.00     0.116 C 
BRANCH   2   3
ATOM      3  N   UNL A   1      30.956  28.673  23.232  1.00  0.00    -0.352 N 
ATOM      4  O   UNL A   1      28.767  28.084  23.183  1.00  0.00    -0.269 OA
ATOM      5  C   UNL A   1      29.923  27.803  23.482  1.00  0.00     0.251 C 
ATOM      6  H   UNL A   1      30.694  29.567  22.914  1.00  0.00     0.163 HD
BRANCH   5   7
ATOM      7  C   UNL A   1      30.225  26.499  24.098  1.00  0.00     0.039 A 
ATOM      8  C   UNL A   1      30.558  26.422  25.451  1.00  0.00     0.014 A 
ATOM      9  C   UNL A   1      30.211  25.352  23.303  1.00  0.00     0.014 A 
ATOM     10  C   UNL A   1      30.972  25.205  25.988  1.00  0.00     0.004 A 
ATOM     11  C   UNL A   1      30.634  24.136  23.843  1.00  0.00     0.004 A 
ATOM     12  C   UNL A   1      31.052  24.059  25.180  1.00  0.00    -0.046 A 
BRANCH  12  13
ATOM     13  C   UNL A   1      31.601  22.770  25.746  1.00  0.00     0.060 C 
BRANCH  13  14
ATOM     14  C   UNL A   1      32.346  21.885  24.730  1.00  0.00     0.151 C 
ATOM     15  S   UNL A   1      32.609  22.684  23.125  1.00  0.00    -0.050 SA
ATOM     16  C   UNL A   1      33.744  21.630  25.257  1.00  0.00     0.248 C 
ATOM     17  C   UNL A   1      34.258  23.120  23.515  1.00  0.00     0.293 C 
ATOM     18  N   UNL A   1      34.687  22.433  24.629  1.00  0.00    -0.240 N 
ATOM     19  O   UNL A   1      33.929  20.873  26.208  1.00  0.00    -0.273 OA
ATOM     20  O   UNL A   1      34.873  23.898  22.806  1.00  0.00    -0.261 OA
BRANCH  18  21
ATOM     21  C   UNL A   1      36.027  22.551  25.110  1.00  0.00     0.053 A 
ATOM     22  C   UNL A   1      36.954  21.513  24.941  1.00  0.00     0.027 A 
ATOM     23  C   UNL A   1      36.447  23.709  25.784  1.00  0.00     0.027 A 
ATOM     24  C   UNL A   1      38.260  21.628  25.428  1.00  0.00     0.002 A 
ATOM     25  C   UNL A   1      37.744  23.813  26.296  1.00  0.00     0.002 A 
ATOM     26  C   UNL A   1      38.651  22.773  26.115  1.00  0.00     0.000 A 
ENDBRANCH  18  21
ENDBRANCH  13  14
ENDBRANCH  12  13
ENDBRANCH   5   7
ENDBRANCH   2   3
ENDBRANCH   1   2
BRANCH   1  27
ATOM     27  C   UNL A   1      33.805  28.181  25.511  1.00  0.00     0.023 C 
BRANCH  27  28
ATOM     28  C   UNL A   1      33.627  28.366  27.013  1.00  0.00     0.116 C 
BRANCH  28  29
ATOM     29  N   UNL A   1      33.546  29.764  27.411  1.00  0.00    -0.352 N 
ATOM     30  C   UNL A   1      34.493  30.550  28.027  1.00  0.00     0.251 C 
ATOM     31  H   UNL A   1      32.692  30.210  27.212  1.00  0.00     0.163 HD
ATOM     32  O   UNL A   1      34.193  31.676  28.410  1.00  0.00    -0.269 OA
BRANCH  30  33
ATOM     33  C   UNL A   1      35.858  30.024  28.253  1.00  0.00     0.039 A 
ATOM     34  C   UNL A   1      36.802  30.133  27.229  1.00  0.00     0.014 A 
ATOM     35  C   UNL A   1      36.214  29.445  29.474  1.00  0.00     0.014 A 
ATOM     36  C   UNL A   1      38.120  29.729  27.456  1.00  0.00     0.010 A 
ATOM     37  C   UNL A   1      37.544  29.124  29.727  1.00  0.00     0.010 A 
ATOM     38  C   UNL A   1      38.513  29.261  28.722  1.00  0.00    -0.014 A 
BRANCH  38  39
ATOM     39  C   UNL A   1      39.931  28.920  29.013  1.00  0.00     0.031 A 
ATOM     40  C   UNL A   1      40.843  29.939  29.644  1.00  0.00     0.074 A 
ATOM     41  C   UNL A   1      40.416  27.714  28.654  1.00  0.00     0.049 A 
ATOM     42  N   UNL A   1      42.116  29.845  29.930  1.00  0.00    -0.248 NA
ATOM     43  C   UNL A   1      40.250  31.245  29.974  1.00  0.00     0.031 C 
ATOM     44  C   UNL A   1      39.646  26.657  27.994  1.00  0.00     0.029 A 
ATOM     45  N   UNL A   1      41.671  27.176  28.786  1.00  0.00    -0.354 N 
ATOM     46  C   UNL A   1      42.480  31.079  30.458  1.00  0.00     0.074 A 
ATOM     47  C   UNL A   1      41.307  31.923  30.398  1.00  0.00     0.031 C 
ATOM     48  C   UNL A   1      40.436  25.586  27.812  1.00  0.00     0.029 A 
ATOM     49  C   UNL A   1      41.777  25.893  28.300  1.00  0.00     0.049 A 
ATOM     50  H   UNL A   1      42.425  27.662  29.190  1.00  0.00     0.167 HD
ATOM     51  C   UNL A   1      43.674  31.465  30.968  1.00  0.00     0.037 A 
ATOM     52  C   UNL A   1      42.835  25.060  28.249  1.00  0.00     0.037 A 
ATOM     53  C   UNL A   1      44.834  30.613  31.038  1.00  0.00     0.049 A 
ATOM     54  C   UNL A   1      44.158  25.520  28.801  1.00  0.00     0.074 A 
ATOM     55  C   UNL A   1      46.073  30.891  31.589  1.00  0.00     0.029 A 
ATOM     56  N   UNL A   1      44.901  29.323  30.533  1.00  0.00    -0.354 N 
ATOM     57  N   UNL A   1      44.465  26.665  29.362  1.00  0.00    -0.248 NA
ATOM     58  C   UNL A   1      45.277  24.572  28.716  1.00  0.00     0.031 C 
ATOM     59  C   UNL A   1      46.906  29.789  31.369  1.00  0.00     0.029 A 
ATOM     60  C   UNL A   1      46.169  28.800  30.734  1.00  0.00     0.049 A 
ATOM     61  H   UNL A   1      44.158  28.848  30.097  1.00  0.00     0.167 HD
ATOM     62  C   UNL A   1      45.802  26.563  29.729  1.00  0.00     0.074 A 
ATOM     63  C   UNL A   1      46.242  25.240  29.333  1.00  0.00     0.031 C 
ATOM     64  C   UNL A   1      46.594  27.479  30.340  1.00  0.00     0.037 A 
BRANCH  51  65
ATOM     65  C   UNL A   1      43.785  32.876  31.484  1.00  0.00     0.058 A 
ATOM     66  C   UNL A   1      43.505  33.200  32.822  1.00  0.00     0.135 A 
ATOM     67  C   UNL A   1      44.190  33.918  30.633  1.00  0.00     0.135 A 
ATOM     68  F   UNL A   1      43.102  32.248  33.679  1.00  0.00    -0.206 F 
ATOM     69  C   UNL A   1      43.577  34.509  33.286  1.00  0.00     0.059 A 
ATOM     70  C   UNL A   1      44.301  35.231  31.085  1.00  0.00     0.059 A 
ATOM     71  F   UNL A   1      44.475  33.669  29.346  1.00  0.00    -0.206 F 
ATOM     72  C   UNL A   1      43.972  35.519  32.408  1.00  0.00     0.060 A 
BRANCH  72  73
ATOM     73  S   UNL A   1      44.042  37.216  33.021  1.00  0.00     0.124 S 
ATOM     74  O   UNL A   1      43.909  37.977  31.782  1.00  0.00    -0.237 OA
ATOM     75  O   UNL A   1      42.896  37.269  33.923  1.00  0.00    -0.237 OA
ATOM     76  O   UNL A   1      45.349  37.292  33.667  1.00  0.00    -0.744 OA
ENDBRANCH  72  73
ENDBRANCH  51  65
BRANCH  52  77
ATOM     77  C   UNL A   1      42.679  23.691  27.687  1.00  0.00     0.058 A 
ATOM     78  C   UNL A   1      42.448  22.592  28.528  1.00  0.00     0.135 A 
ATOM     79  C   UNL A   1      42.746  23.451  26.305  1.00  0.00     0.135 A 
ATOM     80  F   UNL A   1      42.384  22.767  29.857  1.00  0.00    -0.206 F 
ATOM     81  C   UNL A   1      42.305  21.303  28.024  1.00  0.00     0.059 A 
ATOM     82  C   UNL A   1      42.578  22.176  25.774  1.00  0.00     0.059 A 
ATOM     83  F   UNL A   1      42.949  24.470  25.455  1.00  0.00    -0.206 F 
ATOM     84  C   UNL A   1      42.367  21.106  26.644  1.00  0.00     0.060 A 
BRANCH  84  85
ATOM     85  S   UNL A   1      42.130  19.436  25.999  1.00  0.00     0.124 S 
ATOM     86  O   UNL A   1      40.693  19.417  25.753  1.00  0.00    -0.237 OA
ATOM     87  O   UNL A   1      42.982  19.442  24.814  1.00  0.00    -0.237 OA
ATOM     88  O   UNL A   1      42.595  18.585  27.091  1.00  0.00    -0.744 OA
ENDBRANCH  84  85
ENDBRANCH  52  77
BRANCH  64  89
ATOM     89  C   UNL A   1      48.008  27.072  30.660  1.00  0.00     0.058 A 
ATOM     90  C   UNL A   1      49.048  27.208  29.727  1.00  0.00     0.135 A 
ATOM     91  C   UNL A   1      48.333  26.579  31.935  1.00  0.00     0.135 A 
ATOM     92  F   UNL A   1      48.793  27.666  28.491  1.00  0.00    -0.206 F 
ATOM     93  C   UNL A   1      50.355  26.845  30.037  1.00  0.00     0.059 A 
ATOM     94  C   UNL A   1      49.638  26.240  32.277  1.00  0.00     0.059 A 
ATOM     95  F   UNL A   1      47.379  26.439  32.868  1.00  0.00    -0.206 F 
ATOM     96  C   UNL A   1      50.640  26.364  31.317  1.00  0.00     0.060 A 
BRANCH  96  97
ATOM     97  S   UNL A   1      52.345  25.925  31.716  1.00  0.00     0.124 S 
ATOM     98  O   UNL A   1      52.613  26.792  32.859  1.00  0.00    -0.237 OA
ATOM     99  O   UNL A   1      52.240  24.500  32.012  1.00  0.00    -0.237 OA
ATOM    100  O   UNL A   1      53.076  26.254  30.495  1.00  0.00    -0.744 OA
ENDBRANCH  96  97
ENDBRANCH  64  89
ENDBRANCH  38  39
ENDBRANCH  30  33
ENDBRANCH  28  29
ENDBRANCH  27  28
ENDBRANCH   1  27
TORSDOF 17
ENDMDL
MODEL 3
REMARK VINA RESULT:     -11.9      5.074     11.376
REMARK SMILES O=C(NCCCCNC(=O)c1ccc(-c2c3nc(c(-c4c(F)cc(S(=O)(=O)[O-])cc4F)c4ccc([nH]4)c(-c4c(F)cc(S(=O)(=O)[O-])cc4F)c4nc(c(-c5c(F)cc(S(=O)(=O)[O-])cc5F)c5ccc2[nH]5)C=C4)C=C3)cc1)c1ccc(C[C@H]2SC(=O)N(c3ccccc3)C2=O)cc1
REMARK SMILES IDX 5 1 4 2 3 3 1 4 2 5 77 7 78 8 96 9 79 10 95 11 80 12 81 13
REMARK SMILES IDX 82 14 83 15 93 16 84 17 86 18 94 19 85 20 87 21 88 22 92 23
REMARK SMILES IDX 89 24 91 25 90 26 6 27 7 28 8 29 9 30 10 32 11 33 12 34
REMARK SMILES IDX 76 35 13 36 75 37 14 38 15 39 16 40 69 41 17 42 74 43 68 44
REMARK SMILES IDX 70 45 18 46 73 47 67 48 66 49 19 51 53 52 32 53 52 54 33 55
REMARK SMILES IDX 36 56 51 57 71 58 34 59 35 60 50 62 72 63 37 64 20 65 21 66
REMARK SMILES IDX 30 67 22 68 23 69 29 70 31 71 24 72 25 73 26 74 27 75 28 76
REMARK SMILES IDX 54 77 55 78 64 79 56 80 57 81 63 82 65 83 58 84 59 85 60 86
REMARK SMILES IDX 61 87 62 88 38 89 39 90 48 91 40 92 41 93 47 94 49 95 42 96
REMARK SMILES IDX 43 97 44 98 45 99 46 100
REMARK H PARENT 3 6 8 31 70 50 36 61
REMARK Flexibility Score: inf
ROOT
ATOM      1  C   UNL A   1      42.320  23.257  28.603  1.00  0.00     0.023 C 
ENDROOT
BRANCH   1   2
ATOM      2  C   UNL A   1      43.766  23.264  29.089  1.00  0.00     0.116 C 
BRANCH   2   3
ATOM      3  N   UNL A   1      44.674  22.625  28.148  1.00  0.00    -0.352 N 
ATOM      4  O   UNL A   1      45.937  22.479  26.270  1.00  0.00    -0.269 OA
ATOM      5  C   UNL A   1      45.305  23.175  27.058  1.00  0.00     0.251 C 
ATOM      6  H   UNL A   1      44.862  21.673  28.315  1.00  0.00     0.163 HD
BRANCH   5   7
ATOM      7  C   UNL A   1      45.190  24.626  26.827  1.00  0.00     0.039 A 
ATOM      8  C   UNL A   1      45.972  25.518  27.562  1.00  0.00     0.014 A 
ATOM      9  C   UNL A   1      44.263  25.095  25.894  1.00  0.00     0.014 A 
ATOM     10  C   UNL A   1      45.757  26.888  27.432  1.00  0.00     0.004 A 
ATOM     11  C   UNL A   1      44.046  26.468  25.771  1.00  0.00     0.004 A 
ATOM     12  C   UNL A   1      44.766  27.375  26.564  1.00  0.00    -0.046 A 
BRANCH  12  13
ATOM     13  C   UNL A   1      44.470  28.856  26.507  1.00  0.00     0.060 C 
BRANCH  13  14
ATOM     14  C   UNL A   1      45.151  29.692  27.607  1.00  0.00     0.151 C 
ATOM     15  S   UNL A   1      46.789  30.309  27.142  1.00  0.00    -0.050 SA
ATOM     16  C   UNL A   1      44.326  30.944  27.830  1.00  0.00     0.248 C 
ATOM     17  C   UNL A   1      46.171  31.893  26.727  1.00  0.00     0.293 C 
ATOM     18  N   UNL A   1      44.891  32.051  27.211  1.00  0.00    -0.240 N 
ATOM     19  O   UNL A   1      43.239  30.888  28.401  1.00  0.00    -0.273 OA
ATOM     20  O   UNL A   1      46.873  32.691  26.131  1.00  0.00    -0.261 OA
BRANCH  18  21
ATOM     21  C   UNL A   1      44.189  33.288  27.074  1.00  0.00     0.053 A 
ATOM     22  C   UNL A   1      43.726  33.727  25.826  1.00  0.00     0.027 A 
ATOM     23  C   UNL A   1      43.959  34.109  28.190  1.00  0.00     0.027 A 
ATOM     24  C   UNL A   1      43.054  34.946  25.695  1.00  0.00     0.002 A 
ATOM     25  C   UNL A   1      43.313  35.342  28.055  1.00  0.00     0.002 A 
ATOM     26  C   UNL A   1      42.858  35.758  26.808  1.00  0.00     0.000 A 
ENDBRANCH  18  21
ENDBRANCH  13  14
ENDBRANCH  12  13
ENDBRANCH   5   7
ENDBRANCH   2   3
ENDBRANCH   1   2
BRANCH   1  27
ATOM     27  C   UNL A   1      41.957  22.112  27.660  1.00  0.00     0.023 C 
BRANCH  27  28
ATOM     28  C   UNL A   1      41.700  22.514  26.213  1.00  0.00     0.116 C 
BRANCH  28  29
ATOM     29  N   UNL A   1      40.294  22.444  25.842  1.00  0.00    -0.352 N 
ATOM     30  C   UNL A   1      39.260  23.285  26.184  1.00  0.00     0.251 C 
ATOM     31  H   UNL A   1      40.048  21.687  25.264  1.00  0.00     0.163 HD
ATOM     32  O   UNL A   1      38.108  22.987  25.886  1.00  0.00    -0.269 OA
BRANCH  30  33
ATOM     33  C   UNL A   1      39.536  24.529  26.938  1.00  0.00     0.039 A 
ATOM     34  C   UNL A   1      39.010  24.669  28.225  1.00  0.00     0.014 A 
ATOM     35  C   UNL A   1      40.325  25.543  26.391  1.00  0.00     0.014 A 
ATOM     36  C   UNL A   1      39.338  25.792  28.989  1.00  0.00     0.010 A 
ATOM     37  C   UNL A   1      40.720  26.618  27.183  1.00  0.00     0.010 A 
ATOM     38  C   UNL A   1      40.231  26.756  28.491  1.00  0.00    -0.014 A 
BRANCH  38  39
ATOM     39  C   UNL A   1      40.670  27.907  29.324  1.00  0.00     0.031 A 
ATOM     40  C   UNL A   1      39.775  29.106  29.493  1.00  0.00     0.074 A 
ATOM     41  C   UNL A   1      41.899  27.900  29.879  1.00  0.00     0.049 A 
ATOM     42  N   UNL A   1      40.001  30.222  30.139  1.00  0.00    -0.248 NA
ATOM     43  C   UNL A   1      38.464  29.055  28.827  1.00  0.00     0.031 C 
ATOM     44  C   UNL A   1      42.878  26.818  29.751  1.00  0.00     0.029 A 
ATOM     45  N   UNL A   1      42.538  28.834  30.655  1.00  0.00    -0.354 N 
ATOM     46  C   UNL A   1      38.870  31.008  29.946  1.00  0.00     0.074 A 
ATOM     47  C   UNL A   1      37.986  30.266  29.074  1.00  0.00     0.031 C 
ATOM     48  C   UNL A   1      43.978  27.134  30.454  1.00  0.00     0.029 A 
ATOM     49  C   UNL A   1      43.802  28.457  31.045  1.00  0.00     0.049 A 
ATOM     50  H   UNL A   1      42.131  29.693  30.909  1.00  0.00     0.167 HD
ATOM     51  C   UNL A   1      38.584  32.226  30.467  1.00  0.00     0.037 A 
ATOM     52  C   UNL A   1      44.719  29.104  31.792  1.00  0.00     0.037 A 
ATOM     53  C   UNL A   1      39.464  32.953  31.346  1.00  0.00     0.049 A 
ATOM     54  C   UNL A   1      44.387  30.467  32.341  1.00  0.00     0.074 A 
ATOM     55  C   UNL A   1      39.243  34.166  31.973  1.00  0.00     0.029 A 
ATOM     56  N   UNL A   1      40.735  32.538  31.716  1.00  0.00    -0.354 N 
ATOM     57  N   UNL A   1      43.284  31.165  32.207  1.00  0.00    -0.248 NA
ATOM     58  C   UNL A   1      45.424  31.127  33.144  1.00  0.00     0.031 C 
ATOM     59  C   UNL A   1      40.401  34.512  32.677  1.00  0.00     0.029 A 
ATOM     60  C   UNL A   1      41.323  33.486  32.539  1.00  0.00     0.049 A 
ATOM     61  H   UNL A   1      41.159  31.696  31.435  1.00  0.00     0.167 HD
ATOM     62  C   UNL A   1      43.481  32.331  32.938  1.00  0.00     0.074 A 
ATOM     63  C   UNL A   1      44.806  32.239  33.519  1.00  0.00     0.031 C 
ATOM     64  C   UNL A   1      42.642  33.381  33.115  1.00  0.00     0.037 A 
BRANCH  51  65
ATOM     65  C   UNL A   1      37.267  32.850  30.089  1.00  0.00     0.058 A 
ATOM     66  C   UNL A   1      37.151  33.741  29.009  1.00  0.00     0.135 A 
ATOM     67  C   UNL A   1      36.098  32.542  30.807  1.00  0.00     0.135 A 
ATOM     68  F   UNL A   1      38.236  34.081  28.294  1.00  0.00    -0.206 F 
ATOM     69  C   UNL A   1      35.939  34.340  28.683  1.00  0.00     0.059 A 
ATOM     70  C   UNL A   1      34.868  33.104  30.477  1.00  0.00     0.059 A 
ATOM     71  F   UNL A   1      36.146  31.694  31.845  1.00  0.00    -0.206 F 
ATOM     72  C   UNL A   1      34.802  34.018  29.427  1.00  0.00     0.060 A 
BRANCH  72  73
ATOM     73  S   UNL A   1      33.241  34.819  29.004  1.00  0.00     0.124 S 
ATOM     74  O   UNL A   1      32.590  34.892  30.309  1.00  0.00    -0.237 OA
ATOM     75  O   UNL A   1      33.684  36.092  28.446  1.00  0.00    -0.237 OA
ATOM     76  O   UNL A   1      32.632  33.897  28.050  1.00  0.00    -0.744 OA
ENDBRANCH  72  73
ENDBRANCH  51  65
BRANCH  52  77
ATOM     77  C   UNL A   1      46.023  28.457  32.097  1.00  0.00     0.058 A 
ATOM     78  C   UNL A   1      46.151  27.575  33.180  1.00  0.00     0.135 A 
ATOM     79  C   UNL A   1      47.163  28.695  31.313  1.00  0.00     0.135 A 
ATOM     80  F   UNL A   1      45.093  27.321  33.966  1.00  0.00    -0.206 F 
ATOM     81  C   UNL A   1      47.363  26.963  33.487  1.00  0.00     0.059 A 
ATOM     82  C   UNL A   1      48.379  28.075  31.581  1.00  0.00     0.059 A 
ATOM     83  F   UNL A   1      47.092  29.519  30.255  1.00  0.00    -0.206 F 
ATOM     84  C   UNL A   1      48.471  27.218  32.678  1.00  0.00     0.060 A 
BRANCH  84  85
ATOM     85  S   UNL A   1      50.026  26.379  33.056  1.00  0.00     0.124 S 
ATOM     86  O   UNL A   1      50.818  26.679  31.869  1.00  0.00    -0.237 OA
ATOM     87  O   UNL A   1      50.439  27.044  34.287  1.00  0.00    -0.237 OA
ATOM     88  O   UNL A   1      49.624  24.983  33.212  1.00  0.00    -0.744 OA
ENDBRANCH  84  85
ENDBRANCH  52  77
BRANCH  64  89
ATOM     89  C   UNL A   1      43.108  34.501  34.007  1.00  0.00     0.058 A 
ATOM     90  C   UNL A   1      43.011  34.425  35.405  1.00  0.00     0.135 A 
ATOM     91  C   UNL A   1      43.701  35.648  33.454  1.00  0.00     0.135 A 
ATOM     92  F   UNL A   1      42.446  33.356  35.987  1.00  0.00    -0.206 F 
ATOM     93  C   UNL A   1      43.461  35.458  36.222  1.00  0.00     0.059 A 
ATOM     94  C   UNL A   1      44.187  36.678  34.252  1.00  0.00     0.059 A 
ATOM     95  F   UNL A   1      43.829  35.768  32.123  1.00  0.00    -0.206 F 
ATOM     96  C   UNL A   1      44.049  36.580  35.636  1.00  0.00     0.060 A 
BRANCH  96  97
ATOM     97  S   UNL A   1      44.655  37.899  36.709  1.00  0.00     0.124 S 
ATOM     98  O   UNL A   1      43.596  37.975  37.710  1.00  0.00    -0.237 OA
ATOM     99  O   UNL A   1      45.930  37.362  37.175  1.00  0.00    -0.237 OA
ATOM    100  O   UNL A   1      44.755  39.048  35.813  1.00  0.00    -0.744 OA
ENDBRANCH  96  97
ENDBRANCH  64  89
ENDBRANCH  38  39
ENDBRANCH  30  33
ENDBRANCH  28  29
ENDBRANCH  27  28
ENDBRANCH   1  27
TORSDOF 17
ENDMDL
