MODEL 1
REMARK VINA RESULT:     -10.4      0.000      0.000
REMARK SMILES C[C@H]([NH2+]CC1CCCC1)[C@H](C)C(=O)NCCCCNC(=O)c1ccc(-c2c3nc(c(-c4c(F)cc(S(=O)(=O)[O-])cc4F)c4ccc([nH]4)c(-c4c(F)cc(S(=O)(=O)[O-])cc4F)c4nc(c(-c5c(F)cc(S(=O)(=O)[O-])cc5F)c5ccc2[nH]5)C=C4)C=C3)cc1
REMARK SMILES IDX 16 1 15 2 14 3 12 4 13 5 10 7 11 8 2 9 1 10 3 11 4 14 5 15
REMARK SMILES IDX 6 16 9 17 7 18 8 19 17 20 18 21 19 22 20 23 21 25 22 26
REMARK SMILES IDX 23 27 87 28 24 29 86 30 25 31 26 32 27 33 80 34 28 35 85 36
REMARK SMILES IDX 79 37 81 38 29 39 84 40 78 41 77 42 30 44 64 45 43 46 63 47
REMARK SMILES IDX 44 48 47 49 62 50 82 51 45 52 46 53 61 55 83 56 48 57 31 58
REMARK SMILES IDX 32 59 41 60 33 61 34 62 40 63 42 64 35 65 36 66 37 67 38 68
REMARK SMILES IDX 39 69 65 70 66 71 75 72 67 73 68 74 74 75 76 76 69 77 70 78
REMARK SMILES IDX 71 79 72 80 73 81 49 82 50 83 59 84 51 85 52 86 58 87 60 88
REMARK SMILES IDX 53 89 54 90 55 91 56 92 57 93
REMARK H PARENT 14 6 3 12 3 13 19 24 81 43 47 54
REMARK Flexibility Score: inf
ROOT
ATOM      1  C   UNL A   1      33.587  27.208  25.143  1.00  0.00     0.023 C 
ENDROOT
BRANCH   1   2
ATOM      2  C   UNL A   1      32.510  27.136  24.073  1.00  0.00     0.116 C 
BRANCH   2   3
ATOM      3  N   UNL A   1      32.998  26.636  22.812  1.00  0.00    -0.356 N 
ATOM      4  C   UNL A   1      32.997  25.374  22.317  1.00  0.00     0.228 C 
ATOM      5  O   UNL A   1      33.398  25.218  21.160  1.00  0.00    -0.275 OA
ATOM      6  H   UNL A   1      33.393  27.314  22.218  1.00  0.00     0.163 HD
BRANCH   4   7
ATOM      7  C   UNL A   1      32.501  24.178  23.124  1.00  0.00     0.133 C 
ATOM      8  C   UNL A   1      30.977  24.039  23.149  1.00  0.00     0.024 C 
BRANCH   7   9
ATOM      9  C   UNL A   1      33.376  22.908  22.881  1.00  0.00     0.191 C 
ATOM     10  C   UNL A   1      32.868  21.600  23.512  1.00  0.00     0.076 C 
BRANCH   9  11
ATOM     11  N   UNL A   1      34.752  23.093  23.385  1.00  0.00    -0.343 N 
ATOM     12  H   UNL A   1      35.216  23.807  22.823  1.00  0.00     0.346 HD
ATOM     13  H   UNL A   1      35.236  22.197  23.316  1.00  0.00     0.346 HD
BRANCH  11  14
ATOM     14  C   UNL A   1      34.771  23.512  24.793  1.00  0.00     0.264 C 
BRANCH  14  15
ATOM     15  C   UNL A   1      35.969  22.881  25.500  1.00  0.00     0.044 C 
ATOM     16  C   UNL A   1      36.721  21.899  24.606  1.00  0.00     0.009 C 
ATOM     17  C   UNL A   1      37.060  23.883  25.877  1.00  0.00     0.009 C 
ATOM     18  C   UNL A   1      38.062  21.729  25.306  1.00  0.00     0.001 C 
ATOM     19  C   UNL A   1      38.315  23.038  26.055  1.00  0.00     0.001 C 
ENDBRANCH  14  15
ENDBRANCH  11  14
ENDBRANCH   9  11
ENDBRANCH   7   9
ENDBRANCH   4   7
ENDBRANCH   2   3
ENDBRANCH   1   2
BRANCH   1  20
ATOM     20  C   UNL A   1      33.801  28.591  25.748  1.00  0.00     0.023 C 
BRANCH  20  21
ATOM     21  C   UNL A   1      33.552  28.696  27.247  1.00  0.00     0.116 C 
BRANCH  21  22
ATOM     22  N   UNL A   1      33.548  30.068  27.741  1.00  0.00    -0.352 N 
ATOM     23  C   UNL A   1      34.570  30.767  28.341  1.00  0.00     0.251 C 
ATOM     24  H   UNL A   1      32.702  30.559  27.630  1.00  0.00     0.163 HD
ATOM     25  O   UNL A   1      34.385  31.892  28.782  1.00  0.00    -0.269 OA
BRANCH  23  26
ATOM     26  C   UNL A   1      35.885  30.108  28.481  1.00  0.00     0.039 A 
ATOM     27  C   UNL A   1      36.765  30.117  27.397  1.00  0.00     0.014 A 
ATOM     28  C   UNL A   1      36.273  29.578  29.714  1.00  0.00     0.014 A 
ATOM     29  C   UNL A   1      38.078  29.678  27.577  1.00  0.00     0.010 A 
ATOM     30  C   UNL A   1      37.597  29.208  29.907  1.00  0.00     0.010 A 
ATOM     31  C   UNL A   1      38.517  29.269  28.847  1.00  0.00    -0.014 A 
BRANCH  31  32
ATOM     32  C   UNL A   1      39.932  28.908  29.112  1.00  0.00     0.031 A 
ATOM     33  C   UNL A   1      40.876  29.958  29.626  1.00  0.00     0.074 A 
ATOM     34  C   UNL A   1      40.388  27.684  28.781  1.00  0.00     0.049 A 
ATOM     35  N   UNL A   1      42.178  29.915  29.736  1.00  0.00    -0.248 NA
ATOM     36  C   UNL A   1      40.276  31.236  30.039  1.00  0.00     0.031 C 
ATOM     37  C   UNL A   1      39.577  26.592  28.239  1.00  0.00     0.029 A 
ATOM     38  N   UNL A   1      41.657  27.161  28.828  1.00  0.00    -0.354 N 
ATOM     39  C   UNL A   1      42.556  31.171  30.193  1.00  0.00     0.074 A 
ATOM     40  C   UNL A   1      41.350  31.962  30.309  1.00  0.00     0.031 C 
ATOM     41  C   UNL A   1      40.365  25.528  28.012  1.00  0.00     0.029 A 
ATOM     42  C   UNL A   1      41.743  25.875  28.347  1.00  0.00     0.049 A 
ATOM     43  H   UNL A   1      42.432  27.659  29.173  1.00  0.00     0.167 HD
ATOM     44  C   UNL A   1      43.796  31.619  30.502  1.00  0.00     0.037 A 
ATOM     45  C   UNL A   1      42.813  25.074  28.176  1.00  0.00     0.037 A 
ATOM     46  C   UNL A   1      44.984  30.813  30.426  1.00  0.00     0.049 A 
ATOM     47  C   UNL A   1      44.179  25.586  28.546  1.00  0.00     0.074 A 
ATOM     48  C   UNL A   1      46.280  31.155  30.768  1.00  0.00     0.029 A 
ATOM     49  N   UNL A   1      45.019  29.496  29.988  1.00  0.00    -0.354 N 
ATOM     50  N   UNL A   1      44.517  26.766  29.009  1.00  0.00    -0.248 NA
ATOM     51  C   UNL A   1      45.310  24.662  28.371  1.00  0.00     0.031 C 
ATOM     52  C   UNL A   1      47.104  30.053  30.513  1.00  0.00     0.029 A 
ATOM     53  C   UNL A   1      46.315  29.015  30.046  1.00  0.00     0.049 A 
ATOM     54  H   UNL A   1      44.237  28.982  29.680  1.00  0.00     0.167 HD
ATOM     55  C   UNL A   1      45.892  26.716  29.209  1.00  0.00     0.074 A 
ATOM     56  C   UNL A   1      46.325  25.391  28.816  1.00  0.00     0.031 C 
ATOM     57  C   UNL A   1      46.719  27.681  29.678  1.00  0.00     0.037 A 
BRANCH  44  58
ATOM     58  C   UNL A   1      43.924  33.046  30.955  1.00  0.00     0.058 A 
ATOM     59  C   UNL A   1      44.183  34.083  30.045  1.00  0.00     0.135 A 
ATOM     60  C   UNL A   1      43.771  33.381  32.309  1.00  0.00     0.135 A 
ATOM     61  F   UNL A   1      44.356  33.813  28.742  1.00  0.00    -0.206 F 
ATOM     62  C   UNL A   1      44.319  35.400  30.467  1.00  0.00     0.059 A 
ATOM     63  C   UNL A   1      43.878  34.697  32.750  1.00  0.00     0.059 A 
ATOM     64  F   UNL A   1      43.523  32.426  33.219  1.00  0.00    -0.206 F 
ATOM     65  C   UNL A   1      44.169  35.697  31.823  1.00  0.00     0.060 A 
BRANCH  65  66
ATOM     66  S   UNL A   1      44.358  37.410  32.360  1.00  0.00     0.124 S 
ATOM     67  O   UNL A   1      43.433  37.462  33.487  1.00  0.00    -0.237 OA
ATOM     68  O   UNL A   1      45.775  37.480  32.700  1.00  0.00    -0.237 OA
ATOM     69  O   UNL A   1      43.961  38.178  31.184  1.00  0.00    -0.744 OA
ENDBRANCH  65  66
ENDBRANCH  44  58
BRANCH  45  70
ATOM     70  C   UNL A   1      42.635  23.698  27.643  1.00  0.00     0.058 A 
ATOM     71  C   UNL A   1      42.524  22.603  28.513  1.00  0.00     0.135 A 
ATOM     72  C   UNL A   1      42.555  23.450  26.265  1.00  0.00     0.135 A 
ATOM     73  F   UNL A   1      42.601  22.790  29.839  1.00  0.00    -0.206 F 
ATOM     74  C   UNL A   1      42.354  21.308  28.036  1.00  0.00     0.059 A 
ATOM     75  C   UNL A   1      42.364  22.166  25.763  1.00  0.00     0.059 A 
ATOM     76  F   UNL A   1      42.637  24.467  25.392  1.00  0.00    -0.206 F 
ATOM     77  C   UNL A   1      42.273  21.100  26.657  1.00  0.00     0.060 A 
BRANCH  77  78
ATOM     78  S   UNL A   1      41.999  19.421  26.048  1.00  0.00     0.124 S 
ATOM     79  O   UNL A   1      42.818  19.409  24.842  1.00  0.00    -0.237 OA
ATOM     80  O   UNL A   1      42.484  18.607  27.159  1.00  0.00    -0.237 OA
ATOM     81  O   UNL A   1      40.555  19.375  25.834  1.00  0.00    -0.744 OA
ENDBRANCH  77  78
ENDBRANCH  45  70
BRANCH  57  82
ATOM     82  C   UNL A   1      48.170  27.336  29.846  1.00  0.00     0.058 A 
ATOM     83  C   UNL A   1      49.112  27.610  28.843  1.00  0.00     0.135 A 
ATOM     84  C   UNL A   1      48.635  26.819  31.065  1.00  0.00     0.135 A 
ATOM     85  F   UNL A   1      48.714  28.096  27.657  1.00  0.00    -0.206 F 
ATOM     86  C   UNL A   1      50.469  27.385  29.045  1.00  0.00     0.059 A 
ATOM     87  C   UNL A   1      49.989  26.606  31.297  1.00  0.00     0.059 A 
ATOM     88  F   UNL A   1      47.772  26.549  32.057  1.00  0.00    -0.206 F 
ATOM     89  C   UNL A   1      50.899  26.891  30.279  1.00  0.00     0.060 A 
BRANCH  89  90
ATOM     90  S   UNL A   1      52.671  26.679  30.559  1.00  0.00     0.124 S 
ATOM     91  O   UNL A   1      52.688  25.576  31.514  1.00  0.00    -0.237 OA
ATOM     92  O   UNL A   1      53.165  26.369  29.221  1.00  0.00    -0.237 OA
ATOM     93  O   UNL A   1      53.087  27.975  31.088  1.00  0.00    -0.744 OA
ENDBRANCH  89  90
ENDBRANCH  57  82
ENDBRANCH  31  32
ENDBRANCH  23  26
ENDBRANCH  21  22
ENDBRANCH  20  21
ENDBRANCH   1  20
TORSDOF 18
ENDMDL
MODEL 2
REMARK VINA RESULT:     -10.1      3.356      9.638
REMARK SMILES C[C@H]([NH2+]CC1CCCC1)[C@H](C)C(=O)NCCCCNC(=O)c1ccc(-c2c3nc(c(-c4c(F)cc(S(=O)(=O)[O-])cc4F)c4ccc([nH]4)c(-c4c(F)cc(S(=O)(=O)[O-])cc4F)c4nc(c(-c5c(F)cc(S(=O)(=O)[O-])cc5F)c5ccc2[nH]5)C=C4)C=C3)cc1
REMARK SMILES IDX 16 1 15 2 14 3 12 4 13 5 10 7 11 8 2 9 1 10 3 11 4 14 5 15
REMARK SMILES IDX 6 16 9 17 7 18 8 19 17 20 18 21 19 22 20 23 21 25 22 26
REMARK SMILES IDX 23 27 87 28 24 29 86 30 25 31 26 32 27 33 80 34 28 35 85 36
REMARK SMILES IDX 79 37 81 38 29 39 84 40 78 41 77 42 30 44 64 45 43 46 63 47
REMARK SMILES IDX 44 48 47 49 62 50 82 51 45 52 46 53 61 55 83 56 48 57 31 58
REMARK SMILES IDX 32 59 41 60 33 61 34 62 40 63 42 64 35 65 36 66 37 67 38 68
REMARK SMILES IDX 39 69 65 70 66 71 75 72 67 73 68 74 74 75 76 76 69 77 70 78
REMARK SMILES IDX 71 79 72 80 73 81 49 82 50 83 59 84 51 85 52 86 58 87 60 88
REMARK SMILES IDX 53 89 54 90 55 91 56 92 57 93
REMARK H PARENT 14 6 3 12 3 13 19 24 81 43 47 54
REMARK Flexibility Score: inf
ROOT
ATOM      1  C   UNL A   1      34.582  23.294  25.175  1.00  0.00     0.023 C 
ENDROOT
BRANCH   1   2
ATOM      2  C   UNL A   1      34.626  24.740  24.712  1.00  0.00     0.116 C 
BRANCH   2   3
ATOM      3  N   UNL A   1      34.272  24.900  23.323  1.00  0.00    -0.356 N 
ATOM      4  C   UNL A   1      33.717  25.958  22.683  1.00  0.00     0.228 C 
ATOM      5  O   UNL A   1      33.592  25.878  21.458  1.00  0.00    -0.275 OA
ATOM      6  H   UNL A   1      34.463  24.123  22.751  1.00  0.00     0.163 HD
BRANCH   4   7
ATOM      7  C   UNL A   1      33.277  27.221  23.417  1.00  0.00     0.133 C 
ATOM      8  C   UNL A   1      33.887  28.507  22.855  1.00  0.00     0.024 C 
BRANCH   7   9
ATOM      9  C   UNL A   1      31.756  27.192  23.768  1.00  0.00     0.191 C 
ATOM     10  C   UNL A   1      30.782  27.397  22.594  1.00  0.00     0.076 C 
BRANCH   9  11
ATOM     11  N   UNL A   1      31.409  28.224  24.767  1.00  0.00    -0.343 N 
ATOM     12  H   UNL A   1      30.474  28.578  24.564  1.00  0.00     0.346 HD
ATOM     13  H   UNL A   1      32.106  28.967  24.708  1.00  0.00     0.346 HD
BRANCH  11  14
ATOM     14  C   UNL A   1      31.427  27.692  26.136  1.00  0.00     0.264 C 
BRANCH  14  15
ATOM     15  C   UNL A   1      32.357  28.538  27.003  1.00  0.00     0.044 C 
ATOM     16  C   UNL A   1      33.828  28.204  26.774  1.00  0.00     0.009 C 
ATOM     17  C   UNL A   1      32.306  30.033  26.687  1.00  0.00     0.009 C 
ATOM     18  C   UNL A   1      34.565  29.398  27.367  1.00  0.00     0.001 C 
ATOM     19  C   UNL A   1      33.614  30.588  27.234  1.00  0.00     0.001 C 
ENDBRANCH  14  15
ENDBRANCH  11  14
ENDBRANCH   9  11
ENDBRANCH   7   9
ENDBRANCH   4   7
ENDBRANCH   2   3
ENDBRANCH   1   2
BRANCH   1  20
ATOM     20  C   UNL A   1      35.907  22.741  25.687  1.00  0.00     0.023 C 
BRANCH  20  21
ATOM     21  C   UNL A   1      37.146  23.528  25.281  1.00  0.00     0.116 C 
BRANCH  21  22
ATOM     22  N   UNL A   1      38.379  22.755  25.365  1.00  0.00    -0.352 N 
ATOM     23  C   UNL A   1      39.562  23.092  25.985  1.00  0.00     0.251 C 
ATOM     24  H   UNL A   1      38.364  21.877  24.921  1.00  0.00     0.163 HD
ATOM     25  O   UNL A   1      40.544  22.368  25.895  1.00  0.00    -0.269 OA
BRANCH  23  26
ATOM     26  C   UNL A   1      39.630  24.370  26.723  1.00  0.00     0.039 A 
ATOM     27  C   UNL A   1      39.047  24.451  27.989  1.00  0.00     0.014 A 
ATOM     28  C   UNL A   1      40.358  25.440  26.200  1.00  0.00     0.014 A 
ATOM     29  C   UNL A   1      39.275  25.581  28.777  1.00  0.00     0.010 A 
ATOM     30  C   UNL A   1      40.641  26.531  27.011  1.00  0.00     0.010 A 
ATOM     31  C   UNL A   1      40.117  26.605  28.313  1.00  0.00    -0.014 A 
BRANCH  31  32
ATOM     32  C   UNL A   1      40.483  27.767  29.160  1.00  0.00     0.031 A 
ATOM     33  C   UNL A   1      41.724  27.700  30.005  1.00  0.00     0.074 A 
ATOM     34  C   UNL A   1      39.647  28.819  29.259  1.00  0.00     0.049 A 
ATOM     35  N   UNL A   1      42.120  28.505  30.956  1.00  0.00    -0.248 NA
ATOM     36  C   UNL A   1      42.617  26.555  29.771  1.00  0.00     0.031 C 
ATOM     37  C   UNL A   1      38.395  28.984  28.518  1.00  0.00     0.029 A 
ATOM     38  N   UNL A   1      39.714  29.942  30.047  1.00  0.00    -0.354 N 
ATOM     39  C   UNL A   1      43.289  27.945  31.458  1.00  0.00     0.074 A 
ATOM     40  C   UNL A   1      43.517  26.716  30.730  1.00  0.00     0.031 C 
ATOM     41  C   UNL A   1      37.816  30.141  28.880  1.00  0.00     0.029 A 
ATOM     42  C   UNL A   1      38.629  30.778  29.911  1.00  0.00     0.049 A 
ATOM     43  H   UNL A   1      40.465  30.131  30.653  1.00  0.00     0.167 HD
ATOM     44  C   UNL A   1      44.103  28.421  32.429  1.00  0.00     0.037 A 
ATOM     45  C   UNL A   1      38.317  31.918  30.558  1.00  0.00     0.037 A 
ATOM     46  C   UNL A   1      43.892  29.665  33.117  1.00  0.00     0.049 A 
ATOM     47  C   UNL A   1      39.248  32.439  31.619  1.00  0.00     0.074 A 
ATOM     48  C   UNL A   1      44.686  30.262  34.079  1.00  0.00     0.029 A 
ATOM     49  N   UNL A   1      42.811  30.510  32.908  1.00  0.00    -0.354 N 
ATOM     50  N   UNL A   1      40.367  31.915  32.060  1.00  0.00    -0.248 NA
ATOM     51  C   UNL A   1      38.878  33.704  32.272  1.00  0.00     0.031 C 
ATOM     52  C   UNL A   1      44.074  31.458  34.470  1.00  0.00     0.029 A 
ATOM     53  C   UNL A   1      42.917  31.621  33.726  1.00  0.00     0.049 A 
ATOM     54  H   UNL A   1      42.078  30.343  32.273  1.00  0.00     0.167 HD
ATOM     55  C   UNL A   1      40.849  32.799  33.019  1.00  0.00     0.074 A 
ATOM     56  C   UNL A   1      39.902  33.891  33.095  1.00  0.00     0.031 C 
ATOM     57  C   UNL A   1      41.976  32.713  33.765  1.00  0.00     0.037 A 
BRANCH  44  58
ATOM     58  C   UNL A   1      45.299  27.590  32.797  1.00  0.00     0.058 A 
ATOM     59  C   UNL A   1      46.551  27.800  32.198  1.00  0.00     0.135 A 
ATOM     60  C   UNL A   1      45.196  26.584  33.770  1.00  0.00     0.135 A 
ATOM     61  F   UNL A   1      46.698  28.738  31.249  1.00  0.00    -0.206 F 
ATOM     62  C   UNL A   1      47.653  27.020  32.527  1.00  0.00     0.059 A 
ATOM     63  C   UNL A   1      46.292  25.807  34.133  1.00  0.00     0.059 A 
ATOM     64  F   UNL A   1      44.022  26.342  34.372  1.00  0.00    -0.206 F 
ATOM     65  C   UNL A   1      47.512  26.021  33.493  1.00  0.00     0.060 A 
BRANCH  65  66
ATOM     66  S   UNL A   1      48.948  25.008  33.904  1.00  0.00     0.124 S 
ATOM     67  O   UNL A   1      49.627  25.852  34.882  1.00  0.00    -0.237 OA
ATOM     68  O   UNL A   1      48.336  23.793  34.433  1.00  0.00    -0.237 OA
ATOM     69  O   UNL A   1      49.631  24.853  32.624  1.00  0.00    -0.744 OA
ENDBRANCH  65  66
ENDBRANCH  44  58
BRANCH  45  70
ATOM     70  C   UNL A   1      37.074  32.655  30.208  1.00  0.00     0.058 A 
ATOM     71  C   UNL A   1      37.049  33.543  29.123  1.00  0.00     0.135 A 
ATOM     72  C   UNL A   1      35.888  32.476  30.936  1.00  0.00     0.135 A 
ATOM     73  F   UNL A   1      38.161  33.752  28.402  1.00  0.00    -0.206 F 
ATOM     74  C   UNL A   1      35.896  34.239  28.777  1.00  0.00     0.059 A 
ATOM     75  C   UNL A   1      34.715  33.145  30.597  1.00  0.00     0.059 A 
ATOM     76  F   UNL A   1      35.856  31.623  31.972  1.00  0.00    -0.206 F 
ATOM     77  C   UNL A   1      34.732  34.032  29.520  1.00  0.00     0.060 A 
BRANCH  77  78
ATOM     78  S   UNL A   1      33.225  34.901  29.032  1.00  0.00     0.124 S 
ATOM     79  O   UNL A   1      32.511  34.986  30.300  1.00  0.00    -0.237 OA
ATOM     80  O   UNL A   1      33.750  36.158  28.508  1.00  0.00    -0.237 OA
ATOM     81  O   UNL A   1      32.638  34.013  28.033  1.00  0.00    -0.744 OA
ENDBRANCH  77  78
ENDBRANCH  45  70
BRANCH  57  82
ATOM     82  C   UNL A   1      42.286  33.848  34.697  1.00  0.00     0.058 A 
ATOM     83  C   UNL A   1      41.949  33.795  36.057  1.00  0.00     0.135 A 
ATOM     84  C   UNL A   1      43.016  34.956  34.239  1.00  0.00     0.135 A 
ATOM     85  F   UNL A   1      41.243  32.761  36.539  1.00  0.00    -0.206 F 
ATOM     86  C   UNL A   1      42.331  34.803  36.936  1.00  0.00     0.059 A 
ATOM     87  C   UNL A   1      43.426  35.965  35.103  1.00  0.00     0.059 A 
ATOM     88  F   UNL A   1      43.368  35.047  32.947  1.00  0.00    -0.206 F 
ATOM     89  C   UNL A   1      43.077  35.880  36.451  1.00  0.00     0.060 A 
BRANCH  89  90
ATOM     90  S   UNL A   1      43.637  37.142  37.616  1.00  0.00     0.124 S 
ATOM     91  O   UNL A   1      42.371  37.626  38.156  1.00  0.00    -0.237 OA
ATOM     92  O   UNL A   1      44.468  36.373  38.536  1.00  0.00    -0.237 OA
ATOM     93  O   UNL A   1      44.361  38.087  36.769  1.00  0.00    -0.744 OA
ENDBRANCH  89  90
ENDBRANCH  57  82
ENDBRANCH  31  32
ENDBRANCH  23  26
ENDBRANCH  21  22
ENDBRANCH  20  21
ENDBRANCH   1  20
TORSDOF 18
ENDMDL
MODEL 3
REMARK VINA RESULT:      -9.9      3.201      6.195
REMARK SMILES C[C@H]([NH2+]CC1CCCC1)[C@H](C)C(=O)NCCCCNC(=O)c1ccc(-c2c3nc(c(-c4c(F)cc(S(=O)(=O)[O-])cc4F)c4ccc([nH]4)c(-c4c(F)cc(S(=O)(=O)[O-])cc4F)c4nc(c(-c5c(F)cc(S(=O)(=O)[O-])cc5F)c5ccc2[nH]5)C=C4)C=C3)cc1
REMARK SMILES IDX 16 1 15 2 14 3 12 4 13 5 10 7 11 8 2 9 1 10 3 11 4 14 5 15
REMARK SMILES IDX 6 16 9 17 7 18 8 19 17 20 18 21 19 22 20 23 21 25 22 26
REMARK SMILES IDX 23 27 87 28 24 29 86 30 25 31 26 32 27 33 80 34 28 35 85 36
REMARK SMILES IDX 79 37 81 38 29 39 84 40 78 41 77 42 30 44 64 45 43 46 63 47
REMARK SMILES IDX 44 48 47 49 62 50 82 51 45 52 46 53 61 55 83 56 48 57 31 58
REMARK SMILES IDX 32 59 41 60 33 61 34 62 40 63 42 64 35 65 36 66 37 67 38 68
REMARK SMILES IDX 39 69 65 70 66 71 75 72 67 73 68 74 74 75 76 76 69 77 70 78
REMARK SMILES IDX 71 79 72 80 73 81 49 82 50 83 59 84 51 85 52 86 58 87 60 88
REMARK SMILES IDX 53 89 54 90 55 91 56 92 57 93
REMARK H PARENT 14 6 3 12 3 13 19 24 81 43 47 54
REMARK Flexibility Score: inf
ROOT
ATOM      1  C   UNL A   1      33.520  34.873  28.714  1.00  0.00     0.023 C 
ENDROOT
BRANCH   1   2
ATOM      2  C   UNL A   1      33.213  36.233  29.319  1.00  0.00     0.116 C 
BRANCH   2   3
ATOM      3  N   UNL A   1      32.275  36.167  30.412  1.00  0.00    -0.356 N 
ATOM      4  C   UNL A   1      32.496  36.181  31.749  1.00  0.00     0.228 C 
ATOM      5  O   UNL A   1      31.507  36.203  32.487  1.00  0.00    -0.275 OA
ATOM      6  H   UNL A   1      31.330  36.104  30.148  1.00  0.00     0.163 HD
BRANCH   4   7
ATOM      7  C   UNL A   1      33.899  36.195  32.348  1.00  0.00     0.133 C 
ATOM      8  C   UNL A   1      34.022  37.046  33.613  1.00  0.00     0.024 C 
BRANCH   7   9
ATOM      9  C   UNL A   1      34.560  34.781  32.317  1.00  0.00     0.191 C 
ATOM     10  C   UNL A   1      33.785  33.650  33.015  1.00  0.00     0.076 C 
BRANCH   9  11
ATOM     11  N   UNL A   1      35.901  34.794  32.937  1.00  0.00    -0.343 N 
ATOM     12  H   UNL A   1      35.945  34.062  33.646  1.00  0.00     0.346 HD
ATOM     13  H   UNL A   1      36.049  35.716  33.349  1.00  0.00     0.346 HD
BRANCH  11  14
ATOM     14  C   UNL A   1      36.965  34.562  31.951  1.00  0.00     0.264 C 
BRANCH  14  15
ATOM     15  C   UNL A   1      37.874  33.433  32.432  1.00  0.00     0.044 C 
ATOM     16  C   UNL A   1      39.057  33.947  33.249  1.00  0.00     0.009 C 
ATOM     17  C   UNL A   1      37.197  32.469  33.406  1.00  0.00     0.009 C 
ATOM     18  C   UNL A   1      39.562  32.705  33.970  1.00  0.00     0.001 C 
ATOM     19  C   UNL A   1      38.347  31.793  34.142  1.00  0.00     0.001 C 
ENDBRANCH  14  15
ENDBRANCH  11  14
ENDBRANCH   9  11
ENDBRANCH   7   9
ENDBRANCH   4   7
ENDBRANCH   2   3
ENDBRANCH   1   2
BRANCH   1  20
ATOM     20  C   UNL A   1      35.002  34.525  28.632  1.00  0.00     0.023 C 
BRANCH  20  21
ATOM     21  C   UNL A   1      35.345  33.060  28.868  1.00  0.00     0.116 C 
BRANCH  21  22
ATOM     22  N   UNL A   1      34.331  32.139  28.369  1.00  0.00    -0.352 N 
ATOM     23  C   UNL A   1      34.460  30.801  28.070  1.00  0.00     0.251 C 
ATOM     24  H   UNL A   1      33.437  32.524  28.227  1.00  0.00     0.163 HD
ATOM     25  O   UNL A   1      33.532  30.177  27.575  1.00  0.00    -0.269 OA
BRANCH  23  26
ATOM     26  C   UNL A   1      35.761  30.147  28.321  1.00  0.00     0.039 A 
ATOM     27  C   UNL A   1      36.703  30.096  27.292  1.00  0.00     0.014 A 
ATOM     28  C   UNL A   1      36.074  29.684  29.601  1.00  0.00     0.014 A 
ATOM     29  C   UNL A   1      38.000  29.664  27.571  1.00  0.00     0.010 A 
ATOM     30  C   UNL A   1      37.382  29.322  29.891  1.00  0.00     0.010 A 
ATOM     31  C   UNL A   1      38.363  29.323  28.884  1.00  0.00    -0.014 A 
BRANCH  31  32
ATOM     32  C   UNL A   1      39.758  28.974  29.250  1.00  0.00     0.031 A 
ATOM     33  C   UNL A   1      40.636  30.015  29.884  1.00  0.00     0.074 A 
ATOM     34  C   UNL A   1      40.263  27.773  28.908  1.00  0.00     0.049 A 
ATOM     35  N   UNL A   1      41.925  29.989  30.099  1.00  0.00    -0.248 NA
ATOM     36  C   UNL A   1      39.979  31.265  30.298  1.00  0.00     0.031 C 
ATOM     37  C   UNL A   1      39.520  26.692  28.257  1.00  0.00     0.029 A 
ATOM     38  N   UNL A   1      41.534  27.268  29.038  1.00  0.00    -0.354 N 
ATOM     39  C   UNL A   1      42.240  31.230  30.639  1.00  0.00     0.074 A 
ATOM     40  C   UNL A   1      41.014  31.996  30.687  1.00  0.00     0.031 C 
ATOM     41  C   UNL A   1      40.345  25.651  28.051  1.00  0.00     0.029 A 
ATOM     42  C   UNL A   1      41.683  26.005  28.513  1.00  0.00     0.049 A 
ATOM     43  H   UNL A   1      42.268  27.762  29.466  1.00  0.00     0.167 HD
ATOM     44  C   UNL A   1      43.442  31.683  31.067  1.00  0.00     0.037 A 
ATOM     45  C   UNL A   1      42.780  25.230  28.398  1.00  0.00     0.037 A 
ATOM     46  C   UNL A   1      44.647  30.900  31.056  1.00  0.00     0.049 A 
ATOM     47  C   UNL A   1      44.101  25.746  28.901  1.00  0.00     0.074 A 
ATOM     48  C   UNL A   1      45.904  31.248  31.518  1.00  0.00     0.029 A 
ATOM     49  N   UNL A   1      44.743  29.605  30.568  1.00  0.00    -0.354 N 
ATOM     50  N   UNL A   1      44.377  26.911  29.439  1.00  0.00    -0.248 NA
ATOM     51  C   UNL A   1      45.259  24.849  28.782  1.00  0.00     0.031 C 
ATOM     52  C   UNL A   1      46.767  30.171  31.287  1.00  0.00     0.029 A 
ATOM     53  C   UNL A   1      46.039  29.141  30.714  1.00  0.00     0.049 A 
ATOM     54  H   UNL A   1      44.000  29.092  30.176  1.00  0.00     0.167 HD
ATOM     55  C   UNL A   1      45.731  26.875  29.750  1.00  0.00     0.074 A 
ATOM     56  C   UNL A   1      46.220  25.575  29.340  1.00  0.00     0.031 C 
ATOM     57  C   UNL A   1      46.498  27.831  30.325  1.00  0.00     0.037 A 
BRANCH  44  58
ATOM     58  C   UNL A   1      43.504  33.091  31.587  1.00  0.00     0.058 A 
ATOM     59  C   UNL A   1      43.824  34.170  30.748  1.00  0.00     0.135 A 
ATOM     60  C   UNL A   1      43.227  33.367  32.935  1.00  0.00     0.135 A 
ATOM     61  F   UNL A   1      44.115  33.957  29.455  1.00  0.00    -0.206 F 
ATOM     62  C   UNL A   1      43.899  35.470  31.234  1.00  0.00     0.059 A 
ATOM     63  C   UNL A   1      43.272  34.664  33.438  1.00  0.00     0.059 A 
ATOM     64  F   UNL A   1      42.918  32.371  33.780  1.00  0.00    -0.206 F 
ATOM     65  C   UNL A   1      43.626  35.706  32.582  1.00  0.00     0.060 A 
BRANCH  65  66
ATOM     66  S   UNL A   1      43.736  37.397  33.203  1.00  0.00     0.124 S 
ATOM     67  O   UNL A   1      45.005  37.358  33.923  1.00  0.00    -0.237 OA
ATOM     68  O   UNL A   1      43.730  38.185  31.974  1.00  0.00    -0.237 OA
ATOM     69  O   UNL A   1      42.545  37.531  34.034  1.00  0.00    -0.744 OA
ENDBRANCH  65  66
ENDBRANCH  44  58
BRANCH  45  70
ATOM     70  C   UNL A   1      42.672  23.875  27.796  1.00  0.00     0.058 A 
ATOM     71  C   UNL A   1      42.745  23.702  26.406  1.00  0.00     0.135 A 
ATOM     72  C   UNL A   1      42.511  22.730  28.590  1.00  0.00     0.135 A 
ATOM     73  F   UNL A   1      42.892  24.768  25.604  1.00  0.00    -0.206 F 
ATOM     74  C   UNL A   1      42.650  22.444  25.822  1.00  0.00     0.059 A 
ATOM     75  C   UNL A   1      42.435  21.458  28.031  1.00  0.00     0.059 A 
ATOM     76  F   UNL A   1      42.454  22.842  29.927  1.00  0.00    -0.206 F 
ATOM     77  C   UNL A   1      42.497  21.326  26.645  1.00  0.00     0.060 A 
BRANCH  77  78
ATOM     78  S   UNL A   1      42.427  19.690  25.881  1.00  0.00     0.124 S 
ATOM     79  O   UNL A   1      42.765  18.826  27.005  1.00  0.00    -0.237 OA
ATOM     80  O   UNL A   1      41.043  19.624  25.418  1.00  0.00    -0.237 OA
ATOM     81  O   UNL A   1      43.428  19.773  24.822  1.00  0.00    -0.744 OA
ENDBRANCH  77  78
ENDBRANCH  45  70
BRANCH  57  82
ATOM     82  C   UNL A   1      47.937  27.503  30.598  1.00  0.00     0.058 A 
ATOM     83  C   UNL A   1      48.322  26.774  31.733  1.00  0.00     0.135 A 
ATOM     84  C   UNL A   1      48.926  27.836  29.660  1.00  0.00     0.135 A 
ATOM     85  F   UNL A   1      47.414  26.440  32.662  1.00  0.00    -0.206 F 
ATOM     86  C   UNL A   1      49.642  26.382  31.926  1.00  0.00     0.059 A 
ATOM     87  C   UNL A   1      50.248  27.438  29.823  1.00  0.00     0.059 A 
ATOM     88  F   UNL A   1      48.603  28.527  28.555  1.00  0.00    -0.206 F 
ATOM     89  C   UNL A   1      50.597  26.712  30.961  1.00  0.00     0.060 A 
BRANCH  89  90
ATOM     90  S   UNL A   1      52.292  26.129  31.182  1.00  0.00     0.124 S 
ATOM     91  O   UNL A   1      52.888  27.233  31.927  1.00  0.00    -0.237 OA
ATOM     92  O   UNL A   1      52.103  24.889  31.928  1.00  0.00    -0.237 OA
ATOM     93  O   UNL A   1      52.774  25.962  29.813  1.00  0.00    -0.744 OA
ENDBRANCH  89  90
ENDBRANCH  57  82
ENDBRANCH  31  32
ENDBRANCH  23  26
ENDBRANCH  21  22
ENDBRANCH  20  21
ENDBRANCH   1  20
TORSDOF 18
ENDMDL
