MODEL 1
REMARK VINA RESULT:     -12.1      0.000      0.000
REMARK SMILES O=C(NCCCCNC(=O)c1ccc(-c2c3nc(c(-c4c(F)cc(S(=O)(=O)[O-])cc4F)c4ccc([nH]4)c(-c4c(F)cc(S(=O)(=O)[O-])cc4F)c4nc(c(-c5c(F)cc(S(=O)(=O)[O-])cc5F)c5ccc2[nH]5)C=C4)C=C3)cc1)C1=Cc2cc(Cl)cc(Cl)c2O[C@@H]1C(F)(F)F
REMARK SMILES IDX 6 1 5 2 4 3 3 4 1 5 2 6 77 8 78 9 88 10 79 11 87 12 80 13
REMARK SMILES IDX 86 14 81 15 84 16 82 17 83 18 85 19 89 20 90 21 91 22 92 23
REMARK SMILES IDX 7 24 8 25 9 26 10 28 11 29 12 30 76 31 13 32 75 33 14 34
REMARK SMILES IDX 15 35 16 36 69 37 17 38 74 39 68 40 70 41 18 42 73 43 67 44
REMARK SMILES IDX 66 45 19 47 53 48 32 49 52 50 33 51 36 52 51 53 71 54 34 55
REMARK SMILES IDX 35 56 50 58 72 59 37 60 20 61 21 62 30 63 22 64 23 65 29 66
REMARK SMILES IDX 31 67 24 68 25 69 26 70 27 71 28 72 54 73 55 74 64 75 56 76
REMARK SMILES IDX 57 77 63 78 65 79 58 80 59 81 60 82 61 83 62 84 38 85 39 86
REMARK SMILES IDX 48 87 40 88 41 89 47 90 49 91 42 92 43 93 44 94 45 95 46 96
REMARK H PARENT 3 7 8 27 70 46 36 57
REMARK Flexibility Score: inf
ROOT
ATOM      1  C   UNL A   1      33.231  28.334  27.233  1.00  0.00     0.023 C 
ENDROOT
BRANCH   1   2
ATOM      2  C   UNL A   1      31.805  27.829  27.000  1.00  0.00     0.023 C 
BRANCH   2   3
ATOM      3  C   UNL A   1      31.699  26.571  26.133  1.00  0.00     0.116 C 
BRANCH   3   4
ATOM      4  N   UNL A   1      31.499  25.340  26.900  1.00  0.00    -0.352 N 
ATOM      5  O   UNL A   1      32.004  23.259  27.644  1.00  0.00    -0.270 OA
ATOM      6  C   UNL A   1      32.062  24.093  26.748  1.00  0.00     0.251 C 
ATOM      7  H   UNL A   1      30.859  25.416  27.644  1.00  0.00     0.163 HD
BRANCH   6   8
ATOM      8  C   UNL A   1      32.867  23.834  25.537  1.00  0.00     0.067 C 
ATOM      9  C   UNL A   1      34.075  24.385  25.345  1.00  0.00     0.025 C 
ATOM     10  C   UNL A   1      32.397  22.740  24.630  1.00  0.00     0.314 C 
ATOM     11  C   UNL A   1      35.085  23.335  25.100  1.00  0.00     0.020 A 
ATOM     12  O   UNL A   1      33.373  21.680  24.531  1.00  0.00    -0.474 OA
ATOM     13  C   UNL A   1      36.399  23.566  25.535  1.00  0.00     0.032 A 
ATOM     14  C   UNL A   1      34.681  22.013  24.803  1.00  0.00     0.146 A 
ATOM     15  C   UNL A   1      37.283  22.495  25.692  1.00  0.00     0.043 A 
ATOM     16  C   UNL A   1      35.594  20.956  24.937  1.00  0.00     0.085 A 
ATOM     17  Cl  UNL A   1      38.849  22.780  26.342  1.00  0.00    -0.084 Cl
ATOM     18  C   UNL A   1      36.889  21.194  25.396  1.00  0.00     0.045 A 
ATOM     19  Cl  UNL A   1      35.115  19.322  24.647  1.00  0.00    -0.080 Cl
BRANCH  10  20
ATOM     20  C   UNL A   1      32.049  23.296  23.233  1.00  0.00     0.429 C 
ATOM     21  F   UNL A   1      30.996  22.641  22.688  1.00  0.00    -0.167 F 
ATOM     22  F   UNL A   1      31.713  24.607  23.277  1.00  0.00    -0.167 F 
ATOM     23  F   UNL A   1      33.079  23.181  22.359  1.00  0.00    -0.167 F 
ENDBRANCH  10  20
ENDBRANCH   6   8
ENDBRANCH   3   4
ENDBRANCH   2   3
ENDBRANCH   1   2
BRANCH   1  24
ATOM     24  C   UNL A   1      33.580  29.711  26.668  1.00  0.00     0.116 C 
BRANCH  24  25
ATOM     25  N   UNL A   1      33.584  30.796  27.641  1.00  0.00    -0.352 N 
ATOM     26  C   UNL A   1      34.580  31.149  28.537  1.00  0.00     0.251 C 
ATOM     27  H   UNL A   1      32.771  31.351  27.664  1.00  0.00     0.163 HD
ATOM     28  O   UNL A   1      34.436  32.099  29.283  1.00  0.00    -0.269 OA
BRANCH  26  29
ATOM     29  C   UNL A   1      35.795  30.303  28.620  1.00  0.00     0.039 A 
ATOM     30  C   UNL A   1      36.640  30.244  27.508  1.00  0.00     0.014 A 
ATOM     31  C   UNL A   1      36.160  29.693  29.821  1.00  0.00     0.014 A 
ATOM     32  C   UNL A   1      37.919  29.701  27.646  1.00  0.00     0.010 A 
ATOM     33  C   UNL A   1      37.461  29.214  29.975  1.00  0.00     0.010 A 
ATOM     34  C   UNL A   1      38.366  29.258  28.902  1.00  0.00    -0.014 A 
BRANCH  34  35
ATOM     35  C   UNL A   1      39.802  28.960  29.146  1.00  0.00     0.031 A 
ATOM     36  C   UNL A   1      40.738  30.026  29.634  1.00  0.00     0.074 A 
ATOM     37  C   UNL A   1      40.285  27.746  28.809  1.00  0.00     0.049 A 
ATOM     38  N   UNL A   1      42.034  29.967  29.808  1.00  0.00    -0.248 NA
ATOM     39  C   UNL A   1      40.146  31.336  29.941  1.00  0.00     0.031 C 
ATOM     40  C   UNL A   1      39.493  26.648  28.249  1.00  0.00     0.029 A 
ATOM     41  N   UNL A   1      41.560  27.239  28.862  1.00  0.00    -0.354 N 
ATOM     42  C   UNL A   1      42.416  31.233  30.232  1.00  0.00     0.074 A 
ATOM     43  C   UNL A   1      41.220  32.050  30.246  1.00  0.00     0.031 C 
ATOM     44  C   UNL A   1      40.297  25.598  28.017  1.00  0.00     0.029 A 
ATOM     45  C   UNL A   1      41.665  25.956  28.378  1.00  0.00     0.049 A 
ATOM     46  H   UNL A   1      42.327  27.747  29.215  1.00  0.00     0.167 HD
ATOM     47  C   UNL A   1      43.648  31.669  30.594  1.00  0.00     0.037 A 
ATOM     48  C   UNL A   1      42.740  25.159  28.222  1.00  0.00     0.037 A 
ATOM     49  C   UNL A   1      44.832  30.852  30.592  1.00  0.00     0.049 A 
ATOM     50  C   UNL A   1      44.093  25.657  28.640  1.00  0.00     0.074 A 
ATOM     51  C   UNL A   1      46.107  31.181  31.020  1.00  0.00     0.029 A 
ATOM     52  N   UNL A   1      44.893  29.547  30.124  1.00  0.00    -0.354 N 
ATOM     53  N   UNL A   1      44.421  26.830  29.126  1.00  0.00    -0.248 NA
ATOM     54  C   UNL A   1      45.222  24.728  28.489  1.00  0.00     0.031 C 
ATOM     55  C   UNL A   1      46.946  30.086  30.778  1.00  0.00     0.029 A 
ATOM     56  C   UNL A   1      46.187  29.064  30.228  1.00  0.00     0.049 A 
ATOM     57  H   UNL A   1      44.128  29.038  29.771  1.00  0.00     0.167 HD
ATOM     58  C   UNL A   1      45.793  26.780  29.342  1.00  0.00     0.074 A 
ATOM     59  C   UNL A   1      46.231  25.455  28.952  1.00  0.00     0.031 C 
ATOM     60  C   UNL A   1      46.614  27.748  29.819  1.00  0.00     0.037 A 
BRANCH  47  61
ATOM     61  C   UNL A   1      43.761  33.104  31.025  1.00  0.00     0.058 A 
ATOM     62  C   UNL A   1      44.013  34.129  30.098  1.00  0.00     0.135 A 
ATOM     63  C   UNL A   1      43.633  33.459  32.376  1.00  0.00     0.135 A 
ATOM     64  F   UNL A   1      44.156  33.840  28.794  1.00  0.00    -0.206 F 
ATOM     65  C   UNL A   1      44.184  35.448  30.501  1.00  0.00     0.059 A 
ATOM     66  C   UNL A   1      43.776  34.777  32.800  1.00  0.00     0.059 A 
ATOM     67  F   UNL A   1      43.389  32.519  33.302  1.00  0.00    -0.206 F 
ATOM     68  C   UNL A   1      44.076  35.760  31.857  1.00  0.00     0.060 A 
BRANCH  68  69
ATOM     69  S   UNL A   1      44.345  37.468  32.376  1.00  0.00     0.124 S 
ATOM     70  O   UNL A   1      43.444  37.566  33.520  1.00  0.00    -0.237 OA
ATOM     71  O   UNL A   1      45.770  37.484  32.690  1.00  0.00    -0.237 OA
ATOM     72  O   UNL A   1      43.957  38.243  31.202  1.00  0.00    -0.744 OA
ENDBRANCH  68  69
ENDBRANCH  47  61
BRANCH  48  73
ATOM     73  C   UNL A   1      42.561  23.801  27.650  1.00  0.00     0.058 A 
ATOM     74  C   UNL A   1      42.594  23.593  26.263  1.00  0.00     0.135 A 
ATOM     75  C   UNL A   1      42.420  22.677  28.479  1.00  0.00     0.135 A 
ATOM     76  F   UNL A   1      42.720  24.638  25.432  1.00  0.00    -0.206 F 
ATOM     77  C   UNL A   1      42.501  22.317  25.717  1.00  0.00     0.059 A 
ATOM     78  C   UNL A   1      42.344  21.390  27.957  1.00  0.00     0.059 A 
ATOM     79  F   UNL A   1      42.400  22.825  29.813  1.00  0.00    -0.206 F 
ATOM     80  C   UNL A   1      42.386  21.221  26.574  1.00  0.00     0.060 A 
BRANCH  80  81
ATOM     81  S   UNL A   1      42.371  19.560  25.863  1.00  0.00     0.124 S 
ATOM     82  O   UNL A   1      42.767  18.747  27.007  1.00  0.00    -0.237 OA
ATOM     83  O   UNL A   1      40.983  19.423  25.431  1.00  0.00    -0.237 OA
ATOM     84  O   UNL A   1      43.346  19.651  24.782  1.00  0.00    -0.744 OA
ENDBRANCH  80  81
ENDBRANCH  48  73
BRANCH  60  85
ATOM     85  C   UNL A   1      48.074  27.417  29.938  1.00  0.00     0.058 A 
ATOM     86  C   UNL A   1      48.980  27.745  28.918  1.00  0.00     0.135 A 
ATOM     87  C   UNL A   1      48.581  26.819  31.102  1.00  0.00     0.135 A 
ATOM     88  F   UNL A   1      48.541  28.307  27.781  1.00  0.00    -0.206 F 
ATOM     89  C   UNL A   1      50.340  27.485  29.044  1.00  0.00     0.059 A 
ATOM     90  C   UNL A   1      49.941  26.568  31.258  1.00  0.00     0.059 A 
ATOM     91  F   UNL A   1      47.756  26.490  32.108  1.00  0.00    -0.206 F 
ATOM     92  C   UNL A   1      50.812  26.897  30.220  1.00  0.00     0.060 A 
BRANCH  92  93
ATOM     93  S   UNL A   1      52.587  26.609  30.395  1.00  0.00     0.124 S 
ATOM     94  O   UNL A   1      52.612  25.510  31.354  1.00  0.00    -0.237 OA
ATOM     95  O   UNL A   1      52.986  26.271  29.033  1.00  0.00    -0.237 OA
ATOM     96  O   UNL A   1      53.089  27.887  30.888  1.00  0.00    -0.744 OA
ENDBRANCH  92  93
ENDBRANCH  60  85
ENDBRANCH  34  35
ENDBRANCH  26  29
ENDBRANCH  24  25
ENDBRANCH   1  24
TORSDOF 15
ENDMDL
MODEL 2
REMARK VINA RESULT:     -12.0      0.521      8.288
REMARK SMILES O=C(NCCCCNC(=O)c1ccc(-c2c3nc(c(-c4c(F)cc(S(=O)(=O)[O-])cc4F)c4ccc([nH]4)c(-c4c(F)cc(S(=O)(=O)[O-])cc4F)c4nc(c(-c5c(F)cc(S(=O)(=O)[O-])cc5F)c5ccc2[nH]5)C=C4)C=C3)cc1)C1=Cc2cc(Cl)cc(Cl)c2O[C@@H]1C(F)(F)F
REMARK SMILES IDX 6 1 5 2 4 3 3 4 1 5 2 6 77 8 78 9 88 10 79 11 87 12 80 13
REMARK SMILES IDX 86 14 81 15 84 16 82 17 83 18 85 19 89 20 90 21 91 22 92 23
REMARK SMILES IDX 7 24 8 25 9 26 10 28 11 29 12 30 76 31 13 32 75 33 14 34
REMARK SMILES IDX 15 35 16 36 69 37 17 38 74 39 68 40 70 41 18 42 73 43 67 44
REMARK SMILES IDX 66 45 19 47 53 48 32 49 52 50 33 51 36 52 51 53 71 54 34 55
REMARK SMILES IDX 35 56 50 58 72 59 37 60 20 61 21 62 30 63 22 64 23 65 29 66
REMARK SMILES IDX 31 67 24 68 25 69 26 70 27 71 28 72 54 73 55 74 64 75 56 76
REMARK SMILES IDX 57 77 63 78 65 79 58 80 59 81 60 82 61 83 62 84 38 85 39 86
REMARK SMILES IDX 48 87 40 88 41 89 47 90 49 91 42 92 43 93 44 94 45 95 46 96
REMARK H PARENT 3 7 8 27 70 46 36 57
REMARK Flexibility Score: inf
ROOT
ATOM      1  C   UNL A   1      33.239  28.238  27.194  1.00  0.00     0.023 C 
ENDROOT
BRANCH   1   2
ATOM      2  C   UNL A   1      31.752  27.950  26.975  1.00  0.00     0.023 C 
BRANCH   2   3
ATOM      3  C   UNL A   1      31.452  26.711  26.127  1.00  0.00     0.116 C 
BRANCH   3   4
ATOM      4  N   UNL A   1      31.274  25.488  26.912  1.00  0.00    -0.352 N 
ATOM      5  O   UNL A   1      31.813  23.424  27.680  1.00  0.00    -0.270 OA
ATOM      6  C   UNL A   1      31.853  24.247  26.773  1.00  0.00     0.251 C 
ATOM      7  H   UNL A   1      30.637  25.564  27.658  1.00  0.00     0.163 HD
BRANCH   6   8
ATOM      8  C   UNL A   1      32.657  23.984  25.561  1.00  0.00     0.067 C 
ATOM      9  C   UNL A   1      33.866  24.529  25.368  1.00  0.00     0.025 C 
ATOM     10  C   UNL A   1      32.180  22.891  24.655  1.00  0.00     0.314 C 
ATOM     11  C   UNL A   1      34.871  23.474  25.121  1.00  0.00     0.020 A 
ATOM     12  O   UNL A   1      33.151  21.826  24.556  1.00  0.00    -0.474 OA
ATOM     13  C   UNL A   1      36.186  23.699  25.555  1.00  0.00     0.032 A 
ATOM     14  C   UNL A   1      34.461  22.154  24.827  1.00  0.00     0.146 A 
ATOM     15  C   UNL A   1      37.066  22.625  25.711  1.00  0.00     0.043 A 
ATOM     16  C   UNL A   1      35.369  21.092  24.960  1.00  0.00     0.085 A 
ATOM     17  Cl  UNL A   1      38.635  22.903  26.360  1.00  0.00    -0.084 Cl
ATOM     18  C   UNL A   1      36.666  21.325  25.417  1.00  0.00     0.045 A 
ATOM     19  Cl  UNL A   1      34.882  19.460  24.672  1.00  0.00    -0.080 Cl
BRANCH  10  20
ATOM     20  C   UNL A   1      31.833  23.447  23.259  1.00  0.00     0.429 C 
ATOM     21  F   UNL A   1      30.510  23.327  22.993  1.00  0.00    -0.167 F 
ATOM     22  F   UNL A   1      32.136  24.762  23.145  1.00  0.00    -0.167 F 
ATOM     23  F   UNL A   1      32.494  22.802  22.266  1.00  0.00    -0.167 F 
ENDBRANCH  10  20
ENDBRANCH   6   8
ENDBRANCH   3   4
ENDBRANCH   2   3
ENDBRANCH   1   2
BRANCH   1  24
ATOM     24  C   UNL A   1      33.755  29.604  26.742  1.00  0.00     0.116 C 
BRANCH  24  25
ATOM     25  N   UNL A   1      33.767  30.634  27.773  1.00  0.00    -0.352 N 
ATOM     26  C   UNL A   1      34.790  30.976  28.641  1.00  0.00     0.251 C 
ATOM     27  H   UNL A   1      32.936  31.155  27.864  1.00  0.00     0.163 HD
ATOM     28  O   UNL A   1      34.648  31.878  29.445  1.00  0.00    -0.269 OA
BRANCH  26  29
ATOM     29  C   UNL A   1      36.038  30.175  28.620  1.00  0.00     0.039 A 
ATOM     30  C   UNL A   1      36.812  30.181  27.456  1.00  0.00     0.014 A 
ATOM     31  C   UNL A   1      36.501  29.545  29.776  1.00  0.00     0.014 A 
ATOM     32  C   UNL A   1      38.116  29.683  27.496  1.00  0.00     0.010 A 
ATOM     33  C   UNL A   1      37.825  29.111  29.833  1.00  0.00     0.010 A 
ATOM     34  C   UNL A   1      38.658  29.221  28.707  1.00  0.00    -0.014 A 
BRANCH  34  35
ATOM     35  C   UNL A   1      40.117  28.971  28.851  1.00  0.00     0.031 A 
ATOM     36  C   UNL A   1      40.708  27.637  28.507  1.00  0.00     0.074 A 
ATOM     37  C   UNL A   1      40.891  29.924  29.411  1.00  0.00     0.049 A 
ATOM     38  N   UNL A   1      41.938  27.217  28.661  1.00  0.00    -0.248 NA
ATOM     39  C   UNL A   1      39.794  26.635  27.939  1.00  0.00     0.031 C 
ATOM     40  C   UNL A   1      40.422  31.236  29.864  1.00  0.00     0.029 A 
ATOM     41  N   UNL A   1      42.229  29.928  29.720  1.00  0.00    -0.354 N 
ATOM     42  C   UNL A   1      41.945  25.899  28.223  1.00  0.00     0.074 A 
ATOM     43  C   UNL A   1      40.585  25.577  27.839  1.00  0.00     0.031 C 
ATOM     44  C   UNL A   1      41.454  31.918  30.385  1.00  0.00     0.029 A 
ATOM     45  C   UNL A   1      42.650  31.083  30.337  1.00  0.00     0.049 A 
ATOM     46  H   UNL A   1      42.830  29.175  29.518  1.00  0.00     0.167 HD
ATOM     47  C   UNL A   1      42.991  25.042  28.132  1.00  0.00     0.037 A 
ATOM     48  C   UNL A   1      43.856  31.431  30.826  1.00  0.00     0.037 A 
ATOM     49  C   UNL A   1      44.343  25.368  28.503  1.00  0.00     0.049 A 
ATOM     50  C   UNL A   1      45.004  30.472  30.706  1.00  0.00     0.074 A 
ATOM     51  C   UNL A   1      45.483  24.595  28.369  1.00  0.00     0.029 A 
ATOM     52  N   UNL A   1      44.736  26.560  29.094  1.00  0.00    -0.354 N 
ATOM     53  N   UNL A   1      45.012  29.260  30.204  1.00  0.00    -0.248 NA
ATOM     54  C   UNL A   1      46.307  30.922  31.216  1.00  0.00     0.031 C 
ATOM     55  C   UNL A   1      46.561  25.305  28.913  1.00  0.00     0.029 A 
ATOM     56  C   UNL A   1      46.096  26.534  29.357  1.00  0.00     0.049 A 
ATOM     57  H   UNL A   1      44.137  27.314  29.298  1.00  0.00     0.167 HD
ATOM     58  C   UNL A   1      46.318  28.804  30.336  1.00  0.00     0.074 A 
ATOM     59  C   UNL A   1      47.077  29.876  30.947  1.00  0.00     0.031 C 
ATOM     60  C   UNL A   1      46.838  27.602  29.983  1.00  0.00     0.037 A 
BRANCH  47  61
ATOM     61  C   UNL A   1      42.698  23.665  27.607  1.00  0.00     0.058 A 
ATOM     62  C   UNL A   1      42.436  22.591  28.473  1.00  0.00     0.135 A 
ATOM     63  C   UNL A   1      42.696  23.410  26.227  1.00  0.00     0.135 A 
ATOM     64  F   UNL A   1      42.438  22.779  29.803  1.00  0.00    -0.206 F 
ATOM     65  C   UNL A   1      42.229  21.303  27.992  1.00  0.00     0.059 A 
ATOM     66  C   UNL A   1      42.468  22.134  25.721  1.00  0.00     0.059 A 
ATOM     67  F   UNL A   1      42.939  24.402  25.356  1.00  0.00    -0.206 F 
ATOM     68  C   UNL A   1      42.260  21.082  26.615  1.00  0.00     0.060 A 
BRANCH  68  69
ATOM     69  S   UNL A   1      42.037  19.398  26.003  1.00  0.00     0.124 S 
ATOM     70  O   UNL A   1      42.449  18.614  27.163  1.00  0.00    -0.237 OA
ATOM     71  O   UNL A   1      40.613  19.362  25.687  1.00  0.00    -0.237 OA
ATOM     72  O   UNL A   1      42.933  19.336  24.852  1.00  0.00    -0.744 OA
ENDBRANCH  68  69
ENDBRANCH  47  61
BRANCH  48  73
ATOM     73  C   UNL A   1      44.026  32.760  31.466  1.00  0.00     0.058 A 
ATOM     74  C   UNL A   1      43.873  32.918  32.850  1.00  0.00     0.135 A 
ATOM     75  C   UNL A   1      44.407  33.883  30.715  1.00  0.00     0.135 A 
ATOM     76  F   UNL A   1      43.502  31.875  33.607  1.00  0.00    -0.206 F 
ATOM     77  C   UNL A   1      44.100  34.142  33.472  1.00  0.00     0.059 A 
ATOM     78  C   UNL A   1      44.659  35.112  31.315  1.00  0.00     0.059 A 
ATOM     79  F   UNL A   1      44.582  33.776  29.388  1.00  0.00    -0.206 F 
ATOM     80  C   UNL A   1      44.503  35.231  32.696  1.00  0.00     0.060 A 
BRANCH  80  81
ATOM     81  S   UNL A   1      44.897  36.789  33.522  1.00  0.00     0.124 S 
ATOM     82  O   UNL A   1      43.887  37.681  32.964  1.00  0.00    -0.237 OA
ATOM     83  O   UNL A   1      44.734  36.440  34.930  1.00  0.00    -0.237 OA
ATOM     84  O   UNL A   1      46.271  37.048  33.106  1.00  0.00    -0.744 OA
ENDBRANCH  80  81
ENDBRANCH  48  73
BRANCH  60  85
ATOM     85  C   UNL A   1      48.297  27.375  30.257  1.00  0.00     0.058 A 
ATOM     86  C   UNL A   1      48.724  26.698  31.409  1.00  0.00     0.135 A 
ATOM     87  C   UNL A   1      49.272  27.786  29.335  1.00  0.00     0.135 A 
ATOM     88  F   UNL A   1      47.830  26.294  32.325  1.00  0.00    -0.206 F 
ATOM     89  C   UNL A   1      50.070  26.442  31.643  1.00  0.00     0.059 A 
ATOM     90  C   UNL A   1      50.623  27.524  29.539  1.00  0.00     0.059 A 
ATOM     91  F   UNL A   1      48.914  28.435  28.215  1.00  0.00    -0.206 F 
ATOM     92  C   UNL A   1      51.014  26.857  30.700  1.00  0.00     0.060 A 
BRANCH  92  93
ATOM     93  S   UNL A   1      52.755  26.476  30.988  1.00  0.00     0.124 S 
ATOM     94  O   UNL A   1      52.662  25.231  31.744  1.00  0.00    -0.237 OA
ATOM     95  O   UNL A   1      53.280  26.355  29.631  1.00  0.00    -0.237 OA
ATOM     96  O   UNL A   1      53.235  27.633  31.736  1.00  0.00    -0.744 OA
ENDBRANCH  92  93
ENDBRANCH  60  85
ENDBRANCH  34  35
ENDBRANCH  26  29
ENDBRANCH  24  25
ENDBRANCH   1  24
TORSDOF 15
ENDMDL
MODEL 3
REMARK VINA RESULT:     -11.8      5.257     10.535
REMARK SMILES O=C(NCCCCNC(=O)c1ccc(-c2c3nc(c(-c4c(F)cc(S(=O)(=O)[O-])cc4F)c4ccc([nH]4)c(-c4c(F)cc(S(=O)(=O)[O-])cc4F)c4nc(c(-c5c(F)cc(S(=O)(=O)[O-])cc5F)c5ccc2[nH]5)C=C4)C=C3)cc1)C1=Cc2cc(Cl)cc(Cl)c2O[C@@H]1C(F)(F)F
REMARK SMILES IDX 6 1 5 2 4 3 3 4 1 5 2 6 77 8 78 9 88 10 79 11 87 12 80 13
REMARK SMILES IDX 86 14 81 15 84 16 82 17 83 18 85 19 89 20 90 21 91 22 92 23
REMARK SMILES IDX 7 24 8 25 9 26 10 28 11 29 12 30 76 31 13 32 75 33 14 34
REMARK SMILES IDX 15 35 16 36 69 37 17 38 74 39 68 40 70 41 18 42 73 43 67 44
REMARK SMILES IDX 66 45 19 47 53 48 32 49 52 50 33 51 36 52 51 53 71 54 34 55
REMARK SMILES IDX 35 56 50 58 72 59 37 60 20 61 21 62 30 63 22 64 23 65 29 66
REMARK SMILES IDX 31 67 24 68 25 69 26 70 27 71 28 72 54 73 55 74 64 75 56 76
REMARK SMILES IDX 57 77 63 78 65 79 58 80 59 81 60 82 61 83 62 84 38 85 39 86
REMARK SMILES IDX 48 87 40 88 41 89 47 90 49 91 42 92 43 93 44 94 45 95 46 96
REMARK H PARENT 3 7 8 27 70 46 36 57
REMARK Flexibility Score: inf
ROOT
ATOM      1  C   UNL A   1      40.318  21.527  26.625  1.00  0.00     0.023 C 
ENDROOT
BRANCH   1   2
ATOM      2  C   UNL A   1      39.108  20.974  25.867  1.00  0.00     0.023 C 
BRANCH   2   3
ATOM      3  C   UNL A   1      37.944  21.956  25.706  1.00  0.00     0.116 C 
BRANCH   3   4
ATOM      4  N   UNL A   1      37.484  22.104  24.324  1.00  0.00    -0.352 N 
ATOM      5  O   UNL A   1      36.248  22.978  22.636  1.00  0.00    -0.270 OA
ATOM      6  C   UNL A   1      36.341  22.683  23.822  1.00  0.00     0.251 C 
ATOM      7  H   UNL A   1      38.089  21.730  23.644  1.00  0.00     0.163 HD
BRANCH   6   8
ATOM      8  C   UNL A   1      35.283  23.080  24.775  1.00  0.00     0.067 C 
ATOM      9  C   UNL A   1      35.277  24.273  25.386  1.00  0.00     0.025 C 
ATOM     10  C   UNL A   1      34.078  22.196  24.857  1.00  0.00     0.314 C 
ATOM     11  C   UNL A   1      34.002  24.974  25.131  1.00  0.00     0.020 A 
ATOM     12  O   UNL A   1      32.878  22.902  24.471  1.00  0.00    -0.474 OA
ATOM     13  C   UNL A   1      34.019  26.376  25.062  1.00  0.00     0.032 A 
ATOM     14  C   UNL A   1      32.898  24.274  24.593  1.00  0.00     0.146 A 
ATOM     15  C   UNL A   1      32.967  27.060  24.448  1.00  0.00     0.043 A 
ATOM     16  C   UNL A   1      31.836  24.981  24.009  1.00  0.00     0.085 A 
ATOM     17  Cl  UNL A   1      33.062  28.768  24.263  1.00  0.00    -0.084 Cl
ATOM     18  C   UNL A   1      31.878  26.372  23.922  1.00  0.00     0.045 A 
ATOM     19  Cl  UNL A   1      30.505  24.154  23.283  1.00  0.00    -0.080 Cl
BRANCH  10  20
ATOM     20  C   UNL A   1      33.931  21.599  26.272  1.00  0.00     0.429 C 
ATOM     21  F   UNL A   1      35.134  21.463  26.880  1.00  0.00    -0.167 F 
ATOM     22  F   UNL A   1      33.172  22.380  27.078  1.00  0.00    -0.167 F 
ATOM     23  F   UNL A   1      33.356  20.370  26.258  1.00  0.00    -0.167 F 
ENDBRANCH  10  20
ENDBRANCH   6   8
ENDBRANCH   3   4
ENDBRANCH   2   3
ENDBRANCH   1   2
BRANCH   1  24
ATOM     24  C   UNL A   1      40.248  22.987  27.072  1.00  0.00     0.116 C 
BRANCH  24  25
ATOM     25  N   UNL A   1      40.554  23.966  26.038  1.00  0.00    -0.352 N 
ATOM     26  C   UNL A   1      40.943  25.288  26.187  1.00  0.00     0.251 C 
ATOM     27  H   UNL A   1      40.475  23.646  25.110  1.00  0.00     0.163 HD
ATOM     28  O   UNL A   1      41.178  25.980  25.214  1.00  0.00    -0.269 OA
BRANCH  26  29
ATOM     29  C   UNL A   1      40.998  25.863  27.552  1.00  0.00     0.039 A 
ATOM     30  C   UNL A   1      42.183  26.477  27.967  1.00  0.00     0.014 A 
ATOM     31  C   UNL A   1      39.855  25.916  28.351  1.00  0.00     0.014 A 
ATOM     32  C   UNL A   1      42.179  27.272  29.115  1.00  0.00     0.010 A 
ATOM     33  C   UNL A   1      39.834  26.763  29.458  1.00  0.00     0.010 A 
ATOM     34  C   UNL A   1      40.983  27.486  29.821  1.00  0.00    -0.014 A 
BRANCH  34  35
ATOM     35  C   UNL A   1      40.880  28.551  30.854  1.00  0.00     0.031 A 
ATOM     36  C   UNL A   1      41.701  28.492  32.107  1.00  0.00     0.074 A 
ATOM     37  C   UNL A   1      39.947  29.515  30.708  1.00  0.00     0.049 A 
ATOM     38  N   UNL A   1      41.668  29.280  33.151  1.00  0.00    -0.248 NA
ATOM     39  C   UNL A   1      42.667  27.389  32.213  1.00  0.00     0.031 C 
ATOM     40  C   UNL A   1      39.030  29.638  29.572  1.00  0.00     0.029 A 
ATOM     41  N   UNL A   1      39.596  30.558  31.528  1.00  0.00    -0.354 N 
ATOM     42  C   UNL A   1      42.597  28.763  34.045  1.00  0.00     0.074 A 
ATOM     43  C   UNL A   1      43.145  27.567  33.436  1.00  0.00     0.031 C 
ATOM     44  C   UNL A   1      38.228  30.697  29.765  1.00  0.00     0.029 A 
ATOM     45  C   UNL A   1      38.548  31.309  31.050  1.00  0.00     0.049 A 
ATOM     46  H   UNL A   1      40.054  30.751  32.379  1.00  0.00     0.167 HD
ATOM     47  C   UNL A   1      42.972  29.250  35.253  1.00  0.00     0.037 A 
ATOM     48  C   UNL A   1      37.902  32.362  31.588  1.00  0.00     0.037 A 
ATOM     49  C   UNL A   1      42.436  30.444  35.850  1.00  0.00     0.049 A 
ATOM     50  C   UNL A   1      38.340  32.893  32.922  1.00  0.00     0.074 A 
ATOM     51  C   UNL A   1      42.812  31.061  37.030  1.00  0.00     0.029 A 
ATOM     52  N   UNL A   1      41.397  31.196  35.320  1.00  0.00    -0.354 N 
ATOM     53  N   UNL A   1      39.285  32.444  33.713  1.00  0.00    -0.248 NA
ATOM     54  C   UNL A   1      37.628  34.070  33.439  1.00  0.00     0.031 C 
ATOM     55  C   UNL A   1      41.976  32.167  37.232  1.00  0.00     0.029 A 
ATOM     56  C   UNL A   1      41.100  32.256  36.162  1.00  0.00     0.049 A 
ATOM     57  H   UNL A   1      40.938  31.005  34.470  1.00  0.00     0.167 HD
ATOM     58  C   UNL A   1      39.283  33.284  34.820  1.00  0.00     0.074 A 
ATOM     59  C   UNL A   1      38.257  34.280  34.588  1.00  0.00     0.031 C 
ATOM     60  C   UNL A   1      40.063  33.231  35.928  1.00  0.00     0.037 A 
BRANCH  47  61
ATOM     61  C   UNL A   1      44.020  28.476  36.002  1.00  0.00     0.058 A 
ATOM     62  C   UNL A   1      43.678  27.403  36.841  1.00  0.00     0.135 A 
ATOM     63  C   UNL A   1      45.376  28.818  35.896  1.00  0.00     0.135 A 
ATOM     64  F   UNL A   1      42.392  27.043  36.987  1.00  0.00    -0.206 F 
ATOM     65  C   UNL A   1      44.638  26.727  37.586  1.00  0.00     0.059 A 
ATOM     66  C   UNL A   1      46.358  28.141  36.613  1.00  0.00     0.059 A 
ATOM     67  F   UNL A   1      45.758  29.834  35.106  1.00  0.00    -0.206 F 
ATOM     68  C   UNL A   1      45.974  27.112  37.475  1.00  0.00     0.060 A 
BRANCH  68  69
ATOM     69  S   UNL A   1      47.207  26.260  38.480  1.00  0.00     0.124 S 
ATOM     70  O   UNL A   1      47.582  25.156  37.601  1.00  0.00    -0.237 OA
ATOM     71  O   UNL A   1      48.224  27.288  38.675  1.00  0.00    -0.237 OA
ATOM     72  O   UNL A   1      46.464  25.884  39.679  1.00  0.00    -0.744 OA
ENDBRANCH  68  69
ENDBRANCH  47  61
BRANCH  48  73
ATOM     73  C   UNL A   1      36.775  32.981  30.844  1.00  0.00     0.058 A 
ATOM     74  C   UNL A   1      35.448  32.776  31.246  1.00  0.00     0.135 A 
ATOM     75  C   UNL A   1      37.007  33.840  29.760  1.00  0.00     0.135 A 
ATOM     76  F   UNL A   1      35.178  31.957  32.274  1.00  0.00    -0.206 F 
ATOM     77  C   UNL A   1      34.388  33.407  30.604  1.00  0.00     0.059 A 
ATOM     78  C   UNL A   1      35.966  34.497  29.113  1.00  0.00     0.059 A 
ATOM     79  F   UNL A   1      38.263  34.079  29.349  1.00  0.00    -0.206 F 
ATOM     80  C   UNL A   1      34.659  34.274  29.544  1.00  0.00     0.060 A 
BRANCH  80  81
ATOM     81  S   UNL A   1      33.287  35.171  28.782  1.00  0.00     0.124 S 
ATOM     82  O   UNL A   1      32.539  35.613  29.953  1.00  0.00    -0.237 OA
ATOM     83  O   UNL A   1      33.980  36.215  28.034  1.00  0.00    -0.237 OA
ATOM     84  O   UNL A   1      32.638  34.153  27.962  1.00  0.00    -0.744 OA
ENDBRANCH  80  81
ENDBRANCH  48  73
BRANCH  60  85
ATOM     85  C   UNL A   1      39.831  34.274  36.984  1.00  0.00     0.058 A 
ATOM     86  C   UNL A   1      39.086  33.988  38.137  1.00  0.00     0.135 A 
ATOM     87  C   UNL A   1      40.406  35.550  36.870  1.00  0.00     0.135 A 
ATOM     88  F   UNL A   1      38.508  32.786  38.287  1.00  0.00    -0.206 F 
ATOM     89  C   UNL A   1      38.910  34.935  39.141  1.00  0.00     0.059 A 
ATOM     90  C   UNL A   1      40.259  36.506  37.870  1.00  0.00     0.059 A 
ATOM     91  F   UNL A   1      41.131  35.871  35.786  1.00  0.00    -0.206 F 
ATOM     92  C   UNL A   1      39.503  36.192  38.999  1.00  0.00     0.060 A 
BRANCH  92  93
ATOM     93  S   UNL A   1      39.311  37.398  40.330  1.00  0.00     0.124 S 
ATOM     94  O   UNL A   1      40.700  37.719  40.638  1.00  0.00    -0.237 OA
ATOM     95  O   UNL A   1      38.543  38.458  39.685  1.00  0.00    -0.237 OA
ATOM     96  O   UNL A   1      38.594  36.653  41.360  1.00  0.00    -0.744 OA
ENDBRANCH  92  93
ENDBRANCH  60  85
ENDBRANCH  34  35
ENDBRANCH  26  29
ENDBRANCH  24  25
ENDBRANCH   1  24
TORSDOF 15
ENDMDL
