MODEL 1
REMARK VINA RESULT:     -11.3      0.000      0.000
REMARK SMILES O=C(NCCCCNC(=O)c1ccc(S(=O)(=O)Cc2cccs2)c(F)c1)c1ccc(-c2c3nc(c(-c4c(F)cc(S(=O)(=O)[O-])cc4F)c4ccc([nH]4)c(-c4c(F)cc(S(=O)(=O)[O-])cc4F)c4nc(c(-c5c(F)cc(S(=O)(=O)[O-])cc5F)c5ccc2[nH]5)C=C4)C=C3)cc1
REMARK SMILES IDX 5 1 4 2 3 3 1 4 2 5 27 7 28 8 92 9 29 10 91 11 30 12 31 13
REMARK SMILES IDX 32 14 85 15 33 16 90 17 84 18 86 19 34 20 89 21 83 22 82 23
REMARK SMILES IDX 35 25 69 26 48 27 68 28 49 29 52 30 67 31 87 32 50 33 51 34
REMARK SMILES IDX 66 36 88 37 53 38 36 39 37 40 46 41 38 42 39 43 45 44 47 45
REMARK SMILES IDX 40 46 41 47 42 48 43 49 44 50 70 51 71 52 80 53 72 54 73 55
REMARK SMILES IDX 79 56 81 57 74 58 75 59 76 60 77 61 78 62 54 63 55 64 64 65
REMARK SMILES IDX 56 66 57 67 63 68 65 69 58 70 59 71 60 72 61 73 62 74 6 75
REMARK SMILES IDX 7 76 8 77 9 78 10 80 11 81 12 82 26 83 13 84 24 85 14 86
REMARK SMILES IDX 25 87 15 88 16 89 17 90 18 91 19 92 20 93 23 94 21 95 22 96
REMARK H PARENT 3 6 86 24 52 35 8 79
REMARK Flexibility Score: inf
ROOT
ATOM      1  C   UNL A   1      34.021  28.147  25.464  1.00  0.00     0.023 C 
ENDROOT
BRANCH   1   2
ATOM      2  C   UNL A   1      33.854  28.293  26.971  1.00  0.00     0.116 C 
BRANCH   2   3
ATOM      3  N   UNL A   1      33.596  29.663  27.382  1.00  0.00    -0.352 N 
ATOM      4  O   UNL A   1      34.007  31.614  28.435  1.00  0.00    -0.269 OA
ATOM      5  C   UNL A   1      34.433  30.533  28.041  1.00  0.00     0.251 C 
ATOM      6  H   UNL A   1      32.704  30.015  27.160  1.00  0.00     0.163 HD
BRANCH   5   7
ATOM      7  C   UNL A   1      35.838  30.145  28.292  1.00  0.00     0.039 A 
ATOM      8  C   UNL A   1      36.796  30.250  27.280  1.00  0.00     0.014 A 
ATOM      9  C   UNL A   1      36.198  29.671  29.557  1.00  0.00     0.014 A 
ATOM     10  C   UNL A   1      38.083  29.772  27.496  1.00  0.00     0.010 A 
ATOM     11  C   UNL A   1      37.514  29.260  29.795  1.00  0.00     0.010 A 
ATOM     12  C   UNL A   1      38.462  29.293  28.762  1.00  0.00    -0.014 A 
BRANCH  12  13
ATOM     13  C   UNL A   1      39.882  28.936  29.003  1.00  0.00     0.031 A 
ATOM     14  C   UNL A   1      40.430  27.591  28.619  1.00  0.00     0.074 A 
ATOM     15  C   UNL A   1      40.682  29.866  29.560  1.00  0.00     0.049 A 
ATOM     16  N   UNL A   1      41.647  27.134  28.763  1.00  0.00    -0.248 NA
ATOM     17  C   UNL A   1      39.501  26.633  27.999  1.00  0.00     0.031 C 
ATOM     18  C   UNL A   1      40.247  31.201  29.986  1.00  0.00     0.029 A 
ATOM     19  N   UNL A   1      42.021  29.848  29.853  1.00  0.00    -0.354 N 
ATOM     20  C   UNL A   1      41.633  25.836  28.265  1.00  0.00     0.074 A 
ATOM     21  C   UNL A   1      40.279  25.569  27.829  1.00  0.00     0.031 C 
ATOM     22  C   UNL A   1      41.305  31.885  30.444  1.00  0.00     0.029 A 
ATOM     23  C   UNL A   1      42.478  31.021  30.406  1.00  0.00     0.049 A 
ATOM     24  H   UNL A   1      42.600  29.070  29.682  1.00  0.00     0.167 HD
ATOM     25  C   UNL A   1      42.660  24.960  28.176  1.00  0.00     0.037 A 
ATOM     26  C   UNL A   1      43.700  31.360  30.858  1.00  0.00     0.037 A 
ATOM     27  C   UNL A   1      44.008  25.249  28.594  1.00  0.00     0.049 A 
ATOM     28  C   UNL A   1      44.810  30.355  30.770  1.00  0.00     0.074 A 
ATOM     29  C   UNL A   1      45.129  24.440  28.496  1.00  0.00     0.029 A 
ATOM     30  N   UNL A   1      44.423  26.432  29.188  1.00  0.00    -0.354 N 
ATOM     31  N   UNL A   1      44.782  29.144  30.268  1.00  0.00    -0.248 NA
ATOM     32  C   UNL A   1      46.113  30.751  31.321  1.00  0.00     0.031 C 
ATOM     33  C   UNL A   1      46.209  25.116  29.068  1.00  0.00     0.029 A 
ATOM     34  C   UNL A   1      45.774  26.362  29.486  1.00  0.00     0.049 A 
ATOM     35  H   UNL A   1      43.844  27.207  29.369  1.00  0.00     0.167 HD
ATOM     36  C   UNL A   1      46.060  28.632  30.446  1.00  0.00     0.074 A 
ATOM     37  C   UNL A   1      46.845  29.674  31.076  1.00  0.00     0.031 C 
ATOM     38  C   UNL A   1      46.536  27.405  30.124  1.00  0.00     0.037 A 
BRANCH  25  39
ATOM     39  C   UNL A   1      42.395  23.595  27.604  1.00  0.00     0.058 A 
ATOM     40  C   UNL A   1      42.261  22.483  28.451  1.00  0.00     0.135 A 
ATOM     41  C   UNL A   1      42.410  23.368  26.220  1.00  0.00     0.135 A 
ATOM     42  F   UNL A   1      42.233  22.647  29.783  1.00  0.00    -0.206 F 
ATOM     43  C   UNL A   1      42.186  21.189  27.946  1.00  0.00     0.059 A 
ATOM     44  C   UNL A   1      42.319  22.082  25.692  1.00  0.00     0.059 A 
ATOM     45  F   UNL A   1      42.517  24.399  25.368  1.00  0.00    -0.206 F 
ATOM     46  C   UNL A   1      42.229  20.998  26.564  1.00  0.00     0.060 A 
BRANCH  46  47
ATOM     47  S   UNL A   1      42.159  19.310  25.925  1.00  0.00     0.124 S 
ATOM     48  O   UNL A   1      40.741  19.163  25.620  1.00  0.00    -0.237 OA
ATOM     49  O   UNL A   1      43.055  19.381  24.775  1.00  0.00    -0.237 OA
ATOM     50  O   UNL A   1      42.650  18.505  27.041  1.00  0.00    -0.744 OA
ENDBRANCH  46  47
ENDBRANCH  25  39
BRANCH  26  51
ATOM     51  C   UNL A   1      43.916  32.701  31.457  1.00  0.00     0.058 A 
ATOM     52  C   UNL A   1      44.296  33.794  30.662  1.00  0.00     0.135 A 
ATOM     53  C   UNL A   1      43.781  32.909  32.837  1.00  0.00     0.135 A 
ATOM     54  F   UNL A   1      44.449  33.642  29.337  1.00  0.00    -0.206 F 
ATOM     55  C   UNL A   1      44.561  35.039  31.216  1.00  0.00     0.059 A 
ATOM     56  C   UNL A   1      44.014  34.154  33.412  1.00  0.00     0.059 A 
ATOM     57  F   UNL A   1      43.409  31.895  33.634  1.00  0.00    -0.206 F 
ATOM     58  C   UNL A   1      44.421  35.209  32.595  1.00  0.00     0.060 A 
BRANCH  58  59
ATOM     59  S   UNL A   1      44.761  36.837  33.298  1.00  0.00     0.124 S 
ATOM     60  O   UNL A   1      45.942  37.239  32.541  1.00  0.00    -0.237 OA
ATOM     61  O   UNL A   1      43.534  37.567  32.995  1.00  0.00    -0.237 OA
ATOM     62  O   UNL A   1      44.985  36.551  34.711  1.00  0.00    -0.744 OA
ENDBRANCH  58  59
ENDBRANCH  26  51
BRANCH  38  63
ATOM     63  C   UNL A   1      47.970  27.114  30.459  1.00  0.00     0.058 A 
ATOM     64  C   UNL A   1      48.323  26.602  31.717  1.00  0.00     0.135 A 
ATOM     65  C   UNL A   1      49.000  27.410  29.553  1.00  0.00     0.135 A 
ATOM     66  F   UNL A   1      47.373  26.304  32.617  1.00  0.00    -0.206 F 
ATOM     67  C   UNL A   1      49.653  26.412  32.074  1.00  0.00     0.059 A 
ATOM     68  C   UNL A   1      50.337  27.206  29.881  1.00  0.00     0.059 A 
ATOM     69  F   UNL A   1      48.710  27.886  28.333  1.00  0.00    -0.206 F 
ATOM     70  C   UNL A   1      50.652  26.723  31.151  1.00  0.00     0.060 A 
BRANCH  70  71
ATOM     71  S   UNL A   1      52.375  26.464  31.627  1.00  0.00     0.124 S 
ATOM     72  O   UNL A   1      52.394  25.034  31.911  1.00  0.00    -0.237 OA
ATOM     73  O   UNL A   1      53.095  26.884  30.428  1.00  0.00    -0.237 OA
ATOM     74  O   UNL A   1      52.540  27.338  32.785  1.00  0.00    -0.744 OA
ENDBRANCH  70  71
ENDBRANCH  38  63
ENDBRANCH  12  13
ENDBRANCH   5   7
ENDBRANCH   2   3
ENDBRANCH   1   2
BRANCH   1  75
ATOM     75  C   UNL A   1      33.329  29.221  24.623  1.00  0.00     0.023 C 
BRANCH  75  76
ATOM     76  C   UNL A   1      33.303  28.947  23.121  1.00  0.00     0.116 C 
BRANCH  76  77
ATOM     77  N   UNL A   1      31.974  29.119  22.556  1.00  0.00    -0.352 N 
ATOM     78  C   UNL A   1      30.902  28.270  22.612  1.00  0.00     0.251 C 
ATOM     79  H   UNL A   1      31.825  29.962  22.068  1.00  0.00     0.163 HD
ATOM     80  O   UNL A   1      29.889  28.469  21.950  1.00  0.00    -0.269 OA
BRANCH  78  81
ATOM     81  C   UNL A   1      30.975  27.084  23.478  1.00  0.00     0.042 A 
ATOM     82  C   UNL A   1      30.493  27.143  24.792  1.00  0.00     0.015 A 
ATOM     83  C   UNL A   1      31.517  25.906  22.964  1.00  0.00     0.054 A 
ATOM     84  C   UNL A   1      30.592  26.021  25.609  1.00  0.00     0.024 A 
ATOM     85  C   UNL A   1      31.623  24.794  23.791  1.00  0.00     0.142 A 
ATOM     86  C   UNL A   1      31.162  24.845  25.102  1.00  0.00     0.103 A 
ATOM     87  F   UNL A   1      32.182  23.685  23.292  1.00  0.00    -0.206 F 
BRANCH  86  88
ATOM     88  S   UNL A   1      31.266  23.437  26.159  1.00  0.00     0.186 S 
ATOM     89  O   UNL A   1      30.313  23.700  27.226  1.00  0.00    -0.223 OA
ATOM     90  O   UNL A   1      31.080  22.262  25.322  1.00  0.00    -0.223 OA
BRANCH  88  91
ATOM     91  C   UNL A   1      32.869  23.334  26.901  1.00  0.00     0.188 C 
BRANCH  91  92
ATOM     92  C   UNL A   1      34.070  23.140  26.014  1.00  0.00     0.020 A 
ATOM     93  C   UNL A   1      34.805  24.176  25.457  1.00  0.00     0.016 A 
ATOM     94  S   UNL A   1      34.721  21.629  25.538  1.00  0.00    -0.148 S 
ATOM     95  C   UNL A   1      35.856  23.725  24.611  1.00  0.00     0.012 A 
ATOM     96  C   UNL A   1      35.905  22.354  24.548  1.00  0.00     0.065 A 
ENDBRANCH  91  92
ENDBRANCH  88  91
ENDBRANCH  86  88
ENDBRANCH  78  81
ENDBRANCH  76  77
ENDBRANCH  75  76
ENDBRANCH   1  75
TORSDOF 17
ENDMDL
MODEL 2
REMARK VINA RESULT:     -10.9      1.742      2.498
REMARK SMILES O=C(NCCCCNC(=O)c1ccc(S(=O)(=O)Cc2cccs2)c(F)c1)c1ccc(-c2c3nc(c(-c4c(F)cc(S(=O)(=O)[O-])cc4F)c4ccc([nH]4)c(-c4c(F)cc(S(=O)(=O)[O-])cc4F)c4nc(c(-c5c(F)cc(S(=O)(=O)[O-])cc5F)c5ccc2[nH]5)C=C4)C=C3)cc1
REMARK SMILES IDX 5 1 4 2 3 3 1 4 2 5 27 7 28 8 92 9 29 10 91 11 30 12 31 13
REMARK SMILES IDX 32 14 85 15 33 16 90 17 84 18 86 19 34 20 89 21 83 22 82 23
REMARK SMILES IDX 35 25 69 26 48 27 68 28 49 29 52 30 67 31 87 32 50 33 51 34
REMARK SMILES IDX 66 36 88 37 53 38 36 39 37 40 46 41 38 42 39 43 45 44 47 45
REMARK SMILES IDX 40 46 41 47 42 48 43 49 44 50 70 51 71 52 80 53 72 54 73 55
REMARK SMILES IDX 79 56 81 57 74 58 75 59 76 60 77 61 78 62 54 63 55 64 64 65
REMARK SMILES IDX 56 66 57 67 63 68 65 69 58 70 59 71 60 72 61 73 62 74 6 75
REMARK SMILES IDX 7 76 8 77 9 78 10 80 11 81 12 82 26 83 13 84 24 85 14 86
REMARK SMILES IDX 25 87 15 88 16 89 17 90 18 91 19 92 20 93 23 94 21 95 22 96
REMARK H PARENT 3 6 86 24 52 35 8 79
REMARK Flexibility Score: inf
ROOT
ATOM      1  C   UNL A   1      32.416  27.499  26.431  1.00  0.00     0.023 C 
ENDROOT
BRANCH   1   2
ATOM      2  C   UNL A   1      33.595  28.208  27.086  1.00  0.00     0.116 C 
BRANCH   2   3
ATOM      3  N   UNL A   1      33.342  29.617  27.335  1.00  0.00    -0.352 N 
ATOM      4  O   UNL A   1      33.758  31.677  28.153  1.00  0.00    -0.269 OA
ATOM      5  C   UNL A   1      34.181  30.555  27.889  1.00  0.00     0.251 C 
ATOM      6  H   UNL A   1      32.452  29.944  27.070  1.00  0.00     0.163 HD
BRANCH   5   7
ATOM      7  C   UNL A   1      35.584  30.194  28.188  1.00  0.00     0.039 A 
ATOM      8  C   UNL A   1      36.573  30.322  27.210  1.00  0.00     0.014 A 
ATOM      9  C   UNL A   1      35.910  29.723  29.463  1.00  0.00     0.014 A 
ATOM     10  C   UNL A   1      37.862  29.868  27.469  1.00  0.00     0.010 A 
ATOM     11  C   UNL A   1      37.224  29.338  29.745  1.00  0.00     0.010 A 
ATOM     12  C   UNL A   1      38.206  29.393  28.745  1.00  0.00    -0.014 A 
BRANCH  12  13
ATOM     13  C   UNL A   1      39.623  29.063  29.035  1.00  0.00     0.031 A 
ATOM     14  C   UNL A   1      40.211  27.730  28.667  1.00  0.00     0.074 A 
ATOM     15  C   UNL A   1      40.386  30.007  29.621  1.00  0.00     0.049 A 
ATOM     16  N   UNL A   1      41.431  27.297  28.852  1.00  0.00    -0.248 NA
ATOM     17  C   UNL A   1      39.323  26.756  28.013  1.00  0.00     0.031 C 
ATOM     18  C   UNL A   1      39.910  31.332  30.035  1.00  0.00     0.029 A 
ATOM     19  N   UNL A   1      41.714  30.014  29.960  1.00  0.00    -0.354 N 
ATOM     20  C   UNL A   1      41.460  26.000  28.351  1.00  0.00     0.074 A 
ATOM     21  C   UNL A   1      40.127  25.708  27.868  1.00  0.00     0.031 C 
ATOM     22  C   UNL A   1      40.938  32.035  30.531  1.00  0.00     0.029 A 
ATOM     23  C   UNL A   1      42.128  31.194  30.531  1.00  0.00     0.049 A 
ATOM     24  H   UNL A   1      42.313  29.248  29.807  1.00  0.00     0.167 HD
ATOM     25  C   UNL A   1      42.506  25.144  28.295  1.00  0.00     0.037 A 
ATOM     26  C   UNL A   1      43.328  31.556  31.025  1.00  0.00     0.037 A 
ATOM     27  C   UNL A   1      43.834  25.459  28.759  1.00  0.00     0.049 A 
ATOM     28  C   UNL A   1      44.460  30.574  30.974  1.00  0.00     0.074 A 
ATOM     29  C   UNL A   1      44.973  24.672  28.698  1.00  0.00     0.029 A 
ATOM     30  N   UNL A   1      44.205  26.648  29.370  1.00  0.00    -0.354 N 
ATOM     31  N   UNL A   1      44.473  29.364  30.468  1.00  0.00    -0.248 NA
ATOM     32  C   UNL A   1      45.734  30.994  31.570  1.00  0.00     0.031 C 
ATOM     33  C   UNL A   1      46.020  25.368  29.309  1.00  0.00     0.029 A 
ATOM     34  C   UNL A   1      45.546  26.604  29.715  1.00  0.00     0.049 A 
ATOM     35  H   UNL A   1      43.604  27.411  29.533  1.00  0.00     0.167 HD
ATOM     36  C   UNL A   1      45.753  28.876  30.689  1.00  0.00     0.074 A 
ATOM     37  C   UNL A   1      46.496  29.932  31.347  1.00  0.00     0.031 C 
ATOM     38  C   UNL A   1      46.264  27.660  30.381  1.00  0.00     0.037 A 
BRANCH  25  39
ATOM     39  C   UNL A   1      42.288  23.777  27.711  1.00  0.00     0.058 A 
ATOM     40  C   UNL A   1      42.220  22.650  28.547  1.00  0.00     0.135 A 
ATOM     41  C   UNL A   1      42.284  23.567  26.324  1.00  0.00     0.135 A 
ATOM     42  F   UNL A   1      42.213  22.797  29.881  1.00  0.00    -0.206 F 
ATOM     43  C   UNL A   1      42.190  21.360  28.026  1.00  0.00     0.059 A 
ATOM     44  C   UNL A   1      42.237  22.285  25.781  1.00  0.00     0.059 A 
ATOM     45  F   UNL A   1      42.329  24.612  25.483  1.00  0.00    -0.206 F 
ATOM     46  C   UNL A   1      42.213  21.187  26.642  1.00  0.00     0.060 A 
BRANCH  46  47
ATOM     47  S   UNL A   1      42.201  19.506  25.983  1.00  0.00     0.124 S 
ATOM     48  O   UNL A   1      40.800  19.335  25.616  1.00  0.00    -0.237 OA
ATOM     49  O   UNL A   1      43.143  19.606  24.872  1.00  0.00    -0.237 OA
ATOM     50  O   UNL A   1      42.660  18.698  27.110  1.00  0.00    -0.744 OA
ENDBRANCH  46  47
ENDBRANCH  25  39
BRANCH  26  51
ATOM     51  C   UNL A   1      43.495  32.899  31.635  1.00  0.00     0.058 A 
ATOM     52  C   UNL A   1      43.329  33.091  33.016  1.00  0.00     0.135 A 
ATOM     53  C   UNL A   1      43.790  34.022  30.847  1.00  0.00     0.135 A 
ATOM     54  F   UNL A   1      43.034  32.050  33.809  1.00  0.00    -0.206 F 
ATOM     55  C   UNL A   1      43.421  34.352  33.591  1.00  0.00     0.059 A 
ATOM     56  C   UNL A   1      43.915  35.290  31.405  1.00  0.00     0.059 A 
ATOM     57  F   UNL A   1      43.968  33.883  29.524  1.00  0.00    -0.206 F 
ATOM     58  C   UNL A   1      43.711  35.447  32.776  1.00  0.00     0.060 A 
BRANCH  58  59
ATOM     59  S   UNL A   1      43.836  37.077  33.542  1.00  0.00     0.124 S 
ATOM     60  O   UNL A   1      43.910  37.943  32.370  1.00  0.00    -0.237 OA
ATOM     61  O   UNL A   1      42.599  37.154  34.311  1.00  0.00    -0.237 OA
ATOM     62  O   UNL A   1      45.059  36.982  34.333  1.00  0.00    -0.744 OA
ENDBRANCH  58  59
ENDBRANCH  26  51
BRANCH  38  63
ATOM     63  C   UNL A   1      47.691  27.396  30.765  1.00  0.00     0.058 A 
ATOM     64  C   UNL A   1      48.725  27.546  29.829  1.00  0.00     0.135 A 
ATOM     65  C   UNL A   1      48.022  26.925  32.045  1.00  0.00     0.135 A 
ATOM     66  F   UNL A   1      48.458  27.992  28.591  1.00  0.00    -0.206 F 
ATOM     67  C   UNL A   1      50.039  27.219  30.143  1.00  0.00     0.059 A 
ATOM     68  C   UNL A   1      49.334  26.614  32.388  1.00  0.00     0.059 A 
ATOM     69  F   UNL A   1      47.069  26.781  32.978  1.00  0.00    -0.206 F 
ATOM     70  C   UNL A   1      50.332  26.748  31.424  1.00  0.00     0.060 A 
BRANCH  70  71
ATOM     71  S   UNL A   1      52.045  26.335  31.818  1.00  0.00     0.124 S 
ATOM     72  O   UNL A   1      52.176  26.862  33.171  1.00  0.00    -0.237 OA
ATOM     73  O   UNL A   1      52.047  24.879  31.700  1.00  0.00    -0.237 OA
ATOM     74  O   UNL A   1      52.807  27.039  30.791  1.00  0.00    -0.744 OA
ENDBRANCH  70  71
ENDBRANCH  38  63
ENDBRANCH  12  13
ENDBRANCH   5   7
ENDBRANCH   2   3
ENDBRANCH   1   2
BRANCH   1  75
ATOM     75  C   UNL A   1      31.765  28.252  25.270  1.00  0.00     0.023 C 
BRANCH  75  76
ATOM     76  C   UNL A   1      31.305  27.373  24.109  1.00  0.00     0.116 C 
BRANCH  76  77
ATOM     77  N   UNL A   1      32.152  27.530  22.936  1.00  0.00    -0.352 N 
ATOM     78  C   UNL A   1      33.110  26.682  22.450  1.00  0.00     0.251 C 
ATOM     79  H   UNL A   1      32.017  28.359  22.423  1.00  0.00     0.163 HD
ATOM     80  O   UNL A   1      33.864  27.016  21.543  1.00  0.00    -0.269 OA
BRANCH  78  81
ATOM     81  C   UNL A   1      33.243  25.341  23.040  1.00  0.00     0.042 A 
ATOM     82  C   UNL A   1      32.605  24.246  22.445  1.00  0.00     0.015 A 
ATOM     83  C   UNL A   1      34.020  25.184  24.186  1.00  0.00     0.054 A 
ATOM     84  C   UNL A   1      32.718  22.987  23.028  1.00  0.00     0.024 A 
ATOM     85  C   UNL A   1      34.118  23.926  24.769  1.00  0.00     0.142 A 
ATOM     86  C   UNL A   1      33.477  22.833  24.197  1.00  0.00     0.103 A 
ATOM     87  F   UNL A   1      34.836  23.802  25.892  1.00  0.00    -0.206 F 
BRANCH  86  88
ATOM     88  S   UNL A   1      33.609  21.224  24.908  1.00  0.00     0.186 S 
ATOM     89  O   UNL A   1      35.016  20.878  24.791  1.00  0.00    -0.223 OA
ATOM     90  O   UNL A   1      33.008  21.294  26.230  1.00  0.00    -0.223 OA
BRANCH  88  91
ATOM     91  C   UNL A   1      32.698  20.046  23.951  1.00  0.00     0.188 C 
BRANCH  91  92
ATOM     92  C   UNL A   1      32.973  18.579  24.150  1.00  0.00     0.020 A 
ATOM     93  C   UNL A   1      33.349  17.711  23.136  1.00  0.00     0.016 A 
ATOM     94  S   UNL A   1      32.860  17.739  25.638  1.00  0.00    -0.148 S 
ATOM     95  C   UNL A   1      33.491  16.365  23.575  1.00  0.00     0.012 A 
ATOM     96  C   UNL A   1      33.228  16.238  24.917  1.00  0.00     0.065 A 
ENDBRANCH  91  92
ENDBRANCH  88  91
ENDBRANCH  86  88
ENDBRANCH  78  81
ENDBRANCH  76  77
ENDBRANCH  75  76
ENDBRANCH   1  75
TORSDOF 17
ENDMDL
MODEL 3
REMARK VINA RESULT:     -10.9      2.431      8.293
REMARK SMILES O=C(NCCCCNC(=O)c1ccc(S(=O)(=O)Cc2cccs2)c(F)c1)c1ccc(-c2c3nc(c(-c4c(F)cc(S(=O)(=O)[O-])cc4F)c4ccc([nH]4)c(-c4c(F)cc(S(=O)(=O)[O-])cc4F)c4nc(c(-c5c(F)cc(S(=O)(=O)[O-])cc5F)c5ccc2[nH]5)C=C4)C=C3)cc1
REMARK SMILES IDX 5 1 4 2 3 3 1 4 2 5 27 7 28 8 92 9 29 10 91 11 30 12 31 13
REMARK SMILES IDX 32 14 85 15 33 16 90 17 84 18 86 19 34 20 89 21 83 22 82 23
REMARK SMILES IDX 35 25 69 26 48 27 68 28 49 29 52 30 67 31 87 32 50 33 51 34
REMARK SMILES IDX 66 36 88 37 53 38 36 39 37 40 46 41 38 42 39 43 45 44 47 45
REMARK SMILES IDX 40 46 41 47 42 48 43 49 44 50 70 51 71 52 80 53 72 54 73 55
REMARK SMILES IDX 79 56 81 57 74 58 75 59 76 60 77 61 78 62 54 63 55 64 64 65
REMARK SMILES IDX 56 66 57 67 63 68 65 69 58 70 59 71 60 72 61 73 62 74 6 75
REMARK SMILES IDX 7 76 8 77 9 78 10 80 11 81 12 82 26 83 13 84 24 85 14 86
REMARK SMILES IDX 25 87 15 88 16 89 17 90 18 91 19 92 20 93 23 94 21 95 22 96
REMARK H PARENT 3 6 86 24 52 35 8 79
REMARK Flexibility Score: inf
ROOT
ATOM      1  C   UNL A   1      33.972  27.540  25.126  1.00  0.00     0.023 C 
ENDROOT
BRANCH   1   2
ATOM      2  C   UNL A   1      34.066  28.056  26.557  1.00  0.00     0.116 C 
BRANCH   2   3
ATOM      3  N   UNL A   1      33.731  29.465  26.674  1.00  0.00    -0.352 N 
ATOM      4  O   UNL A   1      33.886  31.564  27.484  1.00  0.00    -0.269 OA
ATOM      5  C   UNL A   1      34.384  30.447  27.382  1.00  0.00     0.251 C 
ATOM      6  H   UNL A   1      32.931  29.756  26.180  1.00  0.00     0.163 HD
BRANCH   5   7
ATOM      7  C   UNL A   1      35.672  30.137  28.041  1.00  0.00     0.039 A 
ATOM      8  C   UNL A   1      36.881  30.374  27.382  1.00  0.00     0.014 A 
ATOM      9  C   UNL A   1      35.666  29.606  29.333  1.00  0.00     0.014 A 
ATOM     10  C   UNL A   1      38.076  29.970  27.966  1.00  0.00     0.010 A 
ATOM     11  C   UNL A   1      36.875  29.269  29.950  1.00  0.00     0.010 A 
ATOM     12  C   UNL A   1      38.088  29.434  29.265  1.00  0.00    -0.014 A 
BRANCH  12  13
ATOM     13  C   UNL A   1      39.390  29.158  29.920  1.00  0.00     0.031 A 
ATOM     14  C   UNL A   1      39.842  29.928  31.127  1.00  0.00     0.074 A 
ATOM     15  C   UNL A   1      40.156  28.170  29.412  1.00  0.00     0.049 A 
ATOM     16  N   UNL A   1      40.950  29.800  31.810  1.00  0.00    -0.248 NA
ATOM     17  C   UNL A   1      38.945  30.979  31.635  1.00  0.00     0.031 C 
ATOM     18  C   UNL A   1      39.817  27.369  28.231  1.00  0.00     0.029 A 
ATOM     19  N   UNL A   1      41.360  27.660  29.823  1.00  0.00    -0.354 N 
ATOM     20  C   UNL A   1      40.895  30.754  32.819  1.00  0.00     0.074 A 
ATOM     21  C   UNL A   1      39.648  31.470  32.650  1.00  0.00     0.031 C 
ATOM     22  C   UNL A   1      40.768  26.444  28.038  1.00  0.00     0.029 A 
ATOM     23  C   UNL A   1      41.813  26.625  29.039  1.00  0.00     0.049 A 
ATOM     24  H   UNL A   1      41.852  28.002  30.603  1.00  0.00     0.167 HD
ATOM     25  C   UNL A   1      41.799  30.998  33.795  1.00  0.00     0.037 A 
ATOM     26  C   UNL A   1      42.954  25.913  29.100  1.00  0.00     0.037 A 
ATOM     27  C   UNL A   1      43.026  30.260  33.964  1.00  0.00     0.049 A 
ATOM     28  C   UNL A   1      43.948  26.227  30.177  1.00  0.00     0.074 A 
ATOM     29  C   UNL A   1      43.982  30.402  34.956  1.00  0.00     0.029 A 
ATOM     30  N   UNL A   1      43.469  29.247  33.126  1.00  0.00    -0.354 N 
ATOM     31  N   UNL A   1      43.861  27.113  31.140  1.00  0.00    -0.248 NA
ATOM     32  C   UNL A   1      45.200  25.459  30.173  1.00  0.00     0.031 C 
ATOM     33  C   UNL A   1      45.022  29.506  34.695  1.00  0.00     0.029 A 
ATOM     34  C   UNL A   1      44.697  28.776  33.563  1.00  0.00     0.049 A 
ATOM     35  H   UNL A   1      42.983  28.912  32.339  1.00  0.00     0.167 HD
ATOM     36  C   UNL A   1      45.048  27.014  31.854  1.00  0.00     0.074 A 
ATOM     37  C   UNL A   1      45.824  25.961  31.230  1.00  0.00     0.031 C 
ATOM     38  C   UNL A   1      45.460  27.736  32.923  1.00  0.00     0.037 A 
BRANCH  25  39
ATOM     39  C   UNL A   1      41.520  32.101  34.777  1.00  0.00     0.058 A 
ATOM     40  C   UNL A   1      40.721  31.860  35.907  1.00  0.00     0.135 A 
ATOM     41  C   UNL A   1      41.926  33.421  34.529  1.00  0.00     0.135 A 
ATOM     42  F   UNL A   1      40.312  30.614  36.193  1.00  0.00    -0.206 F 
ATOM     43  C   UNL A   1      40.307  32.896  36.738  1.00  0.00     0.059 A 
ATOM     44  C   UNL A   1      41.537  34.470  35.358  1.00  0.00     0.059 A 
ATOM     45  F   UNL A   1      42.705  33.699  33.473  1.00  0.00    -0.206 F 
ATOM     46  C   UNL A   1      40.709  34.200  36.448  1.00  0.00     0.060 A 
BRANCH  46  47
ATOM     47  S   UNL A   1      40.140  35.537  37.521  1.00  0.00     0.124 S 
ATOM     48  O   UNL A   1      41.277  35.709  38.416  1.00  0.00    -0.237 OA
ATOM     49  O   UNL A   1      39.911  36.618  36.566  1.00  0.00    -0.237 OA
ATOM     50  O   UNL A   1      38.933  34.989  38.133  1.00  0.00    -0.744 OA
ENDBRANCH  46  47
ENDBRANCH  25  39
BRANCH  26  51
ATOM     51  C   UNL A   1      43.217  24.860  28.087  1.00  0.00     0.058 A 
ATOM     52  C   UNL A   1      42.865  23.522  28.329  1.00  0.00     0.135 A 
ATOM     53  C   UNL A   1      43.855  25.162  26.875  1.00  0.00     0.135 A 
ATOM     54  F   UNL A   1      42.263  23.182  29.479  1.00  0.00    -0.206 F 
ATOM     55  C   UNL A   1      43.160  22.516  27.418  1.00  0.00     0.059 A 
ATOM     56  C   UNL A   1      44.136  24.175  25.935  1.00  0.00     0.059 A 
ATOM     57  F   UNL A   1      44.200  26.428  26.598  1.00  0.00    -0.206 F 
ATOM     58  C   UNL A   1      43.801  22.852  26.224  1.00  0.00     0.060 A 
BRANCH  58  59
ATOM     59  S   UNL A   1      44.169  21.534  25.047  1.00  0.00     0.124 S 
ATOM     60  O   UNL A   1      44.064  22.242  23.776  1.00  0.00    -0.237 OA
ATOM     61  O   UNL A   1      45.515  21.134  25.442  1.00  0.00    -0.237 OA
ATOM     62  O   UNL A   1      43.123  20.550  25.309  1.00  0.00    -0.744 OA
ENDBRANCH  58  59
ENDBRANCH  26  51
BRANCH  38  63
ATOM     63  C   UNL A   1      46.817  27.425  33.482  1.00  0.00     0.058 A 
ATOM     64  C   UNL A   1      47.960  28.078  32.997  1.00  0.00     0.135 A 
ATOM     65  C   UNL A   1      46.989  26.424  34.452  1.00  0.00     0.135 A 
ATOM     66  F   UNL A   1      47.847  29.040  32.069  1.00  0.00    -0.206 F 
ATOM     67  C   UNL A   1      49.232  27.736  33.441  1.00  0.00     0.059 A 
ATOM     68  C   UNL A   1      48.252  26.082  34.927  1.00  0.00     0.059 A 
ATOM     69  F   UNL A   1      45.924  25.783  34.956  1.00  0.00    -0.206 F 
ATOM     70  C   UNL A   1      49.367  26.733  34.402  1.00  0.00     0.060 A 
BRANCH  70  71
ATOM     71  S   UNL A   1      51.026  26.306  34.973  1.00  0.00     0.124 S 
ATOM     72  O   UNL A   1      51.151  27.129  36.170  1.00  0.00    -0.237 OA
ATOM     73  O   UNL A   1      50.915  24.867  35.199  1.00  0.00    -0.237 OA
ATOM     74  O   UNL A   1      51.879  26.691  33.852  1.00  0.00    -0.744 OA
ENDBRANCH  70  71
ENDBRANCH  38  63
ENDBRANCH  12  13
ENDBRANCH   5   7
ENDBRANCH   2   3
ENDBRANCH   1   2
BRANCH   1  75
ATOM     75  C   UNL A   1      33.680  28.603  24.067  1.00  0.00     0.023 C 
BRANCH  75  76
ATOM     76  C   UNL A   1      33.269  28.057  22.701  1.00  0.00     0.116 C 
BRANCH  76  77
ATOM     77  N   UNL A   1      31.910  28.438  22.347  1.00  0.00    -0.352 N 
ATOM     78  C   UNL A   1      30.737  27.789  22.623  1.00  0.00     0.251 C 
ATOM     79  H   UNL A   1      31.822  29.278  21.840  1.00  0.00     0.163 HD
ATOM     80  O   UNL A   1      29.675  28.138  22.121  1.00  0.00    -0.269 OA
BRANCH  78  81
ATOM     81  C   UNL A   1      30.758  26.635  23.536  1.00  0.00     0.042 A 
ATOM     82  C   UNL A   1      30.396  26.796  24.879  1.00  0.00     0.015 A 
ATOM     83  C   UNL A   1      31.130  25.388  23.036  1.00  0.00     0.054 A 
ATOM     84  C   UNL A   1      30.443  25.701  25.737  1.00  0.00     0.024 A 
ATOM     85  C   UNL A   1      31.187  24.302  23.903  1.00  0.00     0.142 A 
ATOM     86  C   UNL A   1      30.845  24.452  25.242  1.00  0.00     0.103 A 
ATOM     87  F   UNL A   1      31.585  23.122  23.414  1.00  0.00    -0.206 F 
BRANCH  86  88
ATOM     88  S   UNL A   1      30.888  23.082  26.352  1.00  0.00     0.186 S 
ATOM     89  O   UNL A   1      30.021  23.467  27.454  1.00  0.00    -0.223 OA
ATOM     90  O   UNL A   1      30.559  21.897  25.577  1.00  0.00    -0.223 OA
BRANCH  88  91
ATOM     91  C   UNL A   1      32.516  22.871  27.014  1.00  0.00     0.188 C 
BRANCH  91  92
ATOM     92  C   UNL A   1      33.693  22.904  26.075  1.00  0.00     0.020 A 
ATOM     93  C   UNL A   1      34.490  24.019  25.863  1.00  0.00     0.016 A 
ATOM     94  S   UNL A   1      34.235  21.596  25.114  1.00  0.00    -0.148 S 
ATOM     95  C   UNL A   1      35.501  23.806  24.884  1.00  0.00     0.012 A 
ATOM     96  C   UNL A   1      35.456  22.531  24.377  1.00  0.00     0.065 A 
ENDBRANCH  91  92
ENDBRANCH  88  91
ENDBRANCH  86  88
ENDBRANCH  78  81
ENDBRANCH  76  77
ENDBRANCH  75  76
ENDBRANCH   1  75
TORSDOF 17
ENDMDL
