MODEL 1
REMARK VINA RESULT:     -11.5      0.000      0.000
REMARK SMILES C[N@H+]1CCO[C@H](CNC(=O)N2CC[C@@](C)(C(=O)NCCCCNC(=O)c3ccc(-c4c5nc(c(-c6c(F)cc(S(=O)(=O)[O-])cc6F)c6ccc([nH]6)c(-c6c(F)cc(S(=O)(=O)[O-])cc6F)c6nc(c(-c7c(F)cc(S(=O)(=O)[O-])cc7F)c7ccc4[nH]7)C=C6)C=C5)cc3)C2)C1
REMARK SMILES IDX 20 1 19 2 18 3 16 4 17 5 14 7 11 8 12 9 92 10 13 11 15 12
REMARK SMILES IDX 9 13 8 14 10 16 7 17 6 18 1 19 2 20 3 21 93 22 4 24 5 25
REMARK SMILES IDX 21 26 22 27 23 28 24 29 25 31 26 32 27 33 91 34 28 35 90 36
REMARK SMILES IDX 29 37 30 38 31 39 84 40 32 41 89 42 83 43 85 44 33 45 88 46
REMARK SMILES IDX 82 47 81 48 34 50 68 51 47 52 67 53 48 54 51 55 66 56 86 57
REMARK SMILES IDX 49 58 50 59 65 61 87 62 52 63 35 64 36 65 45 66 37 67 38 68
REMARK SMILES IDX 44 69 46 70 39 71 40 72 41 73 42 74 43 75 69 76 70 77 79 78
REMARK SMILES IDX 71 79 72 80 78 81 80 82 73 83 74 84 75 85 76 86 77 87 53 88
REMARK SMILES IDX 54 89 63 90 55 91 56 92 62 93 64 94 57 95 58 96 59 97 60 98
REMARK SMILES IDX 61 99
REMARK H PARENT 18 6 8 15 2 23 23 30 85 49 51 60
REMARK Flexibility Score: inf
ROOT
ATOM      1  C   UNL A   1      32.576  28.781  24.840  1.00  0.00     0.023 C 
ENDROOT
BRANCH   1   2
ATOM      2  C   UNL A   1      31.888  27.782  23.909  1.00  0.00     0.116 C 
BRANCH   2   3
ATOM      3  N   UNL A   1      32.753  27.237  22.885  1.00  0.00    -0.356 N 
ATOM      4  C   UNL A   1      33.031  25.972  22.487  1.00  0.00     0.227 C 
ATOM      5  O   UNL A   1      33.716  25.900  21.458  1.00  0.00    -0.274 OA
ATOM      6  H   UNL A   1      33.238  27.925  22.373  1.00  0.00     0.163 HD
BRANCH   4   7
ATOM      7  C   UNL A   1      32.702  24.681  23.267  1.00  0.00     0.066 C 
ATOM      8  N   UNL A   1      34.592  23.337  23.883  1.00  0.00    -0.324 N 
ATOM      9  C   UNL A   1      34.530  24.454  24.810  1.00  0.00     0.122 C 
ATOM     10  C   UNL A   1      33.472  23.392  22.961  1.00  0.00     0.138 C 
ATOM     11  C   UNL A   1      33.079  24.903  24.753  1.00  0.00     0.040 C 
ATOM     12  C   UNL A   1      31.190  24.451  23.132  1.00  0.00     0.024 C 
BRANCH   8  13
ATOM     13  C   UNL A   1      35.340  22.240  24.188  1.00  0.00     0.317 C 
ATOM     14  N   UNL A   1      34.885  21.297  25.037  1.00  0.00    -0.335 N 
ATOM     15  H   UNL A   1      35.597  20.866  25.563  1.00  0.00     0.165 HD
ATOM     16  O   UNL A   1      36.477  22.078  23.738  1.00  0.00    -0.249 OA
BRANCH  14  17
ATOM     17  C   UNL A   1      33.554  20.787  25.333  1.00  0.00     0.155 C 
BRANCH  17  18
ATOM     18  C   UNL A   1      33.327  19.332  24.853  1.00  0.00     0.192 C 
ATOM     19  C   UNL A   1      34.168  16.271  25.146  1.00  0.00     0.332 C 
ATOM     20  N   UNL A   1      34.602  17.239  24.140  1.00  0.00    -0.333 N 
ATOM     21  C   UNL A   1      33.713  17.235  22.958  1.00  0.00     0.290 C 
ATOM     22  C   UNL A   1      34.687  18.609  24.684  1.00  0.00     0.296 C 
ATOM     23  H   UNL A   1      35.535  16.946  23.852  1.00  0.00     0.348 HD
ATOM     24  C   UNL A   1      32.382  17.974  23.171  1.00  0.00     0.222 C 
ATOM     25  O   UNL A   1      32.619  19.320  23.598  1.00  0.00    -0.365 OA
ENDBRANCH  17  18
ENDBRANCH  14  17
ENDBRANCH   8  13
ENDBRANCH   4   7
ENDBRANCH   2   3
ENDBRANCH   1   2
BRANCH   1  26
ATOM     26  C   UNL A   1      33.589  28.208  25.834  1.00  0.00     0.023 C 
BRANCH  26  27
ATOM     27  C   UNL A   1      33.306  28.470  27.309  1.00  0.00     0.116 C 
BRANCH  27  28
ATOM     28  N   UNL A   1      33.299  29.887  27.645  1.00  0.00    -0.352 N 
ATOM     29  C   UNL A   1      34.293  30.682  28.169  1.00  0.00     0.251 C 
ATOM     30  H   UNL A   1      32.447  30.349  27.471  1.00  0.00     0.163 HD
ATOM     31  O   UNL A   1      34.026  31.839  28.488  1.00  0.00    -0.269 OA
BRANCH  29  32
ATOM     32  C   UNL A   1      35.661  30.149  28.377  1.00  0.00     0.039 A 
ATOM     33  C   UNL A   1      36.553  30.127  27.300  1.00  0.00     0.014 A 
ATOM     34  C   UNL A   1      36.070  29.667  29.622  1.00  0.00     0.014 A 
ATOM     35  C   UNL A   1      37.874  29.707  27.495  1.00  0.00     0.010 A 
ATOM     36  C   UNL A   1      37.405  29.322  29.833  1.00  0.00     0.010 A 
ATOM     37  C   UNL A   1      38.327  29.345  28.775  1.00  0.00    -0.014 A 
BRANCH  37  38
ATOM     38  C   UNL A   1      39.753  28.999  29.031  1.00  0.00     0.031 A 
ATOM     39  C   UNL A   1      40.701  30.038  29.575  1.00  0.00     0.074 A 
ATOM     40  C   UNL A   1      40.217  27.773  28.711  1.00  0.00     0.049 A 
ATOM     41  N   UNL A   1      41.994  29.962  29.761  1.00  0.00    -0.248 NA
ATOM     42  C   UNL A   1      40.121  31.342  29.936  1.00  0.00     0.031 C 
ATOM     43  C   UNL A   1      39.416  26.686  28.142  1.00  0.00     0.029 A 
ATOM     44  N   UNL A   1      41.479  27.236  28.804  1.00  0.00    -0.354 N 
ATOM     45  C   UNL A   1      42.381  31.200  30.260  1.00  0.00     0.074 A 
ATOM     46  C   UNL A   1      41.197  32.032  30.286  1.00  0.00     0.031 C 
ATOM     47  C   UNL A   1      40.200  25.612  27.950  1.00  0.00     0.029 A 
ATOM     48  C   UNL A   1      41.567  25.943  28.341  1.00  0.00     0.049 A 
ATOM     49  H   UNL A   1      42.248  27.730  29.168  1.00  0.00     0.167 HD
ATOM     50  C   UNL A   1      43.603  31.603  30.685  1.00  0.00     0.037 A 
ATOM     51  C   UNL A   1      42.629  25.121  28.227  1.00  0.00     0.037 A 
ATOM     52  C   UNL A   1      44.780  30.772  30.670  1.00  0.00     0.049 A 
ATOM     53  C   UNL A   1      43.986  25.606  28.669  1.00  0.00     0.074 A 
ATOM     54  C   UNL A   1      46.059  31.084  31.099  1.00  0.00     0.029 A 
ATOM     55  N   UNL A   1      44.822  29.463  30.210  1.00  0.00    -0.354 N 
ATOM     56  N   UNL A   1      44.321  26.768  29.177  1.00  0.00    -0.248 NA
ATOM     57  C   UNL A   1      45.109  24.668  28.527  1.00  0.00     0.031 C 
ATOM     58  C   UNL A   1      46.882  29.978  30.864  1.00  0.00     0.029 A 
ATOM     59  C   UNL A   1      46.106  28.960  30.335  1.00  0.00     0.049 A 
ATOM     60  H   UNL A   1      44.053  28.967  29.849  1.00  0.00     0.167 HD
ATOM     61  C   UNL A   1      45.684  26.685  29.447  1.00  0.00     0.074 A 
ATOM     62  C   UNL A   1      46.108  25.357  29.059  1.00  0.00     0.031 C 
ATOM     63  C   UNL A   1      46.511  27.626  29.967  1.00  0.00     0.037 A 
BRANCH  50  64
ATOM     64  C   UNL A   1      43.729  32.999  31.230  1.00  0.00     0.058 A 
ATOM     65  C   UNL A   1      43.552  33.266  32.596  1.00  0.00     0.135 A 
ATOM     66  C   UNL A   1      44.086  34.071  30.395  1.00  0.00     0.135 A 
ATOM     67  F   UNL A   1      43.195  32.282  33.437  1.00  0.00    -0.206 F 
ATOM     68  C   UNL A   1      43.701  34.549  33.114  1.00  0.00     0.059 A 
ATOM     69  C   UNL A   1      44.270  35.357  30.896  1.00  0.00     0.059 A 
ATOM     70  F   UNL A   1      44.269  33.873  29.080  1.00  0.00    -0.206 F 
ATOM     71  C   UNL A   1      44.065  35.588  32.255  1.00  0.00     0.060 A 
BRANCH  71  72
ATOM     72  S   UNL A   1      44.275  37.240  32.951  1.00  0.00     0.124 S 
ATOM     73  O   UNL A   1      44.189  38.072  31.755  1.00  0.00    -0.237 OA
ATOM     74  O   UNL A   1      43.146  37.336  33.871  1.00  0.00    -0.237 OA
ATOM     75  O   UNL A   1      45.591  37.180  33.579  1.00  0.00    -0.744 OA
ENDBRANCH  71  72
ENDBRANCH  50  64
BRANCH  51  76
ATOM     76  C   UNL A   1      42.469  23.749  27.668  1.00  0.00     0.058 A 
ATOM     77  C   UNL A   1      42.367  22.632  28.511  1.00  0.00     0.135 A 
ATOM     78  C   UNL A   1      42.451  23.523  26.283  1.00  0.00     0.135 A 
ATOM     79  F   UNL A   1      42.384  22.795  29.844  1.00  0.00    -0.206 F 
ATOM     80  C   UNL A   1      42.296  21.338  28.005  1.00  0.00     0.059 A 
ATOM     81  C   UNL A   1      42.349  22.241  25.751  1.00  0.00     0.059 A 
ATOM     82  F   UNL A   1      42.525  24.557  25.430  1.00  0.00    -0.206 F 
ATOM     83  C   UNL A   1      42.293  21.152  26.623  1.00  0.00     0.060 A 
BRANCH  83  84
ATOM     84  S   UNL A   1      42.196  19.470  25.972  1.00  0.00     0.124 S 
ATOM     85  O   UNL A   1      40.765  19.332  25.733  1.00  0.00    -0.237 OA
ATOM     86  O   UNL A   1      43.038  19.552  24.783  1.00  0.00    -0.237 OA
ATOM     87  O   UNL A   1      42.738  18.660  27.059  1.00  0.00    -0.744 OA
ENDBRANCH  83  84
ENDBRANCH  51  76
BRANCH  63  88
ATOM     88  C   UNL A   1      47.946  27.240  30.199  1.00  0.00     0.058 A 
ATOM     89  C   UNL A   1      48.956  27.561  29.279  1.00  0.00     0.135 A 
ATOM     90  C   UNL A   1      48.323  26.589  31.385  1.00  0.00     0.135 A 
ATOM     91  F   UNL A   1      48.649  28.177  28.126  1.00  0.00    -0.206 F 
ATOM     92  C   UNL A   1      50.286  27.230  29.516  1.00  0.00     0.059 A 
ATOM     93  C   UNL A   1      49.651  26.275  31.656  1.00  0.00     0.059 A 
ATOM     94  F   UNL A   1      47.397  26.267  32.303  1.00  0.00    -0.206 F 
ATOM     95  C   UNL A   1      50.624  26.590  30.710  1.00  0.00     0.060 A 
BRANCH  95  96
ATOM     96  S   UNL A   1      52.360  26.203  31.023  1.00  0.00     0.124 S 
ATOM     97  O   UNL A   1      52.254  24.948  31.760  1.00  0.00    -0.237 OA
ATOM     98  O   UNL A   1      52.905  26.101  29.673  1.00  0.00    -0.237 OA
ATOM     99  O   UNL A   1      52.830  27.348  31.795  1.00  0.00    -0.744 OA
ENDBRANCH  95  96
ENDBRANCH  63  88
ENDBRANCH  37  38
ENDBRANCH  29  32
ENDBRANCH  27  28
ENDBRANCH  26  27
ENDBRANCH   1  26
TORSDOF 17
ENDMDL
MODEL 2
REMARK VINA RESULT:     -11.4      4.963     10.909
REMARK SMILES C[N@H+]1CCO[C@H](CNC(=O)N2CC[C@@](C)(C(=O)NCCCCNC(=O)c3ccc(-c4c5nc(c(-c6c(F)cc(S(=O)(=O)[O-])cc6F)c6ccc([nH]6)c(-c6c(F)cc(S(=O)(=O)[O-])cc6F)c6nc(c(-c7c(F)cc(S(=O)(=O)[O-])cc7F)c7ccc4[nH]7)C=C6)C=C5)cc3)C2)C1
REMARK SMILES IDX 20 1 19 2 18 3 16 4 17 5 14 7 11 8 12 9 92 10 13 11 15 12
REMARK SMILES IDX 9 13 8 14 10 16 7 17 6 18 1 19 2 20 3 21 93 22 4 24 5 25
REMARK SMILES IDX 21 26 22 27 23 28 24 29 25 31 26 32 27 33 91 34 28 35 90 36
REMARK SMILES IDX 29 37 30 38 31 39 84 40 32 41 89 42 83 43 85 44 33 45 88 46
REMARK SMILES IDX 82 47 81 48 34 50 68 51 47 52 67 53 48 54 51 55 66 56 86 57
REMARK SMILES IDX 49 58 50 59 65 61 87 62 52 63 35 64 36 65 45 66 37 67 38 68
REMARK SMILES IDX 44 69 46 70 39 71 40 72 41 73 42 74 43 75 69 76 70 77 79 78
REMARK SMILES IDX 71 79 72 80 78 81 80 82 73 83 74 84 75 85 76 86 77 87 53 88
REMARK SMILES IDX 54 89 63 90 55 91 56 92 62 93 64 94 57 95 58 96 59 97 60 98
REMARK SMILES IDX 61 99
REMARK H PARENT 18 6 8 15 2 23 23 30 85 49 51 60
REMARK Flexibility Score: inf
ROOT
ATOM      1  C   UNL A   1      36.834  23.128  24.423  1.00  0.00     0.023 C 
ENDROOT
BRANCH   1   2
ATOM      2  C   UNL A   1      35.394  23.639  24.497  1.00  0.00     0.116 C 
BRANCH   2   3
ATOM      3  N   UNL A   1      34.473  22.718  25.128  1.00  0.00    -0.356 N 
ATOM      4  C   UNL A   1      33.138  22.762  25.362  1.00  0.00     0.227 C 
ATOM      5  O   UNL A   1      32.663  21.703  25.796  1.00  0.00    -0.274 OA
ATOM      6  H   UNL A   1      34.901  21.893  25.453  1.00  0.00     0.163 HD
BRANCH   4   7
ATOM      7  C   UNL A   1      32.241  24.014  25.277  1.00  0.00     0.066 C 
ATOM      8  N   UNL A   1      32.379  25.247  23.223  1.00  0.00    -0.324 N 
ATOM      9  C   UNL A   1      31.552  24.080  22.976  1.00  0.00     0.122 C 
ATOM     10  C   UNL A   1      32.777  25.290  24.618  1.00  0.00     0.138 C 
ATOM     11  C   UNL A   1      31.040  23.689  24.353  1.00  0.00     0.040 C 
ATOM     12  C   UNL A   1      31.749  24.309  26.701  1.00  0.00     0.024 C 
BRANCH   8  13
ATOM     13  C   UNL A   1      32.355  26.295  22.352  1.00  0.00     0.317 C 
ATOM     14  N   UNL A   1      31.246  27.044  22.189  1.00  0.00    -0.335 N 
ATOM     15  H   UNL A   1      31.140  27.396  21.276  1.00  0.00     0.165 HD
ATOM     16  O   UNL A   1      33.326  26.582  21.648  1.00  0.00    -0.249 OA
BRANCH  14  17
ATOM     17  C   UNL A   1      30.173  27.438  23.091  1.00  0.00     0.155 C 
BRANCH  17  18
ATOM     18  C   UNL A   1      29.617  28.856  22.810  1.00  0.00     0.192 C 
ATOM     19  C   UNL A   1      27.493  31.091  23.620  1.00  0.00     0.332 C 
ATOM     20  N   UNL A   1      27.421  30.124  22.525  1.00  0.00    -0.333 N 
ATOM     21  C   UNL A   1      28.019  30.658  21.282  1.00  0.00     0.290 C 
ATOM     22  C   UNL A   1      28.070  28.843  22.869  1.00  0.00     0.296 C 
ATOM     23  H   UNL A   1      26.428  29.952  22.366  1.00  0.00     0.348 HD
ATOM     24  C   UNL A   1      29.556  30.640  21.268  1.00  0.00     0.222 C 
ATOM     25  O   UNL A   1      30.044  29.316  21.513  1.00  0.00    -0.365 OA
ENDBRANCH  17  18
ENDBRANCH  14  17
ENDBRANCH   8  13
ENDBRANCH   4   7
ENDBRANCH   2   3
ENDBRANCH   1   2
BRANCH   1  26
ATOM     26  C   UNL A   1      37.562  22.929  25.754  1.00  0.00     0.023 C 
BRANCH  26  27
ATOM     27  C   UNL A   1      38.411  24.099  26.237  1.00  0.00     0.116 C 
BRANCH  27  28
ATOM     28  N   UNL A   1      39.841  23.862  26.098  1.00  0.00    -0.352 N 
ATOM     29  C   UNL A   1      40.912  24.548  26.623  1.00  0.00     0.251 C 
ATOM     30  H   UNL A   1      40.079  23.087  25.539  1.00  0.00     0.163 HD
ATOM     31  O   UNL A   1      42.050  24.238  26.274  1.00  0.00    -0.269 OA
BRANCH  29  32
ATOM     32  C   UNL A   1      40.704  25.667  27.574  1.00  0.00     0.039 A 
ATOM     33  C   UNL A   1      39.684  25.571  28.526  1.00  0.00     0.014 A 
ATOM     34  C   UNL A   1      41.504  26.812  27.533  1.00  0.00     0.014 A 
ATOM     35  C   UNL A   1      39.525  26.577  29.485  1.00  0.00     0.010 A 
ATOM     36  C   UNL A   1      41.394  27.775  28.535  1.00  0.00     0.010 A 
ATOM     37  C   UNL A   1      40.410  27.668  29.530  1.00  0.00    -0.014 A 
BRANCH  37  38
ATOM     38  C   UNL A   1      40.332  28.695  30.605  1.00  0.00     0.031 A 
ATOM     39  C   UNL A   1      41.207  28.584  31.827  1.00  0.00     0.074 A 
ATOM     40  C   UNL A   1      39.426  29.692  30.519  1.00  0.00     0.049 A 
ATOM     41  N   UNL A   1      41.209  29.314  32.913  1.00  0.00    -0.248 NA
ATOM     42  C   UNL A   1      42.197  27.495  31.838  1.00  0.00     0.031 C 
ATOM     43  C   UNL A   1      38.491  29.895  29.410  1.00  0.00     0.029 A 
ATOM     44  N   UNL A   1      39.130  30.716  31.388  1.00  0.00    -0.354 N 
ATOM     45  C   UNL A   1      42.194  28.775  33.733  1.00  0.00     0.074 A 
ATOM     46  C   UNL A   1      42.726  27.618  33.047  1.00  0.00     0.031 C 
ATOM     47  C   UNL A   1      37.738  30.980  29.658  1.00  0.00     0.029 A 
ATOM     48  C   UNL A   1      38.104  31.527  30.961  1.00  0.00     0.049 A 
ATOM     49  H   UNL A   1      39.608  30.856  32.237  1.00  0.00     0.167 HD
ATOM     50  C   UNL A   1      42.637  29.218  34.935  1.00  0.00     0.037 A 
ATOM     51  C   UNL A   1      37.511  32.582  31.556  1.00  0.00     0.037 A 
ATOM     52  C   UNL A   1      42.117  30.378  35.613  1.00  0.00     0.049 A 
ATOM     53  C   UNL A   1      37.996  33.031  32.911  1.00  0.00     0.074 A 
ATOM     54  C   UNL A   1      42.515  30.917  36.824  1.00  0.00     0.029 A 
ATOM     55  N   UNL A   1      41.090  31.181  35.138  1.00  0.00    -0.354 N 
ATOM     56  N   UNL A   1      38.959  32.531  33.649  1.00  0.00    -0.248 NA
ATOM     57  C   UNL A   1      37.319  34.188  33.511  1.00  0.00     0.031 C 
ATOM     58  C   UNL A   1      41.706  32.024  37.099  1.00  0.00     0.029 A 
ATOM     59  C   UNL A   1      40.836  32.205  36.036  1.00  0.00     0.049 A 
ATOM     60  H   UNL A   1      40.614  31.045  34.288  1.00  0.00     0.167 HD
ATOM     61  C   UNL A   1      39.023  33.336  34.782  1.00  0.00     0.074 A 
ATOM     62  C   UNL A   1      38.014  34.361  34.627  1.00  0.00     0.031 C 
ATOM     63  C   UNL A   1      39.844  33.234  35.858  1.00  0.00     0.037 A 
BRANCH  50  64
ATOM     64  C   UNL A   1      43.764  28.463  35.586  1.00  0.00     0.058 A 
ATOM     65  C   UNL A   1      45.104  28.788  35.326  1.00  0.00     0.135 A 
ATOM     66  C   UNL A   1      43.506  27.446  36.520  1.00  0.00     0.135 A 
ATOM     67  F   UNL A   1      45.409  29.741  34.431  1.00  0.00    -0.206 F 
ATOM     68  C   UNL A   1      46.150  28.117  35.952  1.00  0.00     0.059 A 
ATOM     69  C   UNL A   1      44.537  26.782  37.180  1.00  0.00     0.059 A 
ATOM     70  F   UNL A   1      42.243  27.095  36.807  1.00  0.00    -0.206 F 
ATOM     71  C   UNL A   1      45.856  27.118  36.881  1.00  0.00     0.060 A 
BRANCH  71  72
ATOM     72  S   UNL A   1      47.229  26.276  37.697  1.00  0.00     0.124 S 
ATOM     73  O   UNL A   1      46.568  25.086  38.223  1.00  0.00    -0.237 OA
ATOM     74  O   UNL A   1      48.156  26.050  36.593  1.00  0.00    -0.237 OA
ATOM     75  O   UNL A   1      47.673  27.240  38.698  1.00  0.00    -0.744 OA
ENDBRANCH  71  72
ENDBRANCH  50  64
BRANCH  51  76
ATOM     76  C   UNL A   1      36.389  33.296  30.886  1.00  0.00     0.058 A 
ATOM     77  C   UNL A   1      36.619  34.133  29.784  1.00  0.00     0.135 A 
ATOM     78  C   UNL A   1      35.070  33.188  31.357  1.00  0.00     0.135 A 
ATOM     79  F   UNL A   1      37.863  34.275  29.299  1.00  0.00    -0.206 F 
ATOM     80  C   UNL A   1      35.594  34.868  29.197  1.00  0.00     0.059 A 
ATOM     81  C   UNL A   1      34.022  33.888  30.768  1.00  0.00     0.059 A 
ATOM     82  F   UNL A   1      34.790  32.385  32.396  1.00  0.00    -0.206 F 
ATOM     83  C   UNL A   1      34.298  34.743  29.700  1.00  0.00     0.060 A 
BRANCH  83  84
ATOM     84  S   UNL A   1      32.972  35.697  28.932  1.00  0.00     0.124 S 
ATOM     85  O   UNL A   1      32.349  34.694  28.077  1.00  0.00    -0.237 OA
ATOM     86  O   UNL A   1      32.191  36.125  30.089  1.00  0.00    -0.237 OA
ATOM     87  O   UNL A   1      33.686  36.764  28.238  1.00  0.00    -0.744 OA
ENDBRANCH  83  84
ENDBRANCH  51  76
BRANCH  63  88
ATOM     88  C   UNL A   1      39.724  34.285  36.928  1.00  0.00     0.058 A 
ATOM     89  C   UNL A   1      38.969  34.073  38.091  1.00  0.00     0.135 A 
ATOM     90  C   UNL A   1      40.420  35.499  36.810  1.00  0.00     0.135 A 
ATOM     91  F   UNL A   1      38.278  32.933  38.251  1.00  0.00    -0.206 F 
ATOM     92  C   UNL A   1      38.890  35.037  39.091  1.00  0.00     0.059 A 
ATOM     93  C   UNL A   1      40.379  36.465  37.810  1.00  0.00     0.059 A 
ATOM     94  F   UNL A   1      41.165  35.749  35.720  1.00  0.00    -0.206 F 
ATOM     95  C   UNL A   1      39.603  36.229  38.943  1.00  0.00     0.060 A 
BRANCH  95  96
ATOM     96  S   UNL A   1      39.525  37.454  40.267  1.00  0.00     0.124 S 
ATOM     97  O   UNL A   1      40.939  37.682  40.542  1.00  0.00    -0.237 OA
ATOM     98  O   UNL A   1      38.818  38.560  39.627  1.00  0.00    -0.237 OA
ATOM     99  O   UNL A   1      38.781  36.770  41.319  1.00  0.00    -0.744 OA
ENDBRANCH  95  96
ENDBRANCH  63  88
ENDBRANCH  37  38
ENDBRANCH  29  32
ENDBRANCH  27  28
ENDBRANCH  26  27
ENDBRANCH   1  26
TORSDOF 17
ENDMDL
MODEL 3
REMARK VINA RESULT:     -11.4      1.895      4.347
REMARK SMILES C[N@H+]1CCO[C@H](CNC(=O)N2CC[C@@](C)(C(=O)NCCCCNC(=O)c3ccc(-c4c5nc(c(-c6c(F)cc(S(=O)(=O)[O-])cc6F)c6ccc([nH]6)c(-c6c(F)cc(S(=O)(=O)[O-])cc6F)c6nc(c(-c7c(F)cc(S(=O)(=O)[O-])cc7F)c7ccc4[nH]7)C=C6)C=C5)cc3)C2)C1
REMARK SMILES IDX 20 1 19 2 18 3 16 4 17 5 14 7 11 8 12 9 92 10 13 11 15 12
REMARK SMILES IDX 9 13 8 14 10 16 7 17 6 18 1 19 2 20 3 21 93 22 4 24 5 25
REMARK SMILES IDX 21 26 22 27 23 28 24 29 25 31 26 32 27 33 91 34 28 35 90 36
REMARK SMILES IDX 29 37 30 38 31 39 84 40 32 41 89 42 83 43 85 44 33 45 88 46
REMARK SMILES IDX 82 47 81 48 34 50 68 51 47 52 67 53 48 54 51 55 66 56 86 57
REMARK SMILES IDX 49 58 50 59 65 61 87 62 52 63 35 64 36 65 45 66 37 67 38 68
REMARK SMILES IDX 44 69 46 70 39 71 40 72 41 73 42 74 43 75 69 76 70 77 79 78
REMARK SMILES IDX 71 79 72 80 78 81 80 82 73 83 74 84 75 85 76 86 77 87 53 88
REMARK SMILES IDX 54 89 63 90 55 91 56 92 62 93 64 94 57 95 58 96 59 97 60 98
REMARK SMILES IDX 61 99
REMARK H PARENT 18 6 8 15 2 23 23 30 85 49 51 60
REMARK Flexibility Score: inf
ROOT
ATOM      1  C   UNL A   1      31.467  27.746  26.340  1.00  0.00     0.023 C 
ENDROOT
BRANCH   1   2
ATOM      2  C   UNL A   1      30.755  26.465  25.902  1.00  0.00     0.116 C 
BRANCH   2   3
ATOM      3  N   UNL A   1      31.119  25.295  26.672  1.00  0.00    -0.356 N 
ATOM      4  C   UNL A   1      31.825  24.177  26.376  1.00  0.00     0.227 C 
ATOM      5  O   UNL A   1      32.065  23.453  27.352  1.00  0.00    -0.274 OA
ATOM      6  H   UNL A   1      30.786  25.315  27.599  1.00  0.00     0.163 HD
BRANCH   4   7
ATOM      7  C   UNL A   1      32.202  23.687  24.962  1.00  0.00     0.066 C 
ATOM      8  N   UNL A   1      32.554  25.413  23.331  1.00  0.00    -0.324 N 
ATOM      9  C   UNL A   1      33.742  25.350  24.163  1.00  0.00     0.122 C 
ATOM     10  C   UNL A   1      31.609  24.386  23.733  1.00  0.00     0.138 C 
ATOM     11  C   UNL A   1      33.714  23.946  24.746  1.00  0.00     0.040 C 
ATOM     12  C   UNL A   1      31.910  22.181  24.918  1.00  0.00     0.024 C 
BRANCH   8  13
ATOM     13  C   UNL A   1      32.598  26.049  22.128  1.00  0.00     0.317 C 
ATOM     14  N   UNL A   1      31.849  27.144  21.887  1.00  0.00    -0.335 N 
ATOM     15  H   UNL A   1      31.559  27.224  20.950  1.00  0.00     0.165 HD
ATOM     16  O   UNL A   1      33.290  25.636  21.194  1.00  0.00    -0.249 OA
BRANCH  14  17
ATOM     17  C   UNL A   1      31.382  28.233  22.733  1.00  0.00     0.155 C 
BRANCH  17  18
ATOM     18  C   UNL A   1      29.935  28.687  22.416  1.00  0.00     0.192 C 
ATOM     19  C   UNL A   1      28.078  30.804  20.923  1.00  0.00     0.332 C 
ATOM     20  N   UNL A   1      28.465  30.772  22.332  1.00  0.00    -0.333 N 
ATOM     21  C   UNL A   1      27.506  29.993  23.146  1.00  0.00     0.290 C 
ATOM     22  C   UNL A   1      29.825  30.228  22.524  1.00  0.00     0.296 C 
ATOM     23  H   UNL A   1      28.456  31.741  22.649  1.00  0.00     0.348 HD
ATOM     24  C   UNL A   1      27.663  28.469  23.012  1.00  0.00     0.222 C 
ATOM     25  O   UNL A   1      29.003  28.074  23.328  1.00  0.00    -0.365 OA
ENDBRANCH  17  18
ENDBRANCH  14  17
ENDBRANCH   8  13
ENDBRANCH   4   7
ENDBRANCH   2   3
ENDBRANCH   1   2
BRANCH   1  26
ATOM     26  C   UNL A   1      32.899  27.593  26.858  1.00  0.00     0.023 C 
BRANCH  26  27
ATOM     27  C   UNL A   1      33.901  28.641  26.384  1.00  0.00     0.116 C 
BRANCH  27  28
ATOM     28  N   UNL A   1      33.744  29.924  27.055  1.00  0.00    -0.352 N 
ATOM     29  C   UNL A   1      34.594  30.592  27.906  1.00  0.00     0.251 C 
ATOM     30  H   UNL A   1      32.894  30.385  26.872  1.00  0.00     0.163 HD
ATOM     31  O   UNL A   1      34.202  31.620  28.457  1.00  0.00    -0.269 OA
BRANCH  29  32
ATOM     32  C   UNL A   1      35.955  30.072  28.184  1.00  0.00     0.039 A 
ATOM     33  C   UNL A   1      36.936  30.169  27.192  1.00  0.00     0.014 A 
ATOM     34  C   UNL A   1      36.270  29.484  29.411  1.00  0.00     0.014 A 
ATOM     35  C   UNL A   1      38.247  29.761  27.463  1.00  0.00     0.010 A 
ATOM     36  C   UNL A   1      37.592  29.150  29.706  1.00  0.00     0.010 A 
ATOM     37  C   UNL A   1      38.600  29.291  28.739  1.00  0.00    -0.014 A 
BRANCH  37  38
ATOM     38  C   UNL A   1      40.008  28.953  29.087  1.00  0.00     0.031 A 
ATOM     39  C   UNL A   1      40.903  29.987  29.721  1.00  0.00     0.074 A 
ATOM     40  C   UNL A   1      40.507  27.739  28.772  1.00  0.00     0.049 A 
ATOM     41  N   UNL A   1      42.180  29.920  29.996  1.00  0.00    -0.248 NA
ATOM     42  C   UNL A   1      40.284  31.276  30.071  1.00  0.00     0.031 C 
ATOM     43  C   UNL A   1      39.762  26.659  28.122  1.00  0.00     0.029 A 
ATOM     44  N   UNL A   1      41.766  27.213  28.941  1.00  0.00    -0.354 N 
ATOM     45  C   UNL A   1      42.517  31.149  30.550  1.00  0.00     0.074 A 
ATOM     46  C   UNL A   1      41.325  31.968  30.513  1.00  0.00     0.031 C 
ATOM     47  C   UNL A   1      40.569  25.598  27.960  1.00  0.00     0.029 A 
ATOM     48  C   UNL A   1      41.901  25.933  28.454  1.00  0.00     0.049 A 
ATOM     49  H   UNL A   1      42.501  27.706  29.370  1.00  0.00     0.167 HD
ATOM     50  C   UNL A   1      43.702  31.553  31.070  1.00  0.00     0.037 A 
ATOM     51  C   UNL A   1      42.979  25.124  28.396  1.00  0.00     0.037 A 
ATOM     52  C   UNL A   1      44.886  30.735  31.119  1.00  0.00     0.049 A 
ATOM     53  C   UNL A   1      44.295  25.612  28.944  1.00  0.00     0.074 A 
ATOM     54  C   UNL A   1      46.128  31.049  31.644  1.00  0.00     0.029 A 
ATOM     55  N   UNL A   1      44.976  29.439  30.632  1.00  0.00    -0.354 N 
ATOM     56  N   UNL A   1      44.580  26.765  29.502  1.00  0.00    -0.248 NA
ATOM     57  C   UNL A   1      45.436  24.689  28.859  1.00  0.00     0.031 C 
ATOM     58  C   UNL A   1      46.979  29.957  31.442  1.00  0.00     0.029 A 
ATOM     59  C   UNL A   1      46.254  28.945  30.835  1.00  0.00     0.049 A 
ATOM     60  H   UNL A   1      44.240  28.943  30.205  1.00  0.00     0.167 HD
ATOM     61  C   UNL A   1      45.921  26.689  29.866  1.00  0.00     0.074 A 
ATOM     62  C   UNL A   1      46.387  25.375  29.477  1.00  0.00     0.031 C 
ATOM     63  C   UNL A   1      46.698  27.625  30.465  1.00  0.00     0.037 A 
BRANCH  50  64
ATOM     64  C   UNL A   1      43.773  32.937  31.656  1.00  0.00     0.058 A 
ATOM     65  C   UNL A   1      44.162  34.038  30.878  1.00  0.00     0.135 A 
ATOM     66  C   UNL A   1      43.395  33.178  32.988  1.00  0.00     0.135 A 
ATOM     67  F   UNL A   1      44.547  33.864  29.604  1.00  0.00    -0.206 F 
ATOM     68  C   UNL A   1      44.196  35.326  31.403  1.00  0.00     0.059 A 
ATOM     69  C   UNL A   1      43.393  34.462  33.526  1.00  0.00     0.059 A 
ATOM     70  F   UNL A   1      43.014  32.161  33.777  1.00  0.00    -0.206 F 
ATOM     71  C   UNL A   1      43.806  35.528  32.728  1.00  0.00     0.060 A 
BRANCH  71  72
ATOM     72  S   UNL A   1      43.836  37.210  33.383  1.00  0.00     0.124 S 
ATOM     73  O   UNL A   1      42.637  37.220  34.215  1.00  0.00    -0.237 OA
ATOM     74  O   UNL A   1      45.106  37.241  34.102  1.00  0.00    -0.237 OA
ATOM     75  O   UNL A   1      43.775  38.043  32.186  1.00  0.00    -0.744 OA
ENDBRANCH  71  72
ENDBRANCH  50  64
BRANCH  51  76
ATOM     76  C   UNL A   1      42.873  23.766  27.795  1.00  0.00     0.058 A 
ATOM     77  C   UNL A   1      43.040  23.570  26.415  1.00  0.00     0.135 A 
ATOM     78  C   UNL A   1      42.568  22.642  28.579  1.00  0.00     0.135 A 
ATOM     79  F   UNL A   1      43.328  24.613  25.620  1.00  0.00    -0.206 F 
ATOM     80  C   UNL A   1      42.867  22.321  25.828  1.00  0.00     0.059 A 
ATOM     81  C   UNL A   1      42.421  21.376  28.020  1.00  0.00     0.059 A 
ATOM     82  F   UNL A   1      42.417  22.768  29.906  1.00  0.00    -0.206 F 
ATOM     83  C   UNL A   1      42.552  21.230  26.638  1.00  0.00     0.060 A 
BRANCH  83  84
ATOM     84  S   UNL A   1      42.333  19.611  25.870  1.00  0.00     0.124 S 
ATOM     85  O   UNL A   1      42.647  18.717  26.978  1.00  0.00    -0.237 OA
ATOM     86  O   UNL A   1      40.932  19.652  25.460  1.00  0.00    -0.237 OA
ATOM     87  O   UNL A   1      43.299  19.626  24.775  1.00  0.00    -0.744 OA
ENDBRANCH  83  84
ENDBRANCH  51  76
BRANCH  63  88
ATOM     88  C   UNL A   1      48.119  27.248  30.788  1.00  0.00     0.058 A 
ATOM     89  C   UNL A   1      48.455  26.578  31.974  1.00  0.00     0.135 A 
ATOM     90  C   UNL A   1      49.148  27.512  29.870  1.00  0.00     0.135 A 
ATOM     91  F   UNL A   1      47.510  26.308  32.889  1.00  0.00    -0.206 F 
ATOM     92  C   UNL A   1      49.766  26.204  32.250  1.00  0.00     0.059 A 
ATOM     93  C   UNL A   1      50.461  27.121  30.111  1.00  0.00     0.059 A 
ATOM     94  F   UNL A   1      48.879  28.142  28.714  1.00  0.00    -0.206 F 
ATOM     95  C   UNL A   1      50.762  26.476  31.309  1.00  0.00     0.060 A 
BRANCH  95  96
ATOM     96  S   UNL A   1      52.453  25.948  31.662  1.00  0.00     0.124 S 
ATOM     97  O   UNL A   1      52.863  26.925  32.665  1.00  0.00    -0.237 OA
ATOM     98  O   UNL A   1      52.259  24.585  32.148  1.00  0.00    -0.237 OA
ATOM     99  O   UNL A   1      53.119  26.056  30.369  1.00  0.00    -0.744 OA
ENDBRANCH  95  96
ENDBRANCH  63  88
ENDBRANCH  37  38
ENDBRANCH  29  32
ENDBRANCH  27  28
ENDBRANCH  26  27
ENDBRANCH   1  26
TORSDOF 17
ENDMDL
