MODEL 1
REMARK VINA RESULT:     -10.1      0.000      0.000
REMARK SMILES Cc1cc(=O)c(Oc2ccc(C(=O)NCCCCNC(=O)c3ccc(-c4c5nc(c(-c6c(F)cc(S(=O)(=O)[O-])cc6F)c6ccc([nH]6)c(-c6c(F)cc(S(=O)(=O)[O-])cc6F)c6nc(c(-c7c(F)cc(S(=O)(=O)[O-])cc7F)c7ccc4[nH]7)C=C6)C=C5)cc3)cc2)c(-c2ccc(S(C)(=O)=O)cc2)o1
REMARK SMILES IDX 16 1 15 2 14 3 12 4 13 5 11 7 8 8 9 9 89 10 10 11 88 12 7 13
REMARK SMILES IDX 6 14 1 15 2 16 3 17 101 18 4 19 90 20 5 21 91 22 92 23
REMARK SMILES IDX 100 24 93 25 99 26 94 27 95 28 96 29 97 30 98 31 17 32 18 33
REMARK SMILES IDX 19 34 20 35 21 37 22 38 23 39 87 40 24 41 86 42 25 43 26 44
REMARK SMILES IDX 27 45 80 46 28 47 85 48 79 49 81 50 29 51 84 52 78 53 77 54
REMARK SMILES IDX 30 56 64 57 43 58 63 59 44 60 47 61 62 62 82 63 45 64 46 65
REMARK SMILES IDX 61 67 83 68 48 69 31 70 32 71 41 72 33 73 34 74 40 75 42 76
REMARK SMILES IDX 35 77 36 78 37 79 38 80 39 81 65 82 66 83 75 84 67 85 68 86
REMARK SMILES IDX 74 87 76 88 69 89 70 90 71 91 72 92 73 93 49 94 50 95 59 96
REMARK SMILES IDX 51 97 52 98 58 99 60 100 53 101 54 102 55 103 56 104 57 105
REMARK H PARENT 14 6 19 36 81 55 47 66
REMARK Flexibility Score: inf
ROOT
ATOM      1  C   UNL A   1      33.690  30.896  27.686  1.00  0.00     0.023 C 
ENDROOT
BRANCH   1   2
ATOM      2  C   UNL A   1      34.244  32.306  27.522  1.00  0.00     0.116 C 
BRANCH   2   3
ATOM      3  N   UNL A   1      33.434  33.384  28.057  1.00  0.00    -0.352 N 
ATOM      4  C   UNL A   1      33.640  34.210  29.142  1.00  0.00     0.251 C 
ATOM      5  O   UNL A   1      32.890  35.165  29.325  1.00  0.00    -0.269 OA
ATOM      6  H   UNL A   1      32.600  33.556  27.562  1.00  0.00     0.163 HD
BRANCH   4   7
ATOM      7  C   UNL A   1      34.670  33.899  30.171  1.00  0.00     0.040 A 
ATOM      8  C   UNL A   1      36.735  33.991  32.030  1.00  0.00     0.127 A 
ATOM      9  C   UNL A   1      37.042  33.835  30.683  1.00  0.00     0.048 A 
ATOM     10  C   UNL A   1      35.417  33.853  32.463  1.00  0.00     0.048 A 
ATOM     11  C   UNL A   1      36.005  33.831  29.747  1.00  0.00     0.017 A 
ATOM     12  C   UNL A   1      34.387  33.763  31.529  1.00  0.00     0.017 A 
BRANCH   8  13
ATOM     13  O   UNL A   1      37.685  34.190  32.986  1.00  0.00    -0.449 OA
BRANCH  13  14
ATOM     14  C   UNL A   1      38.612  33.228  33.373  1.00  0.00     0.217 A 
ATOM     15  C   UNL A   1      40.990  29.883  34.734  1.00  0.00     0.088 C 
ATOM     16  C   UNL A   1      40.102  31.033  34.381  1.00  0.00     0.105 A 
ATOM     17  C   UNL A   1      38.896  31.217  34.921  1.00  0.00     0.098 A 
ATOM     18  O   UNL A   1      40.631  31.892  33.442  1.00  0.00    -0.457 OA
ATOM     19  C   UNL A   1      38.087  32.359  34.477  1.00  0.00     0.228 A 
ATOM     20  C   UNL A   1      39.879  32.959  32.956  1.00  0.00     0.180 A 
ATOM     21  O   UNL A   1      37.002  32.563  35.016  1.00  0.00    -0.285 OA
BRANCH  20  22
ATOM     22  C   UNL A   1      40.664  33.670  31.928  1.00  0.00     0.021 A 
ATOM     23  C   UNL A   1      40.198  33.692  30.601  1.00  0.00     0.013 A 
ATOM     24  C   UNL A   1      41.877  34.303  32.236  1.00  0.00     0.013 A 
ATOM     25  C   UNL A   1      40.881  34.412  29.617  1.00  0.00     0.021 A 
ATOM     26  C   UNL A   1      42.572  35.015  31.250  1.00  0.00     0.021 A 
ATOM     27  C   UNL A   1      42.062  35.079  29.951  1.00  0.00     0.067 A 
BRANCH  27  28
ATOM     28  S   UNL A   1      42.838  36.123  28.734  1.00  0.00     0.175 S 
ATOM     29  C   UNL A   1      43.054  35.056  27.337  1.00  0.00     0.163 C 
ATOM     30  O   UNL A   1      41.866  37.137  28.371  1.00  0.00    -0.224 OA
ATOM     31  O   UNL A   1      44.154  36.477  29.231  1.00  0.00    -0.224 OA
ENDBRANCH  27  28
ENDBRANCH  20  22
ENDBRANCH  13  14
ENDBRANCH   8  13
ENDBRANCH   4   7
ENDBRANCH   2   3
ENDBRANCH   1   2
BRANCH   1  32
ATOM     32  C   UNL A   1      34.638  29.737  27.415  1.00  0.00     0.023 C 
BRANCH  32  33
ATOM     33  C   UNL A   1      35.893  29.677  28.273  1.00  0.00     0.116 C 
BRANCH  33  34
ATOM     34  N   UNL A   1      35.680  30.017  29.675  1.00  0.00    -0.352 N 
ATOM     35  C   UNL A   1      36.593  30.290  30.671  1.00  0.00     0.251 C 
ATOM     36  H   UNL A   1      34.736  30.058  29.954  1.00  0.00     0.163 HD
ATOM     37  O   UNL A   1      36.203  30.507  31.815  1.00  0.00    -0.269 OA
BRANCH  35  38
ATOM     38  C   UNL A   1      38.042  30.258  30.373  1.00  0.00     0.039 A 
ATOM     39  C   UNL A   1      38.532  30.728  29.156  1.00  0.00     0.014 A 
ATOM     40  C   UNL A   1      38.914  29.673  31.297  1.00  0.00     0.014 A 
ATOM     41  C   UNL A   1      39.822  30.391  28.762  1.00  0.00     0.010 A 
ATOM     42  C   UNL A   1      40.245  29.437  30.941  1.00  0.00     0.010 A 
ATOM     43  C   UNL A   1      40.690  29.721  29.640  1.00  0.00    -0.014 A 
BRANCH  43  44
ATOM     44  C   UNL A   1      42.032  29.289  29.162  1.00  0.00     0.031 A 
ATOM     45  C   UNL A   1      42.251  27.886  28.646  1.00  0.00     0.074 A 
ATOM     46  C   UNL A   1      43.043  30.179  29.129  1.00  0.00     0.049 A 
ATOM     47  N   UNL A   1      43.350  27.333  28.198  1.00  0.00    -0.248 NA
ATOM     48  C   UNL A   1      41.087  26.986  28.636  1.00  0.00     0.031 C 
ATOM     49  C   UNL A   1      42.955  31.571  29.575  1.00  0.00     0.029 A 
ATOM     50  N   UNL A   1      44.334  30.056  28.681  1.00  0.00    -0.354 N 
ATOM     51  C   UNL A   1      43.019  26.021  27.876  1.00  0.00     0.074 A 
ATOM     52  C   UNL A   1      41.622  25.848  28.212  1.00  0.00     0.031 C 
ATOM     53  C   UNL A   1      44.119  32.186  29.330  1.00  0.00     0.029 A 
ATOM     54  C   UNL A   1      45.062  31.218  28.780  1.00  0.00     0.049 A 
ATOM     55  H   UNL A   1      44.704  29.218  28.323  1.00  0.00     0.167 HD
ATOM     56  C   UNL A   1      43.800  25.054  27.338  1.00  0.00     0.037 A 
ATOM     57  C   UNL A   1      46.351  31.477  28.485  1.00  0.00     0.037 A 
ATOM     58  C   UNL A   1      45.183  25.240  26.978  1.00  0.00     0.049 A 
ATOM     59  C   UNL A   1      47.212  30.374  27.939  1.00  0.00     0.074 A 
ATOM     60  C   UNL A   1      46.053  24.329  26.402  1.00  0.00     0.029 A 
ATOM     61  N   UNL A   1      45.901  26.415  27.157  1.00  0.00    -0.354 N 
ATOM     62  N   UNL A   1      46.881  29.139  27.647  1.00  0.00    -0.248 NA
ATOM     63  C   UNL A   1      48.624  30.695  27.695  1.00  0.00     0.031 C 
ATOM     64  C   UNL A   1      47.306  24.936  26.280  1.00  0.00     0.029 A 
ATOM     65  C   UNL A   1      47.208  26.243  26.730  1.00  0.00     0.049 A 
ATOM     66  H   UNL A   1      45.533  27.248  27.531  1.00  0.00     0.167 HD
ATOM     67  C   UNL A   1      48.042  28.535  27.180  1.00  0.00     0.074 A 
ATOM     68  C   UNL A   1      49.078  29.550  27.204  1.00  0.00     0.031 C 
ATOM     69  C   UNL A   1      48.234  27.256  26.773  1.00  0.00     0.037 A 
BRANCH  56  70
ATOM     70  C   UNL A   1      43.186  23.696  27.113  1.00  0.00     0.058 A 
ATOM     71  C   UNL A   1      42.685  23.307  25.860  1.00  0.00     0.135 A 
ATOM     72  C   UNL A   1      43.141  22.754  28.154  1.00  0.00     0.135 A 
ATOM     73  F   UNL A   1      42.690  24.170  24.832  1.00  0.00    -0.206 F 
ATOM     74  C   UNL A   1      42.137  22.044  25.655  1.00  0.00     0.059 A 
ATOM     75  C   UNL A   1      42.623  21.475  27.965  1.00  0.00     0.059 A 
ATOM     76  F   UNL A   1      43.609  23.069  29.372  1.00  0.00    -0.206 F 
ATOM     77  C   UNL A   1      42.110  21.134  26.713  1.00  0.00     0.060 A 
BRANCH  77  78
ATOM     78  S   UNL A   1      41.393  19.502  26.428  1.00  0.00     0.124 S 
ATOM     79  O   UNL A   1      42.284  18.969  25.401  1.00  0.00    -0.237 OA
ATOM     80  O   UNL A   1      41.503  18.880  27.743  1.00  0.00    -0.237 OA
ATOM     81  O   UNL A   1      40.034  19.796  25.986  1.00  0.00    -0.744 OA
ENDBRANCH  77  78
ENDBRANCH  56  70
BRANCH  57  82
ATOM     82  C   UNL A   1      46.893  32.842  28.715  1.00  0.00     0.058 A 
ATOM     83  C   UNL A   1      46.785  33.836  27.734  1.00  0.00     0.135 A 
ATOM     84  C   UNL A   1      47.478  33.193  29.943  1.00  0.00     0.135 A 
ATOM     85  F   UNL A   1      46.243  33.546  26.541  1.00  0.00    -0.206 F 
ATOM     86  C   UNL A   1      47.231  35.133  27.962  1.00  0.00     0.059 A 
ATOM     87  C   UNL A   1      47.905  34.490  30.205  1.00  0.00     0.059 A 
ATOM     88  F   UNL A   1      47.593  32.279  30.920  1.00  0.00    -0.206 F 
ATOM     89  C   UNL A   1      47.779  35.453  29.205  1.00  0.00     0.060 A 
BRANCH  89  90
ATOM     90  S   UNL A   1      48.279  37.161  29.516  1.00  0.00     0.124 S 
ATOM     91  O   UNL A   1      47.059  37.727  30.079  1.00  0.00    -0.237 OA
ATOM     92  O   UNL A   1      49.391  36.988  30.443  1.00  0.00    -0.237 OA
ATOM     93  O   UNL A   1      48.647  37.650  28.191  1.00  0.00    -0.744 OA
ENDBRANCH  89  90
ENDBRANCH  57  82
BRANCH  69  94
ATOM     94  C   UNL A   1      49.617  26.874  26.322  1.00  0.00     0.058 A 
ATOM     95  C   UNL A   1      50.510  26.213  27.180  1.00  0.00     0.135 A 
ATOM     96  C   UNL A   1      50.035  27.119  25.004  1.00  0.00     0.135 A 
ATOM     97  F   UNL A   1      50.163  25.962  28.453  1.00  0.00    -0.206 F 
ATOM     98  C   UNL A   1      51.775  25.825  26.754  1.00  0.00     0.059 A 
ATOM     99  C   UNL A   1      51.286  26.716  24.548  1.00  0.00     0.059 A 
ATOM    100  F   UNL A   1      49.216  27.740  24.140  1.00  0.00    -0.206 F 
ATOM    101  C   UNL A   1      52.153  26.077  25.434  1.00  0.00     0.060 A 
BRANCH 101 102
ATOM    102  S   UNL A   1      53.786  25.536  24.886  1.00  0.00     0.124 S 
ATOM    103  O   UNL A   1      53.787  25.966  23.492  1.00  0.00    -0.237 OA
ATOM    104  O   UNL A   1      54.674  26.276  25.778  1.00  0.00    -0.237 OA
ATOM    105  O   UNL A   1      53.756  24.092  25.097  1.00  0.00    -0.744 OA
ENDBRANCH 101 102
ENDBRANCH  69  94
ENDBRANCH  43  44
ENDBRANCH  35  38
ENDBRANCH  33  34
ENDBRANCH  32  33
ENDBRANCH   1  32
TORSDOF 18
ENDMDL
MODEL 2
REMARK VINA RESULT:     -10.0      1.080      8.003
REMARK SMILES Cc1cc(=O)c(Oc2ccc(C(=O)NCCCCNC(=O)c3ccc(-c4c5nc(c(-c6c(F)cc(S(=O)(=O)[O-])cc6F)c6ccc([nH]6)c(-c6c(F)cc(S(=O)(=O)[O-])cc6F)c6nc(c(-c7c(F)cc(S(=O)(=O)[O-])cc7F)c7ccc4[nH]7)C=C6)C=C5)cc3)cc2)c(-c2ccc(S(C)(=O)=O)cc2)o1
REMARK SMILES IDX 16 1 15 2 14 3 12 4 13 5 11 7 8 8 9 9 89 10 10 11 88 12 7 13
REMARK SMILES IDX 6 14 1 15 2 16 3 17 101 18 4 19 90 20 5 21 91 22 92 23
REMARK SMILES IDX 100 24 93 25 99 26 94 27 95 28 96 29 97 30 98 31 17 32 18 33
REMARK SMILES IDX 19 34 20 35 21 37 22 38 23 39 87 40 24 41 86 42 25 43 26 44
REMARK SMILES IDX 27 45 80 46 28 47 85 48 79 49 81 50 29 51 84 52 78 53 77 54
REMARK SMILES IDX 30 56 64 57 43 58 63 59 44 60 47 61 62 62 82 63 45 64 46 65
REMARK SMILES IDX 61 67 83 68 48 69 31 70 32 71 41 72 33 73 34 74 40 75 42 76
REMARK SMILES IDX 35 77 36 78 37 79 38 80 39 81 65 82 66 83 75 84 67 85 68 86
REMARK SMILES IDX 74 87 76 88 69 89 70 90 71 91 72 92 73 93 49 94 50 95 59 96
REMARK SMILES IDX 51 97 52 98 58 99 60 100 53 101 54 102 55 103 56 104 57 105
REMARK H PARENT 14 6 19 36 81 55 47 66
REMARK Flexibility Score: inf
ROOT
ATOM      1  C   UNL A   1      35.392  33.811  28.750  1.00  0.00     0.023 C 
ENDROOT
BRANCH   1   2
ATOM      2  C   UNL A   1      35.658  33.718  30.247  1.00  0.00     0.116 C 
BRANCH   2   3
ATOM      3  N   UNL A   1      34.511  33.449  31.092  1.00  0.00    -0.352 N 
ATOM      4  C   UNL A   1      34.408  33.356  32.464  1.00  0.00     0.251 C 
ATOM      5  O   UNL A   1      33.296  33.269  32.981  1.00  0.00    -0.269 OA
ATOM      6  H   UNL A   1      33.665  33.311  30.606  1.00  0.00     0.163 HD
BRANCH   4   7
ATOM      7  C   UNL A   1      35.613  33.228  33.328  1.00  0.00     0.040 A 
ATOM      8  C   UNL A   1      38.195  33.035  34.338  1.00  0.00     0.127 A 
ATOM      9  C   UNL A   1      37.565  31.889  33.868  1.00  0.00     0.048 A 
ATOM     10  C   UNL A   1      37.461  34.204  34.531  1.00  0.00     0.048 A 
ATOM     11  C   UNL A   1      36.283  31.996  33.322  1.00  0.00     0.017 A 
ATOM     12  C   UNL A   1      36.151  34.284  34.062  1.00  0.00     0.017 A 
BRANCH   8  13
ATOM     13  O   UNL A   1      39.505  33.057  34.714  1.00  0.00    -0.449 OA
BRANCH  13  14
ATOM     14  C   UNL A   1      40.438  32.098  34.335  1.00  0.00     0.217 A 
ATOM     15  C   UNL A   1      42.964  28.701  33.453  1.00  0.00     0.088 C 
ATOM     16  C   UNL A   1      42.093  29.836  33.887  1.00  0.00     0.105 A 
ATOM     17  C   UNL A   1      41.338  29.799  34.986  1.00  0.00     0.098 A 
ATOM     18  O   UNL A   1      42.129  30.931  33.051  1.00  0.00    -0.457 OA
ATOM     19  C   UNL A   1      40.489  30.954  35.303  1.00  0.00     0.228 A 
ATOM     20  C   UNL A   1      41.302  32.028  33.286  1.00  0.00     0.180 A 
ATOM     21  O   UNL A   1      39.839  30.945  36.346  1.00  0.00    -0.285 OA
BRANCH  20  22
ATOM     22  C   UNL A   1      41.505  33.019  32.211  1.00  0.00     0.021 A 
ATOM     23  C   UNL A   1      42.694  33.770  32.184  1.00  0.00     0.013 A 
ATOM     24  C   UNL A   1      40.531  33.249  31.229  1.00  0.00     0.013 A 
ATOM     25  C   UNL A   1      42.947  34.668  31.144  1.00  0.00     0.021 A 
ATOM     26  C   UNL A   1      40.774  34.157  30.191  1.00  0.00     0.021 A 
ATOM     27  C   UNL A   1      41.988  34.849  30.145  1.00  0.00     0.067 A 
BRANCH  27  28
ATOM     28  S   UNL A   1      42.385  35.871  28.741  1.00  0.00     0.175 S 
ATOM     29  C   UNL A   1      43.670  36.933  29.341  1.00  0.00     0.163 C 
ATOM     30  O   UNL A   1      42.964  34.998  27.738  1.00  0.00    -0.224 OA
ATOM     31  O   UNL A   1      41.226  36.694  28.453  1.00  0.00    -0.224 OA
ENDBRANCH  27  28
ENDBRANCH  20  22
ENDBRANCH  13  14
ENDBRANCH   8  13
ENDBRANCH   4   7
ENDBRANCH   2   3
ENDBRANCH   1   2
BRANCH   1  32
ATOM     32  C   UNL A   1      34.876  32.560  28.053  1.00  0.00     0.023 C 
BRANCH  32  33
ATOM     33  C   UNL A   1      35.751  31.319  28.158  1.00  0.00     0.116 C 
BRANCH  33  34
ATOM     34  N   UNL A   1      35.625  30.602  29.423  1.00  0.00    -0.352 N 
ATOM     35  C   UNL A   1      36.588  29.984  30.192  1.00  0.00     0.251 C 
ATOM     36  H   UNL A   1      34.710  30.552  29.783  1.00  0.00     0.163 HD
ATOM     37  O   UNL A   1      36.262  29.383  31.212  1.00  0.00    -0.269 OA
BRANCH  35  38
ATOM     38  C   UNL A   1      38.001  29.991  29.752  1.00  0.00     0.039 A 
ATOM     39  C   UNL A   1      38.329  29.944  28.399  1.00  0.00     0.014 A 
ATOM     40  C   UNL A   1      39.013  29.963  30.716  1.00  0.00     0.014 A 
ATOM     41  C   UNL A   1      39.626  29.619  28.020  1.00  0.00     0.010 A 
ATOM     42  C   UNL A   1      40.339  29.750  30.325  1.00  0.00     0.010 A 
ATOM     43  C   UNL A   1      40.645  29.494  28.979  1.00  0.00    -0.014 A 
BRANCH  43  44
ATOM     44  C   UNL A   1      42.003  29.054  28.558  1.00  0.00     0.031 A 
ATOM     45  C   UNL A   1      43.171  30.011  28.601  1.00  0.00     0.074 A 
ATOM     46  C   UNL A   1      42.204  27.771  28.199  1.00  0.00     0.049 A 
ATOM     47  N   UNL A   1      44.420  29.805  28.265  1.00  0.00    -0.248 NA
ATOM     48  C   UNL A   1      42.902  31.377  29.076  1.00  0.00     0.031 C 
ATOM     49  C   UNL A   1      41.164  26.741  28.140  1.00  0.00     0.029 A 
ATOM     50  N   UNL A   1      43.348  27.106  27.838  1.00  0.00    -0.354 N 
ATOM     51  C   UNL A   1      45.078  31.014  28.466  1.00  0.00     0.074 A 
ATOM     52  C   UNL A   1      44.083  31.961  28.920  1.00  0.00     0.031 C 
ATOM     53  C   UNL A   1      41.725  25.567  27.820  1.00  0.00     0.029 A 
ATOM     54  C   UNL A   1      43.149  25.771  27.576  1.00  0.00     0.049 A 
ATOM     55  H   UNL A   1      44.228  27.542  27.774  1.00  0.00     0.167 HD
ATOM     56  C   UNL A   1      46.391  31.306  28.301  1.00  0.00     0.037 A 
ATOM     57  C   UNL A   1      44.006  24.818  27.162  1.00  0.00     0.037 A 
ATOM     58  C   UNL A   1      47.383  30.352  27.876  1.00  0.00     0.049 A 
ATOM     59  C   UNL A   1      45.447  25.178  26.935  1.00  0.00     0.074 A 
ATOM     60  C   UNL A   1      48.744  30.543  27.704  1.00  0.00     0.029 A 
ATOM     61  N   UNL A   1      47.126  29.025  27.556  1.00  0.00    -0.354 N 
ATOM     62  N   UNL A   1      46.048  26.329  27.125  1.00  0.00    -0.248 NA
ATOM     63  C   UNL A   1      46.323  24.116  26.424  1.00  0.00     0.031 C 
ATOM     64  C   UNL A   1      49.299  29.350  27.233  1.00  0.00     0.029 A 
ATOM     65  C   UNL A   1      48.296  28.396  27.161  1.00  0.00     0.049 A 
ATOM     66  H   UNL A   1      46.242  28.595  27.605  1.00  0.00     0.167 HD
ATOM     67  C   UNL A   1      47.374  26.128  26.762  1.00  0.00     0.074 A 
ATOM     68  C   UNL A   1      47.492  24.739  26.366  1.00  0.00     0.031 C 
ATOM     69  C   UNL A   1      48.399  27.016  26.754  1.00  0.00     0.037 A 
BRANCH  56  70
ATOM     70  C   UNL A   1      46.837  32.721  28.568  1.00  0.00     0.058 A 
ATOM     71  C   UNL A   1      46.923  33.677  27.544  1.00  0.00     0.135 A 
ATOM     72  C   UNL A   1      47.138  33.138  29.876  1.00  0.00     0.135 A 
ATOM     73  F   UNL A   1      46.660  33.332  26.273  1.00  0.00    -0.206 F 
ATOM     74  C   UNL A   1      47.317  34.987  27.801  1.00  0.00     0.059 A 
ATOM     75  C   UNL A   1      47.508  34.450  30.161  1.00  0.00     0.059 A 
ATOM     76  F   UNL A   1      47.070  32.267  30.896  1.00  0.00    -0.206 F 
ATOM     77  C   UNL A   1      47.608  35.365  29.113  1.00  0.00     0.060 A 
BRANCH  77  78
ATOM     78  S   UNL A   1      48.119  37.068  29.426  1.00  0.00     0.124 S 
ATOM     79  O   UNL A   1      49.191  36.875  30.398  1.00  0.00    -0.237 OA
ATOM     80  O   UNL A   1      48.541  37.514  28.101  1.00  0.00    -0.237 OA
ATOM     81  O   UNL A   1      46.911  37.700  29.943  1.00  0.00    -0.744 OA
ENDBRANCH  77  78
ENDBRANCH  56  70
BRANCH  57  82
ATOM     82  C   UNL A   1      43.507  23.437  26.931  1.00  0.00     0.058 A 
ATOM     83  C   UNL A   1      43.243  22.972  25.636  1.00  0.00     0.135 A 
ATOM     84  C   UNL A   1      43.340  22.538  27.998  1.00  0.00     0.135 A 
ATOM     85  F   UNL A   1      43.378  23.796  24.586  1.00  0.00    -0.206 F 
ATOM     86  C   UNL A   1      42.837  21.662  25.404  1.00  0.00     0.059 A 
ATOM     87  C   UNL A   1      42.963  21.217  27.788  1.00  0.00     0.059 A 
ATOM     88  F   UNL A   1      43.593  22.932  29.256  1.00  0.00    -0.206 F 
ATOM     89  C   UNL A   1      42.711  20.789  26.486  1.00  0.00     0.060 A 
BRANCH  89  90
ATOM     90  S   UNL A   1      42.263  19.070  26.161  1.00  0.00     0.124 S 
ATOM     91  O   UNL A   1      40.877  19.204  25.727  1.00  0.00    -0.237 OA
ATOM     92  O   UNL A   1      43.223  18.695  25.129  1.00  0.00    -0.237 OA
ATOM     93  O   UNL A   1      42.458  18.421  27.454  1.00  0.00    -0.744 OA
ENDBRANCH  89  90
ENDBRANCH  57  82
BRANCH  69  94
ATOM     94  C   UNL A   1      49.742  26.517  26.298  1.00  0.00     0.058 A 
ATOM     95  C   UNL A   1      50.232  26.802  25.014  1.00  0.00     0.135 A 
ATOM     96  C   UNL A   1      50.573  25.795  27.170  1.00  0.00     0.135 A 
ATOM     97  F   UNL A   1      49.474  27.482  24.138  1.00  0.00    -0.206 F 
ATOM     98  C   UNL A   1      51.489  26.374  24.603  1.00  0.00     0.059 A 
ATOM     99  C   UNL A   1      51.846  25.380  26.790  1.00  0.00     0.059 A 
ATOM    100  F   UNL A   1      50.157  25.503  28.413  1.00  0.00    -0.206 F 
ATOM    101  C   UNL A   1      52.291  25.666  25.500  1.00  0.00     0.060 A 
BRANCH 101 102
ATOM    102  S   UNL A   1      53.934  25.147  24.963  1.00  0.00     0.124 S 
ATOM    103  O   UNL A   1      54.047  25.816  23.671  1.00  0.00    -0.237 OA
ATOM    104  O   UNL A   1      54.788  25.670  26.025  1.00  0.00    -0.237 OA
ATOM    105  O   UNL A   1      53.832  23.692  24.908  1.00  0.00    -0.744 OA
ENDBRANCH 101 102
ENDBRANCH  69  94
ENDBRANCH  43  44
ENDBRANCH  35  38
ENDBRANCH  33  34
ENDBRANCH  32  33
ENDBRANCH   1  32
TORSDOF 18
ENDMDL
MODEL 3
REMARK VINA RESULT:      -9.8      3.885      7.182
REMARK SMILES Cc1cc(=O)c(Oc2ccc(C(=O)NCCCCNC(=O)c3ccc(-c4c5nc(c(-c6c(F)cc(S(=O)(=O)[O-])cc6F)c6ccc([nH]6)c(-c6c(F)cc(S(=O)(=O)[O-])cc6F)c6nc(c(-c7c(F)cc(S(=O)(=O)[O-])cc7F)c7ccc4[nH]7)C=C6)C=C5)cc3)cc2)c(-c2ccc(S(C)(=O)=O)cc2)o1
REMARK SMILES IDX 16 1 15 2 14 3 12 4 13 5 11 7 8 8 9 9 89 10 10 11 88 12 7 13
REMARK SMILES IDX 6 14 1 15 2 16 3 17 101 18 4 19 90 20 5 21 91 22 92 23
REMARK SMILES IDX 100 24 93 25 99 26 94 27 95 28 96 29 97 30 98 31 17 32 18 33
REMARK SMILES IDX 19 34 20 35 21 37 22 38 23 39 87 40 24 41 86 42 25 43 26 44
REMARK SMILES IDX 27 45 80 46 28 47 85 48 79 49 81 50 29 51 84 52 78 53 77 54
REMARK SMILES IDX 30 56 64 57 43 58 63 59 44 60 47 61 62 62 82 63 45 64 46 65
REMARK SMILES IDX 61 67 83 68 48 69 31 70 32 71 41 72 33 73 34 74 40 75 42 76
REMARK SMILES IDX 35 77 36 78 37 79 38 80 39 81 65 82 66 83 75 84 67 85 68 86
REMARK SMILES IDX 74 87 76 88 69 89 70 90 71 91 72 92 73 93 49 94 50 95 59 96
REMARK SMILES IDX 51 97 52 98 58 99 60 100 53 101 54 102 55 103 56 104 57 105
REMARK H PARENT 14 6 19 36 81 55 47 66
REMARK Flexibility Score: inf
ROOT
ATOM      1  C   UNL A   1      35.184  32.166  29.228  1.00  0.00     0.023 C 
ENDROOT
BRANCH   1   2
ATOM      2  C   UNL A   1      34.902  31.417  27.931  1.00  0.00     0.116 C 
BRANCH   2   3
ATOM      3  N   UNL A   1      33.667  31.752  27.248  1.00  0.00    -0.352 N 
ATOM      4  C   UNL A   1      32.586  30.966  26.908  1.00  0.00     0.251 C 
ATOM      5  O   UNL A   1      31.571  31.495  26.462  1.00  0.00    -0.269 OA
ATOM      6  H   UNL A   1      33.586  32.698  26.985  1.00  0.00     0.163 HD
BRANCH   4   7
ATOM      7  C   UNL A   1      32.663  29.480  26.945  1.00  0.00     0.040 A 
ATOM      8  C   UNL A   1      32.382  26.755  26.474  1.00  0.00     0.127 A 
ATOM      9  C   UNL A   1      31.430  27.411  27.245  1.00  0.00     0.048 A 
ATOM     10  C   UNL A   1      33.579  27.393  26.155  1.00  0.00     0.048 A 
ATOM     11  C   UNL A   1      31.551  28.788  27.445  1.00  0.00     0.017 A 
ATOM     12  C   UNL A   1      33.735  28.751  26.431  1.00  0.00     0.017 A 
BRANCH   8  13
ATOM     13  O   UNL A   1      32.245  25.459  26.076  1.00  0.00    -0.449 OA
BRANCH  13  14
ATOM     14  C   UNL A   1      32.480  25.015  24.779  1.00  0.00     0.217 A 
ATOM     15  C   UNL A   1      33.340  23.073  21.013  1.00  0.00     0.088 C 
ATOM     16  C   UNL A   1      33.160  23.697  22.360  1.00  0.00     0.105 A 
ATOM     17  C   UNL A   1      33.759  23.241  23.461  1.00  0.00     0.098 A 
ATOM     18  O   UNL A   1      32.317  24.786  22.373  1.00  0.00    -0.457 OA
ATOM     19  C   UNL A   1      33.486  23.904  24.742  1.00  0.00     0.228 A 
ATOM     20  C   UNL A   1      31.990  25.414  23.574  1.00  0.00     0.180 A 
ATOM     21  O   UNL A   1      34.083  23.523  25.747  1.00  0.00    -0.285 OA
BRANCH  20  22
ATOM     22  C   UNL A   1      31.031  26.501  23.300  1.00  0.00     0.021 A 
ATOM     23  C   UNL A   1      29.688  26.346  23.686  1.00  0.00     0.013 A 
ATOM     24  C   UNL A   1      31.419  27.677  22.642  1.00  0.00     0.013 A 
ATOM     25  C   UNL A   1      28.768  27.382  23.503  1.00  0.00     0.021 A 
ATOM     26  C   UNL A   1      30.499  28.714  22.444  1.00  0.00     0.021 A 
ATOM     27  C   UNL A   1      29.183  28.567  22.891  1.00  0.00     0.067 A 
BRANCH  27  28
ATOM     28  S   UNL A   1      28.049  29.939  22.808  1.00  0.00     0.175 S 
ATOM     29  C   UNL A   1      28.907  31.247  23.640  1.00  0.00     0.163 C 
ATOM     30  O   UNL A   1      27.935  30.303  21.409  1.00  0.00    -0.224 OA
ATOM     31  O   UNL A   1      26.884  29.597  23.601  1.00  0.00    -0.224 OA
ENDBRANCH  27  28
ENDBRANCH  20  22
ENDBRANCH  13  14
ENDBRANCH   8  13
ENDBRANCH   4   7
ENDBRANCH   2   3
ENDBRANCH   1   2
BRANCH   1  32
ATOM     32  C   UNL A   1      35.156  31.362  30.519  1.00  0.00     0.023 C 
BRANCH  32  33
ATOM     33  C   UNL A   1      36.458  31.300  31.305  1.00  0.00     0.116 C 
BRANCH  33  34
ATOM     34  N   UNL A   1      36.499  30.250  32.317  1.00  0.00    -0.352 N 
ATOM     35  C   UNL A   1      37.542  29.442  32.717  1.00  0.00     0.251 C 
ATOM     36  H   UNL A   1      35.649  30.095  32.789  1.00  0.00     0.163 HD
ATOM     37  O   UNL A   1      37.353  28.573  33.563  1.00  0.00    -0.269 OA
BRANCH  35  38
ATOM     38  C   UNL A   1      38.871  29.582  32.079  1.00  0.00     0.039 A 
ATOM     39  C   UNL A   1      38.987  29.992  30.752  1.00  0.00     0.014 A 
ATOM     40  C   UNL A   1      40.012  29.218  32.799  1.00  0.00     0.014 A 
ATOM     41  C   UNL A   1      40.187  29.799  30.079  1.00  0.00     0.010 A 
ATOM     42  C   UNL A   1      41.247  29.135  32.147  1.00  0.00     0.010 A 
ATOM     43  C   UNL A   1      41.329  29.346  30.761  1.00  0.00    -0.014 A 
BRANCH  43  44
ATOM     44  C   UNL A   1      42.576  29.059  30.001  1.00  0.00     0.031 A 
ATOM     45  C   UNL A   1      42.759  27.738  29.292  1.00  0.00     0.074 A 
ATOM     46  C   UNL A   1      43.521  30.013  29.890  1.00  0.00     0.049 A 
ATOM     47  N   UNL A   1      43.779  27.311  28.590  1.00  0.00    -0.248 NA
ATOM     48  C   UNL A   1      41.657  26.768  29.386  1.00  0.00     0.031 C 
ATOM     49  C   UNL A   1      43.454  31.340  30.506  1.00  0.00     0.029 A 
ATOM     50  N   UNL A   1      44.710  30.026  29.205  1.00  0.00    -0.354 N 
ATOM     51  C   UNL A   1      43.454  26.022  28.181  1.00  0.00     0.074 A 
ATOM     52  C   UNL A   1      42.154  25.721  28.742  1.00  0.00     0.031 C 
ATOM     53  C   UNL A   1      44.522  32.055  30.129  1.00  0.00     0.029 A 
ATOM     54  C   UNL A   1      45.389  31.217  29.307  1.00  0.00     0.049 A 
ATOM     55  H   UNL A   1      45.044  29.258  28.690  1.00  0.00     0.167 HD
ATOM     56  C   UNL A   1      44.164  25.173  27.400  1.00  0.00     0.037 A 
ATOM     57  C   UNL A   1      46.587  31.591  28.817  1.00  0.00     0.037 A 
ATOM     58  C   UNL A   1      45.445  25.489  26.821  1.00  0.00     0.049 A 
ATOM     59  C   UNL A   1      47.380  30.614  27.998  1.00  0.00     0.074 A 
ATOM     60  C   UNL A   1      46.232  24.706  25.994  1.00  0.00     0.029 A 
ATOM     61  N   UNL A   1      46.129  26.683  27.004  1.00  0.00    -0.354 N 
ATOM     62  N   UNL A   1      47.058  29.398  27.627  1.00  0.00    -0.248 NA
ATOM     63  C   UNL A   1      48.705  31.054  27.542  1.00  0.00     0.031 C 
ATOM     64  C   UNL A   1      47.411  25.405  25.719  1.00  0.00     0.029 A 
ATOM     65  C   UNL A   1      47.339  26.646  26.330  1.00  0.00     0.049 A 
ATOM     66  H   UNL A   1      45.800  27.445  27.534  1.00  0.00     0.167 HD
ATOM     67  C   UNL A   1      48.137  28.927  26.889  1.00  0.00     0.074 A 
ATOM     68  C   UNL A   1      49.111  30.001  26.846  1.00  0.00     0.031 C 
ATOM     69  C   UNL A   1      48.308  27.715  26.306  1.00  0.00     0.037 A 
BRANCH  56  70
ATOM     70  C   UNL A   1      43.582  23.809  27.131  1.00  0.00     0.058 A 
ATOM     71  C   UNL A   1      43.606  22.790  28.096  1.00  0.00     0.135 A 
ATOM     72  C   UNL A   1      42.950  23.533  25.907  1.00  0.00     0.135 A 
ATOM     73  F   UNL A   1      44.208  22.991  29.279  1.00  0.00    -0.206 F 
ATOM     74  C   UNL A   1      43.048  21.538  27.848  1.00  0.00     0.059 A 
ATOM     75  C   UNL A   1      42.361  22.298  25.647  1.00  0.00     0.059 A 
ATOM     76  F   UNL A   1      42.894  24.471  24.948  1.00  0.00    -0.206 F 
ATOM     77  C   UNL A   1      42.428  21.301  26.620  1.00  0.00     0.060 A 
BRANCH  77  78
ATOM     78  S   UNL A   1      41.714  19.671  26.317  1.00  0.00     0.124 S 
ATOM     79  O   UNL A   1      42.150  18.937  27.502  1.00  0.00    -0.237 OA
ATOM     80  O   UNL A   1      40.286  19.966  26.247  1.00  0.00    -0.237 OA
ATOM     81  O   UNL A   1      42.329  19.255  25.062  1.00  0.00    -0.744 OA
ENDBRANCH  77  78
ENDBRANCH  56  70
BRANCH  57  82
ATOM     82  C   UNL A   1      47.099  32.957  29.104  1.00  0.00     0.058 A 
ATOM     83  C   UNL A   1      46.807  34.031  28.254  1.00  0.00     0.135 A 
ATOM     84  C   UNL A   1      47.842  33.224  30.266  1.00  0.00     0.135 A 
ATOM     85  F   UNL A   1      46.110  33.825  27.126  1.00  0.00    -0.206 F 
ATOM     86  C   UNL A   1      47.227  35.325  28.546  1.00  0.00     0.059 A 
ATOM     87  C   UNL A   1      48.248  34.512  30.595  1.00  0.00     0.059 A 
ATOM     88  F   UNL A   1      48.136  32.230  31.120  1.00  0.00    -0.206 F 
ATOM     89  C   UNL A   1      47.937  35.557  29.726  1.00  0.00     0.060 A 
BRANCH  89  90
ATOM     90  S   UNL A   1      48.405  37.253  30.133  1.00  0.00     0.124 S 
ATOM     91  O   UNL A   1      49.592  37.437  29.307  1.00  0.00    -0.237 OA
ATOM     92  O   UNL A   1      47.220  38.000  29.727  1.00  0.00    -0.237 OA
ATOM     93  O   UNL A   1      48.641  37.200  31.573  1.00  0.00    -0.744 OA
ENDBRANCH  89  90
ENDBRANCH  57  82
BRANCH  69  94
ATOM     94  C   UNL A   1      49.598  27.477  25.571  1.00  0.00     0.058 A 
ATOM     95  C   UNL A   1      50.774  27.127  26.251  1.00  0.00     0.135 A 
ATOM     96  C   UNL A   1      49.647  27.543  24.169  1.00  0.00     0.135 A 
ATOM     97  F   UNL A   1      50.784  27.058  27.592  1.00  0.00    -0.206 F 
ATOM     98  C   UNL A   1      51.959  26.870  25.570  1.00  0.00     0.059 A 
ATOM     99  C   UNL A   1      50.814  27.263  23.465  1.00  0.00     0.059 A 
ATOM    100  F   UNL A   1      48.547  27.864  23.468  1.00  0.00    -0.206 F 
ATOM    101  C   UNL A   1      51.968  26.936  24.176  1.00  0.00     0.060 A 
BRANCH 101 102
ATOM    102  S   UNL A   1      53.505  26.566  23.305  1.00  0.00     0.124 S 
ATOM    103  O   UNL A   1      54.165  27.867  23.305  1.00  0.00    -0.237 OA
ATOM    104  O   UNL A   1      54.109  25.549  24.160  1.00  0.00    -0.237 OA
ATOM    105  O   UNL A   1      53.053  26.092  22.000  1.00  0.00    -0.744 OA
ENDBRANCH 101 102
ENDBRANCH  69  94
ENDBRANCH  43  44
ENDBRANCH  35  38
ENDBRANCH  33  34
ENDBRANCH  32  33
ENDBRANCH   1  32
TORSDOF 18
ENDMDL
