MODEL 1
REMARK VINA RESULT:     -11.3      0.000      0.000
REMARK SMILES CCN1C(=O)/C(=C/c2ccccc2O[C@H](C)C(=O)NCCCCNC(=O)c2ccc(-c3c4nc(c(-c5c(F)cc(S(=O)(=O)[O-])cc5F)c5ccc([nH]5)c(-c5c(F)cc(S(=O)(=O)[O-])cc5F)c5nc(c(-c6c(F)cc(S(=O)(=O)[O-])cc6F)c6ccc3[nH]6)C=C5)C=C4)cc2)S/C1=[NH+]\c1ccc(C)cc1O
REMARK SMILES IDX 20 1 19 2 17 3 18 4 15 6 16 7 14 8 13 9 8 10 9 11 10 12
REMARK SMILES IDX 12 13 11 14 7 15 3 16 4 17 94 18 5 19 6 20 93 21 95 22 2 24
REMARK SMILES IDX 1 25 96 26 97 27 102 28 98 29 101 30 99 31 100 32 103 33
REMARK SMILES IDX 21 35 22 36 23 37 24 38 25 39 26 41 27 42 28 43 92 44 29 45
REMARK SMILES IDX 91 46 30 47 31 48 32 49 85 50 33 51 90 52 84 53 86 54 34 55
REMARK SMILES IDX 89 56 83 57 82 58 35 60 69 61 48 62 68 63 49 64 52 65 67 66
REMARK SMILES IDX 87 67 50 68 51 69 66 71 88 72 53 73 36 74 37 75 46 76 38 77
REMARK SMILES IDX 39 78 45 79 47 80 40 81 41 82 42 83 43 84 44 85 70 86 71 87
REMARK SMILES IDX 80 88 72 89 73 90 79 91 81 92 74 93 75 94 76 95 77 96 78 97
REMARK SMILES IDX 54 98 55 99 64 100 56 101 57 102 63 103 65 104 58 105 59 106
REMARK SMILES IDX 60 107 61 108 62 109
REMARK H PARENT 19 5 95 23 103 34 24 40 86 59 52 70
REMARK Flexibility Score: inf
ROOT
ATOM      1  C   UNL A   1      33.768  25.249  25.135  1.00  0.00     0.116 C 
ENDROOT
BRANCH   1   2
ATOM      2  N   UNL A   1      34.052  25.787  23.829  1.00  0.00    -0.353 N 
ATOM      3  C   UNL A   1      33.569  25.405  22.613  1.00  0.00     0.260 C 
ATOM      4  O   UNL A   1      33.854  26.119  21.645  1.00  0.00    -0.271 OA
ATOM      5  H   UNL A   1      34.687  26.540  23.811  1.00  0.00     0.163 HD
BRANCH   3   6
ATOM      6  C   UNL A   1      32.782  24.085  22.403  1.00  0.00     0.258 C 
ATOM      7  C   UNL A   1      33.726  22.897  22.519  1.00  0.00     0.064 C 
BRANCH   6   8
ATOM      8  O   UNL A   1      31.470  24.010  22.943  1.00  0.00    -0.480 OA
BRANCH   8   9
ATOM      9  C   UNL A   1      31.076  23.735  24.216  1.00  0.00     0.127 A 
ATOM     10  C   UNL A   1      30.148  24.640  24.787  1.00  0.00     0.018 A 
ATOM     11  C   UNL A   1      29.765  24.483  26.131  1.00  0.00     0.012 A 
ATOM     12  C   UNL A   1      30.264  23.430  26.895  1.00  0.00     0.001 A 
ATOM     13  C   UNL A   1      31.522  22.657  24.980  1.00  0.00     0.047 A 
ATOM     14  C   UNL A   1      31.134  22.515  26.316  1.00  0.00     0.004 A 
BRANCH  10  15
ATOM     15  C   UNL A   1      29.619  25.831  24.089  1.00  0.00     0.036 C 
ATOM     16  N   UNL A   1      30.083  29.407  23.718  1.00  0.00    -0.186 N 
ATOM     17  C   UNL A   1      29.440  28.211  23.435  1.00  0.00     0.348 C 
ATOM     18  C   UNL A   1      31.112  29.333  24.626  1.00  0.00     0.324 C 
ATOM     19  O   UNL A   1      28.538  28.058  22.619  1.00  0.00    -0.240 OA
ATOM     20  C   UNL A   1      30.017  27.102  24.237  1.00  0.00     0.110 C 
ATOM     21  S   UNL A   1      31.242  27.713  25.262  1.00  0.00     0.007 SA
ATOM     22  N   UNL A   1      31.890  30.324  24.920  1.00  0.00    -0.231 N 
ATOM     23  H   UNL A   1      31.797  31.171  24.426  1.00  0.00     0.313 HD
BRANCH  16  24
ATOM     24  C   UNL A   1      29.580  30.603  23.044  1.00  0.00     0.244 C 
ATOM     25  C   UNL A   1      28.557  31.474  23.751  1.00  0.00     0.055 C 
ENDBRANCH  16  24
BRANCH  22  26
ATOM     26  C   UNL A   1      32.868  30.217  25.929  1.00  0.00     0.167 A 
ATOM     27  C   UNL A   1      33.737  29.125  25.897  1.00  0.00     0.056 A 
ATOM     28  C   UNL A   1      32.982  31.123  26.995  1.00  0.00     0.162 A 
ATOM     29  C   UNL A   1      34.731  28.974  26.871  1.00  0.00     0.008 A 
ATOM     30  C   UNL A   1      33.988  30.999  27.950  1.00  0.00     0.054 A 
ATOM     31  C   UNL A   1      34.878  29.921  27.890  1.00  0.00    -0.047 A 
ATOM     32  C   UNL A   1      35.951  29.754  28.924  1.00  0.00     0.044 C 
BRANCH  28  33
ATOM     33  O   UNL A   1      32.110  32.170  27.138  1.00  0.00    -0.504 OA
ATOM     34  H   UNL A   1      32.404  32.979  27.508  1.00  0.00     0.293 HD
ENDBRANCH  28  33
ENDBRANCH  22  26
ENDBRANCH  10  15
ENDBRANCH   8   9
ENDBRANCH   6   8
ENDBRANCH   3   6
ENDBRANCH   1   2
BRANCH   1  35
ATOM     35  C   UNL A   1      34.642  24.065  25.516  1.00  0.00     0.023 C 
BRANCH  35  36
ATOM     36  C   UNL A   1      36.093  24.191  25.073  1.00  0.00     0.023 C 
BRANCH  36  37
ATOM     37  C   UNL A   1      37.119  24.081  26.194  1.00  0.00     0.116 C 
BRANCH  37  38
ATOM     38  N   UNL A   1      37.846  22.817  26.198  1.00  0.00    -0.352 N 
ATOM     39  C   UNL A   1      39.190  22.616  26.416  1.00  0.00     0.251 C 
ATOM     40  H   UNL A   1      37.311  22.010  26.023  1.00  0.00     0.163 HD
ATOM     41  O   UNL A   1      39.688  21.504  26.281  1.00  0.00    -0.269 OA
BRANCH  39  42
ATOM     42  C   UNL A   1      40.026  23.781  26.773  1.00  0.00     0.039 A 
ATOM     43  C   UNL A   1      40.212  24.796  25.835  1.00  0.00     0.014 A 
ATOM     44  C   UNL A   1      40.529  23.907  28.071  1.00  0.00     0.014 A 
ATOM     45  C   UNL A   1      40.836  25.982  26.226  1.00  0.00     0.010 A 
ATOM     46  C   UNL A   1      41.070  25.120  28.478  1.00  0.00     0.010 A 
ATOM     47  C   UNL A   1      41.225  26.172  27.563  1.00  0.00    -0.014 A 
BRANCH  47  48
ATOM     48  C   UNL A   1      41.787  27.465  28.032  1.00  0.00     0.031 A 
ATOM     49  C   UNL A   1      43.279  27.660  28.073  1.00  0.00     0.074 A 
ATOM     50  C   UNL A   1      40.964  28.426  28.500  1.00  0.00     0.049 A 
ATOM     51  N   UNL A   1      43.967  28.667  28.545  1.00  0.00    -0.248 NA
ATOM     52  C   UNL A   1      44.108  26.563  27.546  1.00  0.00     0.031 C 
ATOM     53  C   UNL A   1      39.503  28.332  28.565  1.00  0.00     0.029 A 
ATOM     54  N   UNL A   1      41.238  29.662  29.029  1.00  0.00    -0.354 N 
ATOM     55  C   UNL A   1      45.303  28.318  28.391  1.00  0.00     0.074 A 
ATOM     56  C   UNL A   1      45.332  26.986  27.829  1.00  0.00     0.031 C 
ATOM     57  C   UNL A   1      39.011  29.466  29.090  1.00  0.00     0.029 A 
ATOM     58  C   UNL A   1      40.119  30.351  29.440  1.00  0.00     0.049 A 
ATOM     59  H   UNL A   1      42.150  30.023  29.109  1.00  0.00     0.167 HD
ATOM     60  C   UNL A   1      46.406  29.051  28.674  1.00  0.00     0.037 A 
ATOM     61  C   UNL A   1      39.999  31.549  30.045  1.00  0.00     0.037 A 
ATOM     62  C   UNL A   1      46.368  30.390  29.200  1.00  0.00     0.049 A 
ATOM     63  C   UNL A   1      41.241  32.348  30.340  1.00  0.00     0.074 A 
ATOM     64  C   UNL A   1      47.428  31.244  29.444  1.00  0.00     0.029 A 
ATOM     65  N   UNL A   1      45.215  31.066  29.565  1.00  0.00    -0.354 N 
ATOM     66  N   UNL A   1      42.494  32.034  30.112  1.00  0.00    -0.248 NA
ATOM     67  C   UNL A   1      41.056  33.664  30.968  1.00  0.00     0.031 C 
ATOM     68  C   UNL A   1      46.920  32.419  30.009  1.00  0.00     0.029 A 
ATOM     69  C   UNL A   1      45.539  32.319  30.060  1.00  0.00     0.049 A 
ATOM     70  H   UNL A   1      44.300  30.710  29.485  1.00  0.00     0.167 HD
ATOM     71  C   UNL A   1      43.244  33.126  30.541  1.00  0.00     0.074 A 
ATOM     72  C   UNL A   1      42.302  34.112  31.030  1.00  0.00     0.031 C 
ATOM     73  C   UNL A   1      44.588  33.296  30.529  1.00  0.00     0.037 A 
BRANCH  60  74
ATOM     74  C   UNL A   1      47.750  28.427  28.417  1.00  0.00     0.058 A 
ATOM     75  C   UNL A   1      48.483  27.801  29.438  1.00  0.00     0.135 A 
ATOM     76  C   UNL A   1      48.286  28.403  27.118  1.00  0.00     0.135 A 
ATOM     77  F   UNL A   1      48.027  27.808  30.700  1.00  0.00    -0.206 F 
ATOM     78  C   UNL A   1      49.706  27.190  29.184  1.00  0.00     0.059 A 
ATOM     79  C   UNL A   1      49.494  27.773  26.837  1.00  0.00     0.059 A 
ATOM     80  F   UNL A   1      47.628  28.991  26.106  1.00  0.00    -0.206 F 
ATOM     81  C   UNL A   1      50.202  27.177  27.879  1.00  0.00     0.060 A 
BRANCH  81  82
ATOM     82  S   UNL A   1      51.777  26.354  27.565  1.00  0.00     0.124 S 
ATOM     83  O   UNL A   1      52.433  27.308  26.675  1.00  0.00    -0.237 OA
ATOM     84  O   UNL A   1      52.343  26.246  28.906  1.00  0.00    -0.237 OA
ATOM     85  O   UNL A   1      51.384  25.090  26.950  1.00  0.00    -0.744 OA
ENDBRANCH  81  82
ENDBRANCH  60  74
BRANCH  61  86
ATOM     86  C   UNL A   1      38.654  32.070  30.413  1.00  0.00     0.058 A 
ATOM     87  C   UNL A   1      37.986  32.998  29.600  1.00  0.00     0.135 A 
ATOM     88  C   UNL A   1      38.008  31.653  31.589  1.00  0.00     0.135 A 
ATOM     89  F   UNL A   1      38.563  33.433  28.468  1.00  0.00    -0.206 F 
ATOM     90  C   UNL A   1      36.742  33.513  29.947  1.00  0.00     0.059 A 
ATOM     91  C   UNL A   1      36.751  32.132  31.944  1.00  0.00     0.059 A 
ATOM     92  F   UNL A   1      38.594  30.754  32.395  1.00  0.00    -0.206 F 
ATOM     93  C   UNL A   1      36.131  33.072  31.123  1.00  0.00     0.060 A 
BRANCH  93  94
ATOM     94  S   UNL A   1      34.500  33.722  31.548  1.00  0.00     0.124 S 
ATOM     95  O   UNL A   1      34.847  34.965  32.228  1.00  0.00    -0.237 OA
ATOM     96  O   UNL A   1      33.876  33.863  30.237  1.00  0.00    -0.237 OA
ATOM     97  O   UNL A   1      33.934  32.676  32.395  1.00  0.00    -0.744 OA
ENDBRANCH  93  94
ENDBRANCH  61  86
BRANCH  73  98
ATOM     98  C   UNL A   1      45.131  34.610  31.020  1.00  0.00     0.058 A 
ATOM     99  C   UNL A   1      45.518  34.800  32.355  1.00  0.00     0.135 A 
ATOM    100  C   UNL A   1      45.334  35.672  30.122  1.00  0.00     0.135 A 
ATOM    101  F   UNL A   1      45.339  33.820  33.256  1.00  0.00    -0.206 F 
ATOM    102  C   UNL A   1      46.069  36.002  32.787  1.00  0.00     0.059 A 
ATOM    103  C   UNL A   1      45.911  36.870  30.524  1.00  0.00     0.059 A 
ATOM    104  F   UNL A   1      44.990  35.539  28.830  1.00  0.00    -0.206 F 
ATOM    105  C   UNL A   1      46.269  37.029  31.863  1.00  0.00     0.060 A 
BRANCH 105 106
ATOM    106  S   UNL A   1      47.031  38.564  32.427  1.00  0.00     0.124 S 
ATOM    107  O   UNL A   1      47.783  38.110  33.592  1.00  0.00    -0.237 OA
ATOM    108  O   UNL A   1      47.830  38.960  31.271  1.00  0.00    -0.237 OA
ATOM    109  O   UNL A   1      45.888  39.427  32.716  1.00  0.00    -0.744 OA
ENDBRANCH 105 106
ENDBRANCH  73  98
ENDBRANCH  47  48
ENDBRANCH  39  42
ENDBRANCH  37  38
ENDBRANCH  36  37
ENDBRANCH  35  36
ENDBRANCH   1  35
TORSDOF 20
ENDMDL
MODEL 2
REMARK VINA RESULT:     -11.3      4.003      9.558
REMARK SMILES CCN1C(=O)/C(=C/c2ccccc2O[C@H](C)C(=O)NCCCCNC(=O)c2ccc(-c3c4nc(c(-c5c(F)cc(S(=O)(=O)[O-])cc5F)c5ccc([nH]5)c(-c5c(F)cc(S(=O)(=O)[O-])cc5F)c5nc(c(-c6c(F)cc(S(=O)(=O)[O-])cc6F)c6ccc3[nH]6)C=C5)C=C4)cc2)S/C1=[NH+]\c1ccc(C)cc1O
REMARK SMILES IDX 20 1 19 2 17 3 18 4 15 6 16 7 14 8 13 9 8 10 9 11 10 12
REMARK SMILES IDX 12 13 11 14 7 15 3 16 4 17 94 18 5 19 6 20 93 21 95 22 2 24
REMARK SMILES IDX 1 25 96 26 97 27 102 28 98 29 101 30 99 31 100 32 103 33
REMARK SMILES IDX 21 35 22 36 23 37 24 38 25 39 26 41 27 42 28 43 92 44 29 45
REMARK SMILES IDX 91 46 30 47 31 48 32 49 85 50 33 51 90 52 84 53 86 54 34 55
REMARK SMILES IDX 89 56 83 57 82 58 35 60 69 61 48 62 68 63 49 64 52 65 67 66
REMARK SMILES IDX 87 67 50 68 51 69 66 71 88 72 53 73 36 74 37 75 46 76 38 77
REMARK SMILES IDX 39 78 45 79 47 80 40 81 41 82 42 83 43 84 44 85 70 86 71 87
REMARK SMILES IDX 80 88 72 89 73 90 79 91 81 92 74 93 75 94 76 95 77 96 78 97
REMARK SMILES IDX 54 98 55 99 64 100 56 101 57 102 63 103 65 104 58 105 59 106
REMARK SMILES IDX 60 107 61 108 62 109
REMARK H PARENT 19 5 95 23 103 34 24 40 86 59 52 70
REMARK Flexibility Score: inf
ROOT
ATOM      1  C   UNL A   1      33.300  25.369  25.721  1.00  0.00     0.116 C 
ENDROOT
BRANCH   1   2
ATOM      2  N   UNL A   1      32.679  24.387  26.574  1.00  0.00    -0.353 N 
ATOM      3  C   UNL A   1      31.411  23.889  26.537  1.00  0.00     0.260 C 
ATOM      4  O   UNL A   1      31.156  22.943  27.292  1.00  0.00    -0.271 OA
ATOM      5  H   UNL A   1      33.252  24.025  27.288  1.00  0.00     0.163 HD
BRANCH   3   6
ATOM      6  C   UNL A   1      30.288  24.521  25.673  1.00  0.00     0.258 C 
ATOM      7  C   UNL A   1      29.978  25.923  26.177  1.00  0.00     0.064 C 
BRANCH   6   8
ATOM      8  O   UNL A   1      30.301  24.249  24.279  1.00  0.00    -0.480 OA
BRANCH   8   9
ATOM      9  C   UNL A   1      31.100  24.766  23.307  1.00  0.00     0.127 A 
ATOM     10  C   UNL A   1      31.914  23.837  22.614  1.00  0.00     0.018 A 
ATOM     11  C   UNL A   1      32.839  24.303  21.662  1.00  0.00     0.012 A 
ATOM     12  C   UNL A   1      32.939  25.661  21.372  1.00  0.00     0.001 A 
ATOM     13  C   UNL A   1      31.176  26.116  22.963  1.00  0.00     0.047 A 
ATOM     14  C   UNL A   1      32.103  26.564  22.017  1.00  0.00     0.004 A 
BRANCH  10  15
ATOM     15  C   UNL A   1      31.940  22.387  22.900  1.00  0.00     0.036 C 
ATOM     16  N   UNL A   1      33.916  19.788  24.476  1.00  0.00    -0.186 N 
ATOM     17  C   UNL A   1      32.806  20.241  23.776  1.00  0.00     0.348 C 
ATOM     18  C   UNL A   1      34.855  20.740  24.791  1.00  0.00     0.324 C 
ATOM     19  O   UNL A   1      31.839  19.563  23.449  1.00  0.00    -0.240 OA
ATOM     20  C   UNL A   1      32.921  21.695  23.496  1.00  0.00     0.110 C 
ATOM     21  S   UNL A   1      34.411  22.279  24.099  1.00  0.00     0.007 SA
ATOM     22  N   UNL A   1      35.889  20.517  25.534  1.00  0.00    -0.231 N 
ATOM     23  H   UNL A   1      35.994  19.636  25.962  1.00  0.00     0.313 HD
BRANCH  16  24
ATOM     24  C   UNL A   1      33.970  18.357  24.771  1.00  0.00     0.244 C 
ATOM     25  C   UNL A   1      34.497  17.404  23.713  1.00  0.00     0.055 C 
ENDBRANCH  16  24
BRANCH  22  26
ATOM     26  C   UNL A   1      36.871  21.506  25.746  1.00  0.00     0.167 A 
ATOM     27  C   UNL A   1      36.450  22.815  25.991  1.00  0.00     0.056 A 
ATOM     28  C   UNL A   1      38.250  21.257  25.672  1.00  0.00     0.162 A 
ATOM     29  C   UNL A   1      37.381  23.835  26.215  1.00  0.00     0.008 A 
ATOM     30  C   UNL A   1      39.184  22.259  25.924  1.00  0.00     0.054 A 
ATOM     31  C   UNL A   1      38.753  23.560  26.206  1.00  0.00    -0.047 A 
ATOM     32  C   UNL A   1      39.744  24.658  26.454  1.00  0.00     0.044 C 
BRANCH  28  33
ATOM     33  O   UNL A   1      38.734  20.016  25.350  1.00  0.00    -0.504 OA
ATOM     34  H   UNL A   1      38.958  19.816  24.463  1.00  0.00     0.293 HD
ENDBRANCH  28  33
ENDBRANCH  22  26
ENDBRANCH  10  15
ENDBRANCH   8   9
ENDBRANCH   6   8
ENDBRANCH   3   6
ENDBRANCH   1   2
BRANCH   1  35
ATOM     35  C   UNL A   1      33.158  26.797  26.221  1.00  0.00     0.023 C 
BRANCH  35  36
ATOM     36  C   UNL A   1      33.970  27.818  25.436  1.00  0.00     0.023 C 
BRANCH  36  37
ATOM     37  C   UNL A   1      34.776  28.790  26.289  1.00  0.00     0.116 C 
BRANCH  37  38
ATOM     38  N   UNL A   1      34.090  30.051  26.543  1.00  0.00    -0.352 N 
ATOM     39  C   UNL A   1      34.370  30.985  27.515  1.00  0.00     0.251 C 
ATOM     40  H   UNL A   1      33.335  30.261  25.948  1.00  0.00     0.163 HD
ATOM     41  O   UNL A   1      33.639  31.954  27.683  1.00  0.00    -0.269 OA
BRANCH  39  42
ATOM     42  C   UNL A   1      35.549  30.767  28.378  1.00  0.00     0.039 A 
ATOM     43  C   UNL A   1      35.509  29.758  29.341  1.00  0.00     0.014 A 
ATOM     44  C   UNL A   1      36.721  31.495  28.155  1.00  0.00     0.014 A 
ATOM     45  C   UNL A   1      36.678  29.421  30.026  1.00  0.00     0.010 A 
ATOM     46  C   UNL A   1      37.900  31.098  28.776  1.00  0.00     0.010 A 
ATOM     47  C   UNL A   1      37.892  30.054  29.713  1.00  0.00    -0.014 A 
BRANCH  47  48
ATOM     48  C   UNL A   1      39.171  29.637  30.345  1.00  0.00     0.031 A 
ATOM     49  C   UNL A   1      39.705  30.403  31.525  1.00  0.00     0.074 A 
ATOM     50  C   UNL A   1      39.890  28.631  29.806  1.00  0.00     0.049 A 
ATOM     51  N   UNL A   1      40.846  30.266  32.149  1.00  0.00    -0.248 NA
ATOM     52  C   UNL A   1      38.861  31.488  32.053  1.00  0.00     0.031 C 
ATOM     53  C   UNL A   1      39.505  27.851  28.627  1.00  0.00     0.029 A 
ATOM     54  N   UNL A   1      41.106  28.105  30.166  1.00  0.00    -0.354 N 
ATOM     55  C   UNL A   1      40.865  31.256  33.125  1.00  0.00     0.074 A 
ATOM     56  C   UNL A   1      39.646  32.019  32.979  1.00  0.00     0.031 C 
ATOM     57  C   UNL A   1      40.457  26.939  28.371  1.00  0.00     0.029 A 
ATOM     58  C   UNL A   1      41.541  27.096  29.337  1.00  0.00     0.049 A 
ATOM     59  H   UNL A   1      41.619  28.420  30.945  1.00  0.00     0.167 HD
ATOM     60  C   UNL A   1      41.805  31.493  34.069  1.00  0.00     0.037 A 
ATOM     61  C   UNL A   1      42.689  26.390  29.342  1.00  0.00     0.037 A 
ATOM     62  C   UNL A   1      42.999  30.706  34.231  1.00  0.00     0.049 A 
ATOM     63  C   UNL A   1      43.714  26.667  30.410  1.00  0.00     0.074 A 
ATOM     64  C   UNL A   1      43.973  30.817  35.207  1.00  0.00     0.029 A 
ATOM     65  N   UNL A   1      43.385  29.669  33.396  1.00  0.00    -0.354 N 
ATOM     66  N   UNL A   1      43.677  27.555  31.375  1.00  0.00    -0.248 NA
ATOM     67  C   UNL A   1      44.933  25.846  30.396  1.00  0.00     0.031 C 
ATOM     68  C   UNL A   1      44.975  29.882  34.932  1.00  0.00     0.029 A 
ATOM     69  C   UNL A   1      44.596  29.148  33.818  1.00  0.00     0.049 A 
ATOM     70  H   UNL A   1      42.873  29.348  32.617  1.00  0.00     0.167 HD
ATOM     71  C   UNL A   1      44.852  27.379  32.100  1.00  0.00     0.074 A 
ATOM     72  C   UNL A   1      45.572  26.292  31.468  1.00  0.00     0.031 C 
ATOM     73  C   UNL A   1      45.294  28.055  33.188  1.00  0.00     0.037 A 
BRANCH  60  74
ATOM     74  C   UNL A   1      41.583  32.646  35.009  1.00  0.00     0.058 A 
ATOM     75  C   UNL A   1      40.871  32.496  36.210  1.00  0.00     0.135 A 
ATOM     76  C   UNL A   1      42.143  33.906  34.734  1.00  0.00     0.135 A 
ATOM     77  F   UNL A   1      40.300  31.320  36.515  1.00  0.00    -0.206 F 
ATOM     78  C   UNL A   1      40.705  33.557  37.093  1.00  0.00     0.059 A 
ATOM     79  C   UNL A   1      42.014  34.972  35.617  1.00  0.00     0.059 A 
ATOM     80  F   UNL A   1      42.830  34.105  33.598  1.00  0.00    -0.206 F 
ATOM     81  C   UNL A   1      41.285  34.791  36.791  1.00  0.00     0.060 A 
BRANCH  81  82
ATOM     82  S   UNL A   1      41.083  36.147  37.964  1.00  0.00     0.124 S 
ATOM     83  O   UNL A   1      39.931  36.848  37.405  1.00  0.00    -0.237 OA
ATOM     84  O   UNL A   1      40.846  35.439  39.218  1.00  0.00    -0.237 OA
ATOM     85  O   UNL A   1      42.353  36.861  37.881  1.00  0.00    -0.744 OA
ENDBRANCH  81  82
ENDBRANCH  60  74
BRANCH  61  86
ATOM     86  C   UNL A   1      42.933  25.350  28.305  1.00  0.00     0.058 A 
ATOM     87  C   UNL A   1      42.736  23.989  28.580  1.00  0.00     0.135 A 
ATOM     88  C   UNL A   1      43.372  25.696  27.016  1.00  0.00     0.135 A 
ATOM     89  F   UNL A   1      42.324  23.605  29.799  1.00  0.00    -0.206 F 
ATOM     90  C   UNL A   1      42.988  23.006  27.629  1.00  0.00     0.059 A 
ATOM     91  C   UNL A   1      43.603  24.734  26.038  1.00  0.00     0.059 A 
ATOM     92  F   UNL A   1      43.559  26.985  26.693  1.00  0.00    -0.206 F 
ATOM     93  C   UNL A   1      43.420  23.390  26.358  1.00  0.00     0.060 A 
BRANCH  93  94
ATOM     94  S   UNL A   1      43.712  22.109  25.118  1.00  0.00     0.124 S 
ATOM     95  O   UNL A   1      42.633  21.171  25.404  1.00  0.00    -0.237 OA
ATOM     96  O   UNL A   1      43.594  22.859  23.871  1.00  0.00    -0.237 OA
ATOM     97  O   UNL A   1      45.058  21.640  25.433  1.00  0.00    -0.744 OA
ENDBRANCH  93  94
ENDBRANCH  61  86
BRANCH  73  98
ATOM     98  C   UNL A   1      46.597  27.619  33.801  1.00  0.00     0.058 A 
ATOM     99  C   UNL A   1      46.660  26.593  34.756  1.00  0.00     0.135 A 
ATOM    100  C   UNL A   1      47.807  28.189  33.370  1.00  0.00     0.135 A 
ATOM    101  F   UNL A   1      45.533  26.019  35.206  1.00  0.00    -0.206 F 
ATOM    102  C   UNL A   1      47.875  26.160  35.276  1.00  0.00     0.059 A 
ATOM    103  C   UNL A   1      49.034  27.751  33.853  1.00  0.00     0.059 A 
ATOM    104  F   UNL A   1      47.803  29.167  32.450  1.00  0.00    -0.206 F 
ATOM    105  C   UNL A   1      49.058  26.741  34.814  1.00  0.00     0.060 A 
BRANCH 105 106
ATOM    106  S   UNL A   1      50.630  26.135  35.462  1.00  0.00     0.124 S 
ATOM    107  O   UNL A   1      51.457  27.335  35.398  1.00  0.00    -0.237 OA
ATOM    108  O   UNL A   1      50.263  25.688  36.802  1.00  0.00    -0.237 OA
ATOM    109  O   UNL A   1      50.996  25.071  34.531  1.00  0.00    -0.744 OA
ENDBRANCH 105 106
ENDBRANCH  73  98
ENDBRANCH  47  48
ENDBRANCH  39  42
ENDBRANCH  37  38
ENDBRANCH  36  37
ENDBRANCH  35  36
ENDBRANCH   1  35
TORSDOF 20
ENDMDL
MODEL 3
REMARK VINA RESULT:     -10.7      2.913      9.614
REMARK SMILES CCN1C(=O)/C(=C/c2ccccc2O[C@H](C)C(=O)NCCCCNC(=O)c2ccc(-c3c4nc(c(-c5c(F)cc(S(=O)(=O)[O-])cc5F)c5ccc([nH]5)c(-c5c(F)cc(S(=O)(=O)[O-])cc5F)c5nc(c(-c6c(F)cc(S(=O)(=O)[O-])cc6F)c6ccc3[nH]6)C=C5)C=C4)cc2)S/C1=[NH+]\c1ccc(C)cc1O
REMARK SMILES IDX 20 1 19 2 17 3 18 4 15 6 16 7 14 8 13 9 8 10 9 11 10 12
REMARK SMILES IDX 12 13 11 14 7 15 3 16 4 17 94 18 5 19 6 20 93 21 95 22 2 24
REMARK SMILES IDX 1 25 96 26 97 27 102 28 98 29 101 30 99 31 100 32 103 33
REMARK SMILES IDX 21 35 22 36 23 37 24 38 25 39 26 41 27 42 28 43 92 44 29 45
REMARK SMILES IDX 91 46 30 47 31 48 32 49 85 50 33 51 90 52 84 53 86 54 34 55
REMARK SMILES IDX 89 56 83 57 82 58 35 60 69 61 48 62 68 63 49 64 52 65 67 66
REMARK SMILES IDX 87 67 50 68 51 69 66 71 88 72 53 73 36 74 37 75 46 76 38 77
REMARK SMILES IDX 39 78 45 79 47 80 40 81 41 82 42 83 43 84 44 85 70 86 71 87
REMARK SMILES IDX 80 88 72 89 73 90 79 91 81 92 74 93 75 94 76 95 77 96 78 97
REMARK SMILES IDX 54 98 55 99 64 100 56 101 57 102 63 103 65 104 58 105 59 106
REMARK SMILES IDX 60 107 61 108 62 109
REMARK H PARENT 19 5 95 23 103 34 24 40 86 59 52 70
REMARK Flexibility Score: inf
ROOT
ATOM      1  C   UNL A   1      35.337  34.408  31.152  1.00  0.00     0.116 C 
ENDROOT
BRANCH   1   2
ATOM      2  N   UNL A   1      34.235  35.247  30.750  1.00  0.00    -0.353 N 
ATOM      3  C   UNL A   1      33.385  35.109  29.694  1.00  0.00     0.260 C 
ATOM      4  O   UNL A   1      32.424  35.884  29.642  1.00  0.00    -0.271 OA
ATOM      5  H   UNL A   1      34.074  36.033  31.320  1.00  0.00     0.163 HD
BRANCH   3   6
ATOM      6  C   UNL A   1      33.640  34.103  28.540  1.00  0.00     0.258 C 
ATOM      7  C   UNL A   1      34.756  34.619  27.644  1.00  0.00     0.064 C 
BRANCH   6   8
ATOM      8  O   UNL A   1      33.550  32.719  28.845  1.00  0.00    -0.480 OA
BRANCH   8   9
ATOM      9  C   UNL A   1      34.481  31.739  28.689  1.00  0.00     0.127 A 
ATOM     10  C   UNL A   1      34.245  30.819  27.640  1.00  0.00     0.018 A 
ATOM     11  C   UNL A   1      35.107  29.721  27.474  1.00  0.00     0.012 A 
ATOM     12  C   UNL A   1      36.208  29.548  28.310  1.00  0.00     0.001 A 
ATOM     13  C   UNL A   1      35.619  31.580  29.481  1.00  0.00     0.047 A 
ATOM     14  C   UNL A   1      36.466  30.481  29.305  1.00  0.00     0.004 A 
BRANCH  10  15
ATOM     15  C   UNL A   1      33.066  30.868  26.748  1.00  0.00     0.036 C 
ATOM     16  N   UNL A   1      31.151  28.905  24.377  1.00  0.00    -0.186 N 
ATOM     17  C   UNL A   1      31.408  30.063  25.096  1.00  0.00     0.348 C 
ATOM     18  C   UNL A   1      32.036  27.872  24.569  1.00  0.00     0.324 C 
ATOM     19  O   UNL A   1      30.712  31.072  25.104  1.00  0.00    -0.240 OA
ATOM     20  C   UNL A   1      32.645  29.915  25.905  1.00  0.00     0.110 C 
ATOM     21  S   UNL A   1      33.336  28.377  25.619  1.00  0.00     0.007 SA
ATOM     22  N   UNL A   1      31.886  26.688  24.070  1.00  0.00    -0.231 N 
ATOM     23  H   UNL A   1      31.062  26.476  23.574  1.00  0.00     0.313 HD
BRANCH  16  24
ATOM     24  C   UNL A   1      29.993  28.925  23.485  1.00  0.00     0.244 C 
ATOM     25  C   UNL A   1      30.128  29.562  22.114  1.00  0.00     0.055 C 
ENDBRANCH  16  24
BRANCH  22  26
ATOM     26  C   UNL A   1      32.875  25.695  24.220  1.00  0.00     0.167 A 
ATOM     27  C   UNL A   1      33.066  25.136  25.486  1.00  0.00     0.056 A 
ATOM     28  C   UNL A   1      33.715  25.274  23.178  1.00  0.00     0.162 A 
ATOM     29  C   UNL A   1      34.029  24.142  25.690  1.00  0.00     0.008 A 
ATOM     30  C   UNL A   1      34.654  24.263  23.364  1.00  0.00     0.054 A 
ATOM     31  C   UNL A   1      34.813  23.682  24.626  1.00  0.00    -0.047 A 
ATOM     32  C   UNL A   1      35.838  22.610  24.854  1.00  0.00     0.044 C 
BRANCH  28  33
ATOM     33  O   UNL A   1      33.643  25.839  21.931  1.00  0.00    -0.504 OA
ATOM     34  H   UNL A   1      34.428  26.040  21.462  1.00  0.00     0.293 HD
ENDBRANCH  28  33
ENDBRANCH  22  26
ENDBRANCH  10  15
ENDBRANCH   8   9
ENDBRANCH   6   8
ENDBRANCH   3   6
ENDBRANCH   1   2
BRANCH   1  35
ATOM     35  C   UNL A   1      35.436  34.201  32.654  1.00  0.00     0.023 C 
BRANCH  35  36
ATOM     36  C   UNL A   1      36.857  34.016  33.168  1.00  0.00     0.023 C 
BRANCH  36  37
ATOM     37  C   UNL A   1      37.615  32.846  32.553  1.00  0.00     0.116 C 
BRANCH  37  38
ATOM     38  N   UNL A   1      37.087  31.542  32.936  1.00  0.00    -0.352 N 
ATOM     39  C   UNL A   1      37.627  30.302  32.679  1.00  0.00     0.251 C 
ATOM     40  H   UNL A   1      36.241  31.549  33.440  1.00  0.00     0.163 HD
ATOM     41  O   UNL A   1      37.016  29.280  32.968  1.00  0.00    -0.269 OA
BRANCH  39  42
ATOM     42  C   UNL A   1      38.941  30.235  32.007  1.00  0.00     0.039 A 
ATOM     43  C   UNL A   1      40.071  29.909  32.757  1.00  0.00     0.014 A 
ATOM     44  C   UNL A   1      39.025  30.391  30.621  1.00  0.00     0.014 A 
ATOM     45  C   UNL A   1      41.277  29.656  32.101  1.00  0.00     0.010 A 
ATOM     46  C   UNL A   1      40.203  30.053  29.966  1.00  0.00     0.010 A 
ATOM     47  C   UNL A   1      41.340  29.678  30.697  1.00  0.00    -0.014 A 
BRANCH  47  48
ATOM     48  C   UNL A   1      42.579  29.302  29.969  1.00  0.00     0.031 A 
ATOM     49  C   UNL A   1      43.669  30.322  29.773  1.00  0.00     0.074 A 
ATOM     50  C   UNL A   1      42.687  28.078  29.412  1.00  0.00     0.049 A 
ATOM     51  N   UNL A   1      44.774  30.226  29.081  1.00  0.00    -0.248 NA
ATOM     52  C   UNL A   1      43.474  31.635  30.411  1.00  0.00     0.031 C 
ATOM     53  C   UNL A   1      41.673  27.022  29.483  1.00  0.00     0.029 A 
ATOM     54  N   UNL A   1      43.689  27.521  28.657  1.00  0.00    -0.354 N 
ATOM     55  C   UNL A   1      45.393  31.466  29.184  1.00  0.00     0.074 A 
ATOM     56  C   UNL A   1      44.518  32.315  29.961  1.00  0.00     0.031 C 
ATOM     57  C   UNL A   1      42.111  25.944  28.813  1.00  0.00     0.029 A 
ATOM     58  C   UNL A   1      43.415  26.243  28.228  1.00  0.00     0.049 A 
ATOM     59  H   UNL A   1      44.526  27.992  28.443  1.00  0.00     0.167 HD
ATOM     60  C   UNL A   1      46.593  31.854  28.690  1.00  0.00     0.037 A 
ATOM     61  C   UNL A   1      44.123  25.412  27.437  1.00  0.00     0.037 A 
ATOM     62  C   UNL A   1      47.474  30.992  27.947  1.00  0.00     0.049 A 
ATOM     63  C   UNL A   1      45.459  25.865  26.910  1.00  0.00     0.074 A 
ATOM     64  C   UNL A   1      48.744  31.268  27.474  1.00  0.00     0.029 A 
ATOM     65  N   UNL A   1      47.177  29.693  27.566  1.00  0.00    -0.354 N 
ATOM     66  N   UNL A   1      46.066  27.015  27.085  1.00  0.00    -0.248 NA
ATOM     67  C   UNL A   1      46.210  24.910  26.083  1.00  0.00     0.031 C 
ATOM     68  C   UNL A   1      49.195  30.154  26.760  1.00  0.00     0.029 A 
ATOM     69  C   UNL A   1      48.230  29.162  26.839  1.00  0.00     0.049 A 
ATOM     70  H   UNL A   1      46.342  29.216  27.780  1.00  0.00     0.167 HD
ATOM     71  C   UNL A   1      47.282  26.910  26.416  1.00  0.00     0.074 A 
ATOM     72  C   UNL A   1      47.328  25.580  25.843  1.00  0.00     0.031 C 
ATOM     73  C   UNL A   1      48.268  27.830  26.288  1.00  0.00     0.037 A 
BRANCH  60  74
ATOM     74  C   UNL A   1      47.031  33.271  28.939  1.00  0.00     0.058 A 
ATOM     75  C   UNL A   1      46.797  34.294  28.006  1.00  0.00     0.135 A 
ATOM     76  C   UNL A   1      47.640  33.623  30.156  1.00  0.00     0.135 A 
ATOM     77  F   UNL A   1      46.235  34.011  26.820  1.00  0.00    -0.206 F 
ATOM     78  C   UNL A   1      47.168  35.609  28.261  1.00  0.00     0.059 A 
ATOM     79  C   UNL A   1      47.992  34.937  30.444  1.00  0.00     0.059 A 
ATOM     80  F   UNL A   1      47.889  32.684  31.082  1.00  0.00    -0.206 F 
ATOM     81  C   UNL A   1      47.761  35.923  29.486  1.00  0.00     0.060 A 
BRANCH  81  82
ATOM     82  S   UNL A   1      48.208  37.641  29.810  1.00  0.00     0.124 S 
ATOM     83  O   UNL A   1      46.941  38.324  29.567  1.00  0.00    -0.237 OA
ATOM     84  O   UNL A   1      48.644  37.591  31.202  1.00  0.00    -0.237 OA
ATOM     85  O   UNL A   1      49.262  37.908  28.836  1.00  0.00    -0.744 OA
ENDBRANCH  81  82
ENDBRANCH  60  74
BRANCH  61  86
ATOM     86  C   UNL A   1      43.588  24.065  27.097  1.00  0.00     0.058 A 
ATOM     87  C   UNL A   1      43.974  22.926  27.818  1.00  0.00     0.135 A 
ATOM     88  C   UNL A   1      42.681  23.889  26.039  1.00  0.00     0.135 A 
ATOM     89  F   UNL A   1      44.843  23.039  28.834  1.00  0.00    -0.206 F 
ATOM     90  C   UNL A   1      43.502  21.658  27.491  1.00  0.00     0.059 A 
ATOM     91  C   UNL A   1      42.172  22.636  25.710  1.00  0.00     0.059 A 
ATOM     92  F   UNL A   1      42.264  24.948  25.327  1.00  0.00    -0.206 F 
ATOM     93  C   UNL A   1      42.599  21.524  26.435  1.00  0.00     0.060 A 
BRANCH  93  94
ATOM     94  S   UNL A   1      41.967  19.879  26.039  1.00  0.00     0.124 S 
ATOM     95  O   UNL A   1      42.020  19.223  27.339  1.00  0.00    -0.237 OA
ATOM     96  O   UNL A   1      40.633  20.180  25.528  1.00  0.00    -0.237 OA
ATOM     97  O   UNL A   1      42.914  19.387  25.043  1.00  0.00    -0.744 OA
ENDBRANCH  93  94
ENDBRANCH  61  86
BRANCH  73  98
ATOM     98  C   UNL A   1      49.507  27.427  25.537  1.00  0.00     0.058 A 
ATOM     99  C   UNL A   1      49.575  27.481  24.136  1.00  0.00     0.135 A 
ATOM    100  C   UNL A   1      50.667  27.050  26.235  1.00  0.00     0.135 A 
ATOM    101  F   UNL A   1      48.494  27.829  23.421  1.00  0.00    -0.206 F 
ATOM    102  C   UNL A   1      50.743  27.159  23.453  1.00  0.00     0.059 A 
ATOM    103  C   UNL A   1      51.854  26.753  25.575  1.00  0.00     0.059 A 
ATOM    104  F   UNL A   1      50.659  26.992  27.577  1.00  0.00    -0.206 F 
ATOM    105  C   UNL A   1      51.880  26.802  24.182  1.00  0.00     0.060 A 
BRANCH 105 106
ATOM    106  S   UNL A   1      53.402  26.434  23.285  1.00  0.00     0.124 S 
ATOM    107  O   UNL A   1      53.940  25.321  24.060  1.00  0.00    -0.237 OA
ATOM    108  O   UNL A   1      52.906  26.098  21.953  1.00  0.00    -0.237 OA
ATOM    109  O   UNL A   1      54.158  27.680  23.369  1.00  0.00    -0.744 OA
ENDBRANCH 105 106
ENDBRANCH  73  98
ENDBRANCH  47  48
ENDBRANCH  39  42
ENDBRANCH  37  38
ENDBRANCH  36  37
ENDBRANCH  35  36
ENDBRANCH   1  35
TORSDOF 20
ENDMDL
