MODEL 1
REMARK VINA RESULT:     -11.4      0.000      0.000
REMARK SMILES C[C@@H](Sc1nc2ccccc2c(=O)n1N)C(=O)NCCCCNC(=O)c1ccc(-c2c3nc(c(-c4c(F)cc(S(=O)(=O)[O-])cc4F)c4ccc([nH]4)c(-c4c(F)cc(S(=O)(=O)[O-])cc4F)c4nc(c(-c5c(F)cc(S(=O)(=O)[O-])cc5F)c5ccc2[nH]5)C=C4)C=C3)cc1
REMARK SMILES IDX 20 1 19 2 18 3 16 4 17 5 2 7 1 8 3 9 4 10 5 11 14 12 6 13
REMARK SMILES IDX 12 14 7 15 11 16 13 17 8 18 10 19 9 20 15 21 21 24 22 25
REMARK SMILES IDX 23 26 24 27 25 29 26 30 27 31 91 32 28 33 90 34 29 35 30 36
REMARK SMILES IDX 31 37 84 38 32 39 89 40 83 41 85 42 33 43 88 44 82 45 81 46
REMARK SMILES IDX 34 48 68 49 47 50 67 51 48 52 51 53 66 54 86 55 49 56 50 57
REMARK SMILES IDX 65 59 87 60 52 61 35 62 36 63 45 64 37 65 38 66 44 67 46 68
REMARK SMILES IDX 39 69 40 70 41 71 42 72 43 73 69 74 70 75 79 76 71 77 72 78
REMARK SMILES IDX 78 79 80 80 73 81 74 82 75 83 76 84 77 85 53 86 54 87 63 88
REMARK SMILES IDX 55 89 56 90 62 91 64 92 57 93 58 94 59 95 60 96 61 97
REMARK H PARENT 18 6 15 22 15 23 23 28 85 47 51 58
REMARK Flexibility Score: inf
ROOT
ATOM      1  C   UNL A   1      33.632  28.039  24.719  1.00  0.00     0.023 C 
ENDROOT
BRANCH   1   2
ATOM      2  C   UNL A   1      33.026  28.904  23.618  1.00  0.00     0.116 C 
BRANCH   2   3
ATOM      3  N   UNL A   1      32.496  28.092  22.537  1.00  0.00    -0.355 N 
ATOM      4  C   UNL A   1      31.279  27.495  22.392  1.00  0.00     0.233 C 
ATOM      5  O   UNL A   1      31.074  26.871  21.345  1.00  0.00    -0.274 OA
ATOM      6  H   UNL A   1      33.118  27.948  21.788  1.00  0.00     0.163 HD
BRANCH   4   7
ATOM      7  C   UNL A   1      30.192  27.580  23.467  1.00  0.00     0.141 C 
ATOM      8  C   UNL A   1      29.186  28.692  23.196  1.00  0.00     0.030 C 
BRANCH   7   9
ATOM      9  S   UNL A   1      29.511  25.902  23.733  1.00  0.00    -0.073 SA
BRANCH   9  10
ATOM     10  C   UNL A   1      30.848  25.091  24.506  1.00  0.00     0.191 A 
ATOM     11  N   UNL A   1      31.954  25.015  23.839  1.00  0.00    -0.222 NA
ATOM     12  N   UNL A   1      30.696  24.644  25.814  1.00  0.00    -0.202 N 
ATOM     13  C   UNL A   1      33.077  24.473  24.480  1.00  0.00     0.079 A 
ATOM     14  C   UNL A   1      31.767  24.104  26.528  1.00  0.00     0.280 A 
ATOM     15  C   UNL A   1      34.287  24.424  23.784  1.00  0.00     0.029 A 
ATOM     16  C   UNL A   1      33.045  24.018  25.799  1.00  0.00     0.068 A 
ATOM     17  O   UNL A   1      31.688  23.739  27.701  1.00  0.00    -0.267 OA
ATOM     18  C   UNL A   1      35.444  23.936  24.399  1.00  0.00     0.002 A 
ATOM     19  C   UNL A   1      34.196  23.523  26.424  1.00  0.00     0.016 A 
ATOM     20  C   UNL A   1      35.398  23.486  25.719  1.00  0.00     0.001 A 
BRANCH  12  21
ATOM     21  N   UNL A   1      29.442  24.730  26.502  1.00  0.00    -0.334 N 
ATOM     22  H   UNL A   1      28.621  24.400  26.070  1.00  0.00     0.178 HD
ATOM     23  H   UNL A   1      29.402  25.117  27.406  1.00  0.00     0.178 HD
ENDBRANCH  12  21
ENDBRANCH   9  10
ENDBRANCH   7   9
ENDBRANCH   4   7
ENDBRANCH   2   3
ENDBRANCH   1   2
BRANCH   1  24
ATOM     24  C   UNL A   1      32.809  27.986  26.008  1.00  0.00     0.023 C 
BRANCH  24  25
ATOM     25  C   UNL A   1      33.564  28.364  27.279  1.00  0.00     0.116 C 
BRANCH  25  26
ATOM     26  N   UNL A   1      33.488  29.785  27.586  1.00  0.00    -0.352 N 
ATOM     27  C   UNL A   1      34.454  30.605  28.120  1.00  0.00     0.251 C 
ATOM     28  H   UNL A   1      32.627  30.218  27.385  1.00  0.00     0.163 HD
ATOM     29  O   UNL A   1      34.177  31.758  28.433  1.00  0.00    -0.269 OA
BRANCH  27  30
ATOM     30  C   UNL A   1      35.815  30.075  28.344  1.00  0.00     0.039 A 
ATOM     31  C   UNL A   1      36.737  30.115  27.295  1.00  0.00     0.014 A 
ATOM     32  C   UNL A   1      36.187  29.566  29.591  1.00  0.00     0.014 A 
ATOM     33  C   UNL A   1      38.055  29.713  27.519  1.00  0.00     0.010 A 
ATOM     34  C   UNL A   1      37.517  29.229  29.831  1.00  0.00     0.010 A 
ATOM     35  C   UNL A   1      38.465  29.303  28.799  1.00  0.00    -0.014 A 
BRANCH  35  36
ATOM     36  C   UNL A   1      39.882  28.958  29.081  1.00  0.00     0.031 A 
ATOM     37  C   UNL A   1      40.804  29.985  29.680  1.00  0.00     0.074 A 
ATOM     38  C   UNL A   1      40.354  27.745  28.730  1.00  0.00     0.049 A 
ATOM     39  N   UNL A   1      42.085  29.898  29.928  1.00  0.00    -0.248 NA
ATOM     40  C   UNL A   1      40.214  31.290  30.020  1.00  0.00     0.031 C 
ATOM     41  C   UNL A   1      39.570  26.682  28.096  1.00  0.00     0.029 A 
ATOM     42  N   UNL A   1      41.610  27.204  28.848  1.00  0.00    -0.354 N 
ATOM     43  C   UNL A   1      42.458  31.138  30.432  1.00  0.00     0.074 A 
ATOM     44  C   UNL A   1      41.279  31.974  30.413  1.00  0.00     0.031 C 
ATOM     45  C   UNL A   1      40.358  25.612  27.900  1.00  0.00     0.029 A 
ATOM     46  C   UNL A   1      41.707  25.921  28.360  1.00  0.00     0.049 A 
ATOM     47  H   UNL A   1      42.369  27.689  29.244  1.00  0.00     0.167 HD
ATOM     48  C   UNL A   1      43.670  31.536  30.891  1.00  0.00     0.037 A 
ATOM     49  C   UNL A   1      42.767  25.092  28.287  1.00  0.00     0.037 A 
ATOM     50  C   UNL A   1      44.832  30.687  30.940  1.00  0.00     0.049 A 
ATOM     51  C   UNL A   1      44.098  25.554  28.813  1.00  0.00     0.074 A 
ATOM     52  C   UNL A   1      46.085  30.975  31.451  1.00  0.00     0.029 A 
ATOM     53  N   UNL A   1      44.884  29.387  30.460  1.00  0.00    -0.354 N 
ATOM     54  N   UNL A   1      44.417  26.708  29.349  1.00  0.00    -0.248 NA
ATOM     55  C   UNL A   1      45.214  24.602  28.728  1.00  0.00     0.031 C 
ATOM     56  C   UNL A   1      46.907  29.862  31.246  1.00  0.00     0.029 A 
ATOM     57  C   UNL A   1      46.154  28.865  30.647  1.00  0.00     0.049 A 
ATOM     58  H   UNL A   1      44.130  28.906  30.049  1.00  0.00     0.167 HD
ATOM     59  C   UNL A   1      45.761  26.609  29.691  1.00  0.00     0.074 A 
ATOM     60  C   UNL A   1      46.192  25.280  29.310  1.00  0.00     0.031 C 
ATOM     61  C   UNL A   1      46.564  27.535  30.271  1.00  0.00     0.037 A 
BRANCH  48  62
ATOM     62  C   UNL A   1      43.799  32.951  31.382  1.00  0.00     0.058 A 
ATOM     63  C   UNL A   1      44.024  34.020  30.500  1.00  0.00     0.135 A 
ATOM     64  C   UNL A   1      43.659  33.248  32.748  1.00  0.00     0.135 A 
ATOM     65  F   UNL A   1      44.180  33.791  29.187  1.00  0.00    -0.206 F 
ATOM     66  C   UNL A   1      44.133  35.329  30.956  1.00  0.00     0.059 A 
ATOM     67  C   UNL A   1      43.738  34.555  33.223  1.00  0.00     0.059 A 
ATOM     68  F   UNL A   1      43.443  32.264  33.636  1.00  0.00    -0.206 F 
ATOM     69  C   UNL A   1      43.990  35.587  32.321  1.00  0.00     0.060 A 
BRANCH  69  70
ATOM     70  S   UNL A   1      44.128  37.292  32.896  1.00  0.00     0.124 S 
ATOM     71  O   UNL A   1      44.181  38.020  31.632  1.00  0.00    -0.237 OA
ATOM     72  O   UNL A   1      42.904  37.460  33.673  1.00  0.00    -0.237 OA
ATOM     73  O   UNL A   1      45.364  37.291  33.672  1.00  0.00    -0.744 OA
ENDBRANCH  69  70
ENDBRANCH  48  62
BRANCH  49  74
ATOM     74  C   UNL A   1      42.606  23.728  27.718  1.00  0.00     0.058 A 
ATOM     75  C   UNL A   1      42.419  22.617  28.555  1.00  0.00     0.135 A 
ATOM     76  C   UNL A   1      42.627  23.505  26.333  1.00  0.00     0.135 A 
ATOM     77  F   UNL A   1      42.396  22.779  29.886  1.00  0.00    -0.206 F 
ATOM     78  C   UNL A   1      42.278  21.333  28.042  1.00  0.00     0.059 A 
ATOM     79  C   UNL A   1      42.464  22.233  25.794  1.00  0.00     0.059 A 
ATOM     80  F   UNL A   1      42.786  24.537  25.488  1.00  0.00    -0.206 F 
ATOM     81  C   UNL A   1      42.301  21.151  26.658  1.00  0.00     0.060 A 
BRANCH  81  82
ATOM     82  S   UNL A   1      42.073  19.484  25.999  1.00  0.00     0.124 S 
ATOM     83  O   UNL A   1      42.557  18.664  27.103  1.00  0.00    -0.237 OA
ATOM     84  O   UNL A   1      40.634  19.444  25.756  1.00  0.00    -0.237 OA
ATOM     85  O   UNL A   1      42.903  19.483  24.798  1.00  0.00    -0.744 OA
ENDBRANCH  81  82
ENDBRANCH  49  74
BRANCH  61  86
ATOM     86  C   UNL A   1      47.983  27.134  30.564  1.00  0.00     0.058 A 
ATOM     87  C   UNL A   1      49.008  27.309  29.622  1.00  0.00     0.135 A 
ATOM     88  C   UNL A   1      48.329  26.618  31.823  1.00  0.00     0.135 A 
ATOM     89  F   UNL A   1      48.729  27.792  28.401  1.00  0.00    -0.206 F 
ATOM     90  C   UNL A   1      50.325  26.966  29.910  1.00  0.00     0.059 A 
ATOM     91  C   UNL A   1      49.643  26.293  32.142  1.00  0.00     0.059 A 
ATOM     92  F   UNL A   1      47.387  26.440  32.763  1.00  0.00    -0.206 F 
ATOM     93  C   UNL A   1      50.633  26.459  31.174  1.00  0.00     0.060 A 
BRANCH  93  94
ATOM     94  S   UNL A   1      52.351  26.052  31.550  1.00  0.00     0.124 S 
ATOM     95  O   UNL A   1      52.647  26.994  32.624  1.00  0.00    -0.237 OA
ATOM     96  O   UNL A   1      52.263  24.650  31.943  1.00  0.00    -0.237 OA
ATOM     97  O   UNL A   1      53.043  26.300  30.289  1.00  0.00    -0.744 OA
ENDBRANCH  93  94
ENDBRANCH  61  86
ENDBRANCH  35  36
ENDBRANCH  27  30
ENDBRANCH  25  26
ENDBRANCH  24  25
ENDBRANCH   1  24
TORSDOF 17
ENDMDL
MODEL 2
REMARK VINA RESULT:     -11.1      2.905      3.790
REMARK SMILES C[C@@H](Sc1nc2ccccc2c(=O)n1N)C(=O)NCCCCNC(=O)c1ccc(-c2c3nc(c(-c4c(F)cc(S(=O)(=O)[O-])cc4F)c4ccc([nH]4)c(-c4c(F)cc(S(=O)(=O)[O-])cc4F)c4nc(c(-c5c(F)cc(S(=O)(=O)[O-])cc5F)c5ccc2[nH]5)C=C4)C=C3)cc1
REMARK SMILES IDX 20 1 19 2 18 3 16 4 17 5 2 7 1 8 3 9 4 10 5 11 14 12 6 13
REMARK SMILES IDX 12 14 7 15 11 16 13 17 8 18 10 19 9 20 15 21 21 24 22 25
REMARK SMILES IDX 23 26 24 27 25 29 26 30 27 31 91 32 28 33 90 34 29 35 30 36
REMARK SMILES IDX 31 37 84 38 32 39 89 40 83 41 85 42 33 43 88 44 82 45 81 46
REMARK SMILES IDX 34 48 68 49 47 50 67 51 48 52 51 53 66 54 86 55 49 56 50 57
REMARK SMILES IDX 65 59 87 60 52 61 35 62 36 63 45 64 37 65 38 66 44 67 46 68
REMARK SMILES IDX 39 69 40 70 41 71 42 72 43 73 69 74 70 75 79 76 71 77 72 78
REMARK SMILES IDX 78 79 80 80 73 81 74 82 75 83 76 84 77 85 53 86 54 87 63 88
REMARK SMILES IDX 55 89 56 90 62 91 64 92 57 93 58 94 59 95 60 96 61 97
REMARK H PARENT 18 6 15 22 15 23 23 28 85 47 51 58
REMARK Flexibility Score: inf
ROOT
ATOM      1  C   UNL A   1      34.259  28.583  26.054  1.00  0.00     0.023 C 
ENDROOT
BRANCH   1   2
ATOM      2  C   UNL A   1      33.372  29.207  24.981  1.00  0.00     0.116 C 
BRANCH   2   3
ATOM      3  N   UNL A   1      33.903  28.970  23.650  1.00  0.00    -0.355 N 
ATOM      4  C   UNL A   1      33.569  28.037  22.715  1.00  0.00     0.233 C 
ATOM      5  O   UNL A   1      34.171  28.072  21.636  1.00  0.00    -0.274 OA
ATOM      6  H   UNL A   1      34.624  29.585  23.380  1.00  0.00     0.163 HD
BRANCH   4   7
ATOM      7  C   UNL A   1      32.493  26.975  22.966  1.00  0.00     0.141 C 
ATOM      8  C   UNL A   1      31.126  27.585  23.252  1.00  0.00     0.030 C 
BRANCH   7   9
ATOM      9  S   UNL A   1      32.578  25.739  21.619  1.00  0.00    -0.073 SA
BRANCH   9  10
ATOM     10  C   UNL A   1      33.175  24.333  22.461  1.00  0.00     0.191 A 
ATOM     11  N   UNL A   1      34.458  24.183  22.518  1.00  0.00    -0.222 NA
ATOM     12  N   UNL A   1      32.265  23.493  23.095  1.00  0.00    -0.202 N 
ATOM     13  C   UNL A   1      34.967  23.127  23.286  1.00  0.00     0.079 A 
ATOM     14  C   UNL A   1      32.688  22.427  23.888  1.00  0.00     0.280 A 
ATOM     15  C   UNL A   1      36.353  22.979  23.390  1.00  0.00     0.029 A 
ATOM     16  C   UNL A   1      34.147  22.241  23.986  1.00  0.00     0.068 A 
ATOM     17  O   UNL A   1      31.919  21.688  24.504  1.00  0.00    -0.267 OA
ATOM     18  C   UNL A   1      36.906  21.970  24.183  1.00  0.00     0.002 A 
ATOM     19  C   UNL A   1      34.690  21.223  24.780  1.00  0.00     0.016 A 
ATOM     20  C   UNL A   1      36.074  21.092  24.879  1.00  0.00     0.001 A 
BRANCH  12  21
ATOM     21  N   UNL A   1      30.850  23.689  22.981  1.00  0.00    -0.334 N 
ATOM     22  H   UNL A   1      30.254  22.913  22.870  1.00  0.00     0.178 HD
ATOM     23  H   UNL A   1      30.474  24.598  23.015  1.00  0.00     0.178 HD
ENDBRANCH  12  21
ENDBRANCH   9  10
ENDBRANCH   7   9
ENDBRANCH   4   7
ENDBRANCH   2   3
ENDBRANCH   1   2
BRANCH   1  24
ATOM     24  C   UNL A   1      34.172  29.264  27.422  1.00  0.00     0.023 C 
BRANCH  24  25
ATOM     25  C   UNL A   1      35.445  29.973  27.878  1.00  0.00     0.116 C 
BRANCH  25  26
ATOM     26  N   UNL A   1      35.381  30.424  29.260  1.00  0.00    -0.352 N 
ATOM     27  C   UNL A   1      36.398  30.540  30.177  1.00  0.00     0.251 C 
ATOM     28  H   UNL A   1      34.487  30.682  29.583  1.00  0.00     0.163 HD
ATOM     29  O   UNL A   1      36.146  30.819  31.345  1.00  0.00    -0.269 OA
BRANCH  27  30
ATOM     30  C   UNL A   1      37.792  30.291  29.753  1.00  0.00     0.039 A 
ATOM     31  C   UNL A   1      38.817  30.415  30.694  1.00  0.00     0.014 A 
ATOM     32  C   UNL A   1      38.082  29.912  28.439  1.00  0.00     0.014 A 
ATOM     33  C   UNL A   1      40.126  30.085  30.336  1.00  0.00     0.010 A 
ATOM     34  C   UNL A   1      39.375  29.520  28.103  1.00  0.00     0.010 A 
ATOM     35  C   UNL A   1      40.409  29.599  29.049  1.00  0.00    -0.014 A 
BRANCH  35  36
ATOM     36  C   UNL A   1      41.777  29.157  28.675  1.00  0.00     0.031 A 
ATOM     37  C   UNL A   1      42.904  30.153  28.619  1.00  0.00     0.074 A 
ATOM     38  C   UNL A   1      41.987  27.874  28.316  1.00  0.00     0.049 A 
ATOM     39  N   UNL A   1      44.143  29.975  28.243  1.00  0.00    -0.248 NA
ATOM     40  C   UNL A   1      42.587  31.536  29.011  1.00  0.00     0.031 C 
ATOM     41  C   UNL A   1      40.965  26.826  28.281  1.00  0.00     0.029 A 
ATOM     42  N   UNL A   1      43.129  27.235  27.902  1.00  0.00    -0.354 N 
ATOM     43  C   UNL A   1      44.749  31.222  28.334  1.00  0.00     0.074 A 
ATOM     44  C   UNL A   1      43.730  32.157  28.757  1.00  0.00     0.031 C 
ATOM     45  C   UNL A   1      41.530  25.673  27.888  1.00  0.00     0.029 A 
ATOM     46  C   UNL A   1      42.943  25.904  27.610  1.00  0.00     0.049 A 
ATOM     47  H   UNL A   1      44.000  27.688  27.822  1.00  0.00     0.167 HD
ATOM     48  C   UNL A   1      46.043  31.554  28.107  1.00  0.00     0.037 A 
ATOM     49  C   UNL A   1      43.813  24.978  27.163  1.00  0.00     0.037 A 
ATOM     50  C   UNL A   1      47.061  30.612  27.721  1.00  0.00     0.049 A 
ATOM     51  C   UNL A   1      45.246  25.368  26.928  1.00  0.00     0.074 A 
ATOM     52  C   UNL A   1      48.413  30.836  27.536  1.00  0.00     0.029 A 
ATOM     53  N   UNL A   1      46.839  29.268  27.460  1.00  0.00    -0.354 N 
ATOM     54  N   UNL A   1      45.817  26.539  27.085  1.00  0.00    -0.248 NA
ATOM     55  C   UNL A   1      46.156  24.313  26.462  1.00  0.00     0.031 C 
ATOM     56  C   UNL A   1      49.003  29.636  27.125  1.00  0.00     0.029 A 
ATOM     57  C   UNL A   1      48.027  28.654  27.097  1.00  0.00     0.049 A 
ATOM     58  H   UNL A   1      45.966  28.817  27.524  1.00  0.00     0.167 HD
ATOM     59  C   UNL A   1      47.157  26.354  26.764  1.00  0.00     0.074 A 
ATOM     60  C   UNL A   1      47.314  24.958  26.413  1.00  0.00     0.031 C 
ATOM     61  C   UNL A   1      48.167  27.259  26.761  1.00  0.00     0.037 A 
BRANCH  48  62
ATOM     62  C   UNL A   1      46.434  32.996  28.278  1.00  0.00     0.058 A 
ATOM     63  C   UNL A   1      46.374  33.906  27.211  1.00  0.00     0.135 A 
ATOM     64  C   UNL A   1      46.837  33.483  29.532  1.00  0.00     0.135 A 
ATOM     65  F   UNL A   1      46.011  33.491  25.987  1.00  0.00    -0.206 F 
ATOM     66  C   UNL A   1      46.727  35.242  27.373  1.00  0.00     0.059 A 
ATOM     67  C   UNL A   1      47.169  34.822  29.724  1.00  0.00     0.059 A 
ATOM     68  F   UNL A   1      46.912  32.656  30.587  1.00  0.00    -0.206 F 
ATOM     69  C   UNL A   1      47.125  35.690  28.634  1.00  0.00     0.060 A 
BRANCH  69  70
ATOM     70  S   UNL A   1      47.572  37.427  28.830  1.00  0.00     0.124 S 
ATOM     71  O   UNL A   1      47.914  37.480  30.249  1.00  0.00    -0.237 OA
ATOM     72  O   UNL A   1      48.692  37.569  27.904  1.00  0.00    -0.237 OA
ATOM     73  O   UNL A   1      46.356  38.138  28.451  1.00  0.00    -0.744 OA
ENDBRANCH  69  70
ENDBRANCH  48  62
BRANCH  49  74
ATOM     74  C   UNL A   1      43.358  23.580  26.932  1.00  0.00     0.058 A 
ATOM     75  C   UNL A   1      43.100  23.114  25.634  1.00  0.00     0.135 A 
ATOM     76  C   UNL A   1      43.181  22.683  27.996  1.00  0.00     0.135 A 
ATOM     77  F   UNL A   1      43.251  23.935  24.585  1.00  0.00    -0.206 F 
ATOM     78  C   UNL A   1      42.664  21.814  25.400  1.00  0.00     0.059 A 
ATOM     79  C   UNL A   1      42.769  21.371  27.786  1.00  0.00     0.059 A 
ATOM     80  F   UNL A   1      43.431  23.076  29.255  1.00  0.00    -0.206 F 
ATOM     81  C   UNL A   1      42.502  20.949  26.483  1.00  0.00     0.060 A 
BRANCH  81  82
ATOM     82  S   UNL A   1      41.977  19.250  26.165  1.00  0.00     0.124 S 
ATOM     83  O   UNL A   1      42.738  18.929  24.964  1.00  0.00    -0.237 OA
ATOM     84  O   UNL A   1      42.393  18.567  27.387  1.00  0.00    -0.237 OA
ATOM     85  O   UNL A   1      40.534  19.374  25.987  1.00  0.00    -0.744 OA
ENDBRANCH  81  82
ENDBRANCH  49  74
BRANCH  61  86
ATOM     86  C   UNL A   1      49.540  26.763  26.403  1.00  0.00     0.058 A 
ATOM     87  C   UNL A   1      50.355  26.110  27.341  1.00  0.00     0.135 A 
ATOM     88  C   UNL A   1      50.024  26.896  25.092  1.00  0.00     0.135 A 
ATOM     89  F   UNL A   1      49.942  25.963  28.609  1.00  0.00    -0.206 F 
ATOM     90  C   UNL A   1      51.612  25.623  26.995  1.00  0.00     0.059 A 
ATOM     91  C   UNL A   1      51.266  26.394  24.718  1.00  0.00     0.059 A 
ATOM     92  F   UNL A   1      49.279  27.504  24.155  1.00  0.00    -0.206 F 
ATOM     93  C   UNL A   1      52.058  25.770  25.681  1.00  0.00     0.060 A 
BRANCH  93  94
ATOM     94  S   UNL A   1      53.675  25.102  25.235  1.00  0.00     0.124 S 
ATOM     95  O   UNL A   1      53.420  23.666  25.273  1.00  0.00    -0.237 OA
ATOM     96  O   UNL A   1      53.895  25.671  23.909  1.00  0.00    -0.237 OA
ATOM     97  O   UNL A   1      54.554  25.613  26.282  1.00  0.00    -0.744 OA
ENDBRANCH  93  94
ENDBRANCH  61  86
ENDBRANCH  35  36
ENDBRANCH  27  30
ENDBRANCH  25  26
ENDBRANCH  24  25
ENDBRANCH   1  24
TORSDOF 17
ENDMDL
MODEL 3
REMARK VINA RESULT:     -11.1      1.931      2.981
REMARK SMILES C[C@@H](Sc1nc2ccccc2c(=O)n1N)C(=O)NCCCCNC(=O)c1ccc(-c2c3nc(c(-c4c(F)cc(S(=O)(=O)[O-])cc4F)c4ccc([nH]4)c(-c4c(F)cc(S(=O)(=O)[O-])cc4F)c4nc(c(-c5c(F)cc(S(=O)(=O)[O-])cc5F)c5ccc2[nH]5)C=C4)C=C3)cc1
REMARK SMILES IDX 20 1 19 2 18 3 16 4 17 5 2 7 1 8 3 9 4 10 5 11 14 12 6 13
REMARK SMILES IDX 12 14 7 15 11 16 13 17 8 18 10 19 9 20 15 21 21 24 22 25
REMARK SMILES IDX 23 26 24 27 25 29 26 30 27 31 91 32 28 33 90 34 29 35 30 36
REMARK SMILES IDX 31 37 84 38 32 39 89 40 83 41 85 42 33 43 88 44 82 45 81 46
REMARK SMILES IDX 34 48 68 49 47 50 67 51 48 52 51 53 66 54 86 55 49 56 50 57
REMARK SMILES IDX 65 59 87 60 52 61 35 62 36 63 45 64 37 65 38 66 44 67 46 68
REMARK SMILES IDX 39 69 40 70 41 71 42 72 43 73 69 74 70 75 79 76 71 77 72 78
REMARK SMILES IDX 78 79 80 80 73 81 74 82 75 83 76 84 77 85 53 86 54 87 63 88
REMARK SMILES IDX 55 89 56 90 62 91 64 92 57 93 58 94 59 95 60 96 61 97
REMARK H PARENT 18 6 15 22 15 23 23 28 85 47 51 58
REMARK Flexibility Score: inf
ROOT
ATOM      1  C   UNL A   1      31.402  27.298  26.799  1.00  0.00     0.023 C 
ENDROOT
BRANCH   1   2
ATOM      2  C   UNL A   1      30.886  26.189  25.887  1.00  0.00     0.116 C 
BRANCH   2   3
ATOM      3  N   UNL A   1      30.401  25.055  26.653  1.00  0.00    -0.355 N 
ATOM      4  C   UNL A   1      30.561  23.716  26.453  1.00  0.00     0.233 C 
ATOM      5  O   UNL A   1      30.058  22.953  27.285  1.00  0.00    -0.274 OA
ATOM      6  H   UNL A   1      29.870  25.292  27.448  1.00  0.00     0.163 HD
BRANCH   4   7
ATOM      7  C   UNL A   1      31.330  23.153  25.253  1.00  0.00     0.141 C 
ATOM      8  C   UNL A   1      30.787  23.659  23.922  1.00  0.00     0.030 C 
BRANCH   7   9
ATOM      9  S   UNL A   1      33.120  23.386  25.555  1.00  0.00    -0.073 SA
BRANCH   9  10
ATOM     10  C   UNL A   1      33.737  21.773  25.314  1.00  0.00     0.191 A 
ATOM     11  N   UNL A   1      32.877  20.854  25.017  1.00  0.00    -0.222 NA
ATOM     12  N   UNL A   1      35.111  21.564  25.369  1.00  0.00    -0.202 N 
ATOM     13  C   UNL A   1      33.357  19.574  24.705  1.00  0.00     0.079 A 
ATOM     14  C   UNL A   1      35.672  20.325  25.060  1.00  0.00     0.280 A 
ATOM     15  C   UNL A   1      32.442  18.583  24.342  1.00  0.00     0.029 A 
ATOM     16  C   UNL A   1      34.718  19.261  24.702  1.00  0.00     0.068 A 
ATOM     17  O   UNL A   1      36.884  20.109  25.051  1.00  0.00    -0.267 OA
ATOM     18  C   UNL A   1      32.879  17.307  23.976  1.00  0.00     0.002 A 
ATOM     19  C   UNL A   1      35.167  17.984  24.342  1.00  0.00     0.016 A 
ATOM     20  C   UNL A   1      34.242  17.007  23.976  1.00  0.00     0.001 A 
BRANCH  12  21
ATOM     21  N   UNL A   1      36.021  22.611  25.727  1.00  0.00    -0.334 N 
ATOM     22  H   UNL A   1      36.310  22.713  26.662  1.00  0.00     0.178 HD
ATOM     23  H   UNL A   1      36.357  23.228  25.037  1.00  0.00     0.178 HD
ENDBRANCH  12  21
ENDBRANCH   9  10
ENDBRANCH   7   9
ENDBRANCH   4   7
ENDBRANCH   2   3
ENDBRANCH   1   2
BRANCH   1  24
ATOM     24  C   UNL A   1      32.520  28.148  26.192  1.00  0.00     0.023 C 
BRANCH  24  25
ATOM     25  C   UNL A   1      33.629  28.553  27.159  1.00  0.00     0.116 C 
BRANCH  25  26
ATOM     26  N   UNL A   1      33.517  29.932  27.611  1.00  0.00    -0.352 N 
ATOM     27  C   UNL A   1      34.454  30.710  28.247  1.00  0.00     0.251 C 
ATOM     28  H   UNL A   1      32.651  30.368  27.436  1.00  0.00     0.163 HD
ATOM     29  O   UNL A   1      34.147  31.819  28.673  1.00  0.00    -0.269 OA
BRANCH  27  30
ATOM     30  C   UNL A   1      35.822  30.185  28.446  1.00  0.00     0.039 A 
ATOM     31  C   UNL A   1      36.720  30.221  27.377  1.00  0.00     0.014 A 
ATOM     32  C   UNL A   1      36.222  29.686  29.688  1.00  0.00     0.014 A 
ATOM     33  C   UNL A   1      38.044  29.823  27.575  1.00  0.00     0.010 A 
ATOM     34  C   UNL A   1      37.557  29.354  29.901  1.00  0.00     0.010 A 
ATOM     35  C   UNL A   1      38.483  29.423  28.848  1.00  0.00    -0.014 A 
BRANCH  35  36
ATOM     36  C   UNL A   1      39.906  29.084  29.102  1.00  0.00     0.031 A 
ATOM     37  C   UNL A   1      40.841  30.121  29.663  1.00  0.00     0.074 A 
ATOM     38  C   UNL A   1      40.371  27.866  28.759  1.00  0.00     0.049 A 
ATOM     39  N   UNL A   1      42.128  30.039  29.882  1.00  0.00    -0.248 NA
ATOM     40  C   UNL A   1      40.258  31.430  29.997  1.00  0.00     0.031 C 
ATOM     41  C   UNL A   1      39.575  26.792  28.160  1.00  0.00     0.029 A 
ATOM     42  N   UNL A   1      41.630  27.328  28.855  1.00  0.00    -0.354 N 
ATOM     43  C   UNL A   1      42.512  31.286  30.358  1.00  0.00     0.074 A 
ATOM     44  C   UNL A   1      41.331  32.122  30.354  1.00  0.00     0.031 C 
ATOM     45  C   UNL A   1      40.359  25.721  27.962  1.00  0.00     0.029 A 
ATOM     46  C   UNL A   1      41.718  26.038  28.385  1.00  0.00     0.049 A 
ATOM     47  H   UNL A   1      42.399  27.819  29.226  1.00  0.00     0.167 HD
ATOM     48  C   UNL A   1      43.733  31.693  30.782  1.00  0.00     0.037 A 
ATOM     49  C   UNL A   1      42.777  25.209  28.299  1.00  0.00     0.037 A 
ATOM     50  C   UNL A   1      44.897  30.846  30.816  1.00  0.00     0.049 A 
ATOM     51  C   UNL A   1      44.120  25.680  28.786  1.00  0.00     0.074 A 
ATOM     52  C   UNL A   1      46.161  31.143  31.293  1.00  0.00     0.029 A 
ATOM     53  N   UNL A   1      44.940  29.538  30.355  1.00  0.00    -0.354 N 
ATOM     54  N   UNL A   1      44.450  26.842  29.297  1.00  0.00    -0.248 NA
ATOM     55  C   UNL A   1      45.234  24.727  28.689  1.00  0.00     0.031 C 
ATOM     56  C   UNL A   1      46.980  30.027  31.085  1.00  0.00     0.029 A 
ATOM     57  C   UNL A   1      46.214  29.021  30.520  1.00  0.00     0.049 A 
ATOM     58  H   UNL A   1      44.177  29.050  29.970  1.00  0.00     0.167 HD
ATOM     59  C   UNL A   1      45.801  26.750  29.609  1.00  0.00     0.074 A 
ATOM     60  C   UNL A   1      46.225  25.416  29.238  1.00  0.00     0.031 C 
ATOM     61  C   UNL A   1      46.617  27.686  30.155  1.00  0.00     0.037 A 
BRANCH  48  62
ATOM     62  C   UNL A   1      43.872  33.115  31.248  1.00  0.00     0.058 A 
ATOM     63  C   UNL A   1      43.664  33.474  32.589  1.00  0.00     0.135 A 
ATOM     64  C   UNL A   1      44.253  34.127  30.352  1.00  0.00     0.135 A 
ATOM     65  F   UNL A   1      43.283  32.550  33.486  1.00  0.00    -0.206 F 
ATOM     66  C   UNL A   1      43.802  34.790  33.021  1.00  0.00     0.059 A 
ATOM     67  C   UNL A   1      44.424  35.445  30.767  1.00  0.00     0.059 A 
ATOM     68  F   UNL A   1      44.465  33.840  29.058  1.00  0.00    -0.206 F 
ATOM     69  C   UNL A   1      44.181  35.769  32.101  1.00  0.00     0.060 A 
BRANCH  69  70
ATOM     70  S   UNL A   1      44.363  37.469  32.678  1.00  0.00     0.124 S 
ATOM     71  O   UNL A   1      45.744  37.469  33.150  1.00  0.00    -0.237 OA
ATOM     72  O   UNL A   1      44.109  38.240  31.465  1.00  0.00    -0.237 OA
ATOM     73  O   UNL A   1      43.344  37.588  33.716  1.00  0.00    -0.744 OA
ENDBRANCH  69  70
ENDBRANCH  48  62
BRANCH  49  74
ATOM     74  C   UNL A   1      42.604  23.836  27.755  1.00  0.00     0.058 A 
ATOM     75  C   UNL A   1      42.562  23.612  26.370  1.00  0.00     0.135 A 
ATOM     76  C   UNL A   1      42.486  22.722  28.600  1.00  0.00     0.135 A 
ATOM     77  F   UNL A   1      42.666  24.646  25.522  1.00  0.00    -0.206 F 
ATOM     78  C   UNL A   1      42.391  22.337  25.843  1.00  0.00     0.059 A 
ATOM     79  C   UNL A   1      42.338  21.434  28.096  1.00  0.00     0.059 A 
ATOM     80  F   UNL A   1      42.537  22.881  29.932  1.00  0.00    -0.206 F 
ATOM     81  C   UNL A   1      42.280  21.253  26.714  1.00  0.00     0.060 A 
BRANCH  81  82
ATOM     82  S   UNL A   1      42.101  19.596  26.019  1.00  0.00     0.124 S 
ATOM     83  O   UNL A   1      40.691  19.585  25.647  1.00  0.00    -0.237 OA
ATOM     84  O   UNL A   1      43.054  19.622  24.913  1.00  0.00    -0.237 OA
ATOM     85  O   UNL A   1      42.469  18.725  27.131  1.00  0.00    -0.744 OA
ENDBRANCH  81  82
ENDBRANCH  49  74
BRANCH  61  86
ATOM     86  C   UNL A   1      48.043  27.291  30.420  1.00  0.00     0.058 A 
ATOM     87  C   UNL A   1      49.062  27.540  29.489  1.00  0.00     0.135 A 
ATOM     88  C   UNL A   1      48.400  26.703  31.644  1.00  0.00     0.135 A 
ATOM     89  F   UNL A   1      48.772  28.093  28.301  1.00  0.00    -0.206 F 
ATOM     90  C   UNL A   1      50.386  27.202  29.753  1.00  0.00     0.059 A 
ATOM     91  C   UNL A   1      49.721  26.380  31.941  1.00  0.00     0.059 A 
ATOM     92  F   UNL A   1      47.464  26.452  32.573  1.00  0.00    -0.206 F 
ATOM     93  C   UNL A   1      50.705  26.622  30.983  1.00  0.00     0.060 A 
BRANCH  93  94
ATOM     94  S   UNL A   1      52.430  26.221  31.331  1.00  0.00     0.124 S 
ATOM     95  O   UNL A   1      52.832  27.349  32.163  1.00  0.00    -0.237 OA
ATOM     96  O   UNL A   1      52.323  24.936  32.014  1.00  0.00    -0.237 OA
ATOM     97  O   UNL A   1      53.041  26.169  30.006  1.00  0.00    -0.744 OA
ENDBRANCH  93  94
ENDBRANCH  61  86
ENDBRANCH  35  36
ENDBRANCH  27  30
ENDBRANCH  25  26
ENDBRANCH  24  25
ENDBRANCH   1  24
TORSDOF 17
ENDMDL
