MODEL 1
REMARK VINA RESULT:      -8.8      0.000      0.000
REMARK SMILES C[C@@H](C(=O)NCCCCNC(=O)c1ccc(-c2c3nc(c(-c4c(F)cc(S(=O)(=O)[O-])cc4F)c4ccc([nH]4)c(-c4c(F)cc(S(=O)(=O)[O-])cc4F)c4nc(c(-c5c(F)cc(S(=O)(=O)[O-])cc5F)c5ccc2[nH]5)C=C4)C=C3)cc1)c1ccc(C[C@@H]2CCC[C@@H]2O)cc1F
REMARK SMILES IDX 7 1 6 2 5 3 3 4 4 5 2 7 1 8 79 9 80 10 91 11 81 12 90 13
REMARK SMILES IDX 92 14 82 15 83 16 84 17 85 18 88 19 86 20 87 21 89 22 8 24
REMARK SMILES IDX 9 25 10 26 11 27 12 29 13 30 14 31 78 32 15 33 77 34 16 35
REMARK SMILES IDX 17 36 18 37 71 38 19 39 76 40 70 41 72 42 20 43 75 44 69 45
REMARK SMILES IDX 68 46 21 48 55 49 34 50 54 51 35 52 38 53 53 54 73 55 36 56
REMARK SMILES IDX 37 57 52 59 74 60 39 61 22 62 23 63 32 64 24 65 25 66 31 67
REMARK SMILES IDX 33 68 26 69 27 70 28 71 29 72 30 73 56 74 57 75 66 76 58 77
REMARK SMILES IDX 59 78 65 79 67 80 60 81 61 82 62 83 63 84 64 85 40 86 41 87
REMARK SMILES IDX 50 88 42 89 43 90 49 91 51 92 44 93 45 94 46 95 47 96 48 97
REMARK H PARENT 5 6 89 23 10 28 72 47 38 58
REMARK Flexibility Score: inf
ROOT
ATOM      1  C   UNL A   1      34.784  32.600  30.594  1.00  0.00     0.023 C 
ENDROOT
BRANCH   1   2
ATOM      2  C   UNL A   1      36.305  32.453  30.687  1.00  0.00     0.116 C 
BRANCH   2   3
ATOM      3  N   UNL A   1      36.896  33.614  31.316  1.00  0.00    -0.356 N 
ATOM      4  C   UNL A   1      37.144  33.862  32.635  1.00  0.00     0.227 C 
ATOM      5  O   UNL A   1      37.518  35.001  32.925  1.00  0.00    -0.274 OA
ATOM      6  H   UNL A   1      37.160  34.335  30.699  1.00  0.00     0.163 HD
BRANCH   4   7
ATOM      7  C   UNL A   1      36.977  32.744  33.682  1.00  0.00     0.108 C 
ATOM      8  C   UNL A   1      36.589  33.299  35.058  1.00  0.00     0.023 C 
BRANCH   7   9
ATOM      9  C   UNL A   1      38.237  31.891  33.756  1.00  0.00    -0.000 A 
ATOM     10  C   UNL A   1      39.472  32.410  34.173  1.00  0.00     0.008 A 
ATOM     11  C   UNL A   1      38.200  30.565  33.315  1.00  0.00     0.127 A 
ATOM     12  C   UNL A   1      40.623  31.623  34.150  1.00  0.00     0.004 A 
ATOM     13  C   UNL A   1      39.353  29.784  33.262  1.00  0.00     0.043 A 
ATOM     14  F   UNL A   1      37.038  30.027  32.916  1.00  0.00    -0.207 F 
ATOM     15  C   UNL A   1      40.588  30.316  33.656  1.00  0.00    -0.045 A 
BRANCH  15  16
ATOM     16  C   UNL A   1      41.854  29.514  33.511  1.00  0.00     0.041 C 
BRANCH  16  17
ATOM     17  C   UNL A   1      41.760  27.977  33.659  1.00  0.00     0.022 C 
ATOM     18  C   UNL A   1      41.954  27.441  35.082  1.00  0.00     0.007 C 
ATOM     19  C   UNL A   1      42.749  27.133  32.848  1.00  0.00     0.117 C 
ATOM     20  C   UNL A   1      43.396  26.933  35.172  1.00  0.00     0.003 C 
ATOM     21  C   UNL A   1      43.960  26.961  33.754  1.00  0.00     0.032 C 
BRANCH  19  22
ATOM     22  O   UNL A   1      43.092  27.699  31.600  1.00  0.00    -0.393 OA
ATOM     23  H   UNL A   1      42.325  27.661  31.007  1.00  0.00     0.210 HD
ENDBRANCH  19  22
ENDBRANCH  16  17
ENDBRANCH  15  16
ENDBRANCH   7   9
ENDBRANCH   4   7
ENDBRANCH   2   3
ENDBRANCH   1   2
BRANCH   1  24
ATOM     24  C   UNL A   1      34.281  33.217  29.287  1.00  0.00     0.023 C 
BRANCH  24  25
ATOM     25  C   UNL A   1      34.685  32.473  28.020  1.00  0.00     0.116 C 
BRANCH  25  26
ATOM     26  N   UNL A   1      34.021  31.185  27.885  1.00  0.00    -0.352 N 
ATOM     27  C   UNL A   1      34.567  29.926  27.923  1.00  0.00     0.251 C 
ATOM     28  H   UNL A   1      33.047  31.222  27.747  1.00  0.00     0.163 HD
ATOM     29  O   UNL A   1      33.870  28.949  27.659  1.00  0.00    -0.269 OA
BRANCH  27  30
ATOM     30  C   UNL A   1      36.000  29.756  28.247  1.00  0.00     0.039 A 
ATOM     31  C   UNL A   1      36.353  29.317  29.525  1.00  0.00     0.014 A 
ATOM     32  C   UNL A   1      36.987  30.013  27.292  1.00  0.00     0.014 A 
ATOM     33  C   UNL A   1      37.695  29.071  29.825  1.00  0.00     0.010 A 
ATOM     34  C   UNL A   1      38.315  29.702  27.571  1.00  0.00     0.010 A 
ATOM     35  C   UNL A   1      38.682  29.229  28.839  1.00  0.00    -0.014 A 
BRANCH  35  36
ATOM     36  C   UNL A   1      40.103  28.893  29.114  1.00  0.00     0.031 A 
ATOM     37  C   UNL A   1      41.019  29.923  29.717  1.00  0.00     0.074 A 
ATOM     38  C   UNL A   1      40.583  27.687  28.757  1.00  0.00     0.049 A 
ATOM     39  N   UNL A   1      42.301  29.843  29.965  1.00  0.00    -0.248 NA
ATOM     40  C   UNL A   1      40.423  31.225  30.060  1.00  0.00     0.031 C 
ATOM     41  C   UNL A   1      39.806  26.624  28.112  1.00  0.00     0.029 A 
ATOM     42  N   UNL A   1      41.842  27.152  28.871  1.00  0.00    -0.354 N 
ATOM     43  C   UNL A   1      42.668  31.082  30.475  1.00  0.00     0.074 A 
ATOM     44  C   UNL A   1      41.483  31.913  30.457  1.00  0.00     0.031 C 
ATOM     45  C   UNL A   1      40.601  25.562  27.904  1.00  0.00     0.029 A 
ATOM     46  C   UNL A   1      41.949  25.877  28.367  1.00  0.00     0.049 A 
ATOM     47  H   UNL A   1      42.598  27.637  29.276  1.00  0.00     0.167 HD
ATOM     48  C   UNL A   1      43.876  31.484  30.937  1.00  0.00     0.037 A 
ATOM     49  C   UNL A   1      43.014  25.057  28.279  1.00  0.00     0.037 A 
ATOM     50  C   UNL A   1      45.043  30.642  30.980  1.00  0.00     0.049 A 
ATOM     51  C   UNL A   1      44.342  25.519  28.817  1.00  0.00     0.074 A 
ATOM     52  C   UNL A   1      46.296  30.934  31.493  1.00  0.00     0.029 A 
ATOM     53  N   UNL A   1      45.104  29.344  30.493  1.00  0.00    -0.354 N 
ATOM     54  N   UNL A   1      44.654  26.671  29.361  1.00  0.00    -0.248 NA
ATOM     55  C   UNL A   1      45.459  24.567  28.740  1.00  0.00     0.031 C 
ATOM     56  C   UNL A   1      47.125  29.827  31.279  1.00  0.00     0.029 A 
ATOM     57  C   UNL A   1      46.376  28.828  30.676  1.00  0.00     0.049 A 
ATOM     58  H   UNL A   1      44.353  28.861  30.079  1.00  0.00     0.167 HD
ATOM     59  C   UNL A   1      45.996  26.574  29.711  1.00  0.00     0.074 A 
ATOM     60  C   UNL A   1      46.432  25.247  29.330  1.00  0.00     0.031 C 
ATOM     61  C   UNL A   1      46.794  27.501  30.297  1.00  0.00     0.037 A 
BRANCH  48  62
ATOM     62  C   UNL A   1      43.997  32.896  31.440  1.00  0.00     0.058 A 
ATOM     63  C   UNL A   1      43.959  33.197  32.811  1.00  0.00     0.135 A 
ATOM     64  C   UNL A   1      44.194  33.959  30.543  1.00  0.00     0.135 A 
ATOM     65  F   UNL A   1      43.757  32.221  33.711  1.00  0.00    -0.206 F 
ATOM     66  C   UNL A   1      44.084  34.502  33.274  1.00  0.00     0.059 A 
ATOM     67  C   UNL A   1      44.351  35.270  30.986  1.00  0.00     0.059 A 
ATOM     68  F   UNL A   1      44.239  33.729  29.221  1.00  0.00    -0.206 F 
ATOM     69  C   UNL A   1      44.280  35.533  32.353  1.00  0.00     0.060 A 
BRANCH  69  70
ATOM     70  S   UNL A   1      44.453  37.219  32.972  1.00  0.00     0.124 S 
ATOM     71  O   UNL A   1      43.112  37.479  33.486  1.00  0.00    -0.237 OA
ATOM     72  O   UNL A   1      45.501  37.077  33.978  1.00  0.00    -0.237 OA
ATOM     73  O   UNL A   1      44.827  37.981  31.784  1.00  0.00    -0.744 OA
ENDBRANCH  69  70
ENDBRANCH  48  62
BRANCH  49  74
ATOM     74  C   UNL A   1      42.861  23.706  27.677  1.00  0.00     0.058 A 
ATOM     75  C   UNL A   1      43.078  23.497  26.307  1.00  0.00     0.135 A 
ATOM     76  C   UNL A   1      42.518  22.594  28.462  1.00  0.00     0.135 A 
ATOM     77  F   UNL A   1      43.402  24.530  25.515  1.00  0.00    -0.206 F 
ATOM     78  C   UNL A   1      42.946  22.237  25.732  1.00  0.00     0.059 A 
ATOM     79  C   UNL A   1      42.404  21.320  27.915  1.00  0.00     0.059 A 
ATOM     80  F   UNL A   1      42.318  22.739  29.781  1.00  0.00    -0.206 F 
ATOM     81  C   UNL A   1      42.612  21.154  26.546  1.00  0.00     0.060 A 
BRANCH  81  82
ATOM     82  S   UNL A   1      42.499  19.512  25.800  1.00  0.00     0.124 S 
ATOM     83  O   UNL A   1      43.433  19.631  24.686  1.00  0.00    -0.237 OA
ATOM     84  O   UNL A   1      42.919  18.647  26.898  1.00  0.00    -0.237 OA
ATOM     85  O   UNL A   1      41.089  19.407  25.435  1.00  0.00    -0.744 OA
ENDBRANCH  81  82
ENDBRANCH  49  74
BRANCH  61  86
ATOM     86  C   UNL A   1      48.214  27.105  30.593  1.00  0.00     0.058 A 
ATOM     87  C   UNL A   1      49.252  27.347  29.681  1.00  0.00     0.135 A 
ATOM     88  C   UNL A   1      48.546  26.523  31.827  1.00  0.00     0.135 A 
ATOM     89  F   UNL A   1      48.987  27.895  28.485  1.00  0.00    -0.206 F 
ATOM     90  C   UNL A   1      50.569  27.005  29.972  1.00  0.00     0.059 A 
ATOM     91  C   UNL A   1      49.858  26.197  32.151  1.00  0.00     0.059 A 
ATOM     92  F   UNL A   1      47.590  26.280  32.739  1.00  0.00    -0.206 F 
ATOM     93  C   UNL A   1      50.862  26.432  31.212  1.00  0.00     0.060 A 
BRANCH  93  94
ATOM     94  S   UNL A   1      52.579  26.023  31.592  1.00  0.00     0.124 S 
ATOM     95  O   UNL A   1      52.451  24.659  32.095  1.00  0.00    -0.237 OA
ATOM     96  O   UNL A   1      53.230  26.161  30.293  1.00  0.00    -0.237 OA
ATOM     97  O   UNL A   1      52.956  27.024  32.585  1.00  0.00    -0.744 OA
ENDBRANCH  93  94
ENDBRANCH  61  86
ENDBRANCH  35  36
ENDBRANCH  27  30
ENDBRANCH  25  26
ENDBRANCH  24  25
ENDBRANCH   1  24
TORSDOF 18
ENDMDL
MODEL 2
REMARK VINA RESULT:      -8.6      4.782     11.759
REMARK SMILES C[C@@H](C(=O)NCCCCNC(=O)c1ccc(-c2c3nc(c(-c4c(F)cc(S(=O)(=O)[O-])cc4F)c4ccc([nH]4)c(-c4c(F)cc(S(=O)(=O)[O-])cc4F)c4nc(c(-c5c(F)cc(S(=O)(=O)[O-])cc5F)c5ccc2[nH]5)C=C4)C=C3)cc1)c1ccc(C[C@@H]2CCC[C@@H]2O)cc1F
REMARK SMILES IDX 7 1 6 2 5 3 3 4 4 5 2 7 1 8 79 9 80 10 91 11 81 12 90 13
REMARK SMILES IDX 92 14 82 15 83 16 84 17 85 18 88 19 86 20 87 21 89 22 8 24
REMARK SMILES IDX 9 25 10 26 11 27 12 29 13 30 14 31 78 32 15 33 77 34 16 35
REMARK SMILES IDX 17 36 18 37 71 38 19 39 76 40 70 41 72 42 20 43 75 44 69 45
REMARK SMILES IDX 68 46 21 48 55 49 34 50 54 51 35 52 38 53 53 54 73 55 36 56
REMARK SMILES IDX 37 57 52 59 74 60 39 61 22 62 23 63 32 64 24 65 25 66 31 67
REMARK SMILES IDX 33 68 26 69 27 70 28 71 29 72 30 73 56 74 57 75 66 76 58 77
REMARK SMILES IDX 59 78 65 79 67 80 60 81 61 82 62 83 63 84 64 85 40 86 41 87
REMARK SMILES IDX 50 88 42 89 43 90 49 91 51 92 44 93 45 94 46 95 47 96 48 97
REMARK H PARENT 5 6 89 23 10 28 72 47 38 58
REMARK Flexibility Score: inf
ROOT
ATOM      1  C   UNL A   1      38.798  22.894  26.482  1.00  0.00     0.023 C 
ENDROOT
BRANCH   1   2
ATOM      2  C   UNL A   1      37.872  21.935  25.730  1.00  0.00     0.116 C 
BRANCH   2   3
ATOM      3  N   UNL A   1      37.629  22.405  24.383  1.00  0.00    -0.356 N 
ATOM      4  C   UNL A   1      36.449  22.601  23.726  1.00  0.00     0.227 C 
ATOM      5  O   UNL A   1      36.521  22.863  22.523  1.00  0.00    -0.274 OA
ATOM      6  H   UNL A   1      38.438  22.614  23.861  1.00  0.00     0.163 HD
BRANCH   4   7
ATOM      7  C   UNL A   1      35.111  22.516  24.486  1.00  0.00     0.108 C 
ATOM      8  C   UNL A   1      34.131  21.546  23.815  1.00  0.00     0.023 C 
BRANCH   7   9
ATOM      9  C   UNL A   1      34.503  23.902  24.653  1.00  0.00    -0.000 A 
ATOM     10  C   UNL A   1      34.305  24.771  23.569  1.00  0.00     0.008 A 
ATOM     11  C   UNL A   1      34.207  24.377  25.934  1.00  0.00     0.127 A 
ATOM     12  C   UNL A   1      33.823  26.064  23.767  1.00  0.00     0.004 A 
ATOM     13  C   UNL A   1      33.754  25.678  26.140  1.00  0.00     0.043 A 
ATOM     14  F   UNL A   1      34.374  23.576  26.997  1.00  0.00    -0.207 F 
ATOM     15  C   UNL A   1      33.581  26.548  25.056  1.00  0.00    -0.045 A 
BRANCH  15  16
ATOM     16  C   UNL A   1      33.186  27.985  25.276  1.00  0.00     0.041 C 
BRANCH  16  17
ATOM     17  C   UNL A   1      33.008  28.474  26.733  1.00  0.00     0.022 C 
ATOM     18  C   UNL A   1      31.697  29.214  27.022  1.00  0.00     0.007 C 
ATOM     19  C   UNL A   1      34.064  29.438  27.283  1.00  0.00     0.117 C 
ATOM     20  C   UNL A   1      32.023  30.710  27.012  1.00  0.00     0.003 C 
ATOM     21  C   UNL A   1      33.542  30.829  26.949  1.00  0.00     0.032 C 
BRANCH  19  22
ATOM     22  O   UNL A   1      35.361  29.217  26.770  1.00  0.00    -0.393 OA
ATOM     23  H   UNL A   1      35.326  29.197  25.801  1.00  0.00     0.210 HD
ENDBRANCH  19  22
ENDBRANCH  16  17
ENDBRANCH  15  16
ENDBRANCH   7   9
ENDBRANCH   4   7
ENDBRANCH   2   3
ENDBRANCH   1   2
BRANCH   1  24
ATOM     24  C   UNL A   1      40.031  22.235  27.105  1.00  0.00     0.023 C 
BRANCH  24  25
ATOM     25  C   UNL A   1      41.243  23.145  27.264  1.00  0.00     0.116 C 
BRANCH  25  26
ATOM     26  N   UNL A   1      41.474  23.987  26.100  1.00  0.00    -0.352 N 
ATOM     27  C   UNL A   1      41.503  25.358  26.020  1.00  0.00     0.251 C 
ATOM     28  H   UNL A   1      41.632  23.508  25.254  1.00  0.00     0.163 HD
ATOM     29  O   UNL A   1      41.584  25.904  24.922  1.00  0.00    -0.269 OA
BRANCH  27  30
ATOM     30  C   UNL A   1      41.400  26.167  27.252  1.00  0.00     0.039 A 
ATOM     31  C   UNL A   1      42.433  27.054  27.563  1.00  0.00     0.014 A 
ATOM     32  C   UNL A   1      40.284  26.065  28.087  1.00  0.00     0.014 A 
ATOM     33  C   UNL A   1      42.317  27.887  28.678  1.00  0.00     0.010 A 
ATOM     34  C   UNL A   1      40.139  26.943  29.157  1.00  0.00     0.010 A 
ATOM     35  C   UNL A   1      41.153  27.863  29.463  1.00  0.00    -0.014 A 
BRANCH  35  36
ATOM     36  C   UNL A   1      40.976  28.799  30.604  1.00  0.00     0.031 A 
ATOM     37  C   UNL A   1      41.822  28.653  31.839  1.00  0.00     0.074 A 
ATOM     38  C   UNL A   1      40.007  29.733  30.553  1.00  0.00     0.049 A 
ATOM     39  N   UNL A   1      41.768  29.326  32.960  1.00  0.00    -0.248 NA
ATOM     40  C   UNL A   1      42.845  27.594  31.824  1.00  0.00     0.031 C 
ATOM     41  C   UNL A   1      39.084  29.935  29.432  1.00  0.00     0.029 A 
ATOM     42  N   UNL A   1      39.625  30.680  31.470  1.00  0.00    -0.354 N 
ATOM     43  C   UNL A   1      42.732  28.763  33.787  1.00  0.00     0.074 A 
ATOM     44  C   UNL A   1      43.325  27.663  33.057  1.00  0.00     0.031 C 
ATOM     45  C   UNL A   1      38.256  30.952  29.722  1.00  0.00     0.029 A 
ATOM     46  C   UNL A   1      38.564  31.452  31.058  1.00  0.00     0.049 A 
ATOM     47  H   UNL A   1      40.069  30.796  32.341  1.00  0.00     0.167 HD
ATOM     48  C   UNL A   1      43.105  29.142  35.033  1.00  0.00     0.037 A 
ATOM     49  C   UNL A   1      37.906  32.444  31.689  1.00  0.00     0.037 A 
ATOM     50  C   UNL A   1      42.532  30.257  35.741  1.00  0.00     0.049 A 
ATOM     51  C   UNL A   1      38.352  32.861  33.064  1.00  0.00     0.074 A 
ATOM     52  C   UNL A   1      42.888  30.764  36.979  1.00  0.00     0.029 A 
ATOM     53  N   UNL A   1      41.483  31.038  35.277  1.00  0.00    -0.354 N 
ATOM     54  N   UNL A   1      39.314  32.363  33.804  1.00  0.00    -0.248 NA
ATOM     55  C   UNL A   1      37.632  33.981  33.687  1.00  0.00     0.031 C 
ATOM     56  C   UNL A   1      42.028  31.826  37.281  1.00  0.00     0.029 A 
ATOM     57  C   UNL A   1      41.167  32.010  36.210  1.00  0.00     0.049 A 
ATOM     58  H   UNL A   1      41.030  30.917  34.411  1.00  0.00     0.167 HD
ATOM     59  C   UNL A   1      39.329  33.122  34.968  1.00  0.00     0.074 A 
ATOM     60  C   UNL A   1      38.289  34.121  34.829  1.00  0.00     0.031 C 
ATOM     61  C   UNL A   1      40.133  33.003  36.055  1.00  0.00     0.037 A 
BRANCH  48  62
ATOM     62  C   UNL A   1      44.190  28.350  35.709  1.00  0.00     0.058 A 
ATOM     63  C   UNL A   1      45.547  28.671  35.547  1.00  0.00     0.135 A 
ATOM     64  C   UNL A   1      43.868  27.281  36.561  1.00  0.00     0.135 A 
ATOM     65  F   UNL A   1      45.912  29.674  34.732  1.00  0.00    -0.206 F 
ATOM     66  C   UNL A   1      46.547  27.945  36.184  1.00  0.00     0.059 A 
ATOM     67  C   UNL A   1      44.851  26.558  37.231  1.00  0.00     0.059 A 
ATOM     68  F   UNL A   1      42.585  26.931  36.751  1.00  0.00    -0.206 F 
ATOM     69  C   UNL A   1      46.190  26.889  37.025  1.00  0.00     0.060 A 
BRANCH  69  70
ATOM     70  S   UNL A   1      47.500  25.965  37.852  1.00  0.00     0.124 S 
ATOM     71  O   UNL A   1      46.798  24.744  38.235  1.00  0.00    -0.237 OA
ATOM     72  O   UNL A   1      48.495  25.818  36.795  1.00  0.00    -0.237 OA
ATOM     73  O   UNL A   1      47.887  26.837  38.957  1.00  0.00    -0.744 OA
ENDBRANCH  69  70
ENDBRANCH  48  62
BRANCH  49  74
ATOM     74  C   UNL A   1      36.771  33.127  31.013  1.00  0.00     0.058 A 
ATOM     75  C   UNL A   1      36.993  34.020  29.954  1.00  0.00     0.135 A 
ATOM     76  C   UNL A   1      35.443  32.884  31.397  1.00  0.00     0.135 A 
ATOM     77  F   UNL A   1      38.245  34.288  29.556  1.00  0.00    -0.206 F 
ATOM     78  C   UNL A   1      35.941  34.659  29.308  1.00  0.00     0.059 A 
ATOM     79  C   UNL A   1      34.372  33.492  30.750  1.00  0.00     0.059 A 
ATOM     80  F   UNL A   1      35.177  32.024  32.392  1.00  0.00    -0.206 F 
ATOM     81  C   UNL A   1      34.632  34.386  29.711  1.00  0.00     0.060 A 
BRANCH  81  82
ATOM     82  S   UNL A   1      33.270  35.179  28.828  1.00  0.00     0.124 S 
ATOM     83  O   UNL A   1      33.970  36.216  28.079  1.00  0.00    -0.237 OA
ATOM     84  O   UNL A   1      32.732  34.074  28.040  1.00  0.00    -0.237 OA
ATOM     85  O   UNL A   1      32.403  35.651  29.904  1.00  0.00    -0.744 OA
ENDBRANCH  81  82
ENDBRANCH  49  74
BRANCH  61  86
ATOM     86  C   UNL A   1      39.944  33.996  37.168  1.00  0.00     0.058 A 
ATOM     87  C   UNL A   1      40.547  35.263  37.136  1.00  0.00     0.135 A 
ATOM     88  C   UNL A   1      39.106  33.695  38.253  1.00  0.00     0.135 A 
ATOM     89  F   UNL A   1      41.362  35.598  36.124  1.00  0.00    -0.206 F 
ATOM     90  C   UNL A   1      40.345  36.189  38.154  1.00  0.00     0.059 A 
ATOM     91  C   UNL A   1      38.868  34.614  39.269  1.00  0.00     0.059 A 
ATOM     92  F   UNL A   1      38.496  32.501  38.326  1.00  0.00    -0.206 F 
ATOM     93  C   UNL A   1      39.501  35.856  39.216  1.00  0.00     0.060 A 
BRANCH  93  94
ATOM     94  S   UNL A   1      39.220  37.077  40.515  1.00  0.00     0.124 S 
ATOM     95  O   UNL A   1      38.471  38.103  39.797  1.00  0.00    -0.237 OA
ATOM     96  O   UNL A   1      38.462  36.315  41.503  1.00  0.00    -0.237 OA
ATOM     97  O   UNL A   1      40.568  37.456  40.925  1.00  0.00    -0.744 OA
ENDBRANCH  93  94
ENDBRANCH  61  86
ENDBRANCH  35  36
ENDBRANCH  27  30
ENDBRANCH  25  26
ENDBRANCH  24  25
ENDBRANCH   1  24
TORSDOF 18
ENDMDL
MODEL 3
REMARK VINA RESULT:      -8.3      4.154      7.870
REMARK SMILES C[C@@H](C(=O)NCCCCNC(=O)c1ccc(-c2c3nc(c(-c4c(F)cc(S(=O)(=O)[O-])cc4F)c4ccc([nH]4)c(-c4c(F)cc(S(=O)(=O)[O-])cc4F)c4nc(c(-c5c(F)cc(S(=O)(=O)[O-])cc5F)c5ccc2[nH]5)C=C4)C=C3)cc1)c1ccc(C[C@@H]2CCC[C@@H]2O)cc1F
REMARK SMILES IDX 7 1 6 2 5 3 3 4 4 5 2 7 1 8 79 9 80 10 91 11 81 12 90 13
REMARK SMILES IDX 92 14 82 15 83 16 84 17 85 18 88 19 86 20 87 21 89 22 8 24
REMARK SMILES IDX 9 25 10 26 11 27 12 29 13 30 14 31 78 32 15 33 77 34 16 35
REMARK SMILES IDX 17 36 18 37 71 38 19 39 76 40 70 41 72 42 20 43 75 44 69 45
REMARK SMILES IDX 68 46 21 48 55 49 34 50 54 51 35 52 38 53 53 54 73 55 36 56
REMARK SMILES IDX 37 57 52 59 74 60 39 61 22 62 23 63 32 64 24 65 25 66 31 67
REMARK SMILES IDX 33 68 26 69 27 70 28 71 29 72 30 73 56 74 57 75 66 76 58 77
REMARK SMILES IDX 59 78 65 79 67 80 60 81 61 82 62 83 63 84 64 85 40 86 41 87
REMARK SMILES IDX 50 88 42 89 43 90 49 91 51 92 44 93 45 94 46 95 47 96 48 97
REMARK H PARENT 5 6 89 23 10 28 72 47 38 58
REMARK Flexibility Score: inf
ROOT
ATOM      1  C   UNL A   1      34.029  26.805  25.168  1.00  0.00     0.023 C 
ENDROOT
BRANCH   1   2
ATOM      2  C   UNL A   1      33.840  25.292  25.042  1.00  0.00     0.116 C 
BRANCH   2   3
ATOM      3  N   UNL A   1      32.986  24.791  26.096  1.00  0.00    -0.356 N 
ATOM      4  C   UNL A   1      31.715  24.296  26.031  1.00  0.00     0.227 C 
ATOM      5  O   UNL A   1      31.149  24.077  27.104  1.00  0.00    -0.274 OA
ATOM      6  H   UNL A   1      33.380  24.810  26.999  1.00  0.00     0.163 HD
BRANCH   4   7
ATOM      7  C   UNL A   1      31.059  24.014  24.665  1.00  0.00     0.108 C 
ATOM      8  C   UNL A   1      31.920  23.091  23.794  1.00  0.00     0.023 C 
BRANCH   7   9
ATOM      9  C   UNL A   1      30.737  25.320  23.949  1.00  0.00    -0.000 A 
ATOM     10  C   UNL A   1      31.404  25.721  22.783  1.00  0.00     0.008 A 
ATOM     11  C   UNL A   1      29.808  26.202  24.509  1.00  0.00     0.127 A 
ATOM     12  C   UNL A   1      31.142  26.961  22.200  1.00  0.00     0.004 A 
ATOM     13  C   UNL A   1      29.565  27.454  23.948  1.00  0.00     0.043 A 
ATOM     14  F   UNL A   1      29.142  25.853  25.620  1.00  0.00    -0.207 F 
ATOM     15  C   UNL A   1      30.252  27.859  22.796  1.00  0.00    -0.045 A 
BRANCH  15  16
ATOM     16  C   UNL A   1      30.070  29.246  22.237  1.00  0.00     0.041 C 
BRANCH  16  17
ATOM     17  C   UNL A   1      28.726  29.964  22.504  1.00  0.00     0.022 C 
ATOM     18  C   UNL A   1      27.940  30.374  21.253  1.00  0.00     0.007 C 
ATOM     19  C   UNL A   1      28.775  31.267  23.309  1.00  0.00     0.117 C 
ATOM     20  C   UNL A   1      28.205  31.867  21.034  1.00  0.00     0.003 C 
ATOM     21  C   UNL A   1      28.945  32.368  22.270  1.00  0.00     0.032 C 
BRANCH  19  22
ATOM     22  O   UNL A   1      29.793  31.295  24.288  1.00  0.00    -0.393 OA
ATOM     23  H   UNL A   1      29.410  31.545  25.144  1.00  0.00     0.210 HD
ENDBRANCH  19  22
ENDBRANCH  16  17
ENDBRANCH  15  16
ENDBRANCH   7   9
ENDBRANCH   4   7
ENDBRANCH   2   3
ENDBRANCH   1   2
BRANCH   1  24
ATOM     24  C   UNL A   1      32.947  27.519  25.983  1.00  0.00     0.023 C 
BRANCH  24  25
ATOM     25  C   UNL A   1      33.441  28.221  27.242  1.00  0.00     0.116 C 
BRANCH  25  26
ATOM     26  N   UNL A   1      33.437  29.671  27.120  1.00  0.00    -0.352 N 
ATOM     27  C   UNL A   1      34.378  30.574  27.548  1.00  0.00     0.251 C 
ATOM     28  H   UNL A   1      32.651  30.056  26.668  1.00  0.00     0.163 HD
ATOM     29  O   UNL A   1      34.146  31.779  27.475  1.00  0.00    -0.269 OA
BRANCH  27  30
ATOM     30  C   UNL A   1      35.649  30.091  28.127  1.00  0.00     0.039 A 
ATOM     31  C   UNL A   1      36.803  30.127  27.341  1.00  0.00     0.014 A 
ATOM     32  C   UNL A   1      35.706  29.622  29.442  1.00  0.00     0.014 A 
ATOM     33  C   UNL A   1      38.029  29.752  27.896  1.00  0.00     0.010 A 
ATOM     34  C   UNL A   1      36.938  29.315  30.013  1.00  0.00     0.010 A 
ATOM     35  C   UNL A   1      38.111  29.377  29.247  1.00  0.00    -0.014 A 
BRANCH  35  36
ATOM     36  C   UNL A   1      39.418  29.056  29.876  1.00  0.00     0.031 A 
ATOM     37  C   UNL A   1      39.939  29.897  31.009  1.00  0.00     0.074 A 
ATOM     38  C   UNL A   1      40.165  28.050  29.381  1.00  0.00     0.049 A 
ATOM     39  N   UNL A   1      41.084  29.818  31.638  1.00  0.00    -0.248 NA
ATOM     40  C   UNL A   1      39.072  30.991  31.479  1.00  0.00     0.031 C 
ATOM     41  C   UNL A   1      39.793  27.198  28.248  1.00  0.00     0.029 A 
ATOM     42  N   UNL A   1      41.399  27.580  29.756  1.00  0.00    -0.354 N 
ATOM     43  C   UNL A   1      41.083  30.855  32.561  1.00  0.00     0.074 A 
ATOM     44  C   UNL A   1      39.844  31.581  32.380  1.00  0.00     0.031 C 
ATOM     45  C   UNL A   1      40.769  26.302  28.032  1.00  0.00     0.029 A 
ATOM     46  C   UNL A   1      41.850  26.534  28.985  1.00  0.00     0.049 A 
ATOM     47  H   UNL A   1      41.913  27.957  30.506  1.00  0.00     0.167 HD
ATOM     48  C   UNL A   1      42.019  31.163  33.491  1.00  0.00     0.037 A 
ATOM     49  C   UNL A   1      43.006  25.845  29.034  1.00  0.00     0.037 A 
ATOM     50  C   UNL A   1      43.235  30.418  33.686  1.00  0.00     0.049 A 
ATOM     51  C   UNL A   1      44.022  26.192  30.089  1.00  0.00     0.074 A 
ATOM     52  C   UNL A   1      44.215  30.607  34.646  1.00  0.00     0.029 A 
ATOM     53  N   UNL A   1      43.641  29.342  32.909  1.00  0.00    -0.354 N 
ATOM     54  N   UNL A   1      43.973  27.133  31.001  1.00  0.00    -0.248 NA
ATOM     55  C   UNL A   1      45.245  25.378  30.128  1.00  0.00     0.031 C 
ATOM     56  C   UNL A   1      45.232  29.672  34.424  1.00  0.00     0.029 A 
ATOM     57  C   UNL A   1      44.863  28.869  33.355  1.00  0.00     0.049 A 
ATOM     58  H   UNL A   1      43.133  28.970  32.152  1.00  0.00     0.167 HD
ATOM     59  C   UNL A   1      45.146  27.010  31.737  1.00  0.00     0.074 A 
ATOM     60  C   UNL A   1      45.878  25.895  31.172  1.00  0.00     0.031 C 
ATOM     61  C   UNL A   1      45.577  27.753  32.787  1.00  0.00     0.037 A 
BRANCH  48  62
ATOM     62  C   UNL A   1      41.762  32.352  34.374  1.00  0.00     0.058 A 
ATOM     63  C   UNL A   1      42.263  33.626  34.061  1.00  0.00     0.135 A 
ATOM     64  C   UNL A   1      40.971  32.227  35.528  1.00  0.00     0.135 A 
ATOM     65  F   UNL A   1      43.038  33.799  32.977  1.00  0.00    -0.206 F 
ATOM     66  C   UNL A   1      42.013  34.727  34.872  1.00  0.00     0.059 A 
ATOM     67  C   UNL A   1      40.684  33.322  36.340  1.00  0.00     0.059 A 
ATOM     68  F   UNL A   1      40.466  31.033  35.876  1.00  0.00    -0.206 F 
ATOM     69  C   UNL A   1      41.222  34.565  36.010  1.00  0.00     0.060 A 
BRANCH  69  70
ATOM     70  S   UNL A   1      40.897  36.007  37.046  1.00  0.00     0.124 S 
ATOM     71  O   UNL A   1      39.731  36.583  36.385  1.00  0.00    -0.237 OA
ATOM     72  O   UNL A   1      40.652  35.405  38.353  1.00  0.00    -0.237 OA
ATOM     73  O   UNL A   1      42.127  36.786  36.939  1.00  0.00    -0.744 OA
ENDBRANCH  69  70
ENDBRANCH  48  62
BRANCH  49  74
ATOM     74  C   UNL A   1      43.253  24.743  28.068  1.00  0.00     0.058 A 
ATOM     75  C   UNL A   1      43.866  24.990  26.831  1.00  0.00     0.135 A 
ATOM     76  C   UNL A   1      42.902  23.418  28.370  1.00  0.00     0.135 A 
ATOM     77  F   UNL A   1      44.214  26.241  26.494  1.00  0.00    -0.206 F 
ATOM     78  C   UNL A   1      44.111  23.967  25.920  1.00  0.00     0.059 A 
ATOM     79  C   UNL A   1      43.159  22.373  27.487  1.00  0.00     0.059 A 
ATOM     80  F   UNL A   1      42.329  23.126  29.549  1.00  0.00    -0.206 F 
ATOM     81  C   UNL A   1      43.756  22.660  26.260  1.00  0.00     0.060 A 
BRANCH  81  82
ATOM     82  S   UNL A   1      44.129  21.331  25.095  1.00  0.00     0.124 S 
ATOM     83  O   UNL A   1      43.041  20.396  25.357  1.00  0.00    -0.237 OA
ATOM     84  O   UNL A   1      44.081  22.025  23.812  1.00  0.00    -0.237 OA
ATOM     85  O   UNL A   1      45.458  20.887  25.508  1.00  0.00    -0.744 OA
ENDBRANCH  81  82
ENDBRANCH  49  74
BRANCH  61  86
ATOM     86  C   UNL A   1      46.886  27.367  33.417  1.00  0.00     0.058 A 
ATOM     87  C   UNL A   1      46.957  26.422  34.451  1.00  0.00     0.135 A 
ATOM     88  C   UNL A   1      48.091  27.911  32.942  1.00  0.00     0.135 A 
ATOM     89  F   UNL A   1      45.834  25.876  34.945  1.00  0.00    -0.206 F 
ATOM     90  C   UNL A   1      48.174  26.046  35.010  1.00  0.00     0.059 A 
ATOM     91  C   UNL A   1      49.321  27.531  33.467  1.00  0.00     0.059 A 
ATOM     92  F   UNL A   1      48.079  28.812  31.946  1.00  0.00    -0.206 F 
ATOM     93  C   UNL A   1      49.352  26.605  34.509  1.00  0.00     0.060 A 
BRANCH  93  94
ATOM     94  S   UNL A   1      50.928  26.086  35.219  1.00  0.00     0.124 S 
ATOM     95  O   UNL A   1      51.712  25.805  34.021  1.00  0.00    -0.237 OA
ATOM     96  O   UNL A   1      51.333  27.264  35.980  1.00  0.00    -0.237 OA
ATOM     97  O   UNL A   1      50.572  24.921  36.024  1.00  0.00    -0.744 OA
ENDBRANCH  93  94
ENDBRANCH  61  86
ENDBRANCH  35  36
ENDBRANCH  27  30
ENDBRANCH  25  26
ENDBRANCH  24  25
ENDBRANCH   1  24
TORSDOF 18
ENDMDL
