MODEL 1
REMARK VINA RESULT:     -13.7      0.000      0.000
REMARK SMILES Cc1ccc([C@H](C)Nc2ccc(C(=O)NCCCCNC(=O)c3ccc(-c4c5nc(c(-c6c(F)cc(S(=O)(=O)[O-])cc6F)c6ccc([nH]6)c(-c6c(F)cc(S(=O)(=O)[O-])cc6F)c6nc(c(-c7c(F)cc(S(=O)(=O)[O-])cc7F)c7ccc4[nH]7)C=C6)C=C5)cc3)cc2Cl)cc1F
REMARK SMILES IDX 17 1 16 2 15 3 13 4 14 5 12 7 9 8 10 9 90 10 11 11 89 12
REMARK SMILES IDX 91 13 8 14 6 16 7 17 5 18 1 19 2 20 3 21 93 22 4 23 92 24
REMARK SMILES IDX 94 25 18 26 19 27 20 28 21 29 22 31 23 32 24 33 88 34 25 35
REMARK SMILES IDX 87 36 26 37 27 38 28 39 81 40 29 41 86 42 80 43 82 44 30 45
REMARK SMILES IDX 85 46 79 47 78 48 31 50 65 51 44 52 64 53 45 54 48 55 63 56
REMARK SMILES IDX 83 57 46 58 47 59 62 61 84 62 49 63 32 64 33 65 42 66 34 67
REMARK SMILES IDX 35 68 41 69 43 70 36 71 37 72 38 73 39 74 40 75 66 76 67 77
REMARK SMILES IDX 76 78 68 79 69 80 75 81 77 82 70 83 71 84 72 85 73 86 74 87
REMARK SMILES IDX 50 88 51 89 60 90 52 91 53 92 59 93 61 94 54 95 55 96 56 97
REMARK SMILES IDX 57 98 58 99
REMARK H PARENT 15 6 8 15 20 30 82 49 48 60
REMARK Flexibility Score: inf
ROOT
ATOM      1  C   UNL A   1      36.222  22.529  25.214  1.00  0.00     0.023 C 
ENDROOT
BRANCH   1   2
ATOM      2  C   UNL A   1      35.556  21.435  26.058  1.00  0.00     0.116 C 
BRANCH   2   3
ATOM      3  N   UNL A   1      34.855  20.481  25.215  1.00  0.00    -0.352 N 
ATOM      4  C   UNL A   1      33.596  20.447  24.672  1.00  0.00     0.251 C 
ATOM      5  O   UNL A   1      33.278  19.420  24.066  1.00  0.00    -0.269 OA
ATOM      6  H   UNL A   1      35.399  19.693  24.986  1.00  0.00     0.163 HD
BRANCH   4   7
ATOM      7  C   UNL A   1      32.605  21.567  24.737  1.00  0.00     0.041 A 
ATOM      8  C   UNL A   1      30.838  23.834  24.761  1.00  0.00     0.053 A 
ATOM      9  C   UNL A   1      31.788  23.638  23.742  1.00  0.00     0.028 A 
ATOM     10  C   UNL A   1      30.823  22.873  25.784  1.00  0.00     0.065 A 
ATOM     11  C   UNL A   1      32.665  22.543  23.737  1.00  0.00     0.016 A 
ATOM     12  C   UNL A   1      31.645  21.737  25.724  1.00  0.00     0.036 A 
ATOM     13  Cl  UNL A   1      29.808  22.914  27.188  1.00  0.00    -0.082 Cl
BRANCH   8  14
ATOM     14  N   UNL A   1      30.052  24.967  24.657  1.00  0.00    -0.377 N 
ATOM     15  H   UNL A   1      29.197  24.950  25.146  1.00  0.00     0.161 HD
BRANCH  14  16
ATOM     16  C   UNL A   1      30.338  26.184  23.908  1.00  0.00     0.106 C 
ATOM     17  C   UNL A   1      28.978  26.828  23.589  1.00  0.00     0.036 C 
BRANCH  16  18
ATOM     18  C   UNL A   1      31.343  27.052  24.667  1.00  0.00    -0.023 A 
ATOM     19  C   UNL A   1      34.417  28.775  27.203  1.00  0.00     0.047 C 
ATOM     20  C   UNL A   1      33.344  28.257  26.298  1.00  0.00    -0.015 A 
ATOM     21  C   UNL A   1      33.564  28.047  24.934  1.00  0.00     0.007 A 
ATOM     22  C   UNL A   1      32.106  27.909  26.825  1.00  0.00     0.126 A 
ATOM     23  C   UNL A   1      32.578  27.449  24.131  1.00  0.00     0.006 A 
ATOM     24  C   UNL A   1      31.116  27.346  26.026  1.00  0.00     0.045 A 
ATOM     25  F   UNL A   1      31.862  28.081  28.132  1.00  0.00    -0.207 F 
ENDBRANCH  16  18
ENDBRANCH  14  16
ENDBRANCH   8  14
ENDBRANCH   4   7
ENDBRANCH   2   3
ENDBRANCH   1   2
BRANCH   1  26
ATOM     26  C   UNL A   1      37.202  23.404  26.004  1.00  0.00     0.023 C 
BRANCH  26  27
ATOM     27  C   UNL A   1      38.632  23.331  25.494  1.00  0.00     0.116 C 
BRANCH  27  28
ATOM     28  N   UNL A   1      39.609  23.183  26.564  1.00  0.00    -0.352 N 
ATOM     29  C   UNL A   1      40.596  24.159  26.672  1.00  0.00     0.251 C 
ATOM     30  H   UNL A   1      39.572  22.422  27.188  1.00  0.00     0.163 HD
ATOM     31  O   UNL A   1      41.682  24.037  26.143  1.00  0.00    -0.269 OA
BRANCH  29  32
ATOM     32  C   UNL A   1      40.112  25.454  27.246  1.00  0.00     0.039 A 
ATOM     33  C   UNL A   1      39.472  25.467  28.492  1.00  0.00     0.014 A 
ATOM     34  C   UNL A   1      40.510  26.652  26.648  1.00  0.00     0.014 A 
ATOM     35  C   UNL A   1      39.343  26.670  29.193  1.00  0.00     0.010 A 
ATOM     36  C   UNL A   1      40.467  27.815  27.371  1.00  0.00     0.010 A 
ATOM     37  C   UNL A   1      39.894  27.832  28.646  1.00  0.00    -0.014 A 
BRANCH  37  38
ATOM     38  C   UNL A   1      39.993  29.122  29.316  1.00  0.00     0.031 A 
ATOM     39  C   UNL A   1      38.917  30.129  29.243  1.00  0.00     0.074 A 
ATOM     40  C   UNL A   1      41.035  29.279  30.156  1.00  0.00     0.049 A 
ATOM     41  N   UNL A   1      39.048  31.351  29.629  1.00  0.00    -0.248 NA
ATOM     42  C   UNL A   1      37.592  29.839  28.710  1.00  0.00     0.031 C 
ATOM     43  C   UNL A   1      41.245  30.260  31.208  1.00  0.00     0.029 A 
ATOM     44  N   UNL A   1      42.245  28.605  30.083  1.00  0.00    -0.354 N 
ATOM     45  C   UNL A   1      37.802  31.942  29.642  1.00  0.00     0.074 A 
ATOM     46  C   UNL A   1      36.948  30.984  28.977  1.00  0.00     0.031 C 
ATOM     47  C   UNL A   1      42.558  30.296  31.502  1.00  0.00     0.029 A 
ATOM     48  C   UNL A   1      43.248  29.472  30.517  1.00  0.00     0.049 A 
ATOM     49  H   UNL A   1      42.374  27.677  29.779  1.00  0.00     0.167 HD
ATOM     50  C   UNL A   1      37.646  33.119  30.321  1.00  0.00     0.037 A 
ATOM     51  C   UNL A   1      44.128  29.938  29.572  1.00  0.00     0.037 A 
ATOM     52  C   UNL A   1      38.946  33.598  30.809  1.00  0.00     0.049 A 
ATOM     53  C   UNL A   1      43.977  31.418  29.278  1.00  0.00     0.074 A 
ATOM     54  C   UNL A   1      39.619  33.512  32.017  1.00  0.00     0.029 A 
ATOM     55  N   UNL A   1      39.878  34.021  29.883  1.00  0.00    -0.354 N 
ATOM     56  N   UNL A   1      43.052  32.183  29.790  1.00  0.00    -0.248 NA
ATOM     57  C   UNL A   1      44.839  32.147  28.347  1.00  0.00     0.031 C 
ATOM     58  C   UNL A   1      40.993  33.820  31.776  1.00  0.00     0.029 A 
ATOM     59  C   UNL A   1      41.142  34.116  30.432  1.00  0.00     0.049 A 
ATOM     60  H   UNL A   1      39.668  34.228  28.944  1.00  0.00     0.167 HD
ATOM     61  C   UNL A   1      43.140  33.437  29.259  1.00  0.00     0.074 A 
ATOM     62  C   UNL A   1      44.287  33.373  28.370  1.00  0.00     0.031 C 
ATOM     63  C   UNL A   1      42.257  34.434  29.553  1.00  0.00     0.037 A 
BRANCH  50  64
ATOM     64  C   UNL A   1      36.334  33.776  30.730  1.00  0.00     0.058 A 
ATOM     65  C   UNL A   1      35.437  34.246  29.739  1.00  0.00     0.135 A 
ATOM     66  C   UNL A   1      35.903  34.018  32.050  1.00  0.00     0.135 A 
ATOM     67  F   UNL A   1      35.658  34.031  28.434  1.00  0.00    -0.206 F 
ATOM     68  C   UNL A   1      34.275  34.966  30.030  1.00  0.00     0.059 A 
ATOM     69  C   UNL A   1      34.761  34.764  32.368  1.00  0.00     0.059 A 
ATOM     70  F   UNL A   1      36.538  33.506  33.107  1.00  0.00    -0.206 F 
ATOM     71  C   UNL A   1      33.956  35.248  31.349  1.00  0.00     0.060 A 
BRANCH  71  72
ATOM     72  S   UNL A   1      32.487  36.228  31.706  1.00  0.00     0.124 S 
ATOM     73  O   UNL A   1      31.692  35.302  32.507  1.00  0.00    -0.237 OA
ATOM     74  O   UNL A   1      33.046  37.369  32.421  1.00  0.00    -0.237 OA
ATOM     75  O   UNL A   1      31.945  36.525  30.382  1.00  0.00    -0.744 OA
ENDBRANCH  71  72
ENDBRANCH  50  64
BRANCH  51  76
ATOM     76  C   UNL A   1      44.454  28.873  28.559  1.00  0.00     0.058 A 
ATOM     77  C   UNL A   1      43.945  29.058  27.256  1.00  0.00     0.135 A 
ATOM     78  C   UNL A   1      45.606  28.080  28.693  1.00  0.00     0.135 A 
ATOM     79  F   UNL A   1      42.838  29.795  27.066  1.00  0.00    -0.206 F 
ATOM     80  C   UNL A   1      44.659  28.659  26.128  1.00  0.00     0.059 A 
ATOM     81  C   UNL A   1      46.332  27.659  27.573  1.00  0.00     0.059 A 
ATOM     82  F   UNL A   1      46.126  27.843  29.906  1.00  0.00    -0.206 F 
ATOM     83  C   UNL A   1      45.889  28.030  26.301  1.00  0.00     0.060 A 
BRANCH  83  84
ATOM     84  S   UNL A   1      46.964  27.867  24.852  1.00  0.00     0.124 S 
ATOM     85  O   UNL A   1      48.284  28.124  25.418  1.00  0.00    -0.237 OA
ATOM     86  O   UNL A   1      46.715  26.481  24.451  1.00  0.00    -0.237 OA
ATOM     87  O   UNL A   1      46.461  28.886  23.940  1.00  0.00    -0.744 OA
ENDBRANCH  83  84
ENDBRANCH  51  76
BRANCH  63  88
ATOM     88  C   UNL A   1      42.390  35.813  28.983  1.00  0.00     0.058 A 
ATOM     89  C   UNL A   1      41.830  36.153  27.742  1.00  0.00     0.135 A 
ATOM     90  C   UNL A   1      43.169  36.802  29.616  1.00  0.00     0.135 A 
ATOM     91  F   UNL A   1      41.117  35.255  27.043  1.00  0.00    -0.206 F 
ATOM     92  C   UNL A   1      41.981  37.423  27.189  1.00  0.00     0.059 A 
ATOM     93  C   UNL A   1      43.381  38.057  29.057  1.00  0.00     0.059 A 
ATOM     94  F   UNL A   1      43.718  36.593  30.822  1.00  0.00    -0.206 F 
ATOM     95  C   UNL A   1      42.754  38.370  27.858  1.00  0.00     0.060 A 
BRANCH  95  96
ATOM     96  S   UNL A   1      42.933  40.022  27.164  1.00  0.00     0.124 S 
ATOM     97  O   UNL A   1      41.623  40.261  26.564  1.00  0.00    -0.237 OA
ATOM     98  O   UNL A   1      43.232  40.804  28.358  1.00  0.00    -0.237 OA
ATOM     99  O   UNL A   1      44.031  39.873  26.215  1.00  0.00    -0.744 OA
ENDBRANCH  95  96
ENDBRANCH  63  88
ENDBRANCH  37  38
ENDBRANCH  29  32
ENDBRANCH  27  28
ENDBRANCH  26  27
ENDBRANCH   1  26
TORSDOF 17
ENDMDL
MODEL 2
REMARK VINA RESULT:     -13.4      5.135     11.207
REMARK SMILES Cc1ccc([C@H](C)Nc2ccc(C(=O)NCCCCNC(=O)c3ccc(-c4c5nc(c(-c6c(F)cc(S(=O)(=O)[O-])cc6F)c6ccc([nH]6)c(-c6c(F)cc(S(=O)(=O)[O-])cc6F)c6nc(c(-c7c(F)cc(S(=O)(=O)[O-])cc7F)c7ccc4[nH]7)C=C6)C=C5)cc3)cc2Cl)cc1F
REMARK SMILES IDX 17 1 16 2 15 3 13 4 14 5 12 7 9 8 10 9 90 10 11 11 89 12
REMARK SMILES IDX 91 13 8 14 6 16 7 17 5 18 1 19 2 20 3 21 93 22 4 23 92 24
REMARK SMILES IDX 94 25 18 26 19 27 20 28 21 29 22 31 23 32 24 33 88 34 25 35
REMARK SMILES IDX 87 36 26 37 27 38 28 39 81 40 29 41 86 42 80 43 82 44 30 45
REMARK SMILES IDX 85 46 79 47 78 48 31 50 65 51 44 52 64 53 45 54 48 55 63 56
REMARK SMILES IDX 83 57 46 58 47 59 62 61 84 62 49 63 32 64 33 65 42 66 34 67
REMARK SMILES IDX 35 68 41 69 43 70 36 71 37 72 38 73 39 74 40 75 66 76 67 77
REMARK SMILES IDX 76 78 68 79 69 80 75 81 77 82 70 83 71 84 72 85 73 86 74 87
REMARK SMILES IDX 50 88 51 89 60 90 52 91 53 92 59 93 61 94 54 95 55 96 56 97
REMARK SMILES IDX 57 98 58 99
REMARK H PARENT 15 6 8 15 20 30 82 49 48 60
REMARK Flexibility Score: inf
ROOT
ATOM      1  C   UNL A   1      32.441  28.865  25.864  1.00  0.00     0.023 C 
ENDROOT
BRANCH   1   2
ATOM      2  C   UNL A   1      32.270  28.855  24.340  1.00  0.00     0.116 C 
BRANCH   2   3
ATOM      3  N   UNL A   1      30.887  28.604  23.972  1.00  0.00    -0.352 N 
ATOM      4  C   UNL A   1      30.136  27.463  23.845  1.00  0.00     0.251 C 
ATOM      5  O   UNL A   1      28.988  27.598  23.412  1.00  0.00    -0.269 OA
ATOM      6  H   UNL A   1      30.384  29.426  23.771  1.00  0.00     0.163 HD
BRANCH   4   7
ATOM      7  C   UNL A   1      30.596  26.089  24.217  1.00  0.00     0.041 A 
ATOM      8  C   UNL A   1      31.500  23.516  25.127  1.00  0.00     0.053 A 
ATOM      9  C   UNL A   1      30.808  24.406  25.969  1.00  0.00     0.028 A 
ATOM     10  C   UNL A   1      31.750  23.970  23.822  1.00  0.00     0.065 A 
ATOM     11  C   UNL A   1      30.382  25.670  25.535  1.00  0.00     0.016 A 
ATOM     12  C   UNL A   1      31.245  25.200  23.372  1.00  0.00     0.036 A 
ATOM     13  Cl  UNL A   1      32.640  23.108  22.610  1.00  0.00    -0.082 Cl
BRANCH   8  14
ATOM     14  N   UNL A   1      31.882  22.312  25.688  1.00  0.00    -0.377 N 
ATOM     15  H   UNL A   1      31.155  21.734  26.016  1.00  0.00     0.161 HD
BRANCH  14  16
ATOM     16  C   UNL A   1      33.235  21.796  25.854  1.00  0.00     0.106 C 
ATOM     17  C   UNL A   1      33.467  21.660  27.368  1.00  0.00     0.036 C 
BRANCH  16  18
ATOM     18  C   UNL A   1      33.427  20.530  25.017  1.00  0.00    -0.023 A 
ATOM     19  C   UNL A   1      33.951  16.534  23.402  1.00  0.00     0.047 C 
ATOM     20  C   UNL A   1      33.773  17.940  23.880  1.00  0.00    -0.015 A 
ATOM     21  C   UNL A   1      32.547  18.604  23.787  1.00  0.00     0.007 A 
ATOM     22  C   UNL A   1      34.831  18.598  24.498  1.00  0.00     0.126 A 
ATOM     23  C   UNL A   1      32.375  19.880  24.351  1.00  0.00     0.006 A 
ATOM     24  C   UNL A   1      34.673  19.874  25.029  1.00  0.00     0.045 A 
ATOM     25  F   UNL A   1      36.018  17.988  24.620  1.00  0.00    -0.207 F 
ENDBRANCH  16  18
ENDBRANCH  14  16
ENDBRANCH   8  14
ENDBRANCH   4   7
ENDBRANCH   2   3
ENDBRANCH   1   2
BRANCH   1  26
ATOM     26  C   UNL A   1      33.298  27.711  26.394  1.00  0.00     0.023 C 
BRANCH  26  27
ATOM     27  C   UNL A   1      34.764  28.070  26.572  1.00  0.00     0.116 C 
BRANCH  27  28
ATOM     28  N   UNL A   1      35.006  29.505  26.523  1.00  0.00    -0.352 N 
ATOM     29  C   UNL A   1      35.241  30.160  27.729  1.00  0.00     0.251 C 
ATOM     30  H   UNL A   1      35.005  29.994  25.668  1.00  0.00     0.163 HD
ATOM     31  O   UNL A   1      34.348  30.690  28.358  1.00  0.00    -0.269 OA
BRANCH  29  32
ATOM     32  C   UNL A   1      36.603  29.914  28.299  1.00  0.00     0.039 A 
ATOM     33  C   UNL A   1      36.735  29.247  29.524  1.00  0.00     0.014 A 
ATOM     34  C   UNL A   1      37.725  30.140  27.498  1.00  0.00     0.014 A 
ATOM     35  C   UNL A   1      37.969  28.698  29.886  1.00  0.00     0.010 A 
ATOM     36  C   UNL A   1      38.911  29.526  27.807  1.00  0.00     0.010 A 
ATOM     37  C   UNL A   1      39.039  28.797  28.993  1.00  0.00    -0.014 A 
BRANCH  37  38
ATOM     38  C   UNL A   1      40.333  28.143  29.142  1.00  0.00     0.031 A 
ATOM     39  C   UNL A   1      40.546  26.732  28.767  1.00  0.00     0.074 A 
ATOM     40  C   UNL A   1      41.370  28.940  29.467  1.00  0.00     0.049 A 
ATOM     41  N   UNL A   1      41.597  26.055  29.082  1.00  0.00    -0.248 NA
ATOM     42  C   UNL A   1      39.574  25.954  28.011  1.00  0.00     0.031 C 
ATOM     43  C   UNL A   1      42.799  28.698  29.362  1.00  0.00     0.029 A 
ATOM     44  N   UNL A   1      41.284  30.147  30.144  1.00  0.00    -0.354 N 
ATOM     45  C   UNL A   1      41.577  24.867  28.382  1.00  0.00     0.074 A 
ATOM     46  C   UNL A   1      40.254  24.819  27.801  1.00  0.00     0.031 C 
ATOM     47  C   UNL A   1      43.439  29.575  30.158  1.00  0.00     0.029 A 
ATOM     48  C   UNL A   1      42.426  30.278  30.935  1.00  0.00     0.049 A 
ATOM     49  H   UNL A   1      40.548  30.797  30.079  1.00  0.00     0.167 HD
ATOM     50  C   UNL A   1      42.732  24.139  28.299  1.00  0.00     0.037 A 
ATOM     51  C   UNL A   1      42.264  30.183  32.295  1.00  0.00     0.037 A 
ATOM     52  C   UNL A   1      43.776  24.751  29.133  1.00  0.00     0.049 A 
ATOM     53  C   UNL A   1      42.874  28.930  32.894  1.00  0.00     0.074 A 
ATOM     54  C   UNL A   1      44.831  25.613  28.888  1.00  0.00     0.029 A 
ATOM     55  N   UNL A   1      43.618  24.724  30.505  1.00  0.00    -0.354 N 
ATOM     56  N   UNL A   1      43.426  27.973  32.200  1.00  0.00    -0.248 NA
ATOM     57  C   UNL A   1      42.872  28.637  34.327  1.00  0.00     0.031 C 
ATOM     58  C   UNL A   1      45.252  26.160  30.139  1.00  0.00     0.029 A 
ATOM     59  C   UNL A   1      44.469  25.610  31.138  1.00  0.00     0.049 A 
ATOM     60  H   UNL A   1      42.975  24.145  30.975  1.00  0.00     0.167 HD
ATOM     61  C   UNL A   1      43.798  26.954  33.028  1.00  0.00     0.074 A 
ATOM     62  C   UNL A   1      43.445  27.422  34.357  1.00  0.00     0.031 C 
ATOM     63  C   UNL A   1      44.339  25.786  32.576  1.00  0.00     0.037 A 
BRANCH  50  64
ATOM     64  C   UNL A   1      43.027  22.990  27.346  1.00  0.00     0.058 A 
ATOM     65  C   UNL A   1      42.308  21.774  27.456  1.00  0.00     0.135 A 
ATOM     66  C   UNL A   1      44.012  22.979  26.337  1.00  0.00     0.135 A 
ATOM     67  F   UNL A   1      41.286  21.639  28.315  1.00  0.00    -0.206 F 
ATOM     68  C   UNL A   1      42.600  20.633  26.703  1.00  0.00     0.059 A 
ATOM     69  C   UNL A   1      44.345  21.841  25.591  1.00  0.00     0.059 A 
ATOM     70  F   UNL A   1      44.674  24.084  25.983  1.00  0.00    -0.206 F 
ATOM     71  C   UNL A   1      43.642  20.665  25.790  1.00  0.00     0.060 A 
BRANCH  71  72
ATOM     72  S   UNL A   1      44.046  19.170  24.869  1.00  0.00     0.124 S 
ATOM     73  O   UNL A   1      45.291  18.748  25.504  1.00  0.00    -0.237 OA
ATOM     74  O   UNL A   1      42.884  18.327  25.125  1.00  0.00    -0.237 OA
ATOM     75  O   UNL A   1      44.182  19.644  23.493  1.00  0.00    -0.744 OA
ENDBRANCH  71  72
ENDBRANCH  50  64
BRANCH  51  76
ATOM     76  C   UNL A   1      40.977  30.827  32.736  1.00  0.00     0.058 A 
ATOM     77  C   UNL A   1      39.906  29.961  33.046  1.00  0.00     0.135 A 
ATOM     78  C   UNL A   1      40.976  32.093  33.345  1.00  0.00     0.135 A 
ATOM     79  F   UNL A   1      39.844  28.742  32.485  1.00  0.00    -0.206 F 
ATOM     80  C   UNL A   1      39.002  30.250  34.066  1.00  0.00     0.059 A 
ATOM     81  C   UNL A   1      40.071  32.409  34.363  1.00  0.00     0.059 A 
ATOM     82  F   UNL A   1      41.951  32.973  33.073  1.00  0.00    -0.206 F 
ATOM     83  C   UNL A   1      39.145  31.445  34.769  1.00  0.00     0.060 A 
BRANCH  83  84
ATOM     84  S   UNL A   1      38.220  31.628  36.315  1.00  0.00     0.124 S 
ATOM     85  O   UNL A   1      39.201  32.264  37.188  1.00  0.00    -0.237 OA
ATOM     86  O   UNL A   1      37.108  32.483  35.898  1.00  0.00    -0.237 OA
ATOM     87  O   UNL A   1      37.864  30.258  36.663  1.00  0.00    -0.744 OA
ENDBRANCH  83  84
ENDBRANCH  51  76
BRANCH  63  88
ATOM     88  C   UNL A   1      44.769  24.692  33.505  1.00  0.00     0.058 A 
ATOM     89  C   UNL A   1      43.846  24.003  34.307  1.00  0.00     0.135 A 
ATOM     90  C   UNL A   1      46.129  24.375  33.693  1.00  0.00     0.135 A 
ATOM     91  F   UNL A   1      42.534  24.279  34.234  1.00  0.00    -0.206 F 
ATOM     92  C   UNL A   1      44.244  23.011  35.201  1.00  0.00     0.059 A 
ATOM     93  C   UNL A   1      46.554  23.429  34.618  1.00  0.00     0.059 A 
ATOM     94  F   UNL A   1      47.089  24.947  32.952  1.00  0.00    -0.206 F 
ATOM     95  C   UNL A   1      45.601  22.726  35.344  1.00  0.00     0.060 A 
BRANCH  95  96
ATOM     96  S   UNL A   1      46.122  21.427  36.476  1.00  0.00     0.124 S 
ATOM     97  O   UNL A   1      45.498  21.830  37.734  1.00  0.00    -0.237 OA
ATOM     98  O   UNL A   1      45.550  20.246  35.839  1.00  0.00    -0.237 OA
ATOM     99  O   UNL A   1      47.577  21.517  36.449  1.00  0.00    -0.744 OA
ENDBRANCH  95  96
ENDBRANCH  63  88
ENDBRANCH  37  38
ENDBRANCH  29  32
ENDBRANCH  27  28
ENDBRANCH  26  27
ENDBRANCH   1  26
TORSDOF 17
ENDMDL
MODEL 3
REMARK VINA RESULT:     -13.3      5.157     11.144
REMARK SMILES Cc1ccc([C@H](C)Nc2ccc(C(=O)NCCCCNC(=O)c3ccc(-c4c5nc(c(-c6c(F)cc(S(=O)(=O)[O-])cc6F)c6ccc([nH]6)c(-c6c(F)cc(S(=O)(=O)[O-])cc6F)c6nc(c(-c7c(F)cc(S(=O)(=O)[O-])cc7F)c7ccc4[nH]7)C=C6)C=C5)cc3)cc2Cl)cc1F
REMARK SMILES IDX 17 1 16 2 15 3 13 4 14 5 12 7 9 8 10 9 90 10 11 11 89 12
REMARK SMILES IDX 91 13 8 14 6 16 7 17 5 18 1 19 2 20 3 21 93 22 4 23 92 24
REMARK SMILES IDX 94 25 18 26 19 27 20 28 21 29 22 31 23 32 24 33 88 34 25 35
REMARK SMILES IDX 87 36 26 37 27 38 28 39 81 40 29 41 86 42 80 43 82 44 30 45
REMARK SMILES IDX 85 46 79 47 78 48 31 50 65 51 44 52 64 53 45 54 48 55 63 56
REMARK SMILES IDX 83 57 46 58 47 59 62 61 84 62 49 63 32 64 33 65 42 66 34 67
REMARK SMILES IDX 35 68 41 69 43 70 36 71 37 72 38 73 39 74 40 75 66 76 67 77
REMARK SMILES IDX 76 78 68 79 69 80 75 81 77 82 70 83 71 84 72 85 73 86 74 87
REMARK SMILES IDX 50 88 51 89 60 90 52 91 53 92 59 93 61 94 54 95 55 96 56 97
REMARK SMILES IDX 57 98 58 99
REMARK H PARENT 15 6 8 15 20 30 82 49 48 60
REMARK Flexibility Score: inf
ROOT
ATOM      1  C   UNL A   1      33.138  29.007  25.005  1.00  0.00     0.023 C 
ENDROOT
BRANCH   1   2
ATOM      2  C   UNL A   1      31.622  29.137  25.200  1.00  0.00     0.116 C 
BRANCH   2   3
ATOM      3  N   UNL A   1      30.920  28.982  23.938  1.00  0.00    -0.352 N 
ATOM      4  C   UNL A   1      30.829  27.962  23.026  1.00  0.00     0.251 C 
ATOM      5  O   UNL A   1      30.208  28.198  21.986  1.00  0.00    -0.269 OA
ATOM      6  H   UNL A   1      30.400  29.779  23.684  1.00  0.00     0.163 HD
BRANCH   4   7
ATOM      7  C   UNL A   1      31.398  26.591  23.215  1.00  0.00     0.041 A 
ATOM      8  C   UNL A   1      32.543  23.959  23.379  1.00  0.00     0.053 A 
ATOM      9  C   UNL A   1      33.004  24.918  22.458  1.00  0.00     0.028 A 
ATOM     10  C   UNL A   1      31.470  24.352  24.195  1.00  0.00     0.065 A 
ATOM     11  C   UNL A   1      32.435  26.197  22.362  1.00  0.00     0.016 A 
ATOM     12  C   UNL A   1      30.966  25.661  24.150  1.00  0.00     0.036 A 
ATOM     13  Cl  UNL A   1      30.669  23.346  25.357  1.00  0.00    -0.082 Cl
BRANCH   8  14
ATOM     14  N   UNL A   1      33.177  22.730  23.354  1.00  0.00    -0.377 N 
ATOM     15  H   UNL A   1      33.591  22.472  22.499  1.00  0.00     0.161 HD
BRANCH  14  16
ATOM     16  C   UNL A   1      33.306  21.772  24.444  1.00  0.00     0.106 C 
ATOM     17  C   UNL A   1      32.809  20.423  23.898  1.00  0.00     0.036 C 
BRANCH  16  18
ATOM     18  C   UNL A   1      34.726  21.798  25.010  1.00  0.00    -0.023 A 
ATOM     19  C   UNL A   1      38.996  21.886  25.791  1.00  0.00     0.047 C 
ATOM     20  C   UNL A   1      37.512  21.856  25.605  1.00  0.00    -0.015 A 
ATOM     21  C   UNL A   1      36.721  22.995  25.774  1.00  0.00     0.007 A 
ATOM     22  C   UNL A   1      36.893  20.683  25.187  1.00  0.00     0.126 A 
ATOM     23  C   UNL A   1      35.348  22.968  25.478  1.00  0.00     0.006 A 
ATOM     24  C   UNL A   1      35.528  20.644  24.923  1.00  0.00     0.045 A 
ATOM     25  F   UNL A   1      37.621  19.573  24.998  1.00  0.00    -0.207 F 
ENDBRANCH  16  18
ENDBRANCH  14  16
ENDBRANCH   8  14
ENDBRANCH   4   7
ENDBRANCH   2   3
ENDBRANCH   1   2
BRANCH   1  26
ATOM     26  C   UNL A   1      33.755  27.818  25.750  1.00  0.00     0.023 C 
BRANCH  26  27
ATOM     27  C   UNL A   1      34.991  28.178  26.557  1.00  0.00     0.116 C 
BRANCH  27  28
ATOM     28  N   UNL A   1      35.271  29.607  26.559  1.00  0.00    -0.352 N 
ATOM     29  C   UNL A   1      35.495  30.217  27.791  1.00  0.00     0.251 C 
ATOM     30  H   UNL A   1      35.302  30.122  25.721  1.00  0.00     0.163 HD
ATOM     31  O   UNL A   1      34.602  30.750  28.417  1.00  0.00    -0.269 OA
BRANCH  29  32
ATOM     32  C   UNL A   1      36.837  29.917  28.383  1.00  0.00     0.039 A 
ATOM     33  C   UNL A   1      36.926  29.164  29.560  1.00  0.00     0.014 A 
ATOM     34  C   UNL A   1      37.985  30.188  27.634  1.00  0.00     0.014 A 
ATOM     35  C   UNL A   1      38.144  28.578  29.920  1.00  0.00     0.010 A 
ATOM     36  C   UNL A   1      39.156  29.541  27.935  1.00  0.00     0.010 A 
ATOM     37  C   UNL A   1      39.241  28.729  29.069  1.00  0.00    -0.014 A 
BRANCH  37  38
ATOM     38  C   UNL A   1      40.524  28.052  29.210  1.00  0.00     0.031 A 
ATOM     39  C   UNL A   1      40.716  26.643  28.818  1.00  0.00     0.074 A 
ATOM     40  C   UNL A   1      41.574  28.828  29.545  1.00  0.00     0.049 A 
ATOM     41  N   UNL A   1      41.755  25.946  29.124  1.00  0.00    -0.248 NA
ATOM     42  C   UNL A   1      39.731  25.890  28.051  1.00  0.00     0.031 C 
ATOM     43  C   UNL A   1      42.999  28.566  29.437  1.00  0.00     0.029 A 
ATOM     44  N   UNL A   1      41.507  30.029  30.237  1.00  0.00    -0.354 N 
ATOM     45  C   UNL A   1      41.717  24.767  28.410  1.00  0.00     0.074 A 
ATOM     46  C   UNL A   1      40.393  24.747  27.828  1.00  0.00     0.031 C 
ATOM     47  C   UNL A   1      43.652  29.422  30.244  1.00  0.00     0.029 A 
ATOM     48  C   UNL A   1      42.651  30.132  31.030  1.00  0.00     0.049 A 
ATOM     49  H   UNL A   1      40.781  30.691  30.180  1.00  0.00     0.167 HD
ATOM     50  C   UNL A   1      42.861  24.022  28.318  1.00  0.00     0.037 A 
ATOM     51  C   UNL A   1      42.486  30.022  32.388  1.00  0.00     0.037 A 
ATOM     52  C   UNL A   1      43.913  24.607  29.159  1.00  0.00     0.049 A 
ATOM     53  C   UNL A   1      43.076  28.752  32.971  1.00  0.00     0.074 A 
ATOM     54  C   UNL A   1      44.982  25.455  28.924  1.00  0.00     0.029 A 
ATOM     55  N   UNL A   1      43.754  24.566  30.530  1.00  0.00    -0.354 N 
ATOM     56  N   UNL A   1      43.614  27.795  32.265  1.00  0.00    -0.248 NA
ATOM     57  C   UNL A   1      43.069  28.442  34.401  1.00  0.00     0.031 C 
ATOM     58  C   UNL A   1      45.411  25.980  30.182  1.00  0.00     0.029 A 
ATOM     59  C   UNL A   1      44.619  25.429  31.175  1.00  0.00     0.049 A 
ATOM     60  H   UNL A   1      43.102  23.991  30.993  1.00  0.00     0.167 HD
ATOM     61  C   UNL A   1      43.969  26.760  33.082  1.00  0.00     0.074 A 
ATOM     62  C   UNL A   1      43.624  27.218  34.416  1.00  0.00     0.031 C 
ATOM     63  C   UNL A   1      44.492  25.590  32.615  1.00  0.00     0.037 A 
BRANCH  50  64
ATOM     64  C   UNL A   1      43.138  22.880  27.350  1.00  0.00     0.058 A 
ATOM     65  C   UNL A   1      42.400  21.674  27.447  1.00  0.00     0.135 A 
ATOM     66  C   UNL A   1      44.120  22.868  26.339  1.00  0.00     0.135 A 
ATOM     67  F   UNL A   1      41.379  21.543  28.305  1.00  0.00    -0.206 F 
ATOM     68  C   UNL A   1      42.676  20.538  26.680  1.00  0.00     0.059 A 
ATOM     69  C   UNL A   1      44.437  21.734  25.580  1.00  0.00     0.059 A 
ATOM     70  F   UNL A   1      44.798  23.966  25.998  1.00  0.00    -0.206 F 
ATOM     71  C   UNL A   1      43.716  20.565  25.765  1.00  0.00     0.060 A 
BRANCH  71  72
ATOM     72  S   UNL A   1      44.098  19.076  24.825  1.00  0.00     0.124 S 
ATOM     73  O   UNL A   1      44.183  19.590  23.462  1.00  0.00    -0.237 OA
ATOM     74  O   UNL A   1      45.357  18.649  25.424  1.00  0.00    -0.237 OA
ATOM     75  O   UNL A   1      42.955  18.205  25.089  1.00  0.00    -0.744 OA
ENDBRANCH  71  72
ENDBRANCH  50  64
BRANCH  51  76
ATOM     76  C   UNL A   1      41.209  30.681  32.837  1.00  0.00     0.058 A 
ATOM     77  C   UNL A   1      40.130  29.828  33.154  1.00  0.00     0.135 A 
ATOM     78  C   UNL A   1      41.227  31.947  33.446  1.00  0.00     0.135 A 
ATOM     79  F   UNL A   1      40.051  28.610  32.592  1.00  0.00    -0.206 F 
ATOM     80  C   UNL A   1      39.236  30.127  34.179  1.00  0.00     0.059 A 
ATOM     81  C   UNL A   1      40.331  32.273  34.470  1.00  0.00     0.059 A 
ATOM     82  F   UNL A   1      42.211  32.816  33.169  1.00  0.00    -0.206 F 
ATOM     83  C   UNL A   1      39.397  31.319  34.881  1.00  0.00     0.060 A 
BRANCH  83  84
ATOM     84  S   UNL A   1      38.483  31.513  36.433  1.00  0.00     0.124 S 
ATOM     85  O   UNL A   1      38.132  30.134  36.757  1.00  0.00    -0.237 OA
ATOM     86  O   UNL A   1      39.493  32.121  37.300  1.00  0.00    -0.237 OA
ATOM     87  O   UNL A   1      37.367  32.375  36.065  1.00  0.00    -0.744 OA
ENDBRANCH  83  84
ENDBRANCH  51  76
BRANCH  63  88
ATOM     88  C   UNL A   1      44.904  24.478  33.530  1.00  0.00     0.058 A 
ATOM     89  C   UNL A   1      43.976  23.547  34.021  1.00  0.00     0.135 A 
ATOM     90  C   UNL A   1      46.220  24.376  34.022  1.00  0.00     0.135 A 
ATOM     91  F   UNL A   1      42.687  23.602  33.648  1.00  0.00    -0.206 F 
ATOM     92  C   UNL A   1      44.346  22.533  34.902  1.00  0.00     0.059 A 
ATOM     93  C   UNL A   1      46.600  23.408  34.945  1.00  0.00     0.059 A 
ATOM     94  F   UNL A   1      47.193  25.192  33.590  1.00  0.00    -0.206 F 
ATOM     95  C   UNL A   1      45.663  22.469  35.353  1.00  0.00     0.060 A 
BRANCH  95  96
ATOM     96  S   UNL A   1      46.156  21.145  36.471  1.00  0.00     0.124 S 
ATOM     97  O   UNL A   1      45.664  21.618  37.762  1.00  0.00    -0.237 OA
ATOM     98  O   UNL A   1      45.441  20.009  35.901  1.00  0.00    -0.237 OA
ATOM     99  O   UNL A   1      47.608  21.111  36.335  1.00  0.00    -0.744 OA
ENDBRANCH  95  96
ENDBRANCH  63  88
ENDBRANCH  37  38
ENDBRANCH  29  32
ENDBRANCH  27  28
ENDBRANCH  26  27
ENDBRANCH   1  26
TORSDOF 17
ENDMDL
