MODEL 1
REMARK VINA RESULT:     -12.0      0.000      0.000
REMARK SMILES NC(=O)c1ccc(C[N@H+]2CCC[C@@H](C(=O)NCCCCNC(=O)c3ccc(-c4c5nc(c(-c6c(F)cc(S(=O)(=O)[O-])cc6F)c6ccc([nH]6)c(-c6c(F)cc(S(=O)(=O)[O-])cc6F)c6nc(c(-c7c(F)cc(S(=O)(=O)[O-])cc7F)c7ccc4[nH]7)C=C6)C=C5)cc3)C2)cc1
REMARK SMILES IDX 18 1 17 2 16 3 14 4 15 5 13 7 9 8 10 9 90 10 11 12 12 13
REMARK SMILES IDX 8 14 7 15 4 16 5 17 92 18 6 19 91 20 2 21 1 22 3 25 19 26
REMARK SMILES IDX 20 27 21 28 22 29 23 31 24 32 25 33 89 34 26 35 88 36 27 37
REMARK SMILES IDX 28 38 29 39 82 40 30 41 87 42 81 43 83 44 31 45 86 46 80 47
REMARK SMILES IDX 79 48 32 50 66 51 45 52 65 53 46 54 49 55 64 56 84 57 47 58
REMARK SMILES IDX 48 59 63 61 85 62 50 63 33 64 34 65 43 66 35 67 36 68 42 69
REMARK SMILES IDX 44 70 37 71 38 72 39 73 40 74 41 75 67 76 68 77 77 78 69 79
REMARK SMILES IDX 70 80 76 81 78 82 71 83 72 84 73 85 74 86 75 87 51 88 52 89
REMARK SMILES IDX 61 90 53 91 54 92 60 93 62 94 55 95 56 96 57 97 58 98 59 99
REMARK H PARENT 16 6 9 11 1 23 1 24 21 30 83 49 49 60
REMARK Flexibility Score: inf
ROOT
ATOM      1  C   UNL A   1      33.295  29.249  24.604  1.00  0.00     0.023 C 
ENDROOT
BRANCH   1   2
ATOM      2  C   UNL A   1      33.174  28.796  23.150  1.00  0.00     0.116 C 
BRANCH   2   3
ATOM      3  N   UNL A   1      31.896  29.170  22.571  1.00  0.00    -0.356 N 
ATOM      4  C   UNL A   1      30.761  28.440  22.388  1.00  0.00     0.228 C 
ATOM      5  O   UNL A   1      29.833  28.974  21.780  1.00  0.00    -0.275 OA
ATOM      6  H   UNL A   1      31.842  30.102  22.260  1.00  0.00     0.163 HD
BRANCH   4   7
ATOM      7  C   UNL A   1      30.645  27.043  22.989  1.00  0.00     0.133 C 
ATOM      8  N   UNL A   1      31.995  24.940  23.242  1.00  0.00    -0.331 N 
ATOM      9  C   UNL A   1      31.939  25.039  24.704  1.00  0.00     0.262 C 
ATOM     10  C   UNL A   1      31.918  26.270  22.616  1.00  0.00     0.276 C 
ATOM     11  H   UNL A   1      31.170  24.421  22.944  1.00  0.00     0.348 HD
ATOM     12  C   UNL A   1      30.649  25.735  25.149  1.00  0.00     0.062 C 
ATOM     13  C   UNL A   1      30.516  27.117  24.517  1.00  0.00     0.025 C 
BRANCH   8  14
ATOM     14  C   UNL A   1      33.142  24.143  22.761  1.00  0.00     0.299 C 
BRANCH  14  15
ATOM     15  C   UNL A   1      33.270  22.727  23.295  1.00  0.00     0.006 A 
ATOM     16  C   UNL A   1      33.445  20.164  24.434  1.00  0.00     0.039 A 
ATOM     17  C   UNL A   1      34.478  21.081  24.623  1.00  0.00     0.014 A 
ATOM     18  C   UNL A   1      32.336  20.506  23.654  1.00  0.00     0.014 A 
ATOM     19  C   UNL A   1      34.407  22.338  24.024  1.00  0.00     0.010 A 
ATOM     20  C   UNL A   1      32.246  21.788  23.097  1.00  0.00     0.010 A 
BRANCH  16  21
ATOM     21  C   UNL A   1      33.544  18.852  25.107  1.00  0.00     0.248 C 
ATOM     22  N   UNL A   1      32.835  18.702  26.262  1.00  0.00    -0.366 N 
ATOM     23  H   UNL A   1      32.865  17.848  26.750  1.00  0.00     0.159 HD
ATOM     24  H   UNL A   1      32.292  19.447  26.607  1.00  0.00     0.159 HD
ATOM     25  O   UNL A   1      34.198  17.931  24.632  1.00  0.00    -0.270 OA
ENDBRANCH  16  21
ENDBRANCH  14  15
ENDBRANCH   8  14
ENDBRANCH   4   7
ENDBRANCH   2   3
ENDBRANCH   1   2
BRANCH   1  26
ATOM     26  C   UNL A   1      33.844  28.196  25.574  1.00  0.00     0.023 C 
BRANCH  26  27
ATOM     27  C   UNL A   1      33.526  28.422  27.050  1.00  0.00     0.116 C 
BRANCH  27  28
ATOM     28  N   UNL A   1      33.468  29.829  27.406  1.00  0.00    -0.352 N 
ATOM     29  C   UNL A   1      34.407  30.623  28.024  1.00  0.00     0.251 C 
ATOM     30  H   UNL A   1      32.627  30.285  27.170  1.00  0.00     0.163 HD
ATOM     31  O   UNL A   1      34.094  31.761  28.369  1.00  0.00    -0.269 OA
BRANCH  29  32
ATOM     32  C   UNL A   1      35.772  30.116  28.302  1.00  0.00     0.039 A 
ATOM     33  C   UNL A   1      36.721  30.148  27.275  1.00  0.00     0.014 A 
ATOM     34  C   UNL A   1      36.121  29.590  29.549  1.00  0.00     0.014 A 
ATOM     35  C   UNL A   1      38.030  29.720  27.519  1.00  0.00     0.010 A 
ATOM     36  C   UNL A   1      37.446  29.234  29.812  1.00  0.00     0.010 A 
ATOM     37  C   UNL A   1      38.417  29.296  28.801  1.00  0.00    -0.014 A 
BRANCH  37  38
ATOM     38  C   UNL A   1      39.830  28.929  29.098  1.00  0.00     0.031 A 
ATOM     39  C   UNL A   1      40.760  29.923  29.744  1.00  0.00     0.074 A 
ATOM     40  C   UNL A   1      40.291  27.711  28.746  1.00  0.00     0.049 A 
ATOM     41  N   UNL A   1      42.030  29.797  30.036  1.00  0.00    -0.248 NA
ATOM     42  C   UNL A   1      40.196  31.238  30.091  1.00  0.00     0.031 C 
ATOM     43  C   UNL A   1      39.506  26.670  28.078  1.00  0.00     0.029 A 
ATOM     44  N   UNL A   1      41.531  27.140  28.895  1.00  0.00    -0.354 N 
ATOM     45  C   UNL A   1      42.416  31.010  30.598  1.00  0.00     0.074 A 
ATOM     46  C   UNL A   1      41.261  31.880  30.550  1.00  0.00     0.031 C 
ATOM     47  C   UNL A   1      40.272  25.581  27.903  1.00  0.00     0.029 A 
ATOM     48  C   UNL A   1      41.616  25.858  28.402  1.00  0.00     0.049 A 
ATOM     49  H   UNL A   1      42.291  27.605  29.316  1.00  0.00     0.167 HD
ATOM     50  C   UNL A   1      43.613  31.358  31.130  1.00  0.00     0.037 A 
ATOM     51  C   UNL A   1      42.656  25.003  28.351  1.00  0.00     0.037 A 
ATOM     52  C   UNL A   1      44.758  30.486  31.186  1.00  0.00     0.049 A 
ATOM     53  C   UNL A   1      43.985  25.429  28.917  1.00  0.00     0.074 A 
ATOM     54  C   UNL A   1      46.004  30.737  31.736  1.00  0.00     0.029 A 
ATOM     55  N   UNL A   1      44.802  29.196  30.677  1.00  0.00    -0.354 N 
ATOM     56  N   UNL A   1      44.313  26.560  29.493  1.00  0.00    -0.248 NA
ATOM     57  C   UNL A   1      45.086  24.458  28.832  1.00  0.00     0.031 C 
ATOM     58  C   UNL A   1      46.815  29.619  31.516  1.00  0.00     0.029 A 
ATOM     59  C   UNL A   1      46.058  28.647  30.883  1.00  0.00     0.049 A 
ATOM     60  H   UNL A   1      44.051  28.738  30.235  1.00  0.00     0.167 HD
ATOM     61  C   UNL A   1      45.645  26.423  29.872  1.00  0.00     0.074 A 
ATOM     62  C   UNL A   1      46.058  25.094  29.472  1.00  0.00     0.031 C 
ATOM     63  C   UNL A   1      46.453  27.317  30.494  1.00  0.00     0.037 A 
BRANCH  50  64
ATOM     64  C   UNL A   1      43.746  32.742  31.711  1.00  0.00     0.058 A 
ATOM     65  C   UNL A   1      43.521  32.990  33.075  1.00  0.00     0.135 A 
ATOM     66  C   UNL A   1      44.159  33.820  30.911  1.00  0.00     0.135 A 
ATOM     67  F   UNL A   1      43.112  32.000  33.884  1.00  0.00    -0.206 F 
ATOM     68  C   UNL A   1      43.680  34.259  33.620  1.00  0.00     0.059 A 
ATOM     69  C   UNL A   1      44.353  35.093  31.442  1.00  0.00     0.059 A 
ATOM     70  F   UNL A   1      44.388  33.641  29.600  1.00  0.00    -0.206 F 
ATOM     71  C   UNL A   1      44.099  35.304  32.796  1.00  0.00     0.060 A 
BRANCH  71  72
ATOM     72  S   UNL A   1      44.318  36.940  33.528  1.00  0.00     0.124 S 
ATOM     73  O   UNL A   1      43.999  36.679  34.928  1.00  0.00    -0.237 OA
ATOM     74  O   UNL A   1      45.720  37.224  33.240  1.00  0.00    -0.237 OA
ATOM     75  O   UNL A   1      43.354  37.768  32.810  1.00  0.00    -0.744 OA
ENDBRANCH  71  72
ENDBRANCH  50  64
BRANCH  51  76
ATOM     76  C   UNL A   1      42.490  23.648  27.753  1.00  0.00     0.058 A 
ATOM     77  C   UNL A   1      42.323  22.517  28.566  1.00  0.00     0.135 A 
ATOM     78  C   UNL A   1      42.518  23.453  26.364  1.00  0.00     0.135 A 
ATOM     79  F   UNL A   1      42.294  22.648  29.901  1.00  0.00    -0.206 F 
ATOM     80  C   UNL A   1      42.224  21.238  28.027  1.00  0.00     0.059 A 
ATOM     81  C   UNL A   1      42.389  22.188  25.799  1.00  0.00     0.059 A 
ATOM     82  F   UNL A   1      42.658  24.503  25.539  1.00  0.00    -0.206 F 
ATOM     83  C   UNL A   1      42.261  21.084  26.640  1.00  0.00     0.060 A 
BRANCH  83  84
ATOM     84  S   UNL A   1      42.116  19.422  25.950  1.00  0.00     0.124 S 
ATOM     85  O   UNL A   1      42.951  19.524  24.760  1.00  0.00    -0.237 OA
ATOM     86  O   UNL A   1      42.643  18.594  27.032  1.00  0.00    -0.237 OA
ATOM     87  O   UNL A   1      40.683  19.284  25.707  1.00  0.00    -0.744 OA
ENDBRANCH  83  84
ENDBRANCH  51  76
BRANCH  63  88
ATOM     88  C   UNL A   1      47.852  26.872  30.829  1.00  0.00     0.058 A 
ATOM     89  C   UNL A   1      48.915  27.015  29.922  1.00  0.00     0.135 A 
ATOM     90  C   UNL A   1      48.141  26.332  32.093  1.00  0.00     0.135 A 
ATOM     91  F   UNL A   1      48.696  27.520  28.697  1.00  0.00    -0.206 F 
ATOM     92  C   UNL A   1      50.206  26.609  30.245  1.00  0.00     0.059 A 
ATOM     93  C   UNL A   1      49.431  25.951  32.450  1.00  0.00     0.059 A 
ATOM     94  F   UNL A   1      47.166  26.182  33.004  1.00  0.00    -0.206 F 
ATOM     95  C   UNL A   1      50.455  26.079  31.513  1.00  0.00     0.060 A 
BRANCH  95  96
ATOM     96  S   UNL A   1      52.140  25.583  31.927  1.00  0.00     0.124 S 
ATOM     97  O   UNL A   1      51.981  24.148  32.137  1.00  0.00    -0.237 OA
ATOM     98  O   UNL A   1      52.882  25.969  30.731  1.00  0.00    -0.237 OA
ATOM     99  O   UNL A   1      52.441  26.363  33.124  1.00  0.00    -0.744 OA
ENDBRANCH  95  96
ENDBRANCH  63  88
ENDBRANCH  37  38
ENDBRANCH  29  32
ENDBRANCH  27  28
ENDBRANCH  26  27
ENDBRANCH   1  26
TORSDOF 17
ENDMDL
MODEL 2
REMARK VINA RESULT:     -11.7      3.162      4.192
REMARK SMILES NC(=O)c1ccc(C[N@H+]2CCC[C@@H](C(=O)NCCCCNC(=O)c3ccc(-c4c5nc(c(-c6c(F)cc(S(=O)(=O)[O-])cc6F)c6ccc([nH]6)c(-c6c(F)cc(S(=O)(=O)[O-])cc6F)c6nc(c(-c7c(F)cc(S(=O)(=O)[O-])cc7F)c7ccc4[nH]7)C=C6)C=C5)cc3)C2)cc1
REMARK SMILES IDX 18 1 17 2 16 3 14 4 15 5 13 7 9 8 10 9 90 10 11 12 12 13
REMARK SMILES IDX 8 14 7 15 4 16 5 17 92 18 6 19 91 20 2 21 1 22 3 25 19 26
REMARK SMILES IDX 20 27 21 28 22 29 23 31 24 32 25 33 89 34 26 35 88 36 27 37
REMARK SMILES IDX 28 38 29 39 82 40 30 41 87 42 81 43 83 44 31 45 86 46 80 47
REMARK SMILES IDX 79 48 32 50 66 51 45 52 65 53 46 54 49 55 64 56 84 57 47 58
REMARK SMILES IDX 48 59 63 61 85 62 50 63 33 64 34 65 43 66 35 67 36 68 42 69
REMARK SMILES IDX 44 70 37 71 38 72 39 73 40 74 41 75 67 76 68 77 77 78 69 79
REMARK SMILES IDX 70 80 76 81 78 82 71 83 72 84 73 85 74 86 75 87 51 88 52 89
REMARK SMILES IDX 61 90 53 91 54 92 60 93 62 94 55 95 56 96 57 97 58 98 59 99
REMARK H PARENT 16 6 9 11 1 23 1 24 21 30 83 49 49 60
REMARK Flexibility Score: inf
ROOT
ATOM      1  C   UNL A   1      33.927  31.713  28.202  1.00  0.00     0.023 C 
ENDROOT
BRANCH   1   2
ATOM      2  C   UNL A   1      33.647  30.637  27.154  1.00  0.00     0.116 C 
BRANCH   2   3
ATOM      3  N   UNL A   1      32.815  29.571  27.681  1.00  0.00    -0.356 N 
ATOM      4  C   UNL A   1      32.247  28.502  27.056  1.00  0.00     0.228 C 
ATOM      5  O   UNL A   1      31.498  27.786  27.722  1.00  0.00    -0.275 OA
ATOM      6  H   UNL A   1      32.631  29.631  28.646  1.00  0.00     0.163 HD
BRANCH   4   7
ATOM      7  C   UNL A   1      32.600  28.187  25.607  1.00  0.00     0.133 C 
ATOM      8  N   UNL A   1      32.756  26.225  24.047  1.00  0.00    -0.331 N 
ATOM      9  C   UNL A   1      31.745  26.806  23.159  1.00  0.00     0.262 C 
ATOM     10  C   UNL A   1      32.557  26.662  25.438  1.00  0.00     0.276 C 
ATOM     11  H   UNL A   1      33.662  26.585  23.747  1.00  0.00     0.348 HD
ATOM     12  C   UNL A   1      31.787  28.336  23.221  1.00  0.00     0.062 C 
ATOM     13  C   UNL A   1      31.595  28.841  24.648  1.00  0.00     0.025 C 
BRANCH   8  14
ATOM     14  C   UNL A   1      32.865  24.758  23.915  1.00  0.00     0.299 C 
BRANCH  14  15
ATOM     15  C   UNL A   1      34.205  24.131  24.261  1.00  0.00     0.006 A 
ATOM     16  C   UNL A   1      36.597  22.835  24.963  1.00  0.00     0.039 A 
ATOM     17  C   UNL A   1      35.907  23.585  25.914  1.00  0.00     0.014 A 
ATOM     18  C   UNL A   1      36.118  22.751  23.651  1.00  0.00     0.014 A 
ATOM     19  C   UNL A   1      34.742  24.259  25.552  1.00  0.00     0.010 A 
ATOM     20  C   UNL A   1      34.919  23.389  23.307  1.00  0.00     0.010 A 
BRANCH  16  21
ATOM     21  C   UNL A   1      37.814  22.112  25.391  1.00  0.00     0.248 C 
ATOM     22  N   UNL A   1      37.830  20.765  25.183  1.00  0.00    -0.366 N 
ATOM     23  H   UNL A   1      38.616  20.236  25.448  1.00  0.00     0.159 HD
ATOM     24  H   UNL A   1      37.056  20.322  24.765  1.00  0.00     0.159 HD
ATOM     25  O   UNL A   1      38.775  22.699  25.873  1.00  0.00    -0.270 OA
ENDBRANCH  16  21
ENDBRANCH  14  15
ENDBRANCH   8  14
ENDBRANCH   4   7
ENDBRANCH   2   3
ENDBRANCH   1   2
BRANCH   1  26
ATOM     26  C   UNL A   1      35.229  32.496  28.005  1.00  0.00     0.023 C 
BRANCH  26  27
ATOM     27  C   UNL A   1      36.002  32.832  29.278  1.00  0.00     0.116 C 
BRANCH  27  28
ATOM     28  N   UNL A   1      35.704  31.929  30.375  1.00  0.00    -0.352 N 
ATOM     29  C   UNL A   1      36.422  30.857  30.856  1.00  0.00     0.251 C 
ATOM     30  H   UNL A   1      34.859  32.109  30.847  1.00  0.00     0.163 HD
ATOM     31  O   UNL A   1      35.912  30.128  31.705  1.00  0.00    -0.269 OA
BRANCH  29  32
ATOM     32  C   UNL A   1      37.780  30.557  30.345  1.00  0.00     0.039 A 
ATOM     33  C   UNL A   1      38.842  30.507  31.253  1.00  0.00     0.014 A 
ATOM     34  C   UNL A   1      38.025  30.346  28.985  1.00  0.00     0.014 A 
ATOM     35  C   UNL A   1      40.128  30.181  30.810  1.00  0.00     0.010 A 
ATOM     36  C   UNL A   1      39.292  29.947  28.555  1.00  0.00     0.010 A 
ATOM     37  C   UNL A   1      40.360  29.858  29.463  1.00  0.00    -0.014 A 
BRANCH  37  38
ATOM     38  C   UNL A   1      41.703  29.415  28.996  1.00  0.00     0.031 A 
ATOM     39  C   UNL A   1      42.848  30.392  28.918  1.00  0.00     0.074 A 
ATOM     40  C   UNL A   1      41.884  28.138  28.600  1.00  0.00     0.049 A 
ATOM     41  N   UNL A   1      44.072  30.198  28.495  1.00  0.00    -0.248 NA
ATOM     42  C   UNL A   1      42.579  31.772  29.355  1.00  0.00     0.031 C 
ATOM     43  C   UNL A   1      40.849  27.102  28.588  1.00  0.00     0.029 A 
ATOM     44  N   UNL A   1      43.000  27.491  28.127  1.00  0.00    -0.354 N 
ATOM     45  C   UNL A   1      44.716  31.425  28.614  1.00  0.00     0.074 A 
ATOM     46  C   UNL A   1      43.731  32.372  29.090  1.00  0.00     0.031 C 
ATOM     47  C   UNL A   1      41.384  25.947  28.160  1.00  0.00     0.029 A 
ATOM     48  C   UNL A   1      42.787  26.166  27.823  1.00  0.00     0.049 A 
ATOM     49  H   UNL A   1      43.872  27.935  28.015  1.00  0.00     0.167 HD
ATOM     50  C   UNL A   1      46.015  31.730  28.374  1.00  0.00     0.037 A 
ATOM     51  C   UNL A   1      43.622  25.234  27.324  1.00  0.00     0.037 A 
ATOM     52  C   UNL A   1      46.997  30.783  27.910  1.00  0.00     0.049 A 
ATOM     53  C   UNL A   1      45.052  25.610  27.032  1.00  0.00     0.074 A 
ATOM     54  C   UNL A   1      48.345  30.989  27.671  1.00  0.00     0.029 A 
ATOM     55  N   UNL A   1      46.741  29.452  27.615  1.00  0.00    -0.354 N 
ATOM     56  N   UNL A   1      45.654  26.762  27.203  1.00  0.00    -0.248 NA
ATOM     57  C   UNL A   1      45.918  24.555  26.486  1.00  0.00     0.031 C 
ATOM     58  C   UNL A   1      48.893  29.798  27.185  1.00  0.00     0.029 A 
ATOM     59  C   UNL A   1      47.901  28.831  27.179  1.00  0.00     0.049 A 
ATOM     60  H   UNL A   1      45.865  29.012  27.704  1.00  0.00     0.167 HD
ATOM     61  C   UNL A   1      46.977  26.560  26.821  1.00  0.00     0.074 A 
ATOM     62  C   UNL A   1      47.089  25.172  26.423  1.00  0.00     0.031 C 
ATOM     63  C   UNL A   1      48.005  27.444  26.800  1.00  0.00     0.037 A 
BRANCH  50  64
ATOM     64  C   UNL A   1      46.460  33.148  28.622  1.00  0.00     0.058 A 
ATOM     65  C   UNL A   1      46.402  34.123  27.614  1.00  0.00     0.135 A 
ATOM     66  C   UNL A   1      46.894  33.551  29.896  1.00  0.00     0.135 A 
ATOM     67  F   UNL A   1      46.008  33.791  26.373  1.00  0.00    -0.206 F 
ATOM     68  C   UNL A   1      46.778  35.441  27.851  1.00  0.00     0.059 A 
ATOM     69  C   UNL A   1      47.247  34.872  30.164  1.00  0.00     0.059 A 
ATOM     70  F   UNL A   1      46.970  32.662  30.898  1.00  0.00    -0.206 F 
ATOM     71  C   UNL A   1      47.196  35.806  29.132  1.00  0.00     0.060 A 
BRANCH  71  72
ATOM     72  S   UNL A   1      47.661  37.526  29.425  1.00  0.00     0.124 S 
ATOM     73  O   UNL A   1      48.912  37.622  28.678  1.00  0.00    -0.237 OA
ATOM     74  O   UNL A   1      46.529  38.254  28.860  1.00  0.00    -0.237 OA
ATOM     75  O   UNL A   1      47.790  37.603  30.876  1.00  0.00    -0.744 OA
ENDBRANCH  71  72
ENDBRANCH  50  64
BRANCH  51  76
ATOM     76  C   UNL A   1      43.141  23.847  27.075  1.00  0.00     0.058 A 
ATOM     77  C   UNL A   1      42.963  22.944  28.135  1.00  0.00     0.135 A 
ATOM     78  C   UNL A   1      42.872  23.386  25.777  1.00  0.00     0.135 A 
ATOM     79  F   UNL A   1      43.212  23.332  29.395  1.00  0.00    -0.206 F 
ATOM     80  C   UNL A   1      42.570  21.627  27.916  1.00  0.00     0.059 A 
ATOM     81  C   UNL A   1      42.447  22.084  25.535  1.00  0.00     0.059 A 
ATOM     82  F   UNL A   1      43.009  24.213  24.728  1.00  0.00    -0.206 F 
ATOM     83  C   UNL A   1      42.316  21.206  26.609  1.00  0.00     0.060 A 
BRANCH  83  84
ATOM     84  S   UNL A   1      41.791  19.500  26.337  1.00  0.00     0.124 S 
ATOM     85  O   UNL A   1      42.203  18.864  27.583  1.00  0.00    -0.237 OA
ATOM     86  O   UNL A   1      40.352  19.650  26.141  1.00  0.00    -0.237 OA
ATOM     87  O   UNL A   1      42.541  19.105  25.148  1.00  0.00    -0.744 OA
ENDBRANCH  83  84
ENDBRANCH  51  76
BRANCH  63  88
ATOM     88  C   UNL A   1      49.356  26.928  26.382  1.00  0.00     0.058 A 
ATOM     89  C   UNL A   1      50.185  26.216  27.264  1.00  0.00     0.135 A 
ATOM     90  C   UNL A   1      49.810  27.115  25.066  1.00  0.00     0.135 A 
ATOM     91  F   UNL A   1      49.803  26.012  28.535  1.00  0.00    -0.206 F 
ATOM     92  C   UNL A   1      51.428  25.735  26.865  1.00  0.00     0.059 A 
ATOM     93  C   UNL A   1      51.035  26.614  24.636  1.00  0.00     0.059 A 
ATOM     94  F   UNL A   1      49.055  27.779  24.177  1.00  0.00    -0.206 F 
ATOM     95  C   UNL A   1      51.844  25.937  25.548  1.00  0.00     0.060 A 
BRANCH  95  96
ATOM     96  S   UNL A   1      53.448  25.284  25.037  1.00  0.00     0.124 S 
ATOM     97  O   UNL A   1      54.361  26.061  25.869  1.00  0.00    -0.237 OA
ATOM     98  O   UNL A   1      53.331  23.869  25.376  1.00  0.00    -0.237 OA
ATOM     99  O   UNL A   1      53.496  25.578  23.608  1.00  0.00    -0.744 OA
ENDBRANCH  95  96
ENDBRANCH  63  88
ENDBRANCH  37  38
ENDBRANCH  29  32
ENDBRANCH  27  28
ENDBRANCH  26  27
ENDBRANCH   1  26
TORSDOF 17
ENDMDL
MODEL 3
REMARK VINA RESULT:     -11.5      4.351      5.629
REMARK SMILES NC(=O)c1ccc(C[N@H+]2CCC[C@@H](C(=O)NCCCCNC(=O)c3ccc(-c4c5nc(c(-c6c(F)cc(S(=O)(=O)[O-])cc6F)c6ccc([nH]6)c(-c6c(F)cc(S(=O)(=O)[O-])cc6F)c6nc(c(-c7c(F)cc(S(=O)(=O)[O-])cc7F)c7ccc4[nH]7)C=C6)C=C5)cc3)C2)cc1
REMARK SMILES IDX 18 1 17 2 16 3 14 4 15 5 13 7 9 8 10 9 90 10 11 12 12 13
REMARK SMILES IDX 8 14 7 15 4 16 5 17 92 18 6 19 91 20 2 21 1 22 3 25 19 26
REMARK SMILES IDX 20 27 21 28 22 29 23 31 24 32 25 33 89 34 26 35 88 36 27 37
REMARK SMILES IDX 28 38 29 39 82 40 30 41 87 42 81 43 83 44 31 45 86 46 80 47
REMARK SMILES IDX 79 48 32 50 66 51 45 52 65 53 46 54 49 55 64 56 84 57 47 58
REMARK SMILES IDX 48 59 63 61 85 62 50 63 33 64 34 65 43 66 35 67 36 68 42 69
REMARK SMILES IDX 44 70 37 71 38 72 39 73 40 74 41 75 67 76 68 77 77 78 69 79
REMARK SMILES IDX 70 80 76 81 78 82 71 83 72 84 73 85 74 86 75 87 51 88 52 89
REMARK SMILES IDX 61 90 53 91 54 92 60 93 62 94 55 95 56 96 57 97 58 98 59 99
REMARK H PARENT 16 6 9 11 1 23 1 24 21 30 83 49 49 60
REMARK Flexibility Score: inf
ROOT
ATOM      1  C   UNL A   1      31.593  30.807  26.071  1.00  0.00     0.023 C 
ENDROOT
BRANCH   1   2
ATOM      2  C   UNL A   1      32.537  29.854  26.802  1.00  0.00     0.116 C 
BRANCH   2   3
ATOM      3  N   UNL A   1      31.890  28.597  27.130  1.00  0.00    -0.356 N 
ATOM      4  C   UNL A   1      31.436  27.599  26.321  1.00  0.00     0.228 C 
ATOM      5  O   UNL A   1      30.833  26.666  26.852  1.00  0.00    -0.275 OA
ATOM      6  H   UNL A   1      31.758  28.440  28.092  1.00  0.00     0.163 HD
BRANCH   4   7
ATOM      7  C   UNL A   1      31.742  27.628  24.827  1.00  0.00     0.133 C 
ATOM      8  N   UNL A   1      32.786  26.193  23.050  1.00  0.00    -0.331 N 
ATOM      9  C   UNL A   1      31.531  26.159  22.292  1.00  0.00     0.262 C 
ATOM     10  C   UNL A   1      32.533  26.356  24.490  1.00  0.00     0.276 C 
ATOM     11  H   UNL A   1      33.301  27.018  22.741  1.00  0.00     0.348 HD
ATOM     12  C   UNL A   1      30.725  27.440  22.524  1.00  0.00     0.062 C 
ATOM     13  C   UNL A   1      30.445  27.661  24.007  1.00  0.00     0.025 C 
BRANCH   8  14
ATOM     14  C   UNL A   1      33.674  25.053  22.746  1.00  0.00     0.299 C 
BRANCH  14  15
ATOM     15  C   UNL A   1      33.385  23.744  23.460  1.00  0.00     0.006 A 
ATOM     16  C   UNL A   1      32.953  21.243  24.665  1.00  0.00     0.039 A 
ATOM     17  C   UNL A   1      32.176  21.633  23.575  1.00  0.00     0.014 A 
ATOM     18  C   UNL A   1      33.926  22.106  25.180  1.00  0.00     0.014 A 
ATOM     19  C   UNL A   1      32.367  22.891  23.004  1.00  0.00     0.010 A 
ATOM     20  C   UNL A   1      34.147  23.347  24.570  1.00  0.00     0.010 A 
BRANCH  16  21
ATOM     21  C   UNL A   1      32.740  19.891  25.226  1.00  0.00     0.248 C 
ATOM     22  N   UNL A   1      33.141  19.694  26.514  1.00  0.00    -0.366 N 
ATOM     23  H   UNL A   1      33.022  18.813  26.937  1.00  0.00     0.159 HD
ATOM     24  H   UNL A   1      33.549  20.433  27.021  1.00  0.00     0.159 HD
ATOM     25  O   UNL A   1      32.194  19.004  24.580  1.00  0.00    -0.270 OA
ENDBRANCH  16  21
ENDBRANCH  14  15
ENDBRANCH   8  14
ENDBRANCH   4   7
ENDBRANCH   2   3
ENDBRANCH   1   2
BRANCH   1  26
ATOM     26  C   UNL A   1      31.398  32.174  26.735  1.00  0.00     0.023 C 
BRANCH  26  27
ATOM     27  C   UNL A   1      32.664  32.841  27.268  1.00  0.00     0.116 C 
BRANCH  27  28
ATOM     28  N   UNL A   1      32.455  34.227  27.648  1.00  0.00    -0.352 N 
ATOM     29  C   UNL A   1      33.070  34.977  28.624  1.00  0.00     0.251 C 
ATOM     30  H   UNL A   1      31.768  34.703  27.128  1.00  0.00     0.163 HD
ATOM     31  O   UNL A   1      32.634  36.098  28.881  1.00  0.00    -0.269 OA
BRANCH  29  32
ATOM     32  C   UNL A   1      34.224  34.442  29.385  1.00  0.00     0.039 A 
ATOM     33  C   UNL A   1      33.988  33.831  30.620  1.00  0.00     0.014 A 
ATOM     34  C   UNL A   1      35.534  34.552  28.909  1.00  0.00     0.014 A 
ATOM     35  C   UNL A   1      35.050  33.274  31.340  1.00  0.00     0.010 A 
ATOM     36  C   UNL A   1      36.582  33.930  29.591  1.00  0.00     0.010 A 
ATOM     37  C   UNL A   1      36.352  33.282  30.815  1.00  0.00    -0.014 A 
BRANCH  37  38
ATOM     38  C   UNL A   1      37.475  32.608  31.527  1.00  0.00     0.031 A 
ATOM     39  C   UNL A   1      37.973  33.136  32.847  1.00  0.00     0.074 A 
ATOM     40  C   UNL A   1      38.076  31.541  30.962  1.00  0.00     0.049 A 
ATOM     41  N   UNL A   1      38.965  32.708  33.587  1.00  0.00    -0.248 NA
ATOM     42  C   UNL A   1      37.279  34.311  33.401  1.00  0.00     0.031 C 
ATOM     43  C   UNL A   1      37.718  30.953  29.669  1.00  0.00     0.029 A 
ATOM     44  N   UNL A   1      39.120  30.760  31.398  1.00  0.00    -0.354 N 
ATOM     45  C   UNL A   1      39.014  33.557  34.688  1.00  0.00     0.074 A 
ATOM     46  C   UNL A   1      37.992  34.561  34.489  1.00  0.00     0.031 C 
ATOM     47  C   UNL A   1      38.505  29.892  29.431  1.00  0.00     0.029 A 
ATOM     48  C   UNL A   1      39.455  29.747  30.530  1.00  0.00     0.049 A 
ATOM     49  H   UNL A   1      39.585  30.913  32.252  1.00  0.00     0.167 HD
ATOM     50  C   UNL A   1      39.818  33.490  35.777  1.00  0.00     0.037 A 
ATOM     51  C   UNL A   1      40.422  28.810  30.604  1.00  0.00     0.037 A 
ATOM     52  C   UNL A   1      40.828  32.482  35.978  1.00  0.00     0.049 A 
ATOM     53  C   UNL A   1      41.325  28.781  31.809  1.00  0.00     0.074 A 
ATOM     54  C   UNL A   1      41.669  32.311  37.064  1.00  0.00     0.029 A 
ATOM     55  N   UNL A   1      41.135  31.474  35.076  1.00  0.00    -0.354 N 
ATOM     56  N   UNL A   1      41.319  29.559  32.865  1.00  0.00    -0.248 NA
ATOM     57  C   UNL A   1      42.363  27.741  31.837  1.00  0.00     0.031 C 
ATOM     58  C   UNL A   1      42.517  31.232  36.798  1.00  0.00     0.029 A 
ATOM     59  C   UNL A   1      42.165  30.690  35.572  1.00  0.00     0.049 A 
ATOM     60  H   UNL A   1      40.688  31.334  34.210  1.00  0.00     0.167 HD
ATOM     61  C   UNL A   1      42.325  29.080  33.697  1.00  0.00     0.074 A 
ATOM     62  C   UNL A   1      42.910  27.936  33.028  1.00  0.00     0.031 C 
ATOM     63  C   UNL A   1      42.730  29.545  34.905  1.00  0.00     0.037 A 
BRANCH  50  64
ATOM     64  C   UNL A   1      39.632  34.530  36.851  1.00  0.00     0.058 A 
ATOM     65  C   UNL A   1      38.893  34.259  38.014  1.00  0.00     0.135 A 
ATOM     66  C   UNL A   1      40.245  35.789  36.746  1.00  0.00     0.135 A 
ATOM     67  F   UNL A   1      38.273  33.077  38.163  1.00  0.00    -0.206 F 
ATOM     68  C   UNL A   1      38.750  35.204  39.024  1.00  0.00     0.059 A 
ATOM     69  C   UNL A   1      40.140  36.741  37.759  1.00  0.00     0.059 A 
ATOM     70  F   UNL A   1      40.963  36.103  35.657  1.00  0.00    -0.206 F 
ATOM     71  C   UNL A   1      39.381  36.442  38.888  1.00  0.00     0.060 A 
BRANCH  71  72
ATOM     72  S   UNL A   1      39.199  37.649  40.219  1.00  0.00     0.124 S 
ATOM     73  O   UNL A   1      38.756  36.802  41.322  1.00  0.00    -0.237 OA
ATOM     74  O   UNL A   1      40.551  38.186  40.337  1.00  0.00    -0.237 OA
ATOM     75  O   UNL A   1      38.201  38.579  39.703  1.00  0.00    -0.744 OA
ENDBRANCH  71  72
ENDBRANCH  50  64
BRANCH  51  76
ATOM     76  C   UNL A   1      40.586  27.809  29.513  1.00  0.00     0.058 A 
ATOM     77  C   UNL A   1      39.739  26.694  29.424  1.00  0.00     0.135 A 
ATOM     78  C   UNL A   1      41.605  27.930  28.555  1.00  0.00     0.135 A 
ATOM     79  F   UNL A   1      38.753  26.527  30.318  1.00  0.00    -0.206 F 
ATOM     80  C   UNL A   1      39.914  25.719  28.447  1.00  0.00     0.059 A 
ATOM     81  C   UNL A   1      41.780  26.986  27.549  1.00  0.00     0.059 A 
ATOM     82  F   UNL A   1      42.433  28.987  28.583  1.00  0.00    -0.206 F 
ATOM     83  C   UNL A   1      40.941  25.874  27.514  1.00  0.00     0.060 A 
BRANCH  83  84
ATOM     84  S   UNL A   1      41.150  24.611  26.241  1.00  0.00     0.124 S 
ATOM     85  O   UNL A   1      41.550  25.415  25.092  1.00  0.00    -0.237 OA
ATOM     86  O   UNL A   1      42.188  23.761  26.819  1.00  0.00    -0.237 OA
ATOM     87  O   UNL A   1      39.827  24.000  26.154  1.00  0.00    -0.744 OA
ENDBRANCH  83  84
ENDBRANCH  51  76
BRANCH  63  88
ATOM     88  C   UNL A   1      43.824  28.787  35.610  1.00  0.00     0.058 A 
ATOM     89  C   UNL A   1      43.546  27.730  36.492  1.00  0.00     0.135 A 
ATOM     90  C   UNL A   1      45.171  29.098  35.367  1.00  0.00     0.135 A 
ATOM     91  F   UNL A   1      42.276  27.393  36.766  1.00  0.00    -0.206 F 
ATOM     92  C   UNL A   1      44.565  27.030  37.132  1.00  0.00     0.059 A 
ATOM     93  C   UNL A   1      46.207  28.390  35.969  1.00  0.00     0.059 A 
ATOM     94  F   UNL A   1      45.495  30.092  34.525  1.00  0.00    -0.206 F 
ATOM     95  C   UNL A   1      45.893  27.366  36.862  1.00  0.00     0.060 A 
BRANCH  95  96
ATOM     96  S   UNL A   1      47.204  26.432  37.678  1.00  0.00     0.124 S 
ATOM     97  O   UNL A   1      47.872  25.807  36.541  1.00  0.00    -0.237 OA
ATOM     98  O   UNL A   1      47.958  27.480  38.358  1.00  0.00    -0.237 OA
ATOM     99  O   UNL A   1      46.476  25.520  38.557  1.00  0.00    -0.744 OA
ENDBRANCH  95  96
ENDBRANCH  63  88
ENDBRANCH  37  38
ENDBRANCH  29  32
ENDBRANCH  27  28
ENDBRANCH  26  27
ENDBRANCH   1  26
TORSDOF 17
ENDMDL
