MODEL 1
REMARK VINA RESULT:     -12.9      0.000      0.000
REMARK SMILES C[C@H](C(=O)NCCCCNC(=O)c1ccc(-c2c3nc(c(-c4c(F)cc(S(=O)(=O)[O-])cc4F)c4ccc([nH]4)c(-c4c(F)cc(S(=O)(=O)[O-])cc4F)c4nc(c(-c5c(F)cc(S(=O)(=O)[O-])cc5F)c5ccc2[nH]5)C=C4)C=C3)cc1)N1C(=O)C[C@@H](N2C(=O)/C(=C/c3ccccc3)SC2=S)C1=O
REMARK SMILES IDX 7 1 6 2 5 3 3 4 4 5 2 7 1 8 79 9 80 10 98 11 81 12 82 13
REMARK SMILES IDX 83 14 99 15 84 16 85 17 96 18 86 19 87 20 95 21 97 22 88 23
REMARK SMILES IDX 89 24 90 25 94 26 91 27 93 28 92 29 8 30 9 31 10 32 11 33
REMARK SMILES IDX 12 35 13 36 14 37 78 38 15 39 77 40 16 41 17 42 18 43 71 44
REMARK SMILES IDX 19 45 76 46 70 47 72 48 20 49 75 50 69 51 68 52 21 54 55 55
REMARK SMILES IDX 34 56 54 57 35 58 38 59 53 60 73 61 36 62 37 63 52 65 74 66
REMARK SMILES IDX 39 67 22 68 23 69 32 70 24 71 25 72 31 73 33 74 26 75 27 76
REMARK SMILES IDX 28 77 29 78 30 79 56 80 57 81 66 82 58 83 59 84 65 85 67 86
REMARK SMILES IDX 60 87 61 88 62 89 63 90 64 91 40 92 41 93 50 94 42 95 43 96
REMARK SMILES IDX 49 97 51 98 44 99 45 100 46 101 47 102 48 103
REMARK H PARENT 5 6 10 34 72 53 38 64
REMARK Flexibility Score: inf
ROOT
ATOM      1  C   UNL A   1      31.858  29.297  25.528  1.00  0.00     0.023 C 
ENDROOT
BRANCH   1   2
ATOM      2  C   UNL A   1      31.484  29.135  24.059  1.00  0.00     0.116 C 
BRANCH   2   3
ATOM      3  N   UNL A   1      32.580  28.785  23.183  1.00  0.00    -0.354 N 
ATOM      4  C   UNL A   1      32.784  27.671  22.424  1.00  0.00     0.243 C 
ATOM      5  O   UNL A   1      33.715  27.727  21.609  1.00  0.00    -0.273 OA
ATOM      6  H   UNL A   1      33.295  29.461  23.126  1.00  0.00     0.163 HD
BRANCH   4   7
ATOM      7  C   UNL A   1      32.112  26.306  22.703  1.00  0.00     0.179 C 
ATOM      8  C   UNL A   1      32.480  25.429  21.489  1.00  0.00     0.042 C 
BRANCH   7   9
ATOM      9  N   UNL A   1      32.354  25.595  23.965  1.00  0.00    -0.268 N 
ATOM     10  C   UNL A   1      31.366  25.440  24.905  1.00  0.00     0.232 C 
ATOM     11  C   UNL A   1      33.574  25.389  24.543  1.00  0.00     0.253 C 
ATOM     12  O   UNL A   1      30.221  25.862  24.853  1.00  0.00    -0.274 OA
ATOM     13  C   UNL A   1      31.925  24.795  26.141  1.00  0.00     0.136 C 
ATOM     14  C   UNL A   1      33.377  24.541  25.786  1.00  0.00     0.191 C 
ATOM     15  O   UNL A   1      34.667  25.731  24.120  1.00  0.00    -0.272 OA
BRANCH  14  16
ATOM     16  N   UNL A   1      33.739  23.129  25.528  1.00  0.00    -0.280 N 
ATOM     17  C   UNL A   1      32.758  22.207  25.201  1.00  0.00     0.266 C 
ATOM     18  C   UNL A   1      35.031  22.637  25.561  1.00  0.00     0.149 C 
ATOM     19  O   UNL A   1      31.568  22.450  25.063  1.00  0.00    -0.268 OA
ATOM     20  C   UNL A   1      33.327  20.848  25.046  1.00  0.00     0.081 C 
ATOM     21  S   UNL A   1      35.026  20.903  25.243  1.00  0.00    -0.054 SA
ATOM     22  S   UNL A   1      36.441  23.459  25.899  1.00  0.00    -0.052 S 
ATOM     23  C   UNL A   1      32.537  19.792  24.813  1.00  0.00     0.029 C 
BRANCH  23  24
ATOM     24  C   UNL A   1      32.945  18.385  24.760  1.00  0.00    -0.024 A 
ATOM     25  C   UNL A   1      33.638  17.899  23.645  1.00  0.00     0.008 A 
ATOM     26  C   UNL A   1      32.570  17.497  25.775  1.00  0.00     0.008 A 
ATOM     27  C   UNL A   1      33.965  16.543  23.560  1.00  0.00     0.001 A 
ATOM     28  C   UNL A   1      32.897  16.143  25.687  1.00  0.00     0.001 A 
ATOM     29  C   UNL A   1      33.593  15.667  24.579  1.00  0.00     0.000 A 
ENDBRANCH  23  24
ENDBRANCH  14  16
ENDBRANCH   7   9
ENDBRANCH   4   7
ENDBRANCH   2   3
ENDBRANCH   1   2
BRANCH   1  30
ATOM     30  C   UNL A   1      33.230  28.769  25.939  1.00  0.00     0.023 C 
BRANCH  30  31
ATOM     31  C   UNL A   1      33.554  28.823  27.429  1.00  0.00     0.116 C 
BRANCH  31  32
ATOM     32  N   UNL A   1      33.597  30.177  27.960  1.00  0.00    -0.352 N 
ATOM     33  C   UNL A   1      34.629  30.846  28.578  1.00  0.00     0.251 C 
ATOM     34  H   UNL A   1      32.763  30.692  27.862  1.00  0.00     0.163 HD
ATOM     35  O   UNL A   1      34.431  31.952  29.073  1.00  0.00    -0.269 OA
BRANCH  33  36
ATOM     36  C   UNL A   1      35.966  30.218  28.685  1.00  0.00     0.039 A 
ATOM     37  C   UNL A   1      36.783  30.162  27.552  1.00  0.00     0.014 A 
ATOM     38  C   UNL A   1      36.426  29.710  29.903  1.00  0.00     0.014 A 
ATOM     39  C   UNL A   1      38.097  29.694  27.663  1.00  0.00     0.010 A 
ATOM     40  C   UNL A   1      37.754  29.313  30.027  1.00  0.00     0.010 A 
ATOM     41  C   UNL A   1      38.610  29.318  28.914  1.00  0.00    -0.014 A 
BRANCH  41  42
ATOM     42  C   UNL A   1      40.041  28.965  29.108  1.00  0.00     0.031 A 
ATOM     43  C   UNL A   1      41.033  30.025  29.495  1.00  0.00     0.074 A 
ATOM     44  C   UNL A   1      40.471  27.724  28.803  1.00  0.00     0.049 A 
ATOM     45  N   UNL A   1      42.340  29.967  29.519  1.00  0.00    -0.248 NA
ATOM     46  C   UNL A   1      40.480  31.336  29.867  1.00  0.00     0.031 C 
ATOM     47  C   UNL A   1      39.619  26.617  28.365  1.00  0.00     0.029 A 
ATOM     48  N   UNL A   1      41.739  27.196  28.776  1.00  0.00    -0.354 N 
ATOM     49  C   UNL A   1      42.768  31.243  29.866  1.00  0.00     0.074 A 
ATOM     50  C   UNL A   1      41.581  32.057  30.020  1.00  0.00     0.031 C 
ATOM     51  C   UNL A   1      40.387  25.547  28.103  1.00  0.00     0.029 A 
ATOM     52  C   UNL A   1      41.787  25.903  28.314  1.00  0.00     0.049 A 
ATOM     53  H   UNL A   1      42.537  27.698  29.061  1.00  0.00     0.167 HD
ATOM     54  C   UNL A   1      44.034  31.692  30.045  1.00  0.00     0.037 A 
ATOM     55  C   UNL A   1      42.838  25.098  28.058  1.00  0.00     0.037 A 
ATOM     56  C   UNL A   1      45.208  30.869  29.930  1.00  0.00     0.049 A 
ATOM     57  C   UNL A   1      44.232  25.599  28.305  1.00  0.00     0.074 A 
ATOM     58  C   UNL A   1      46.527  31.210  30.176  1.00  0.00     0.029 A 
ATOM     59  N   UNL A   1      45.208  29.540  29.533  1.00  0.00    -0.354 N 
ATOM     60  N   UNL A   1      44.617  26.790  28.697  1.00  0.00    -0.248 NA
ATOM     61  C   UNL A   1      45.333  24.652  28.082  1.00  0.00     0.031 C 
ATOM     62  C   UNL A   1      47.326  30.096  29.898  1.00  0.00     0.029 A 
ATOM     63  C   UNL A   1      46.503  29.051  29.513  1.00  0.00     0.049 A 
ATOM     64  H   UNL A   1      44.404  29.021  29.300  1.00  0.00     0.167 HD
ATOM     65  C   UNL A   1      46.003  26.731  28.785  1.00  0.00     0.074 A 
ATOM     66  C   UNL A   1      46.389  25.386  28.411  1.00  0.00     0.031 C 
ATOM     67  C   UNL A   1      46.873  27.705  29.148  1.00  0.00     0.037 A 
BRANCH  54  68
ATOM     68  C   UNL A   1      44.203  33.148  30.373  1.00  0.00     0.058 A 
ATOM     69  C   UNL A   1      44.177  33.617  31.697  1.00  0.00     0.135 A 
ATOM     70  C   UNL A   1      44.383  34.091  29.348  1.00  0.00     0.135 A 
ATOM     71  F   UNL A   1      43.996  32.758  32.713  1.00  0.00    -0.206 F 
ATOM     72  C   UNL A   1      44.270  34.973  31.989  1.00  0.00     0.059 A 
ATOM     73  C   UNL A   1      44.505  35.451  29.619  1.00  0.00     0.059 A 
ATOM     74  F   UNL A   1      44.421  33.696  28.065  1.00  0.00    -0.206 F 
ATOM     75  C   UNL A   1      44.421  35.884  30.941  1.00  0.00     0.060 A 
BRANCH  75  76
ATOM     76  S   UNL A   1      44.498  37.646  31.327  1.00  0.00     0.124 S 
ATOM     77  O   UNL A   1      43.747  38.217  30.213  1.00  0.00    -0.237 OA
ATOM     78  O   UNL A   1      43.846  37.714  32.631  1.00  0.00    -0.237 OA
ATOM     79  O   UNL A   1      45.930  37.928  31.331  1.00  0.00    -0.744 OA
ENDBRANCH  75  76
ENDBRANCH  54  68
BRANCH  55  80
ATOM     80  C   UNL A   1      42.591  23.726  27.543  1.00  0.00     0.058 A 
ATOM     81  C   UNL A   1      42.660  23.451  26.171  1.00  0.00     0.135 A 
ATOM     82  C   UNL A   1      42.356  22.654  28.417  1.00  0.00     0.135 A 
ATOM     83  F   UNL A   1      42.876  24.447  25.297  1.00  0.00    -0.206 F 
ATOM     84  C   UNL A   1      42.515  22.157  25.680  1.00  0.00     0.059 A 
ATOM     85  C   UNL A   1      42.226  21.349  27.952  1.00  0.00     0.059 A 
ATOM     86  F   UNL A   1      42.298  22.866  29.741  1.00  0.00    -0.206 F 
ATOM     87  C   UNL A   1      42.308  21.111  26.581  1.00  0.00     0.060 A 
BRANCH  87  88
ATOM     88  S   UNL A   1      42.228  19.421  25.944  1.00  0.00     0.124 S 
ATOM     89  O   UNL A   1      40.800  19.273  25.686  1.00  0.00    -0.237 OA
ATOM     90  O   UNL A   1      43.086  19.495  24.766  1.00  0.00    -0.237 OA
ATOM     91  O   UNL A   1      42.759  18.624  27.046  1.00  0.00    -0.744 OA
ENDBRANCH  87  88
ENDBRANCH  55  80
BRANCH  67  92
ATOM     92  C   UNL A   1      48.333  27.354  29.191  1.00  0.00     0.058 A 
ATOM     93  C   UNL A   1      49.183  27.613  28.107  1.00  0.00     0.135 A 
ATOM     94  C   UNL A   1      48.902  26.837  30.366  1.00  0.00     0.135 A 
ATOM     95  F   UNL A   1      48.685  28.100  26.959  1.00  0.00    -0.206 F 
ATOM     96  C   UNL A   1      50.551  27.368  28.183  1.00  0.00     0.059 A 
ATOM     97  C   UNL A   1      50.270  26.601  30.471  1.00  0.00     0.059 A 
ATOM     98  F   UNL A   1      48.132  26.578  31.434  1.00  0.00    -0.206 F 
ATOM     99  C   UNL A   1      51.086  26.868  29.372  1.00  0.00     0.060 A 
BRANCH  99 100
ATOM    100  S   UNL A   1      52.871  26.620  29.485  1.00  0.00     0.124 S 
ATOM    101  O   UNL A   1      53.142  25.871  28.262  1.00  0.00    -0.237 OA
ATOM    102  O   UNL A   1      53.379  27.988  29.517  1.00  0.00    -0.237 OA
ATOM    103  O   UNL A   1      53.030  25.872  30.729  1.00  0.00    -0.744 OA
ENDBRANCH  99 100
ENDBRANCH  67  92
ENDBRANCH  41  42
ENDBRANCH  33  36
ENDBRANCH  31  32
ENDBRANCH  30  31
ENDBRANCH   1  30
TORSDOF 17
ENDMDL
MODEL 2
REMARK VINA RESULT:     -12.8      5.147     11.016
REMARK SMILES C[C@H](C(=O)NCCCCNC(=O)c1ccc(-c2c3nc(c(-c4c(F)cc(S(=O)(=O)[O-])cc4F)c4ccc([nH]4)c(-c4c(F)cc(S(=O)(=O)[O-])cc4F)c4nc(c(-c5c(F)cc(S(=O)(=O)[O-])cc5F)c5ccc2[nH]5)C=C4)C=C3)cc1)N1C(=O)C[C@@H](N2C(=O)/C(=C/c3ccccc3)SC2=S)C1=O
REMARK SMILES IDX 7 1 6 2 5 3 3 4 4 5 2 7 1 8 79 9 80 10 98 11 81 12 82 13
REMARK SMILES IDX 83 14 99 15 84 16 85 17 96 18 86 19 87 20 95 21 97 22 88 23
REMARK SMILES IDX 89 24 90 25 94 26 91 27 93 28 92 29 8 30 9 31 10 32 11 33
REMARK SMILES IDX 12 35 13 36 14 37 78 38 15 39 77 40 16 41 17 42 18 43 71 44
REMARK SMILES IDX 19 45 76 46 70 47 72 48 20 49 75 50 69 51 68 52 21 54 55 55
REMARK SMILES IDX 34 56 54 57 35 58 38 59 53 60 73 61 36 62 37 63 52 65 74 66
REMARK SMILES IDX 39 67 22 68 23 69 32 70 24 71 25 72 31 73 33 74 26 75 27 76
REMARK SMILES IDX 28 77 29 78 30 79 56 80 57 81 66 82 58 83 59 84 65 85 67 86
REMARK SMILES IDX 60 87 61 88 62 89 63 90 64 91 40 92 41 93 50 94 42 95 43 96
REMARK SMILES IDX 49 97 51 98 44 99 45 100 46 101 47 102 48 103
REMARK H PARENT 5 6 10 34 72 53 38 64
REMARK Flexibility Score: inf
ROOT
ATOM      1  C   UNL A   1      37.787  21.789  25.016  1.00  0.00     0.023 C 
ENDROOT
BRANCH   1   2
ATOM      2  C   UNL A   1      36.667  20.765  25.162  1.00  0.00     0.116 C 
BRANCH   2   3
ATOM      3  N   UNL A   1      35.660  21.096  26.147  1.00  0.00    -0.354 N 
ATOM      4  C   UNL A   1      34.301  21.099  26.054  1.00  0.00     0.243 C 
ATOM      5  O   UNL A   1      33.680  21.228  27.118  1.00  0.00    -0.273 OA
ATOM      6  H   UNL A   1      36.015  21.363  27.026  1.00  0.00     0.163 HD
BRANCH   4   7
ATOM      7  C   UNL A   1      33.530  21.212  24.717  1.00  0.00     0.179 C 
ATOM      8  C   UNL A   1      32.773  19.876  24.582  1.00  0.00     0.042 C 
BRANCH   7   9
ATOM      9  N   UNL A   1      32.643  22.355  24.458  1.00  0.00    -0.268 N 
ATOM     10  C   UNL A   1      31.409  22.456  25.048  1.00  0.00     0.232 C 
ATOM     11  C   UNL A   1      32.702  23.180  23.372  1.00  0.00     0.253 C 
ATOM     12  O   UNL A   1      30.881  21.655  25.805  1.00  0.00    -0.274 OA
ATOM     13  C   UNL A   1      30.673  23.648  24.506  1.00  0.00     0.136 C 
ATOM     14  C   UNL A   1      31.665  24.273  23.545  1.00  0.00     0.191 C 
ATOM     15  O   UNL A   1      33.495  23.135  22.444  1.00  0.00    -0.272 OA
BRANCH  14  16
ATOM     16  N   UNL A   1      32.293  25.534  23.999  1.00  0.00    -0.280 N 
ATOM     17  C   UNL A   1      32.372  25.825  25.350  1.00  0.00     0.266 C 
ATOM     18  C   UNL A   1      32.855  26.473  23.154  1.00  0.00     0.149 C 
ATOM     19  O   UNL A   1      31.990  25.103  26.260  1.00  0.00    -0.268 OA
ATOM     20  C   UNL A   1      32.980  27.157  25.579  1.00  0.00     0.081 C 
ATOM     21  S   UNL A   1      33.454  27.845  24.086  1.00  0.00    -0.054 SA
ATOM     22  S   UNL A   1      32.951  26.439  21.490  1.00  0.00    -0.052 S 
ATOM     23  C   UNL A   1      33.072  27.671  26.813  1.00  0.00     0.029 C 
BRANCH  23  24
ATOM     24  C   UNL A   1      33.534  29.014  27.173  1.00  0.00    -0.024 A 
ATOM     25  C   UNL A   1      32.634  30.086  27.176  1.00  0.00     0.008 A 
ATOM     26  C   UNL A   1      34.889  29.255  27.426  1.00  0.00     0.008 A 
ATOM     27  C   UNL A   1      33.086  31.380  27.449  1.00  0.00     0.001 A 
ATOM     28  C   UNL A   1      35.338  30.549  27.697  1.00  0.00     0.001 A 
ATOM     29  C   UNL A   1      34.437  31.610  27.708  1.00  0.00     0.000 A 
ENDBRANCH  23  24
ENDBRANCH  14  16
ENDBRANCH   7   9
ENDBRANCH   4   7
ENDBRANCH   2   3
ENDBRANCH   1   2
BRANCH   1  30
ATOM     30  C   UNL A   1      37.404  23.248  25.246  1.00  0.00     0.023 C 
BRANCH  30  31
ATOM     31  C   UNL A   1      38.268  24.022  26.238  1.00  0.00     0.116 C 
BRANCH  31  32
ATOM     32  N   UNL A   1      39.679  23.673  26.168  1.00  0.00    -0.352 N 
ATOM     33  C   UNL A   1      40.772  24.323  26.695  1.00  0.00     0.251 C 
ATOM     34  H   UNL A   1      39.882  22.847  25.672  1.00  0.00     0.163 HD
ATOM     35  O   UNL A   1      41.905  23.935  26.421  1.00  0.00    -0.269 OA
BRANCH  33  36
ATOM     36  C   UNL A   1      40.588  25.515  27.555  1.00  0.00     0.039 A 
ATOM     37  C   UNL A   1      39.599  25.492  28.543  1.00  0.00     0.014 A 
ATOM     38  C   UNL A   1      41.402  26.640  27.408  1.00  0.00     0.014 A 
ATOM     39  C   UNL A   1      39.497  26.552  29.450  1.00  0.00     0.010 A 
ATOM     40  C   UNL A   1      41.348  27.659  28.354  1.00  0.00     0.010 A 
ATOM     41  C   UNL A   1      40.408  27.619  29.397  1.00  0.00    -0.014 A 
BRANCH  41  42
ATOM     42  C   UNL A   1      40.438  28.685  30.432  1.00  0.00     0.031 A 
ATOM     43  C   UNL A   1      41.330  28.546  31.633  1.00  0.00     0.074 A 
ATOM     44  C   UNL A   1      39.565  29.710  30.361  1.00  0.00     0.049 A 
ATOM     45  N   UNL A   1      41.358  29.256  32.730  1.00  0.00    -0.248 NA
ATOM     46  C   UNL A   1      42.294  27.435  31.607  1.00  0.00     0.031 C 
ATOM     47  C   UNL A   1      38.608  29.933  29.276  1.00  0.00     0.029 A 
ATOM     48  N   UNL A   1      39.311  30.734  31.242  1.00  0.00    -0.354 N 
ATOM     49  C   UNL A   1      42.309  28.654  33.545  1.00  0.00     0.074 A 
ATOM     50  C   UNL A   1      42.818  27.508  32.822  1.00  0.00     0.031 C 
ATOM     51  C   UNL A   1      37.866  31.017  29.559  1.00  0.00     0.029 A 
ATOM     52  C   UNL A   1      38.265  31.540  30.862  1.00  0.00     0.049 A 
ATOM     53  H   UNL A   1      39.830  30.876  32.066  1.00  0.00     0.167 HD
ATOM     54  C   UNL A   1      42.723  29.026  34.781  1.00  0.00     0.037 A 
ATOM     55  C   UNL A   1      37.669  32.568  31.499  1.00  0.00     0.037 A 
ATOM     56  C   UNL A   1      42.244  30.189  35.479  1.00  0.00     0.049 A 
ATOM     57  C   UNL A   1      38.172  32.993  32.849  1.00  0.00     0.074 A 
ATOM     58  C   UNL A   1      42.664  30.696  36.697  1.00  0.00     0.029 A 
ATOM     59  N   UNL A   1      41.234  31.024  35.025  1.00  0.00    -0.354 N 
ATOM     60  N   UNL A   1      39.118  32.453  33.579  1.00  0.00    -0.248 NA
ATOM     61  C   UNL A   1      37.535  34.168  33.461  1.00  0.00     0.031 C 
ATOM     62  C   UNL A   1      41.887  31.822  36.992  1.00  0.00     0.029 A 
ATOM     63  C   UNL A   1      41.007  32.036  35.943  1.00  0.00     0.049 A 
ATOM     64  H   UNL A   1      40.751  30.914  34.174  1.00  0.00     0.167 HD
ATOM     65  C   UNL A   1      39.203  33.231  34.728  1.00  0.00     0.074 A 
ATOM     66  C   UNL A   1      38.216  34.282  34.594  1.00  0.00     0.031 C 
ATOM     67  C   UNL A   1      40.028  33.085  35.793  1.00  0.00     0.037 A 
BRANCH  54  68
ATOM     68  C   UNL A   1      43.741  28.149  35.454  1.00  0.00     0.058 A 
ATOM     69  C   UNL A   1      45.115  28.280  35.198  1.00  0.00     0.135 A 
ATOM     70  C   UNL A   1      43.335  27.156  36.360  1.00  0.00     0.135 A 
ATOM     71  F   UNL A   1      45.555  29.205  34.331  1.00  0.00    -0.206 F 
ATOM     72  C   UNL A   1      46.046  27.423  35.776  1.00  0.00     0.059 A 
ATOM     73  C   UNL A   1      44.252  26.305  36.970  1.00  0.00     0.059 A 
ATOM     74  F   UNL A   1      42.033  26.992  36.645  1.00  0.00    -0.206 F 
ATOM     75  C   UNL A   1      45.603  26.430  36.651  1.00  0.00     0.060 A 
BRANCH  75  76
ATOM     76  S   UNL A   1      46.814  25.295  37.362  1.00  0.00     0.124 S 
ATOM     77  O   UNL A   1      45.956  24.198  37.801  1.00  0.00    -0.237 OA
ATOM     78  O   UNL A   1      47.682  25.003  36.225  1.00  0.00    -0.237 OA
ATOM     79  O   UNL A   1      47.427  26.081  38.428  1.00  0.00    -0.744 OA
ENDBRANCH  75  76
ENDBRANCH  54  68
BRANCH  55  80
ATOM     80  C   UNL A   1      36.530  33.263  30.846  1.00  0.00     0.058 A 
ATOM     81  C   UNL A   1      35.226  33.130  31.343  1.00  0.00     0.135 A 
ATOM     82  C   UNL A   1      36.734  34.130  29.761  1.00  0.00     0.135 A 
ATOM     83  F   UNL A   1      34.983  32.306  32.375  1.00  0.00    -0.206 F 
ATOM     84  C   UNL A   1      34.163  33.839  30.795  1.00  0.00     0.059 A 
ATOM     85  C   UNL A   1      35.689  34.864  29.209  1.00  0.00     0.059 A 
ATOM     86  F   UNL A   1      37.967  34.303  29.262  1.00  0.00    -0.206 F 
ATOM     87  C   UNL A   1      34.407  34.712  29.734  1.00  0.00     0.060 A 
BRANCH  87  88
ATOM     88  S   UNL A   1      33.040  35.709  29.099  1.00  0.00     0.124 S 
ATOM     89  O   UNL A   1      33.751  36.809  28.459  1.00  0.00    -0.237 OA
ATOM     90  O   UNL A   1      32.368  34.774  28.202  1.00  0.00    -0.237 OA
ATOM     91  O   UNL A   1      32.291  36.055  30.304  1.00  0.00    -0.744 OA
ENDBRANCH  87  88
ENDBRANCH  55  80
BRANCH  67  92
ATOM     92  C   UNL A   1      39.930  34.100  36.895  1.00  0.00     0.058 A 
ATOM     93  C   UNL A   1      40.554  35.352  36.799  1.00  0.00     0.135 A 
ATOM     94  C   UNL A   1      39.127  33.849  38.020  1.00  0.00     0.135 A 
ATOM     95  F   UNL A   1      41.339  35.636  35.747  1.00  0.00    -0.206 F 
ATOM     96  C   UNL A   1      40.389  36.322  37.782  1.00  0.00     0.059 A 
ATOM     97  C   UNL A   1      38.933  34.811  39.007  1.00  0.00     0.059 A 
ATOM     98  F   UNL A   1      38.504  32.668  38.156  1.00  0.00    -0.206 F 
ATOM     99  C   UNL A   1      39.571  36.045  38.879  1.00  0.00     0.060 A 
BRANCH  99 100
ATOM    100  S   UNL A   1      39.307  37.336  40.115  1.00  0.00     0.124 S 
ATOM    101  O   UNL A   1      38.497  38.295  39.371  1.00  0.00    -0.237 OA
ATOM    102  O   UNL A   1      38.618  36.615  41.181  1.00  0.00    -0.237 OA
ATOM    103  O   UNL A   1      40.661  37.774  40.439  1.00  0.00    -0.744 OA
ENDBRANCH  99 100
ENDBRANCH  67  92
ENDBRANCH  41  42
ENDBRANCH  33  36
ENDBRANCH  31  32
ENDBRANCH  30  31
ENDBRANCH   1  30
TORSDOF 17
ENDMDL
MODEL 3
REMARK VINA RESULT:     -12.6      1.768      2.403
REMARK SMILES C[C@H](C(=O)NCCCCNC(=O)c1ccc(-c2c3nc(c(-c4c(F)cc(S(=O)(=O)[O-])cc4F)c4ccc([nH]4)c(-c4c(F)cc(S(=O)(=O)[O-])cc4F)c4nc(c(-c5c(F)cc(S(=O)(=O)[O-])cc5F)c5ccc2[nH]5)C=C4)C=C3)cc1)N1C(=O)C[C@@H](N2C(=O)/C(=C/c3ccccc3)SC2=S)C1=O
REMARK SMILES IDX 7 1 6 2 5 3 3 4 4 5 2 7 1 8 79 9 80 10 98 11 81 12 82 13
REMARK SMILES IDX 83 14 99 15 84 16 85 17 96 18 86 19 87 20 95 21 97 22 88 23
REMARK SMILES IDX 89 24 90 25 94 26 91 27 93 28 92 29 8 30 9 31 10 32 11 33
REMARK SMILES IDX 12 35 13 36 14 37 78 38 15 39 77 40 16 41 17 42 18 43 71 44
REMARK SMILES IDX 19 45 76 46 70 47 72 48 20 49 75 50 69 51 68 52 21 54 55 55
REMARK SMILES IDX 34 56 54 57 35 58 38 59 53 60 73 61 36 62 37 63 52 65 74 66
REMARK SMILES IDX 39 67 22 68 23 69 32 70 24 71 25 72 31 73 33 74 26 75 27 76
REMARK SMILES IDX 28 77 29 78 30 79 56 80 57 81 66 82 58 83 59 84 65 85 67 86
REMARK SMILES IDX 60 87 61 88 62 89 63 90 64 91 40 92 41 93 50 94 42 95 43 96
REMARK SMILES IDX 49 97 51 98 44 99 45 100 46 101 47 102 48 103
REMARK H PARENT 5 6 10 34 72 53 38 64
REMARK Flexibility Score: inf
ROOT
ATOM      1  C   UNL A   1      33.177  28.879  26.088  1.00  0.00     0.023 C 
ENDROOT
BRANCH   1   2
ATOM      2  C   UNL A   1      32.597  29.254  24.728  1.00  0.00     0.116 C 
BRANCH   2   3
ATOM      3  N   UNL A   1      33.297  28.698  23.590  1.00  0.00    -0.354 N 
ATOM      4  C   UNL A   1      32.967  27.662  22.769  1.00  0.00     0.243 C 
ATOM      5  O   UNL A   1      33.653  27.534  21.746  1.00  0.00    -0.273 OA
ATOM      6  H   UNL A   1      34.151  29.140  23.375  1.00  0.00     0.163 HD
BRANCH   4   7
ATOM      7  C   UNL A   1      31.992  26.527  23.166  1.00  0.00     0.179 C 
ATOM      8  C   UNL A   1      31.899  25.631  21.914  1.00  0.00     0.042 C 
BRANCH   7   9
ATOM      9  N   UNL A   1      32.225  25.729  24.377  1.00  0.00    -0.268 N 
ATOM     10  C   UNL A   1      31.235  25.523  25.304  1.00  0.00     0.232 C 
ATOM     11  C   UNL A   1      33.442  25.467  24.938  1.00  0.00     0.253 C 
ATOM     12  O   UNL A   1      30.095  25.963  25.282  1.00  0.00    -0.274 OA
ATOM     13  C   UNL A   1      31.786  24.787  26.492  1.00  0.00     0.136 C 
ATOM     14  C   UNL A   1      33.234  24.539  26.119  1.00  0.00     0.191 C 
ATOM     15  O   UNL A   1      34.539  25.823  24.538  1.00  0.00    -0.272 OA
BRANCH  14  16
ATOM     16  N   UNL A   1      33.577  23.144  25.765  1.00  0.00    -0.280 N 
ATOM     17  C   UNL A   1      32.583  22.256  25.390  1.00  0.00     0.266 C 
ATOM     18  C   UNL A   1      34.864  22.636  25.751  1.00  0.00     0.149 C 
ATOM     19  O   UNL A   1      31.394  22.520  25.281  1.00  0.00    -0.268 OA
ATOM     20  C   UNL A   1      33.135  20.904  25.139  1.00  0.00     0.081 C 
ATOM     21  S   UNL A   1      34.836  20.927  25.319  1.00  0.00    -0.054 SA
ATOM     22  S   UNL A   1      36.286  23.420  26.126  1.00  0.00    -0.052 S 
ATOM     23  C   UNL A   1      32.330  19.873  24.847  1.00  0.00     0.029 C 
BRANCH  23  24
ATOM     24  C   UNL A   1      32.722  18.469  24.696  1.00  0.00    -0.024 A 
ATOM     25  C   UNL A   1      32.528  17.571  25.751  1.00  0.00     0.008 A 
ATOM     26  C   UNL A   1      33.373  18.034  23.535  1.00  0.00     0.008 A 
ATOM     27  C   UNL A   1      32.966  16.249  25.636  1.00  0.00     0.001 A 
ATOM     28  C   UNL A   1      33.810  16.713  23.422  1.00  0.00     0.001 A 
ATOM     29  C   UNL A   1      33.607  15.822  24.473  1.00  0.00     0.000 A 
ENDBRANCH  23  24
ENDBRANCH  14  16
ENDBRANCH   7   9
ENDBRANCH   4   7
ENDBRANCH   2   3
ENDBRANCH   1   2
BRANCH   1  30
ATOM     30  C   UNL A   1      33.646  30.036  26.965  1.00  0.00     0.023 C 
BRANCH  30  31
ATOM     31  C   UNL A   1      34.943  29.812  27.738  1.00  0.00     0.116 C 
BRANCH  31  32
ATOM     32  N   UNL A   1      35.075  30.673  28.904  1.00  0.00    -0.352 N 
ATOM     33  C   UNL A   1      36.144  30.844  29.754  1.00  0.00     0.251 C 
ATOM     34  H   UNL A   1      34.281  31.217  29.115  1.00  0.00     0.163 HD
ATOM     35  O   UNL A   1      36.018  31.531  30.764  1.00  0.00    -0.269 OA
BRANCH  33  36
ATOM     36  C   UNL A   1      37.431  30.166  29.478  1.00  0.00     0.039 A 
ATOM     37  C   UNL A   1      37.901  30.110  28.162  1.00  0.00     0.014 A 
ATOM     38  C   UNL A   1      38.187  29.610  30.513  1.00  0.00     0.014 A 
ATOM     39  C   UNL A   1      39.173  29.593  27.898  1.00  0.00     0.010 A 
ATOM     40  C   UNL A   1      39.481  29.163  30.258  1.00  0.00     0.010 A 
ATOM     41  C   UNL A   1      39.996  29.166  28.952  1.00  0.00    -0.014 A 
BRANCH  41  42
ATOM     42  C   UNL A   1      41.409  28.758  28.737  1.00  0.00     0.031 A 
ATOM     43  C   UNL A   1      42.496  29.794  28.699  1.00  0.00     0.074 A 
ATOM     44  C   UNL A   1      41.696  27.474  28.440  1.00  0.00     0.049 A 
ATOM     45  N   UNL A   1      43.745  29.671  28.332  1.00  0.00    -0.248 NA
ATOM     46  C   UNL A   1      42.114  31.159  29.091  1.00  0.00     0.031 C 
ATOM     47  C   UNL A   1      40.725  26.379  28.391  1.00  0.00     0.029 A 
ATOM     48  N   UNL A   1      42.882  26.881  28.082  1.00  0.00    -0.354 N 
ATOM     49  C   UNL A   1      44.288  30.948  28.406  1.00  0.00     0.074 A 
ATOM     50  C   UNL A   1      43.225  31.833  28.832  1.00  0.00     0.031 C 
ATOM     51  C   UNL A   1      41.351  25.252  28.015  1.00  0.00     0.029 A 
ATOM     52  C   UNL A   1      42.756  25.551  27.756  1.00  0.00     0.049 A 
ATOM     53  H   UNL A   1      43.740  27.363  28.060  1.00  0.00     0.167 HD
ATOM     54  C   UNL A   1      45.558  31.344  28.148  1.00  0.00     0.037 A 
ATOM     55  C   UNL A   1      43.659  24.674  27.274  1.00  0.00     0.037 A 
ATOM     56  C   UNL A   1      46.622  30.454  27.764  1.00  0.00     0.049 A 
ATOM     57  C   UNL A   1      45.073  25.122  27.036  1.00  0.00     0.074 A 
ATOM     58  C   UNL A   1      47.960  30.747  27.564  1.00  0.00     0.029 A 
ATOM     59  N   UNL A   1      46.469  29.098  27.518  1.00  0.00    -0.354 N 
ATOM     60  N   UNL A   1      45.588  26.320  27.174  1.00  0.00    -0.248 NA
ATOM     61  C   UNL A   1      46.031  24.103  26.585  1.00  0.00     0.031 C 
ATOM     62  C   UNL A   1      48.610  29.572  27.168  1.00  0.00     0.029 A 
ATOM     63  C   UNL A   1      47.684  28.542  27.154  1.00  0.00     0.049 A 
ATOM     64  H   UNL A   1      45.620  28.603  27.591  1.00  0.00     0.167 HD
ATOM     65  C   UNL A   1      46.932  26.197  26.844  1.00  0.00     0.074 A 
ATOM     66  C   UNL A   1      47.153  24.806  26.505  1.00  0.00     0.031 C 
ATOM     67  C   UNL A   1      47.893  27.152  26.829  1.00  0.00     0.037 A 
BRANCH  54  68
ATOM     68  C   UNL A   1      45.854  32.813  28.264  1.00  0.00     0.058 A 
ATOM     69  C   UNL A   1      46.258  33.392  29.478  1.00  0.00     0.135 A 
ATOM     70  C   UNL A   1      45.720  33.655  27.149  1.00  0.00     0.135 A 
ATOM     71  F   UNL A   1      46.389  32.633  30.578  1.00  0.00    -0.206 F 
ATOM     72  C   UNL A   1      46.467  34.762  29.594  1.00  0.00     0.059 A 
ATOM     73  C   UNL A   1      45.950  35.025  27.236  1.00  0.00     0.059 A 
ATOM     74  F   UNL A   1      45.342  33.151  25.963  1.00  0.00    -0.206 F 
ATOM     75  C   UNL A   1      46.298  35.572  28.470  1.00  0.00     0.060 A 
BRANCH  75  76
ATOM     76  S   UNL A   1      46.530  37.355  28.640  1.00  0.00     0.124 S 
ATOM     77  O   UNL A   1      46.190  37.555  30.046  1.00  0.00    -0.237 OA
ATOM     78  O   UNL A   1      47.940  37.525  28.301  1.00  0.00    -0.237 OA
ATOM     79  O   UNL A   1      45.585  37.912  27.678  1.00  0.00    -0.744 OA
ENDBRANCH  75  76
ENDBRANCH  54  68
BRANCH  55  80
ATOM     80  C   UNL A   1      43.235  23.278  26.995  1.00  0.00     0.058 A 
ATOM     81  C   UNL A   1      43.119  22.811  25.679  1.00  0.00     0.135 A 
ATOM     82  C   UNL A   1      43.010  22.365  28.038  1.00  0.00     0.135 A 
ATOM     83  F   UNL A   1      43.318  23.650  24.650  1.00  0.00    -0.206 F 
ATOM     84  C   UNL A   1      42.805  21.484  25.403  1.00  0.00     0.059 A 
ATOM     85  C   UNL A   1      42.713  21.029  27.786  1.00  0.00     0.059 A 
ATOM     86  F   UNL A   1      43.126  22.762  29.315  1.00  0.00    -0.206 F 
ATOM     87  C   UNL A   1      42.614  20.598  26.464  1.00  0.00     0.060 A 
BRANCH  87  88
ATOM     88  S   UNL A   1      42.312  18.855  26.096  1.00  0.00     0.124 S 
ATOM     89  O   UNL A   1      43.236  18.624  24.992  1.00  0.00    -0.237 OA
ATOM     90  O   UNL A   1      42.653  18.210  27.360  1.00  0.00    -0.237 OA
ATOM     91  O   UNL A   1      40.894  18.828  25.751  1.00  0.00    -0.744 OA
ENDBRANCH  87  88
ENDBRANCH  55  80
BRANCH  67  92
ATOM     92  C   UNL A   1      49.288  26.732  26.462  1.00  0.00     0.058 A 
ATOM     93  C   UNL A   1      50.118  26.065  27.374  1.00  0.00     0.135 A 
ATOM     94  C   UNL A   1      49.763  26.921  25.154  1.00  0.00     0.135 A 
ATOM     95  F   UNL A   1      49.712  25.869  28.639  1.00  0.00    -0.206 F 
ATOM     96  C   UNL A   1      51.376  25.600  27.003  1.00  0.00     0.059 A 
ATOM     97  C   UNL A   1      51.010  26.448  24.756  1.00  0.00     0.059 A 
ATOM     98  F   UNL A   1      49.004  27.548  24.242  1.00  0.00    -0.206 F 
ATOM     99  C   UNL A   1      51.810  25.790  25.689  1.00  0.00     0.060 A 
BRANCH  99 100
ATOM    100  S   UNL A   1      53.415  25.122  25.199  1.00  0.00     0.124 S 
ATOM    101  O   UNL A   1      53.515  25.578  23.816  1.00  0.00    -0.237 OA
ATOM    102  O   UNL A   1      54.325  25.760  26.145  1.00  0.00    -0.237 OA
ATOM    103  O   UNL A   1      53.249  23.682  25.376  1.00  0.00    -0.744 OA
ENDBRANCH  99 100
ENDBRANCH  67  92
ENDBRANCH  41  42
ENDBRANCH  33  36
ENDBRANCH  31  32
ENDBRANCH  30  31
ENDBRANCH   1  30
TORSDOF 17
ENDMDL
