MODEL 1
REMARK VINA RESULT:     -12.9      0.000      0.000
REMARK SMILES CSc1ccc(/C=C2\C(C)=C(CC(=O)NCCCCNC(=O)c3ccc(-c4c5nc(c(-c6c(F)cc(S(=O)(=O)[O-])cc6F)c6ccc([nH]6)c(-c6c(F)cc(S(=O)(=O)[O-])cc6F)c6nc(c(-c7c(F)cc(S(=O)(=O)[O-])cc7F)c7ccc4[nH]7)C=C6)C=C5)cc3)c3cc(F)ccc32)cc1
REMARK SMILES IDX 17 1 16 2 15 3 13 4 14 5 12 7 11 8 7 9 8 10 9 11 95 12 10 13
REMARK SMILES IDX 89 14 94 15 90 16 93 17 91 18 92 19 6 20 3 21 4 22 97 23
REMARK SMILES IDX 5 24 96 25 2 26 1 27 18 28 19 29 20 30 21 31 22 33 23 34
REMARK SMILES IDX 24 35 88 36 25 37 87 38 26 39 27 40 28 41 81 42 29 43 86 44
REMARK SMILES IDX 80 45 82 46 30 47 85 48 79 49 78 50 31 52 65 53 44 54 64 55
REMARK SMILES IDX 45 56 48 57 63 58 83 59 46 60 47 61 62 63 84 64 49 65 32 66
REMARK SMILES IDX 33 67 42 68 34 69 35 70 41 71 43 72 36 73 37 74 38 75 39 76
REMARK SMILES IDX 40 77 66 78 67 79 76 80 68 81 69 82 75 83 77 84 70 85 71 86
REMARK SMILES IDX 72 87 73 88 74 89 50 90 51 91 60 92 52 93 53 94 59 95 61 96
REMARK SMILES IDX 54 97 55 98 56 99 57 100 58 101
REMARK H PARENT 15 6 20 32 82 51 48 62
REMARK Flexibility Score: inf
ROOT
ATOM      1  C   UNL A   1      40.426  21.524  27.352  1.00  0.00     0.023 C 
ENDROOT
BRANCH   1   2
ATOM      2  C   UNL A   1      39.519  21.578  26.124  1.00  0.00     0.116 C 
BRANCH   2   3
ATOM      3  N   UNL A   1      38.722  22.786  26.102  1.00  0.00    -0.356 N 
ATOM      4  C   UNL A   1      37.537  22.984  25.450  1.00  0.00     0.224 C 
ATOM      5  O   UNL A   1      37.024  24.104  25.462  1.00  0.00    -0.275 OA
ATOM      6  H   UNL A   1      39.073  23.551  26.614  1.00  0.00     0.163 HD
BRANCH   4   7
ATOM      7  C   UNL A   1      36.886  21.816  24.736  1.00  0.00     0.136 C 
BRANCH   7   8
ATOM      8  C   UNL A   1      35.687  21.329  25.525  1.00  0.00    -0.027 C 
ATOM      9  C   UNL A   1      33.293  23.668  24.717  1.00  0.00     0.017 C 
ATOM     10  C   UNL A   1      33.842  22.477  25.005  1.00  0.00    -0.014 C 
ATOM     11  C   UNL A   1      34.783  22.172  26.101  1.00  0.00    -0.039 C 
ATOM     12  C   UNL A   1      33.678  21.170  24.323  1.00  0.00    -0.010 A 
ATOM     13  C   UNL A   1      33.969  21.646  27.309  1.00  0.00     0.045 C 
ATOM     14  C   UNL A   1      34.808  20.433  24.745  1.00  0.00    -0.011 A 
ATOM     15  C   UNL A   1      32.507  20.514  23.983  1.00  0.00     0.012 A 
ATOM     16  C   UNL A   1      34.808  19.052  24.849  1.00  0.00     0.048 A 
ATOM     17  C   UNL A   1      32.485  19.116  24.114  1.00  0.00     0.040 A 
ATOM     18  C   UNL A   1      33.618  18.408  24.551  1.00  0.00     0.123 A 
ATOM     19  F   UNL A   1      33.510  17.096  24.804  1.00  0.00    -0.207 F 
BRANCH   9  20
ATOM     20  C   UNL A   1      33.206  24.888  25.569  1.00  0.00    -0.025 A 
ATOM     21  C   UNL A   1      32.496  27.569  26.140  1.00  0.00     0.007 A 
ATOM     22  C   UNL A   1      31.692  26.524  26.568  1.00  0.00     0.015 A 
ATOM     23  C   UNL A   1      33.765  27.252  25.640  1.00  0.00     0.015 A 
ATOM     24  C   UNL A   1      32.065  25.203  26.314  1.00  0.00     0.009 A 
ATOM     25  C   UNL A   1      34.122  25.922  25.358  1.00  0.00     0.009 A 
BRANCH  21  26
ATOM     26  S   UNL A   1      31.971  29.276  26.108  1.00  0.00    -0.130 SA
ATOM     27  C   UNL A   1      33.126  30.090  27.261  1.00  0.00     0.091 C 
ENDBRANCH  21  26
ENDBRANCH   9  20
ENDBRANCH   7   8
ENDBRANCH   4   7
ENDBRANCH   2   3
ENDBRANCH   1   2
BRANCH   1  28
ATOM     28  C   UNL A   1      41.909  21.726  27.105  1.00  0.00     0.023 C 
BRANCH  28  29
ATOM     29  C   UNL A   1      42.362  23.162  27.233  1.00  0.00     0.116 C 
BRANCH  29  30
ATOM     30  N   UNL A   1      42.109  23.952  26.035  1.00  0.00    -0.352 N 
ATOM     31  C   UNL A   1      41.768  25.279  25.973  1.00  0.00     0.251 C 
ATOM     32  H   UNL A   1      42.191  23.481  25.175  1.00  0.00     0.163 HD
ATOM     33  O   UNL A   1      41.490  25.811  24.904  1.00  0.00    -0.269 OA
BRANCH  31  34
ATOM     34  C   UNL A   1      41.693  26.024  27.240  1.00  0.00     0.039 A 
ATOM     35  C   UNL A   1      42.670  26.980  27.516  1.00  0.00     0.014 A 
ATOM     36  C   UNL A   1      40.580  25.868  28.073  1.00  0.00     0.014 A 
ATOM     37  C   UNL A   1      42.498  27.829  28.606  1.00  0.00     0.010 A 
ATOM     38  C   UNL A   1      40.363  26.779  29.095  1.00  0.00     0.010 A 
ATOM     39  C   UNL A   1      41.326  27.759  29.378  1.00  0.00    -0.014 A 
BRANCH  39  40
ATOM     40  C   UNL A   1      41.098  28.683  30.512  1.00  0.00     0.031 A 
ATOM     41  C   UNL A   1      41.951  28.565  31.744  1.00  0.00     0.074 A 
ATOM     42  C   UNL A   1      40.090  29.576  30.455  1.00  0.00     0.049 A 
ATOM     43  N   UNL A   1      41.875  29.228  32.867  1.00  0.00    -0.248 NA
ATOM     44  C   UNL A   1      43.009  27.539  31.723  1.00  0.00     0.031 C 
ATOM     45  C   UNL A   1      39.161  29.737  29.333  1.00  0.00     0.029 A 
ATOM     46  N   UNL A   1      39.676  30.513  31.365  1.00  0.00    -0.354 N 
ATOM     47  C   UNL A   1      42.859  28.692  33.688  1.00  0.00     0.074 A 
ATOM     48  C   UNL A   1      43.475  27.605  32.961  1.00  0.00     0.031 C 
ATOM     49  C   UNL A   1      38.304  30.733  29.612  1.00  0.00     0.029 A 
ATOM     50  C   UNL A   1      38.599  31.256  30.943  1.00  0.00     0.049 A 
ATOM     51  H   UNL A   1      40.107  30.642  32.240  1.00  0.00     0.167 HD
ATOM     52  C   UNL A   1      43.236  29.090  34.924  1.00  0.00     0.037 A 
ATOM     53  C   UNL A   1      37.926  32.245  31.562  1.00  0.00     0.037 A 
ATOM     54  C   UNL A   1      42.639  30.196  35.623  1.00  0.00     0.049 A 
ATOM     55  C   UNL A   1      38.373  32.681  32.931  1.00  0.00     0.074 A 
ATOM     56  C   UNL A   1      42.984  30.724  36.854  1.00  0.00     0.029 A 
ATOM     57  N   UNL A   1      41.570  30.945  35.150  1.00  0.00    -0.354 N 
ATOM     58  N   UNL A   1      39.352  32.209  33.667  1.00  0.00    -0.248 NA
ATOM     59  C   UNL A   1      37.634  33.789  33.550  1.00  0.00     0.031 C 
ATOM     60  C   UNL A   1      42.099  31.768  37.143  1.00  0.00     0.029 A 
ATOM     61  C   UNL A   1      41.233  31.921  36.071  1.00  0.00     0.049 A 
ATOM     62  H   UNL A   1      41.120  30.803  34.287  1.00  0.00     0.167 HD
ATOM     63  C   UNL A   1      39.363  32.979  34.825  1.00  0.00     0.074 A 
ATOM     64  C   UNL A   1      38.302  33.955  34.684  1.00  0.00     0.031 C 
ATOM     65  C   UNL A   1      40.178  32.889  35.905  1.00  0.00     0.037 A 
BRANCH  52  66
ATOM     66  C   UNL A   1      44.352  28.333  35.587  1.00  0.00     0.058 A 
ATOM     67  C   UNL A   1      44.099  27.258  36.455  1.00  0.00     0.135 A 
ATOM     68  C   UNL A   1      45.692  28.672  35.339  1.00  0.00     0.135 A 
ATOM     69  F   UNL A   1      42.836  26.904  36.744  1.00  0.00    -0.206 F 
ATOM     70  C   UNL A   1      45.132  26.566  37.078  1.00  0.00     0.059 A 
ATOM     71  C   UNL A   1      46.743  27.974  35.928  1.00  0.00     0.059 A 
ATOM     72  F   UNL A   1      45.991  29.694  34.523  1.00  0.00    -0.206 F 
ATOM     73  C   UNL A   1      46.451  26.932  36.808  1.00  0.00     0.060 A 
BRANCH  73  74
ATOM     74  S   UNL A   1      47.781  26.020  37.620  1.00  0.00     0.124 S 
ATOM     75  O   UNL A   1      47.515  26.310  39.025  1.00  0.00    -0.237 OA
ATOM     76  O   UNL A   1      47.520  24.647  37.196  1.00  0.00    -0.237 OA
ATOM     77  O   UNL A   1      48.991  26.623  37.071  1.00  0.00    -0.744 OA
ENDBRANCH  73  74
ENDBRANCH  52  66
BRANCH  53  78
ATOM     78  C   UNL A   1      36.783  32.909  30.881  1.00  0.00     0.058 A 
ATOM     79  C   UNL A   1      35.463  32.674  31.290  1.00  0.00     0.135 A 
ATOM     80  C   UNL A   1      36.988  33.804  29.819  1.00  0.00     0.135 A 
ATOM     81  F   UNL A   1      35.216  31.826  32.300  1.00  0.00    -0.206 F 
ATOM     82  C   UNL A   1      34.383  33.286  30.662  1.00  0.00     0.059 A 
ATOM     83  C   UNL A   1      35.927  34.447  29.189  1.00  0.00     0.059 A 
ATOM     84  F   UNL A   1      38.234  34.078  29.401  1.00  0.00    -0.206 F 
ATOM     85  C   UNL A   1      34.626  34.173  29.611  1.00  0.00     0.060 A 
BRANCH  85  86
ATOM     86  S   UNL A   1      33.221  34.997  28.832  1.00  0.00     0.124 S 
ATOM     87  O   UNL A   1      32.763  33.977  27.898  1.00  0.00    -0.237 OA
ATOM     88  O   UNL A   1      32.348  35.259  29.973  1.00  0.00    -0.237 OA
ATOM     89  O   UNL A   1      33.822  36.184  28.228  1.00  0.00    -0.744 OA
ENDBRANCH  85  86
ENDBRANCH  53  78
BRANCH  65  90
ATOM     90  C   UNL A   1      39.980  33.894  37.006  1.00  0.00     0.058 A 
ATOM     91  C   UNL A   1      40.638  35.133  37.001  1.00  0.00     0.135 A 
ATOM     92  C   UNL A   1      39.075  33.633  38.047  1.00  0.00     0.135 A 
ATOM     93  F   UNL A   1      41.516  35.428  36.030  1.00  0.00    -0.206 F 
ATOM     94  C   UNL A   1      40.422  36.071  38.004  1.00  0.00     0.059 A 
ATOM     95  C   UNL A   1      38.823  34.567  39.045  1.00  0.00     0.059 A 
ATOM     96  F   UNL A   1      38.411  32.466  38.090  1.00  0.00    -0.206 F 
ATOM     97  C   UNL A   1      39.511  35.779  39.021  1.00  0.00     0.060 A 
BRANCH  97  98
ATOM     98  S   UNL A   1      39.214  37.020  40.298  1.00  0.00     0.124 S 
ATOM     99  O   UNL A   1      40.569  37.286  40.769  1.00  0.00    -0.237 OA
ATOM    100  O   UNL A   1      38.580  38.099  39.546  1.00  0.00    -0.237 OA
ATOM    101  O   UNL A   1      38.344  36.329  41.246  1.00  0.00    -0.744 OA
ENDBRANCH  97  98
ENDBRANCH  65  90
ENDBRANCH  39  40
ENDBRANCH  31  34
ENDBRANCH  29  30
ENDBRANCH  28  29
ENDBRANCH   1  28
TORSDOF 17
ENDMDL
MODEL 2
REMARK VINA RESULT:     -12.6      6.518     11.878
REMARK SMILES CSc1ccc(/C=C2\C(C)=C(CC(=O)NCCCCNC(=O)c3ccc(-c4c5nc(c(-c6c(F)cc(S(=O)(=O)[O-])cc6F)c6ccc([nH]6)c(-c6c(F)cc(S(=O)(=O)[O-])cc6F)c6nc(c(-c7c(F)cc(S(=O)(=O)[O-])cc7F)c7ccc4[nH]7)C=C6)C=C5)cc3)c3cc(F)ccc32)cc1
REMARK SMILES IDX 17 1 16 2 15 3 13 4 14 5 12 7 11 8 7 9 8 10 9 11 95 12 10 13
REMARK SMILES IDX 89 14 94 15 90 16 93 17 91 18 92 19 6 20 3 21 4 22 97 23
REMARK SMILES IDX 5 24 96 25 2 26 1 27 18 28 19 29 20 30 21 31 22 33 23 34
REMARK SMILES IDX 24 35 88 36 25 37 87 38 26 39 27 40 28 41 81 42 29 43 86 44
REMARK SMILES IDX 80 45 82 46 30 47 85 48 79 49 78 50 31 52 65 53 44 54 64 55
REMARK SMILES IDX 45 56 48 57 63 58 83 59 46 60 47 61 62 63 84 64 49 65 32 66
REMARK SMILES IDX 33 67 42 68 34 69 35 70 41 71 43 72 36 73 37 74 38 75 39 76
REMARK SMILES IDX 40 77 66 78 67 79 76 80 68 81 69 82 75 83 77 84 70 85 71 86
REMARK SMILES IDX 72 87 73 88 74 89 50 90 51 91 60 92 52 93 53 94 59 95 61 96
REMARK SMILES IDX 54 97 55 98 56 99 57 100 58 101
REMARK H PARENT 15 6 20 32 82 51 48 62
REMARK Flexibility Score: inf
ROOT
ATOM      1  C   UNL A   1      34.366  33.005  28.467  1.00  0.00     0.023 C 
ENDROOT
BRANCH   1   2
ATOM      2  C   UNL A   1      33.691  31.925  27.625  1.00  0.00     0.116 C 
BRANCH   2   3
ATOM      3  N   UNL A   1      34.563  30.791  27.412  1.00  0.00    -0.356 N 
ATOM      4  C   UNL A   1      34.205  29.537  27.003  1.00  0.00     0.224 C 
ATOM      5  O   UNL A   1      35.061  28.653  26.950  1.00  0.00    -0.275 OA
ATOM      6  H   UNL A   1      35.522  30.939  27.580  1.00  0.00     0.163 HD
BRANCH   4   7
ATOM      7  C   UNL A   1      32.762  29.271  26.621  1.00  0.00     0.136 C 
BRANCH   7   8
ATOM      8  C   UNL A   1      32.626  29.220  25.112  1.00  0.00    -0.027 C 
ATOM      9  C   UNL A   1      32.571  25.832  24.505  1.00  0.00     0.017 C 
ATOM     10  C   UNL A   1      32.274  27.136  24.390  1.00  0.00    -0.014 C 
ATOM     11  C   UNL A   1      33.222  28.265  24.342  1.00  0.00    -0.039 C 
ATOM     12  C   UNL A   1      30.950  27.799  24.291  1.00  0.00    -0.010 A 
ATOM     13  C   UNL A   1      33.504  28.603  22.857  1.00  0.00     0.045 C 
ATOM     14  C   UNL A   1      31.222  29.136  24.661  1.00  0.00    -0.011 A 
ATOM     15  C   UNL A   1      29.903  27.514  23.430  1.00  0.00     0.012 A 
ATOM     16  C   UNL A   1      30.484  30.210  24.192  1.00  0.00     0.048 A 
ATOM     17  C   UNL A   1      29.168  28.598  22.922  1.00  0.00     0.040 A 
ATOM     18  C   UNL A   1      29.468  29.920  23.295  1.00  0.00     0.123 A 
ATOM     19  F   UNL A   1      28.841  30.930  22.676  1.00  0.00    -0.207 F 
BRANCH   9  20
ATOM     20  C   UNL A   1      33.879  25.149  24.290  1.00  0.00    -0.025 A 
ATOM     21  C   UNL A   1      35.701  22.990  24.472  1.00  0.00     0.007 A 
ATOM     22  C   UNL A   1      34.977  23.200  23.308  1.00  0.00     0.015 A 
ATOM     23  C   UNL A   1      35.683  23.999  25.442  1.00  0.00     0.015 A 
ATOM     24  C   UNL A   1      34.105  24.287  23.212  1.00  0.00     0.009 A 
ATOM     25  C   UNL A   1      34.781  25.074  25.353  1.00  0.00     0.009 A 
BRANCH  21  26
ATOM     26  S   UNL A   1      36.578  21.476  24.835  1.00  0.00    -0.130 SA
ATOM     27  C   UNL A   1      38.097  22.061  25.658  1.00  0.00     0.091 C 
ENDBRANCH  21  26
ENDBRANCH   9  20
ENDBRANCH   7   8
ENDBRANCH   4   7
ENDBRANCH   2   3
ENDBRANCH   1   2
BRANCH   1  28
ATOM     28  C   UNL A   1      35.882  33.049  28.419  1.00  0.00     0.023 C 
BRANCH  28  29
ATOM     29  C   UNL A   1      36.548  32.732  29.737  1.00  0.00     0.116 C 
BRANCH  29  30
ATOM     30  N   UNL A   1      36.048  31.510  30.353  1.00  0.00    -0.352 N 
ATOM     31  C   UNL A   1      36.706  30.313  30.476  1.00  0.00     0.251 C 
ATOM     32  H   UNL A   1      35.135  31.547  30.721  1.00  0.00     0.163 HD
ATOM     33  O   UNL A   1      36.142  29.326  30.936  1.00  0.00    -0.269 OA
BRANCH  31  34
ATOM     34  C   UNL A   1      38.093  30.244  29.988  1.00  0.00     0.039 A 
ATOM     35  C   UNL A   1      39.133  30.238  30.916  1.00  0.00     0.014 A 
ATOM     36  C   UNL A   1      38.339  30.042  28.626  1.00  0.00     0.014 A 
ATOM     37  C   UNL A   1      40.427  29.968  30.480  1.00  0.00     0.010 A 
ATOM     38  C   UNL A   1      39.609  29.674  28.212  1.00  0.00     0.010 A 
ATOM     39  C   UNL A   1      40.667  29.646  29.133  1.00  0.00    -0.014 A 
BRANCH  39  40
ATOM     40  C   UNL A   1      42.027  29.307  28.655  1.00  0.00     0.031 A 
ATOM     41  C   UNL A   1      42.327  27.900  28.222  1.00  0.00     0.074 A 
ATOM     42  C   UNL A   1      42.995  30.244  28.673  1.00  0.00     0.049 A 
ATOM     43  N   UNL A   1      43.461  27.380  27.834  1.00  0.00    -0.248 NA
ATOM     44  C   UNL A   1      41.210  26.938  28.265  1.00  0.00     0.031 C 
ATOM     45  C   UNL A   1      42.831  31.626  29.131  1.00  0.00     0.029 A 
ATOM     46  N   UNL A   1      44.312  30.173  28.301  1.00  0.00    -0.354 N 
ATOM     47  C   UNL A   1      43.199  26.035  27.603  1.00  0.00     0.074 A 
ATOM     48  C   UNL A   1      41.817  25.803  27.957  1.00  0.00     0.031 C 
ATOM     49  C   UNL A   1      43.996  32.279  28.986  1.00  0.00     0.029 A 
ATOM     50  C   UNL A   1      44.997  31.354  28.460  1.00  0.00     0.049 A 
ATOM     51  H   UNL A   1      44.731  29.352  27.954  1.00  0.00     0.167 HD
ATOM     52  C   UNL A   1      44.028  25.087  27.110  1.00  0.00     0.037 A 
ATOM     53  C   UNL A   1      46.286  31.655  28.212  1.00  0.00     0.037 A 
ATOM     54  C   UNL A   1      45.391  25.339  26.728  1.00  0.00     0.049 A 
ATOM     55  C   UNL A   1      47.184  30.588  27.649  1.00  0.00     0.074 A 
ATOM     56  C   UNL A   1      46.301  24.465  26.160  1.00  0.00     0.029 A 
ATOM     57  N   UNL A   1      46.040  26.556  26.874  1.00  0.00    -0.354 N 
ATOM     58  N   UNL A   1      46.903  29.336  27.371  1.00  0.00    -0.248 NA
ATOM     59  C   UNL A   1      48.571  30.972  27.357  1.00  0.00     0.031 C 
ATOM     60  C   UNL A   1      47.513  25.144  25.999  1.00  0.00     0.029 A 
ATOM     61  C   UNL A   1      47.344  26.454  26.422  1.00  0.00     0.049 A 
ATOM     62  H   UNL A   1      45.633  27.372  27.244  1.00  0.00     0.167 HD
ATOM     63  C   UNL A   1      48.070  28.791  26.846  1.00  0.00     0.074 A 
ATOM     64  C   UNL A   1      49.055  29.853  26.835  1.00  0.00     0.031 C 
ATOM     65  C   UNL A   1      48.305  27.529  26.411  1.00  0.00     0.037 A 
BRANCH  52  66
ATOM     66  C   UNL A   1      43.475  23.699  26.946  1.00  0.00     0.058 A 
ATOM     67  C   UNL A   1      43.254  22.859  28.050  1.00  0.00     0.135 A 
ATOM     68  C   UNL A   1      43.143  23.207  25.674  1.00  0.00     0.135 A 
ATOM     69  F   UNL A   1      43.573  23.270  29.288  1.00  0.00    -0.206 F 
ATOM     70  C   UNL A   1      42.755  21.570  27.896  1.00  0.00     0.059 A 
ATOM     71  C   UNL A   1      42.613  21.932  25.498  1.00  0.00     0.059 A 
ATOM     72  F   UNL A   1      43.338  23.966  24.584  1.00  0.00    -0.206 F 
ATOM     73  C   UNL A   1      42.437  21.116  26.616  1.00  0.00     0.060 A 
BRANCH  73  74
ATOM     74  S   UNL A   1      41.784  19.443  26.433  1.00  0.00     0.124 S 
ATOM     75  O   UNL A   1      42.450  19.003  25.212  1.00  0.00    -0.237 OA
ATOM     76  O   UNL A   1      42.230  18.798  27.665  1.00  0.00    -0.237 OA
ATOM     77  O   UNL A   1      40.344  19.651  26.324  1.00  0.00    -0.744 OA
ENDBRANCH  73  74
ENDBRANCH  52  66
BRANCH  53  78
ATOM     78  C   UNL A   1      46.792  33.031  28.461  1.00  0.00     0.058 A 
ATOM     79  C   UNL A   1      46.758  34.006  27.454  1.00  0.00     0.135 A 
ATOM     80  C   UNL A   1      47.303  33.404  29.714  1.00  0.00     0.135 A 
ATOM     81  F   UNL A   1      46.279  33.697  26.239  1.00  0.00    -0.206 F 
ATOM     82  C   UNL A   1      47.230  35.296  27.671  1.00  0.00     0.059 A 
ATOM     83  C   UNL A   1      47.759  34.694  29.962  1.00  0.00     0.059 A 
ATOM     84  F   UNL A   1      47.340  32.513  30.717  1.00  0.00    -0.206 F 
ATOM     85  C   UNL A   1      47.728  35.632  28.931  1.00  0.00     0.060 A 
BRANCH  85  86
ATOM     86  S   UNL A   1      48.295  37.322  29.216  1.00  0.00     0.124 S 
ATOM     87  O   UNL A   1      47.119  38.095  28.835  1.00  0.00    -0.237 OA
ATOM     88  O   UNL A   1      48.613  37.302  30.641  1.00  0.00    -0.237 OA
ATOM     89  O   UNL A   1      49.447  37.444  28.327  1.00  0.00    -0.744 OA
ENDBRANCH  85  86
ENDBRANCH  53  78
BRANCH  65  90
ATOM     90  C   UNL A   1      49.669  27.233  25.852  1.00  0.00     0.058 A 
ATOM     91  C   UNL A   1      50.745  26.879  26.681  1.00  0.00     0.135 A 
ATOM     92  C   UNL A   1      49.884  27.249  24.466  1.00  0.00     0.135 A 
ATOM     93  F   UNL A   1      50.591  26.854  28.014  1.00  0.00    -0.206 F 
ATOM     94  C   UNL A   1      51.994  26.573  26.154  1.00  0.00     0.059 A 
ATOM     95  C   UNL A   1      51.117  26.919  23.915  1.00  0.00     0.059 A 
ATOM     96  F   UNL A   1      48.883  27.569  23.629  1.00  0.00    -0.206 F 
ATOM     97  C   UNL A   1      52.170  26.593  24.769  1.00  0.00     0.060 A 
BRANCH  97  98
ATOM     98  S   UNL A   1      53.787  26.159  24.096  1.00  0.00     0.124 S 
ATOM     99  O   UNL A   1      53.965  24.805  24.609  1.00  0.00    -0.237 OA
ATOM    100  O   UNL A   1      53.569  26.269  22.657  1.00  0.00    -0.237 OA
ATOM    101  O   UNL A   1      54.675  27.168  24.668  1.00  0.00    -0.744 OA
ENDBRANCH  97  98
ENDBRANCH  65  90
ENDBRANCH  39  40
ENDBRANCH  31  34
ENDBRANCH  29  30
ENDBRANCH  28  29
ENDBRANCH   1  28
TORSDOF 17
ENDMDL
MODEL 3
REMARK VINA RESULT:     -12.3      1.903      3.722
REMARK SMILES CSc1ccc(/C=C2\C(C)=C(CC(=O)NCCCCNC(=O)c3ccc(-c4c5nc(c(-c6c(F)cc(S(=O)(=O)[O-])cc6F)c6ccc([nH]6)c(-c6c(F)cc(S(=O)(=O)[O-])cc6F)c6nc(c(-c7c(F)cc(S(=O)(=O)[O-])cc7F)c7ccc4[nH]7)C=C6)C=C5)cc3)c3cc(F)ccc32)cc1
REMARK SMILES IDX 17 1 16 2 15 3 13 4 14 5 12 7 11 8 7 9 8 10 9 11 95 12 10 13
REMARK SMILES IDX 89 14 94 15 90 16 93 17 91 18 92 19 6 20 3 21 4 22 97 23
REMARK SMILES IDX 5 24 96 25 2 26 1 27 18 28 19 29 20 30 21 31 22 33 23 34
REMARK SMILES IDX 24 35 88 36 25 37 87 38 26 39 27 40 28 41 81 42 29 43 86 44
REMARK SMILES IDX 80 45 82 46 30 47 85 48 79 49 78 50 31 52 65 53 44 54 64 55
REMARK SMILES IDX 45 56 48 57 63 58 83 59 46 60 47 61 62 63 84 64 49 65 32 66
REMARK SMILES IDX 33 67 42 68 34 69 35 70 41 71 43 72 36 73 37 74 38 75 39 76
REMARK SMILES IDX 40 77 66 78 67 79 76 80 68 81 69 82 75 83 77 84 70 85 71 86
REMARK SMILES IDX 72 87 73 88 74 89 50 90 51 91 60 92 52 93 53 94 59 95 61 96
REMARK SMILES IDX 54 97 55 98 56 99 57 100 58 101
REMARK H PARENT 15 6 20 32 82 51 48 62
REMARK Flexibility Score: inf
ROOT
ATOM      1  C   UNL A   1      39.177  21.420  26.039  1.00  0.00     0.023 C 
ENDROOT
BRANCH   1   2
ATOM      2  C   UNL A   1      37.773  21.927  25.719  1.00  0.00     0.116 C 
BRANCH   2   3
ATOM      3  N   UNL A   1      37.575  22.088  24.294  1.00  0.00    -0.356 N 
ATOM      4  C   UNL A   1      36.770  22.997  23.667  1.00  0.00     0.224 C 
ATOM      5  O   UNL A   1      36.647  22.949  22.443  1.00  0.00    -0.275 OA
ATOM      6  H   UNL A   1      38.078  21.474  23.711  1.00  0.00     0.163 HD
BRANCH   4   7
ATOM      7  C   UNL A   1      36.054  24.043  24.499  1.00  0.00     0.136 C 
BRANCH   7   8
ATOM      8  C   UNL A   1      34.586  24.089  24.123  1.00  0.00    -0.027 C 
ATOM      9  C   UNL A   1      33.314  21.391  25.843  1.00  0.00     0.017 C 
ATOM     10  C   UNL A   1      33.389  22.619  25.306  1.00  0.00    -0.014 C 
ATOM     11  C   UNL A   1      33.828  22.969  23.941  1.00  0.00    -0.039 C 
ATOM     12  C   UNL A   1      33.074  23.937  25.910  1.00  0.00    -0.010 A 
ATOM     13  C   UNL A   1      32.574  23.081  23.039  1.00  0.00     0.045 C 
ATOM     14  C   UNL A   1      33.766  24.853  25.085  1.00  0.00    -0.011 A 
ATOM     15  C   UNL A   1      31.924  24.330  26.574  1.00  0.00     0.012 A 
ATOM     16  C   UNL A   1      33.343  26.157  24.891  1.00  0.00     0.048 A 
ATOM     17  C   UNL A   1      31.467  25.641  26.360  1.00  0.00     0.040 A 
ATOM     18  C   UNL A   1      32.167  26.528  25.523  1.00  0.00     0.123 A 
ATOM     19  F   UNL A   1      31.619  27.716  25.229  1.00  0.00    -0.207 F 
BRANCH   9  20
ATOM     20  C   UNL A   1      33.325  20.068  25.156  1.00  0.00    -0.025 A 
ATOM     21  C   UNL A   1      33.804  17.284  24.968  1.00  0.00     0.007 A 
ATOM     22  C   UNL A   1      32.533  17.760  25.255  1.00  0.00     0.015 A 
ATOM     23  C   UNL A   1      34.765  18.209  24.543  1.00  0.00     0.015 A 
ATOM     24  C   UNL A   1      32.296  19.134  25.312  1.00  0.00     0.009 A 
ATOM     25  C   UNL A   1      34.530  19.592  24.634  1.00  0.00     0.009 A 
BRANCH  21  26
ATOM     26  S   UNL A   1      34.301  15.583  25.193  1.00  0.00    -0.130 SA
ATOM     27  C   UNL A   1      32.714  14.705  25.380  1.00  0.00     0.091 C 
ENDBRANCH  21  26
ENDBRANCH   9  20
ENDBRANCH   7   8
ENDBRANCH   4   7
ENDBRANCH   2   3
ENDBRANCH   1   2
BRANCH   1  28
ATOM     28  C   UNL A   1      40.016  22.290  26.957  1.00  0.00     0.023 C 
BRANCH  28  29
ATOM     29  C   UNL A   1      40.146  23.722  26.495  1.00  0.00     0.116 C 
BRANCH  29  30
ATOM     30  N   UNL A   1      41.442  24.018  25.900  1.00  0.00    -0.352 N 
ATOM     31  C   UNL A   1      42.238  25.109  26.143  1.00  0.00     0.251 C 
ATOM     32  H   UNL A   1      41.786  23.363  25.250  1.00  0.00     0.163 HD
ATOM     33  O   UNL A   1      43.272  25.291  25.509  1.00  0.00    -0.269 OA
BRANCH  31  34
ATOM     34  C   UNL A   1      41.778  26.077  27.152  1.00  0.00     0.039 A 
ATOM     35  C   UNL A   1      40.977  25.626  28.200  1.00  0.00     0.014 A 
ATOM     36  C   UNL A   1      42.263  27.389  27.126  1.00  0.00     0.014 A 
ATOM     37  C   UNL A   1      40.708  26.485  29.263  1.00  0.00     0.010 A 
ATOM     38  C   UNL A   1      42.077  28.204  28.231  1.00  0.00     0.010 A 
ATOM     39  C   UNL A   1      41.288  27.764  29.303  1.00  0.00    -0.014 A 
BRANCH  39  40
ATOM     40  C   UNL A   1      41.057  28.676  30.447  1.00  0.00     0.031 A 
ATOM     41  C   UNL A   1      41.894  28.531  31.687  1.00  0.00     0.074 A 
ATOM     42  C   UNL A   1      40.061  29.582  30.389  1.00  0.00     0.049 A 
ATOM     43  N   UNL A   1      41.812  29.180  32.818  1.00  0.00    -0.248 NA
ATOM     44  C   UNL A   1      42.940  27.493  31.666  1.00  0.00     0.031 C 
ATOM     45  C   UNL A   1      39.147  29.768  29.259  1.00  0.00     0.029 A 
ATOM     46  N   UNL A   1      39.646  30.512  31.307  1.00  0.00    -0.354 N 
ATOM     47  C   UNL A   1      42.780  28.621  33.643  1.00  0.00     0.074 A 
ATOM     48  C   UNL A   1      43.392  27.537  32.909  1.00  0.00     0.031 C 
ATOM     49  C   UNL A   1      38.299  30.771  29.541  1.00  0.00     0.029 A 
ATOM     50  C   UNL A   1      38.583  31.272  30.882  1.00  0.00     0.049 A 
ATOM     51  H   UNL A   1      40.069  30.624  32.189  1.00  0.00     0.167 HD
ATOM     52  C   UNL A   1      43.146  28.999  34.889  1.00  0.00     0.037 A 
ATOM     53  C   UNL A   1      37.915  32.261  31.506  1.00  0.00     0.037 A 
ATOM     54  C   UNL A   1      42.553  30.102  35.595  1.00  0.00     0.049 A 
ATOM     55  C   UNL A   1      38.351  32.674  32.886  1.00  0.00     0.074 A 
ATOM     56  C   UNL A   1      42.890  30.609  36.838  1.00  0.00     0.029 A 
ATOM     57  N   UNL A   1      41.500  30.870  35.120  1.00  0.00    -0.354 N 
ATOM     58  N   UNL A   1      39.315  32.180  33.627  1.00  0.00    -0.248 NA
ATOM     59  C   UNL A   1      37.618  33.782  33.511  1.00  0.00     0.031 C 
ATOM     60  C   UNL A   1      42.014  31.660  37.130  1.00  0.00     0.029 A 
ATOM     61  C   UNL A   1      41.163  31.838  36.050  1.00  0.00     0.049 A 
ATOM     62  H   UNL A   1      41.058  30.745  34.249  1.00  0.00     0.167 HD
ATOM     63  C   UNL A   1      39.321  32.935  34.795  1.00  0.00     0.074 A 
ATOM     64  C   UNL A   1      38.273  33.925  34.655  1.00  0.00     0.031 C 
ATOM     65  C   UNL A   1      40.122  32.821  35.883  1.00  0.00     0.037 A 
BRANCH  52  66
ATOM     66  C   UNL A   1      44.245  28.219  35.555  1.00  0.00     0.058 A 
ATOM     67  C   UNL A   1      45.591  28.605  35.448  1.00  0.00     0.135 A 
ATOM     68  C   UNL A   1      43.949  27.084  36.327  1.00  0.00     0.135 A 
ATOM     69  F   UNL A   1      45.933  29.670  34.705  1.00  0.00    -0.206 F 
ATOM     70  C   UNL A   1      46.608  27.875  36.054  1.00  0.00     0.059 A 
ATOM     71  C   UNL A   1      44.948  26.356  36.968  1.00  0.00     0.059 A 
ATOM     72  F   UNL A   1      42.680  26.668  36.459  1.00  0.00    -0.206 F 
ATOM     73  C   UNL A   1      46.276  26.752  36.812  1.00  0.00     0.060 A 
BRANCH  73  74
ATOM     74  S   UNL A   1      47.607  25.820  37.598  1.00  0.00     0.124 S 
ATOM     75  O   UNL A   1      46.943  24.554  37.888  1.00  0.00    -0.237 OA
ATOM     76  O   UNL A   1      48.620  25.777  36.548  1.00  0.00    -0.237 OA
ATOM     77  O   UNL A   1      47.950  26.631  38.762  1.00  0.00    -0.744 OA
ENDBRANCH  73  74
ENDBRANCH  52  66
BRANCH  53  78
ATOM     78  C   UNL A   1      36.789  32.948  30.820  1.00  0.00     0.058 A 
ATOM     79  C   UNL A   1      35.460  32.708  31.197  1.00  0.00     0.135 A 
ATOM     80  C   UNL A   1      37.018  33.869  29.786  1.00  0.00     0.135 A 
ATOM     81  F   UNL A   1      35.190  31.835  32.180  1.00  0.00    -0.206 F 
ATOM     82  C   UNL A   1      34.395  33.341  30.564  1.00  0.00     0.059 A 
ATOM     83  C   UNL A   1      35.972  34.533  29.153  1.00  0.00     0.059 A 
ATOM     84  F   UNL A   1      38.273  34.148  29.400  1.00  0.00    -0.206 F 
ATOM     85  C   UNL A   1      34.662  34.254  29.542  1.00  0.00     0.060 A 
BRANCH  85  86
ATOM     86  S   UNL A   1      33.276  35.105  28.757  1.00  0.00     0.124 S 
ATOM     87  O   UNL A   1      32.699  34.040  27.946  1.00  0.00    -0.237 OA
ATOM     88  O   UNL A   1      32.486  35.531  29.909  1.00  0.00    -0.237 OA
ATOM     89  O   UNL A   1      33.922  36.185  28.016  1.00  0.00    -0.744 OA
ENDBRANCH  85  86
ENDBRANCH  53  78
BRANCH  65  90
ATOM     90  C   UNL A   1      39.922  33.813  36.995  1.00  0.00     0.058 A 
ATOM     91  C   UNL A   1      40.586  35.049  37.009  1.00  0.00     0.135 A 
ATOM     92  C   UNL A   1      39.010  33.544  38.028  1.00  0.00     0.135 A 
ATOM     93  F   UNL A   1      41.471  35.351  36.047  1.00  0.00    -0.206 F 
ATOM     94  C   UNL A   1      40.369  35.976  38.023  1.00  0.00     0.059 A 
ATOM     95  C   UNL A   1      38.756  34.468  39.036  1.00  0.00     0.059 A 
ATOM     96  F   UNL A   1      38.340  32.380  38.053  1.00  0.00    -0.206 F 
ATOM     97  C   UNL A   1      39.450  35.677  39.031  1.00  0.00     0.060 A 
BRANCH  97  98
ATOM     98  S   UNL A   1      39.152  36.903  40.321  1.00  0.00     0.124 S 
ATOM     99  O   UNL A   1      40.506  37.158  40.802  1.00  0.00    -0.237 OA
ATOM    100  O   UNL A   1      38.526  37.993  39.579  1.00  0.00    -0.237 OA
ATOM    101  O   UNL A   1      38.275  36.205  41.256  1.00  0.00    -0.744 OA
ENDBRANCH  97  98
ENDBRANCH  65  90
ENDBRANCH  39  40
ENDBRANCH  31  34
ENDBRANCH  29  30
ENDBRANCH  28  29
ENDBRANCH   1  28
TORSDOF 17
ENDMDL
