MODEL 1
REMARK VINA RESULT:     -13.8      0.000      0.000
REMARK SMILES Cc1ccccc1/C=C1\SC(=O)N(CC(=O)Nc2ccccc2C(=O)NCCCCNC(=O)c2ccc(-c3c4nc(c(-c5c(F)cc(S(=O)(=O)[O-])cc5F)c5ccc([nH]5)c(-c5c(F)cc(S(=O)(=O)[O-])cc5F)c5nc(c(-c6c(F)cc(S(=O)(=O)[O-])cc6F)c6ccc3[nH]6)C=C5)C=C4)cc2)C1=O
REMARK SMILES IDX 28 1 27 2 26 3 24 4 25 5 23 7 18 8 19 9 20 10 22 11 21 12
REMARK SMILES IDX 17 13 15 14 16 15 14 17 13 18 8 19 9 20 10 21 100 22 11 23
REMARK SMILES IDX 101 24 12 25 7 26 1 27 2 28 3 29 4 30 6 31 5 32 29 33 30 34
REMARK SMILES IDX 31 35 32 36 33 38 34 39 35 40 99 41 36 42 98 43 37 44 38 45
REMARK SMILES IDX 39 46 92 47 40 48 97 49 91 50 93 51 41 52 96 53 90 54 89 55
REMARK SMILES IDX 42 57 76 58 55 59 75 60 56 61 59 62 74 63 94 64 57 65 58 66
REMARK SMILES IDX 73 68 95 69 60 70 43 71 44 72 53 73 45 74 46 75 52 76 54 77
REMARK SMILES IDX 47 78 48 79 49 80 50 81 51 82 77 83 78 84 87 85 79 86 80 87
REMARK SMILES IDX 86 88 88 89 81 90 82 91 83 92 84 93 85 94 61 95 62 96 71 97
REMARK SMILES IDX 63 98 64 99 70 100 72 101 65 102 66 103 67 104 68 105 69 106
REMARK H PARENT 26 6 17 16 31 37 93 56 59 67
REMARK Flexibility Score: inf
ROOT
ATOM      1  C   UNL A   1      33.039  28.453  24.927  1.00  0.00     0.023 C 
ENDROOT
BRANCH   1   2
ATOM      2  C   UNL A   1      33.861  28.094  23.673  1.00  0.00     0.116 C 
BRANCH   2   3
ATOM      3  N   UNL A   1      33.360  27.062  22.752  1.00  0.00    -0.352 N 
ATOM      4  C   UNL A   1      32.118  26.684  22.257  1.00  0.00     0.253 C 
ATOM      5  O   UNL A   1      32.097  25.878  21.326  1.00  0.00    -0.269 OA
ATOM      6  H   UNL A   1      34.087  26.499  22.398  1.00  0.00     0.163 HD
BRANCH   4   7
ATOM      7  C   UNL A   1      30.807  27.162  22.773  1.00  0.00     0.063 A 
ATOM      8  C   UNL A   1      29.930  26.372  23.566  1.00  0.00     0.054 A 
ATOM      9  C   UNL A   1      28.644  26.872  23.872  1.00  0.00     0.027 A 
ATOM     10  C   UNL A   1      28.213  28.118  23.426  1.00  0.00     0.002 A 
ATOM     11  C   UNL A   1      30.292  28.358  22.239  1.00  0.00     0.016 A 
ATOM     12  C   UNL A   1      29.032  28.852  22.587  1.00  0.00     0.001 A 
BRANCH   8  13
ATOM     13  N   UNL A   1      30.038  24.994  23.851  1.00  0.00    -0.324 N 
ATOM     14  C   UNL A   1      30.813  24.240  24.672  1.00  0.00     0.244 C 
ATOM     15  O   UNL A   1      30.452  23.064  24.829  1.00  0.00    -0.273 OA
ATOM     16  H   UNL A   1      29.401  24.451  23.331  1.00  0.00     0.170 HD
BRANCH  14  17
ATOM     17  C   UNL A   1      31.966  24.780  25.494  1.00  0.00     0.230 C 
BRANCH  17  18
ATOM     18  N   UNL A   1      33.062  23.863  25.640  1.00  0.00    -0.259 N 
ATOM     19  C   UNL A   1      36.333  23.045  24.820  1.00  0.00     0.029 C 
ATOM     20  C   UNL A   1      35.071  22.794  25.189  1.00  0.00     0.083 C 
ATOM     21  S   UNL A   1      34.474  21.944  26.539  1.00  0.00    -0.022 SA
ATOM     22  C   UNL A   1      33.969  23.620  24.628  1.00  0.00     0.268 C 
ATOM     23  C   UNL A   1      33.116  23.023  26.708  1.00  0.00     0.294 C 
ATOM     24  O   UNL A   1      33.903  23.997  23.471  1.00  0.00    -0.268 OA
ATOM     25  O   UNL A   1      32.324  22.963  27.644  1.00  0.00    -0.261 OA
BRANCH  19  26
ATOM     26  C   UNL A   1      37.593  22.754  25.526  1.00  0.00    -0.021 A 
ATOM     27  C   UNL A   1      37.836  20.254  24.936  1.00  0.00     0.045 C 
ATOM     28  C   UNL A   1      38.315  21.549  25.522  1.00  0.00    -0.044 A 
ATOM     29  C   UNL A   1      39.571  21.525  26.146  1.00  0.00     0.004 A 
ATOM     30  C   UNL A   1      40.087  22.646  26.792  1.00  0.00     0.000 A 
ATOM     31  C   UNL A   1      38.128  23.871  26.212  1.00  0.00     0.008 A 
ATOM     32  C   UNL A   1      39.359  23.816  26.853  1.00  0.00     0.001 A 
ENDBRANCH  19  26
ENDBRANCH  17  18
ENDBRANCH  14  17
ENDBRANCH   8  13
ENDBRANCH   4   7
ENDBRANCH   2   3
ENDBRANCH   1   2
BRANCH   1  33
ATOM     33  C   UNL A   1      33.646  28.549  26.343  1.00  0.00     0.023 C 
BRANCH  33  34
ATOM     34  C   UNL A   1      33.493  29.835  27.134  1.00  0.00     0.116 C 
BRANCH  34  35
ATOM     35  N   UNL A   1      34.540  30.839  26.915  1.00  0.00    -0.352 N 
ATOM     36  C   UNL A   1      34.879  31.730  27.949  1.00  0.00     0.251 C 
ATOM     37  H   UNL A   1      35.004  30.890  26.048  1.00  0.00     0.163 HD
ATOM     38  O   UNL A   1      34.255  32.755  28.196  1.00  0.00    -0.269 OA
BRANCH  36  39
ATOM     39  C   UNL A   1      35.831  31.178  28.955  1.00  0.00     0.039 A 
ATOM     40  C   UNL A   1      35.579  30.353  30.066  1.00  0.00     0.014 A 
ATOM     41  C   UNL A   1      37.144  31.310  28.609  1.00  0.00     0.014 A 
ATOM     42  C   UNL A   1      36.686  29.748  30.721  1.00  0.00     0.010 A 
ATOM     43  C   UNL A   1      37.849  30.172  28.731  1.00  0.00     0.010 A 
ATOM     44  C   UNL A   1      37.898  29.765  30.040  1.00  0.00    -0.014 A 
BRANCH  44  45
ATOM     45  C   UNL A   1      39.276  29.400  30.337  1.00  0.00     0.031 A 
ATOM     46  C   UNL A   1      39.866  28.162  29.806  1.00  0.00     0.074 A 
ATOM     47  C   UNL A   1      40.072  30.475  30.597  1.00  0.00     0.049 A 
ATOM     48  N   UNL A   1      41.069  27.780  30.045  1.00  0.00    -0.248 NA
ATOM     49  C   UNL A   1      39.172  27.299  28.859  1.00  0.00     0.031 C 
ATOM     50  C   UNL A   1      41.510  30.673  30.457  1.00  0.00     0.029 A 
ATOM     51  N   UNL A   1      39.651  31.700  31.141  1.00  0.00    -0.354 N 
ATOM     52  C   UNL A   1      41.419  26.830  29.105  1.00  0.00     0.074 A 
ATOM     53  C   UNL A   1      40.170  26.506  28.450  1.00  0.00     0.031 C 
ATOM     54  C   UNL A   1      41.874  31.721  31.224  1.00  0.00     0.029 A 
ATOM     55  C   UNL A   1      40.695  32.137  31.971  1.00  0.00     0.049 A 
ATOM     56  H   UNL A   1      38.796  32.160  30.975  1.00  0.00     0.167 HD
ATOM     57  C   UNL A   1      42.748  26.545  28.939  1.00  0.00     0.037 A 
ATOM     58  C   UNL A   1      40.483  31.976  33.316  1.00  0.00     0.037 A 
ATOM     59  C   UNL A   1      43.542  27.312  29.917  1.00  0.00     0.049 A 
ATOM     60  C   UNL A   1      41.285  30.823  33.891  1.00  0.00     0.074 A 
ATOM     61  C   UNL A   1      44.313  28.461  29.865  1.00  0.00     0.029 A 
ATOM     62  N   UNL A   1      43.328  27.069  31.262  1.00  0.00    -0.354 N 
ATOM     63  N   UNL A   1      42.096  30.073  33.194  1.00  0.00    -0.248 NA
ATOM     64  C   UNL A   1      41.219  30.403  35.287  1.00  0.00     0.031 C 
ATOM     65  C   UNL A   1      44.429  28.971  31.200  1.00  0.00     0.029 A 
ATOM     66  C   UNL A   1      43.764  28.111  32.059  1.00  0.00     0.049 A 
ATOM     67  H   UNL A   1      42.912  26.248  31.612  1.00  0.00     0.167 HD
ATOM     68  C   UNL A   1      42.593  29.066  33.966  1.00  0.00     0.074 A 
ATOM     69  C   UNL A   1      42.015  29.317  35.278  1.00  0.00     0.031 C 
ATOM     70  C   UNL A   1      43.426  28.093  33.481  1.00  0.00     0.037 A 
BRANCH  57  71
ATOM     71  C   UNL A   1      43.404  25.715  27.838  1.00  0.00     0.058 A 
ATOM     72  C   UNL A   1      43.269  24.305  27.843  1.00  0.00     0.135 A 
ATOM     73  C   UNL A   1      44.181  26.206  26.766  1.00  0.00     0.135 A 
ATOM     74  F   UNL A   1      42.518  23.676  28.758  1.00  0.00    -0.206 F 
ATOM     75  C   UNL A   1      43.890  23.463  26.913  1.00  0.00     0.059 A 
ATOM     76  C   UNL A   1      44.825  25.383  25.831  1.00  0.00     0.059 A 
ATOM     77  F   UNL A   1      44.336  27.511  26.538  1.00  0.00    -0.206 F 
ATOM     78  C   UNL A   1      44.681  24.009  25.916  1.00  0.00     0.060 A 
BRANCH  78  79
ATOM     79  S   UNL A   1      45.485  22.908  24.737  1.00  0.00     0.124 S 
ATOM     80  O   UNL A   1      46.171  21.969  25.618  1.00  0.00    -0.237 OA
ATOM     81  O   UNL A   1      44.348  22.369  23.997  1.00  0.00    -0.237 OA
ATOM     82  O   UNL A   1      46.357  23.799  23.977  1.00  0.00    -0.744 OA
ENDBRANCH  78  79
ENDBRANCH  57  71
BRANCH  58  83
ATOM     83  C   UNL A   1      39.066  32.371  33.663  1.00  0.00     0.058 A 
ATOM     84  C   UNL A   1      38.747  33.742  33.531  1.00  0.00     0.135 A 
ATOM     85  C   UNL A   1      37.998  31.460  33.562  1.00  0.00     0.135 A 
ATOM     86  F   UNL A   1      39.720  34.667  33.601  1.00  0.00    -0.206 F 
ATOM     87  C   UNL A   1      37.480  34.174  33.149  1.00  0.00     0.059 A 
ATOM     88  C   UNL A   1      36.711  31.877  33.185  1.00  0.00     0.059 A 
ATOM     89  F   UNL A   1      38.226  30.142  33.668  1.00  0.00    -0.206 F 
ATOM     90  C   UNL A   1      36.483  33.228  32.922  1.00  0.00     0.060 A 
BRANCH  90  91
ATOM     91  S   UNL A   1      34.975  33.799  32.096  1.00  0.00     0.124 S 
ATOM     92  O   UNL A   1      34.112  32.629  32.195  1.00  0.00    -0.237 OA
ATOM     93  O   UNL A   1      34.595  34.941  32.934  1.00  0.00    -0.237 OA
ATOM     94  O   UNL A   1      35.425  34.138  30.751  1.00  0.00    -0.744 OA
ENDBRANCH  90  91
ENDBRANCH  58  83
BRANCH  70  95
ATOM     95  C   UNL A   1      43.985  27.020  34.370  1.00  0.00     0.058 A 
ATOM     96  C   UNL A   1      45.353  26.968  34.679  1.00  0.00     0.135 A 
ATOM     97  C   UNL A   1      43.193  25.960  34.866  1.00  0.00     0.135 A 
ATOM     98  F   UNL A   1      46.205  27.879  34.181  1.00  0.00    -0.206 F 
ATOM     99  C   UNL A   1      45.886  25.985  35.506  1.00  0.00     0.059 A 
ATOM    100  C   UNL A   1      43.719  24.925  35.626  1.00  0.00     0.059 A 
ATOM    101  F   UNL A   1      41.870  25.912  34.664  1.00  0.00    -0.206 F 
ATOM    102  C   UNL A   1      45.059  24.970  35.979  1.00  0.00     0.060 A 
BRANCH 102 103
ATOM    103  S   UNL A   1      45.745  23.709  37.062  1.00  0.00     0.124 S 
ATOM    104  O   UNL A   1      45.324  22.472  36.413  1.00  0.00    -0.237 OA
ATOM    105  O   UNL A   1      47.171  24.011  36.983  1.00  0.00    -0.237 OA
ATOM    106  O   UNL A   1      45.111  23.985  38.348  1.00  0.00    -0.744 OA
ENDBRANCH 102 103
ENDBRANCH  70  95
ENDBRANCH  44  45
ENDBRANCH  36  39
ENDBRANCH  34  35
ENDBRANCH  33  34
ENDBRANCH   1  33
TORSDOF 18
ENDMDL
MODEL 2
REMARK VINA RESULT:     -13.2      2.847      4.216
REMARK SMILES Cc1ccccc1/C=C1\SC(=O)N(CC(=O)Nc2ccccc2C(=O)NCCCCNC(=O)c2ccc(-c3c4nc(c(-c5c(F)cc(S(=O)(=O)[O-])cc5F)c5ccc([nH]5)c(-c5c(F)cc(S(=O)(=O)[O-])cc5F)c5nc(c(-c6c(F)cc(S(=O)(=O)[O-])cc6F)c6ccc3[nH]6)C=C5)C=C4)cc2)C1=O
REMARK SMILES IDX 28 1 27 2 26 3 24 4 25 5 23 7 18 8 19 9 20 10 22 11 21 12
REMARK SMILES IDX 17 13 15 14 16 15 14 17 13 18 8 19 9 20 10 21 100 22 11 23
REMARK SMILES IDX 101 24 12 25 7 26 1 27 2 28 3 29 4 30 6 31 5 32 29 33 30 34
REMARK SMILES IDX 31 35 32 36 33 38 34 39 35 40 99 41 36 42 98 43 37 44 38 45
REMARK SMILES IDX 39 46 92 47 40 48 97 49 91 50 93 51 41 52 96 53 90 54 89 55
REMARK SMILES IDX 42 57 76 58 55 59 75 60 56 61 59 62 74 63 94 64 57 65 58 66
REMARK SMILES IDX 73 68 95 69 60 70 43 71 44 72 53 73 45 74 46 75 52 76 54 77
REMARK SMILES IDX 47 78 48 79 49 80 50 81 51 82 77 83 78 84 87 85 79 86 80 87
REMARK SMILES IDX 86 88 88 89 81 90 82 91 83 92 84 93 85 94 61 95 62 96 71 97
REMARK SMILES IDX 63 98 64 99 70 100 72 101 65 102 66 103 67 104 68 105 69 106
REMARK H PARENT 26 6 17 16 31 37 93 56 59 67
REMARK Flexibility Score: inf
ROOT
ATOM      1  C   UNL A   1      33.855  28.843  26.445  1.00  0.00     0.023 C 
ENDROOT
BRANCH   1   2
ATOM      2  C   UNL A   1      32.347  29.001  26.721  1.00  0.00     0.116 C 
BRANCH   2   3
ATOM      3  N   UNL A   1      31.488  29.631  25.706  1.00  0.00    -0.352 N 
ATOM      4  C   UNL A   1      31.128  29.356  24.393  1.00  0.00     0.253 C 
ATOM      5  O   UNL A   1      30.209  30.015  23.905  1.00  0.00    -0.269 OA
ATOM      6  H   UNL A   1      31.064  30.455  26.042  1.00  0.00     0.163 HD
BRANCH   4   7
ATOM      7  C   UNL A   1      31.775  28.339  23.520  1.00  0.00     0.063 A 
ATOM      8  C   UNL A   1      31.477  26.950  23.565  1.00  0.00     0.054 A 
ATOM      9  C   UNL A   1      32.261  26.056  22.800  1.00  0.00     0.027 A 
ATOM     10  C   UNL A   1      33.311  26.496  22.000  1.00  0.00     0.002 A 
ATOM     11  C   UNL A   1      32.918  28.731  22.800  1.00  0.00     0.016 A 
ATOM     12  C   UNL A   1      33.655  27.836  22.019  1.00  0.00     0.001 A 
BRANCH   8  13
ATOM     13  N   UNL A   1      30.687  26.271  24.517  1.00  0.00    -0.324 N 
ATOM     14  C   UNL A   1      30.931  25.639  25.693  1.00  0.00     0.244 C 
ATOM     15  O   UNL A   1      29.934  25.364  26.377  1.00  0.00    -0.273 OA
ATOM     16  H   UNL A   1      29.733  26.252  24.270  1.00  0.00     0.170 HD
BRANCH  14  17
ATOM     17  C   UNL A   1      32.314  25.397  26.264  1.00  0.00     0.230 C 
BRANCH  17  18
ATOM     18  N   UNL A   1      32.845  24.094  25.979  1.00  0.00    -0.259 N 
ATOM     19  C   UNL A   1      32.260  20.687  25.679  1.00  0.00     0.029 C 
ATOM     20  C   UNL A   1      32.997  21.780  25.910  1.00  0.00     0.083 C 
ATOM     21  S   UNL A   1      34.460  22.285  25.198  1.00  0.00    -0.022 SA
ATOM     22  C   UNL A   1      32.375  22.948  26.589  1.00  0.00     0.268 C 
ATOM     23  C   UNL A   1      33.993  23.963  25.262  1.00  0.00     0.294 C 
ATOM     24  O   UNL A   1      31.594  22.875  27.521  1.00  0.00    -0.268 OA
ATOM     25  O   UNL A   1      34.661  24.864  24.761  1.00  0.00    -0.261 OA
BRANCH  19  26
ATOM     26  C   UNL A   1      32.432  19.637  24.658  1.00  0.00    -0.021 A 
ATOM     27  C   UNL A   1      31.947  21.029  22.540  1.00  0.00     0.045 C 
ATOM     28  C   UNL A   1      32.379  19.787  23.263  1.00  0.00    -0.044 A 
ATOM     29  C   UNL A   1      32.714  18.685  22.463  1.00  0.00     0.004 A 
ATOM     30  C   UNL A   1      33.056  17.455  23.020  1.00  0.00     0.000 A 
ATOM     31  C   UNL A   1      32.757  18.370  25.199  1.00  0.00     0.008 A 
ATOM     32  C   UNL A   1      33.053  17.282  24.389  1.00  0.00     0.001 A 
ENDBRANCH  19  26
ENDBRANCH  17  18
ENDBRANCH  14  17
ENDBRANCH   8  13
ENDBRANCH   4   7
ENDBRANCH   2   3
ENDBRANCH   1   2
BRANCH   1  33
ATOM     33  C   UNL A   1      34.951  29.244  27.455  1.00  0.00     0.023 C 
BRANCH  33  34
ATOM     34  C   UNL A   1      35.202  30.714  27.737  1.00  0.00     0.116 C 
BRANCH  34  35
ATOM     35  N   UNL A   1      36.019  30.998  28.923  1.00  0.00    -0.352 N 
ATOM     36  C   UNL A   1      36.533  29.935  29.686  1.00  0.00     0.251 C 
ATOM     37  H   UNL A   1      36.206  31.929  29.185  1.00  0.00     0.163 HD
ATOM     38  O   UNL A   1      35.891  29.338  30.542  1.00  0.00    -0.269 OA
BRANCH  36  39
ATOM     39  C   UNL A   1      37.791  29.339  29.150  1.00  0.00     0.039 A 
ATOM     40  C   UNL A   1      38.553  29.717  28.031  1.00  0.00     0.014 A 
ATOM     41  C   UNL A   1      38.392  28.457  29.999  1.00  0.00     0.014 A 
ATOM     42  C   UNL A   1      39.851  29.157  27.879  1.00  0.00     0.010 A 
ATOM     43  C   UNL A   1      39.705  28.687  30.170  1.00  0.00     0.010 A 
ATOM     44  C   UNL A   1      40.389  28.522  28.992  1.00  0.00    -0.014 A 
BRANCH  44  45
ATOM     45  C   UNL A   1      41.575  27.726  29.279  1.00  0.00     0.031 A 
ATOM     46  C   UNL A   1      41.678  26.328  28.834  1.00  0.00     0.074 A 
ATOM     47  C   UNL A   1      42.702  28.477  29.430  1.00  0.00     0.049 A 
ATOM     48  N   UNL A   1      42.691  25.573  29.069  1.00  0.00    -0.248 NA
ATOM     49  C   UNL A   1      40.683  25.696  27.979  1.00  0.00     0.031 C 
ATOM     50  C   UNL A   1      44.111  28.160  29.234  1.00  0.00     0.029 A 
ATOM     51  N   UNL A   1      42.752  29.806  29.884  1.00  0.00    -0.354 N 
ATOM     52  C   UNL A   1      42.646  24.501  28.200  1.00  0.00     0.074 A 
ATOM     53  C   UNL A   1      41.328  24.582  27.608  1.00  0.00     0.031 C 
ATOM     54  C   UNL A   1      44.851  29.068  29.904  1.00  0.00     0.029 A 
ATOM     55  C   UNL A   1      43.925  29.912  30.647  1.00  0.00     0.049 A 
ATOM     56  H   UNL A   1      42.097  30.519  29.704  1.00  0.00     0.167 HD
ATOM     57  C   UNL A   1      43.788  23.766  28.022  1.00  0.00     0.037 A 
ATOM     58  C   UNL A   1      43.743  29.923  32.005  1.00  0.00     0.037 A 
ATOM     59  C   UNL A   1      44.846  24.277  28.912  1.00  0.00     0.049 A 
ATOM     60  C   UNL A   1      44.135  28.606  32.650  1.00  0.00     0.074 A 
ATOM     61  C   UNL A   1      45.959  25.086  28.746  1.00  0.00     0.029 A 
ATOM     62  N   UNL A   1      44.635  24.213  30.278  1.00  0.00    -0.354 N 
ATOM     63  N   UNL A   1      44.604  27.579  31.994  1.00  0.00    -0.248 NA
ATOM     64  C   UNL A   1      44.005  28.328  34.076  1.00  0.00     0.031 C 
ATOM     65  C   UNL A   1      46.312  25.613  30.032  1.00  0.00     0.029 A 
ATOM     66  C   UNL A   1      45.441  25.092  30.976  1.00  0.00     0.049 A 
ATOM     67  H   UNL A   1      43.984  23.610  30.704  1.00  0.00     0.167 HD
ATOM     68  C   UNL A   1      44.769  26.516  32.830  1.00  0.00     0.074 A 
ATOM     69  C   UNL A   1      44.382  27.037  34.133  1.00  0.00     0.031 C 
ATOM     70  C   UNL A   1      45.194  25.286  32.403  1.00  0.00     0.037 A 
BRANCH  57  71
ATOM     71  C   UNL A   1      44.062  22.691  26.973  1.00  0.00     0.058 A 
ATOM     72  C   UNL A   1      43.184  21.586  26.851  1.00  0.00     0.135 A 
ATOM     73  C   UNL A   1      45.149  22.653  26.073  1.00  0.00     0.135 A 
ATOM     74  F   UNL A   1      42.070  21.491  27.590  1.00  0.00    -0.206 F 
ATOM     75  C   UNL A   1      43.395  20.523  25.966  1.00  0.00     0.059 A 
ATOM     76  C   UNL A   1      45.390  21.593  25.187  1.00  0.00     0.059 A 
ATOM     77  F   UNL A   1      46.025  23.655  25.971  1.00  0.00    -0.206 F 
ATOM     78  C   UNL A   1      44.510  20.525  25.144  1.00  0.00     0.060 A 
BRANCH  78  79
ATOM     79  S   UNL A   1      44.772  19.139  24.022  1.00  0.00     0.124 S 
ATOM     80  O   UNL A   1      43.833  18.149  24.537  1.00  0.00    -0.237 OA
ATOM     81  O   UNL A   1      44.431  19.725  22.729  1.00  0.00    -0.237 OA
ATOM     82  O   UNL A   1      46.183  18.813  24.205  1.00  0.00    -0.744 OA
ENDBRANCH  78  79
ENDBRANCH  57  71
BRANCH  58  83
ATOM     83  C   UNL A   1      42.566  30.803  32.359  1.00  0.00     0.058 A 
ATOM     84  C   UNL A   1      41.435  30.151  32.901  1.00  0.00     0.135 A 
ATOM     85  C   UNL A   1      42.731  32.162  32.687  1.00  0.00     0.135 A 
ATOM     86  F   UNL A   1      41.224  28.849  32.643  1.00  0.00    -0.206 F 
ATOM     87  C   UNL A   1      40.615  30.756  33.850  1.00  0.00     0.059 A 
ATOM     88  C   UNL A   1      41.910  32.793  33.635  1.00  0.00     0.059 A 
ATOM     89  F   UNL A   1      43.786  32.845  32.216  1.00  0.00    -0.206 F 
ATOM     90  C   UNL A   1      40.895  32.060  34.253  1.00  0.00     0.060 A 
BRANCH  90  91
ATOM     91  S   UNL A   1      40.032  32.674  35.722  1.00  0.00     0.124 S 
ATOM     92  O   UNL A   1      40.752  33.909  36.004  1.00  0.00    -0.237 OA
ATOM     93  O   UNL A   1      38.666  32.836  35.215  1.00  0.00    -0.237 OA
ATOM     94  O   UNL A   1      40.209  31.605  36.698  1.00  0.00    -0.744 OA
ENDBRANCH  90  91
ENDBRANCH  58  83
BRANCH  70  95
ATOM     95  C   UNL A   1      45.401  24.149  33.361  1.00  0.00     0.058 A 
ATOM     96  C   UNL A   1      46.635  23.948  33.999  1.00  0.00     0.135 A 
ATOM     97  C   UNL A   1      44.410  23.171  33.600  1.00  0.00     0.135 A 
ATOM     98  F   UNL A   1      47.671  24.771  33.767  1.00  0.00    -0.206 F 
ATOM     99  C   UNL A   1      46.842  22.903  34.893  1.00  0.00     0.059 A 
ATOM    100  C   UNL A   1      44.621  22.076  34.425  1.00  0.00     0.059 A 
ATOM    101  F   UNL A   1      43.182  23.265  33.072  1.00  0.00    -0.206 F 
ATOM    102  C   UNL A   1      45.826  21.974  35.104  1.00  0.00     0.060 A 
BRANCH 102 103
ATOM    103  S   UNL A   1      46.089  20.633  36.273  1.00  0.00     0.124 S 
ATOM    104  O   UNL A   1      47.527  20.407  36.176  1.00  0.00    -0.237 OA
ATOM    105  O   UNL A   1      45.627  21.245  37.515  1.00  0.00    -0.237 OA
ATOM    106  O   UNL A   1      45.252  19.558  35.749  1.00  0.00    -0.744 OA
ENDBRANCH 102 103
ENDBRANCH  70  95
ENDBRANCH  44  45
ENDBRANCH  36  39
ENDBRANCH  34  35
ENDBRANCH  33  34
ENDBRANCH   1  33
TORSDOF 18
ENDMDL
MODEL 3
REMARK VINA RESULT:     -12.9      3.325      9.970
REMARK SMILES Cc1ccccc1/C=C1\SC(=O)N(CC(=O)Nc2ccccc2C(=O)NCCCCNC(=O)c2ccc(-c3c4nc(c(-c5c(F)cc(S(=O)(=O)[O-])cc5F)c5ccc([nH]5)c(-c5c(F)cc(S(=O)(=O)[O-])cc5F)c5nc(c(-c6c(F)cc(S(=O)(=O)[O-])cc6F)c6ccc3[nH]6)C=C5)C=C4)cc2)C1=O
REMARK SMILES IDX 28 1 27 2 26 3 24 4 25 5 23 7 18 8 19 9 20 10 22 11 21 12
REMARK SMILES IDX 17 13 15 14 16 15 14 17 13 18 8 19 9 20 10 21 100 22 11 23
REMARK SMILES IDX 101 24 12 25 7 26 1 27 2 28 3 29 4 30 6 31 5 32 29 33 30 34
REMARK SMILES IDX 31 35 32 36 33 38 34 39 35 40 99 41 36 42 98 43 37 44 38 45
REMARK SMILES IDX 39 46 92 47 40 48 97 49 91 50 93 51 41 52 96 53 90 54 89 55
REMARK SMILES IDX 42 57 76 58 55 59 75 60 56 61 59 62 74 63 94 64 57 65 58 66
REMARK SMILES IDX 73 68 95 69 60 70 43 71 44 72 53 73 45 74 46 75 52 76 54 77
REMARK SMILES IDX 47 78 48 79 49 80 50 81 51 82 77 83 78 84 87 85 79 86 80 87
REMARK SMILES IDX 86 88 88 89 81 90 82 91 83 92 84 93 85 94 61 95 62 96 71 97
REMARK SMILES IDX 63 98 64 99 70 100 72 101 65 102 66 103 67 104 68 105 69 106
REMARK H PARENT 26 6 17 16 31 37 93 56 59 67
REMARK Flexibility Score: inf
ROOT
ATOM      1  C   UNL A   1      37.082  21.087  24.388  1.00  0.00     0.023 C 
ENDROOT
BRANCH   1   2
ATOM      2  C   UNL A   1      36.497  19.853  25.101  1.00  0.00     0.116 C 
BRANCH   2   3
ATOM      3  N   UNL A   1      35.182  19.337  24.691  1.00  0.00    -0.352 N 
ATOM      4  C   UNL A   1      33.868  19.783  24.764  1.00  0.00     0.253 C 
ATOM      5  O   UNL A   1      33.019  19.160  24.125  1.00  0.00    -0.269 OA
ATOM      6  H   UNL A   1      35.250  18.455  24.257  1.00  0.00     0.163 HD
BRANCH   4   7
ATOM      7  C   UNL A   1      33.399  20.944  25.567  1.00  0.00     0.063 A 
ATOM      8  C   UNL A   1      32.875  22.139  25.004  1.00  0.00     0.054 A 
ATOM      9  C   UNL A   1      32.603  23.236  25.853  1.00  0.00     0.027 A 
ATOM     10  C   UNL A   1      32.827  23.179  27.226  1.00  0.00     0.002 A 
ATOM     11  C   UNL A   1      33.727  20.966  26.935  1.00  0.00     0.016 A 
ATOM     12  C   UNL A   1      33.413  22.047  27.764  1.00  0.00     0.001 A 
BRANCH   8  13
ATOM     13  N   UNL A   1      32.867  22.515  23.643  1.00  0.00    -0.324 N 
ATOM     14  C   UNL A   1      33.423  23.521  22.921  1.00  0.00     0.244 C 
ATOM     15  O   UNL A   1      33.387  23.387  21.688  1.00  0.00    -0.273 OA
ATOM     16  H   UNL A   1      32.330  21.904  23.087  1.00  0.00     0.170 HD
BRANCH  14  17
ATOM     17  C   UNL A   1      34.192  24.681  23.520  1.00  0.00     0.230 C 
BRANCH  17  18
ATOM     18  N   UNL A   1      33.460  25.917  23.546  1.00  0.00    -0.259 N 
ATOM     19  C   UNL A   1      31.133  27.983  22.012  1.00  0.00     0.029 C 
ATOM     20  C   UNL A   1      32.188  27.702  22.786  1.00  0.00     0.083 C 
ATOM     21  S   UNL A   1      32.491  28.108  24.413  1.00  0.00    -0.022 SA
ATOM     22  C   UNL A   1      33.103  26.595  22.398  1.00  0.00     0.268 C 
ATOM     23  C   UNL A   1      33.290  26.588  24.716  1.00  0.00     0.294 C 
ATOM     24  O   UNL A   1      33.459  26.356  21.258  1.00  0.00    -0.268 OA
ATOM     25  O   UNL A   1      33.667  26.241  25.832  1.00  0.00    -0.261 OA
BRANCH  19  26
ATOM     26  C   UNL A   1      29.861  28.640  22.361  1.00  0.00    -0.021 A 
ATOM     27  C   UNL A   1      28.749  26.721  23.681  1.00  0.00     0.045 C 
ATOM     28  C   UNL A   1      28.830  28.128  23.167  1.00  0.00    -0.044 A 
ATOM     29  C   UNL A   1      27.760  28.974  23.494  1.00  0.00     0.004 A 
ATOM     30  C   UNL A   1      27.686  30.278  23.011  1.00  0.00     0.000 A 
ATOM     31  C   UNL A   1      29.748  29.959  21.861  1.00  0.00     0.008 A 
ATOM     32  C   UNL A   1      28.663  30.769  22.170  1.00  0.00     0.001 A 
ENDBRANCH  19  26
ENDBRANCH  17  18
ENDBRANCH  14  17
ENDBRANCH   8  13
ENDBRANCH   4   7
ENDBRANCH   2   3
ENDBRANCH   1   2
BRANCH   1  33
ATOM     33  C   UNL A   1      36.523  22.515  24.563  1.00  0.00     0.023 C 
BRANCH  33  34
ATOM     34  C   UNL A   1      37.382  23.576  25.228  1.00  0.00     0.116 C 
BRANCH  34  35
ATOM     35  N   UNL A   1      37.982  23.189  26.510  1.00  0.00    -0.352 N 
ATOM     36  C   UNL A   1      39.377  23.047  26.612  1.00  0.00     0.251 C 
ATOM     37  H   UNL A   1      37.411  23.029  27.296  1.00  0.00     0.163 HD
ATOM     38  O   UNL A   1      39.986  22.039  26.274  1.00  0.00    -0.269 OA
BRANCH  36  39
ATOM     39  C   UNL A   1      40.116  24.325  26.825  1.00  0.00     0.039 A 
ATOM     40  C   UNL A   1      40.673  25.204  25.880  1.00  0.00     0.014 A 
ATOM     41  C   UNL A   1      40.032  24.809  28.098  1.00  0.00     0.014 A 
ATOM     42  C   UNL A   1      41.098  26.487  26.321  1.00  0.00     0.010 A 
ATOM     43  C   UNL A   1      39.694  26.108  28.158  1.00  0.00     0.010 A 
ATOM     44  C   UNL A   1      40.656  26.892  27.575  1.00  0.00    -0.014 A 
BRANCH  44  45
ATOM     45  C   UNL A   1      40.912  28.013  28.468  1.00  0.00     0.031 A 
ATOM     46  C   UNL A   1      39.959  29.128  28.582  1.00  0.00     0.074 A 
ATOM     47  C   UNL A   1      41.705  27.686  29.527  1.00  0.00     0.049 A 
ATOM     48  N   UNL A   1      40.136  30.149  29.341  1.00  0.00    -0.248 NA
ATOM     49  C   UNL A   1      38.659  29.125  27.925  1.00  0.00     0.031 C 
ATOM     50  C   UNL A   1      41.826  28.261  30.861  1.00  0.00     0.029 A 
ATOM     51  N   UNL A   1      42.683  26.677  29.544  1.00  0.00    -0.354 N 
ATOM     52  C   UNL A   1      38.919  30.779  29.515  1.00  0.00     0.074 A 
ATOM     53  C   UNL A   1      38.055  30.151  28.539  1.00  0.00     0.031 C 
ATOM     54  C   UNL A   1      43.011  27.883  31.384  1.00  0.00     0.029 A 
ATOM     55  C   UNL A   1      43.730  27.163  30.342  1.00  0.00     0.049 A 
ATOM     56  H   UNL A   1      42.642  25.805  29.087  1.00  0.00     0.167 HD
ATOM     57  C   UNL A   1      38.793  31.664  30.552  1.00  0.00     0.037 A 
ATOM     58  C   UNL A   1      44.833  27.603  29.659  1.00  0.00     0.037 A 
ATOM     59  C   UNL A   1      40.090  31.804  31.240  1.00  0.00     0.049 A 
ATOM     60  C   UNL A   1      44.927  29.117  29.631  1.00  0.00     0.074 A 
ATOM     61  C   UNL A   1      40.634  31.306  32.412  1.00  0.00     0.029 A 
ATOM     62  N   UNL A   1      41.158  32.308  30.519  1.00  0.00    -0.354 N 
ATOM     63  N   UNL A   1      44.066  29.917  30.200  1.00  0.00    -0.248 NA
ATOM     64  C   UNL A   1      45.979  29.854  28.938  1.00  0.00     0.031 C 
ATOM     65  C   UNL A   1      42.061  31.396  32.304  1.00  0.00     0.029 A 
ATOM     66  C   UNL A   1      42.375  31.984  31.088  1.00  0.00     0.049 A 
ATOM     67  H   UNL A   1      41.062  32.836  29.694  1.00  0.00     0.167 HD
ATOM     68  C   UNL A   1      44.365  31.216  29.919  1.00  0.00     0.074 A 
ATOM     69  C   UNL A   1      45.581  31.127  29.123  1.00  0.00     0.031 C 
ATOM     70  C   UNL A   1      43.596  32.268  30.339  1.00  0.00     0.037 A 
BRANCH  57  71
ATOM     71  C   UNL A   1      37.519  32.313  31.088  1.00  0.00     0.058 A 
ATOM     72  C   UNL A   1      36.834  33.274  30.303  1.00  0.00     0.135 A 
ATOM     73  C   UNL A   1      36.915  32.070  32.340  1.00  0.00     0.135 A 
ATOM     74  F   UNL A   1      37.240  33.583  29.063  1.00  0.00    -0.206 F 
ATOM     75  C   UNL A   1      35.700  33.966  30.741  1.00  0.00     0.059 A 
ATOM     76  C   UNL A   1      35.787  32.761  32.808  1.00  0.00     0.059 A 
ATOM     77  F   UNL A   1      37.358  31.127  33.174  1.00  0.00    -0.206 F 
ATOM     78  C   UNL A   1      35.188  33.715  32.003  1.00  0.00     0.060 A 
BRANCH  78  79
ATOM     79  S   UNL A   1      33.735  34.627  32.555  1.00  0.00     0.124 S 
ATOM     80  O   UNL A   1      34.324  35.637  33.428  1.00  0.00    -0.237 OA
ATOM     81  O   UNL A   1      33.186  35.119  31.295  1.00  0.00    -0.237 OA
ATOM     82  O   UNL A   1      32.931  33.613  33.231  1.00  0.00    -0.744 OA
ENDBRANCH  78  79
ENDBRANCH  57  71
BRANCH  58  83
ATOM     83  C   UNL A   1      45.161  26.642  28.538  1.00  0.00     0.058 A 
ATOM     84  C   UNL A   1      45.628  25.365  28.923  1.00  0.00     0.135 A 
ATOM     85  C   UNL A   1      44.539  26.736  27.278  1.00  0.00     0.135 A 
ATOM     86  F   UNL A   1      46.216  25.199  30.119  1.00  0.00    -0.206 F 
ATOM     87  C   UNL A   1      45.342  24.219  28.185  1.00  0.00     0.059 A 
ATOM     88  C   UNL A   1      44.250  25.593  26.516  1.00  0.00     0.059 A 
ATOM     89  F   UNL A   1      44.063  27.915  26.849  1.00  0.00    -0.206 F 
ATOM     90  C   UNL A   1      44.602  24.337  27.011  1.00  0.00     0.060 A 
BRANCH  90  91
ATOM     91  S   UNL A   1      43.959  22.808  26.282  1.00  0.00     0.124 S 
ATOM     92  O   UNL A   1      43.335  23.294  25.058  1.00  0.00    -0.237 OA
ATOM     93  O   UNL A   1      45.189  22.029  26.102  1.00  0.00    -0.237 OA
ATOM     94  O   UNL A   1      43.045  22.299  27.297  1.00  0.00    -0.744 OA
ENDBRANCH  90  91
ENDBRANCH  58  83
BRANCH  70  95
ATOM     95  C   UNL A   1      43.979  33.690  30.042  1.00  0.00     0.058 A 
ATOM     96  C   UNL A   1      43.899  34.210  28.741  1.00  0.00     0.135 A 
ATOM     97  C   UNL A   1      44.523  34.547  31.023  1.00  0.00     0.135 A 
ATOM     98  F   UNL A   1      43.481  33.445  27.719  1.00  0.00    -0.206 F 
ATOM     99  C   UNL A   1      44.244  35.525  28.449  1.00  0.00     0.059 A 
ATOM    100  C   UNL A   1      44.948  35.837  30.739  1.00  0.00     0.059 A 
ATOM    101  F   UNL A   1      44.624  34.178  32.307  1.00  0.00    -0.206 F 
ATOM    102  C   UNL A   1      44.763  36.333  29.457  1.00  0.00     0.060 A 
BRANCH 102 103
ATOM    103  S   UNL A   1      45.192  38.040  29.084  1.00  0.00     0.124 S 
ATOM    104  O   UNL A   1      44.359  38.787  30.020  1.00  0.00    -0.237 OA
ATOM    105  O   UNL A   1      46.623  38.042  29.369  1.00  0.00    -0.237 OA
ATOM    106  O   UNL A   1      44.828  38.181  27.678  1.00  0.00    -0.744 OA
ENDBRANCH 102 103
ENDBRANCH  70  95
ENDBRANCH  44  45
ENDBRANCH  36  39
ENDBRANCH  34  35
ENDBRANCH  33  34
ENDBRANCH   1  33
TORSDOF 18
ENDMDL
