MODEL 1
REMARK VINA RESULT:     -12.4      0.000      0.000
REMARK SMILES Cn1cc(S(=O)(=O)N2CCCc3cc(C(=O)NCCCCNC(=O)c4ccc(-c5c6nc(c(-c7c(F)cc(S(=O)(=O)[O-])cc7F)c7ccc([nH]7)c(-c7c(F)cc(S(=O)(=O)[O-])cc7F)c7nc(c(-c8c(F)cc(S(=O)(=O)[O-])cc8F)c8ccc5[nH]8)C=C7)C=C6)cc4)ccc32)cc1C(N)=O
REMARK SMILES IDX 19 1 18 2 17 3 15 4 16 5 14 7 8 8 9 9 93 10 10 11 12 12
REMARK SMILES IDX 92 13 11 14 13 15 91 16 5 17 6 18 7 19 4 20 1 21 2 22 3 23
REMARK SMILES IDX 95 24 94 25 96 26 97 27 98 28 20 31 21 32 22 33 23 34 24 36
REMARK SMILES IDX 25 37 26 38 90 39 27 40 89 41 28 42 29 43 30 44 83 45 31 46
REMARK SMILES IDX 88 47 82 48 84 49 32 50 87 51 81 52 80 53 33 55 67 56 46 57
REMARK SMILES IDX 66 58 47 59 50 60 65 61 85 62 48 63 49 64 64 66 86 67 51 68
REMARK SMILES IDX 34 69 35 70 44 71 36 72 37 73 43 74 45 75 38 76 39 77 40 78
REMARK SMILES IDX 41 79 42 80 68 81 69 82 78 83 70 84 71 85 77 86 79 87 72 88
REMARK SMILES IDX 73 89 74 90 75 91 76 92 52 93 53 94 62 95 54 96 55 97 61 98
REMARK SMILES IDX 63 99 56 100 57 101 58 102 59 103 60 104
REMARK H PARENT 17 6 97 29 97 30 22 35 84 54 50 65
REMARK Flexibility Score: inf
ROOT
ATOM      1  C   UNL A   1      34.448  32.957  29.043  1.00  0.00     0.023 C 
ENDROOT
BRANCH   1   2
ATOM      2  C   UNL A   1      34.110  31.853  28.037  1.00  0.00     0.116 C 
BRANCH   2   3
ATOM      3  N   UNL A   1      32.883  32.163  27.331  1.00  0.00    -0.352 N 
ATOM      4  C   UNL A   1      31.998  31.379  26.637  1.00  0.00     0.251 C 
ATOM      5  O   UNL A   1      31.007  31.927  26.153  1.00  0.00    -0.269 OA
ATOM      6  H   UNL A   1      32.638  33.116  27.353  1.00  0.00     0.163 HD
BRANCH   4   7
ATOM      7  C   UNL A   1      32.147  29.901  26.475  1.00  0.00     0.040 A 
ATOM      8  N   UNL A   1      32.648  25.744  25.676  1.00  0.00    -0.266 N 
ATOM      9  C   UNL A   1      33.714  25.354  24.736  1.00  0.00     0.136 C 
ATOM     10  C   UNL A   1      32.482  27.138  25.962  1.00  0.00     0.055 A 
ATOM     11  C   UNL A   1      33.596  26.199  23.479  1.00  0.00     0.028 C 
ATOM     12  C   UNL A   1      32.953  28.084  25.041  1.00  0.00    -0.023 A 
ATOM     13  C   UNL A   1      31.936  27.580  27.167  1.00  0.00     0.028 A 
ATOM     14  C   UNL A   1      33.744  27.677  23.823  1.00  0.00     0.039 C 
ATOM     15  C   UNL A   1      32.767  29.454  25.298  1.00  0.00     0.019 A 
ATOM     16  C   UNL A   1      31.785  28.948  27.426  1.00  0.00     0.016 A 
BRANCH   8  17
ATOM     17  S   UNL A   1      31.418  24.619  26.004  1.00  0.00     0.265 S 
ATOM     18  O   UNL A   1      30.214  25.019  25.301  1.00  0.00    -0.201 OA
ATOM     19  O   UNL A   1      31.396  24.231  27.394  1.00  0.00    -0.201 OA
BRANCH  17  20
ATOM     20  C   UNL A   1      31.869  23.154  25.192  1.00  0.00     0.106 A 
ATOM     21  C   UNL A   1      32.084  20.982  22.321  1.00  0.00     0.150 C 
ATOM     22  N   UNL A   1      32.176  21.603  23.625  1.00  0.00    -0.345 N 
ATOM     23  C   UNL A   1      31.630  22.842  23.875  1.00  0.00     0.108 A 
ATOM     24  C   UNL A   1      32.775  21.101  24.773  1.00  0.00     0.107 A 
ATOM     25  C   UNL A   1      32.558  22.059  25.762  1.00  0.00     0.056 A 
BRANCH  24  26
ATOM     26  C   UNL A   1      33.482  19.836  24.883  1.00  0.00     0.265 C 
ATOM     27  N   UNL A   1      34.842  19.917  24.982  1.00  0.00    -0.364 N 
ATOM     28  O   UNL A   1      32.962  18.725  24.882  1.00  0.00    -0.268 OA
ATOM     29  H   UNL A   1      35.284  20.796  24.984  1.00  0.00     0.160 HD
ATOM     30  H   UNL A   1      35.380  19.095  25.051  1.00  0.00     0.160 HD
ENDBRANCH  24  26
ENDBRANCH  17  20
ENDBRANCH   8  17
ENDBRANCH   4   7
ENDBRANCH   2   3
ENDBRANCH   1   2
BRANCH   1  31
ATOM     31  C   UNL A   1      35.921  33.370  29.055  1.00  0.00     0.023 C 
BRANCH  31  32
ATOM     32  C   UNL A   1      36.720  32.869  30.253  1.00  0.00     0.116 C 
BRANCH  32  33
ATOM     33  N   UNL A   1      36.156  31.673  30.859  1.00  0.00    -0.352 N 
ATOM     34  C   UNL A   1      36.712  30.420  30.945  1.00  0.00     0.251 C 
ATOM     35  H   UNL A   1      35.262  31.775  31.259  1.00  0.00     0.163 HD
ATOM     36  O   UNL A   1      36.062  29.483  31.397  1.00  0.00    -0.269 OA
BRANCH  34  37
ATOM     37  C   UNL A   1      38.085  30.207  30.443  1.00  0.00     0.039 A 
ATOM     38  C   UNL A   1      39.125  30.071  31.366  1.00  0.00     0.014 A 
ATOM     39  C   UNL A   1      38.333  30.097  29.072  1.00  0.00     0.014 A 
ATOM     40  C   UNL A   1      40.407  29.752  30.914  1.00  0.00     0.010 A 
ATOM     41  C   UNL A   1      39.596  29.716  28.631  1.00  0.00     0.010 A 
ATOM     42  C   UNL A   1      40.643  29.536  29.547  1.00  0.00    -0.014 A 
BRANCH  42  43
ATOM     43  C   UNL A   1      41.977  29.112  29.055  1.00  0.00     0.031 A 
ATOM     44  C   UNL A   1      43.093  30.113  28.948  1.00  0.00     0.074 A 
ATOM     45  C   UNL A   1      42.159  27.843  28.639  1.00  0.00     0.049 A 
ATOM     46  N   UNL A   1      44.301  29.955  28.474  1.00  0.00    -0.248 NA
ATOM     47  C   UNL A   1      42.802  31.481  29.407  1.00  0.00     0.031 C 
ATOM     48  C   UNL A   1      41.135  26.795  28.644  1.00  0.00     0.029 A 
ATOM     49  N   UNL A   1      43.266  27.221  28.119  1.00  0.00    -0.354 N 
ATOM     50  C   UNL A   1      44.909  31.201  28.561  1.00  0.00     0.074 A 
ATOM     51  C   UNL A   1      43.920  32.117  29.088  1.00  0.00     0.031 C 
ATOM     52  C   UNL A   1      41.668  25.658  28.169  1.00  0.00     0.029 A 
ATOM     53  C   UNL A   1      43.057  25.901  27.797  1.00  0.00     0.049 A 
ATOM     54  H   UNL A   1      44.128  27.678  27.989  1.00  0.00     0.167 HD
ATOM     55  C   UNL A   1      46.181  31.545  28.253  1.00  0.00     0.037 A 
ATOM     56  C   UNL A   1      43.892  24.991  27.257  1.00  0.00     0.037 A 
ATOM     57  C   UNL A   1      47.168  30.621  27.759  1.00  0.00     0.049 A 
ATOM     58  C   UNL A   1      45.306  25.393  26.938  1.00  0.00     0.074 A 
ATOM     59  C   UNL A   1      48.503  30.856  27.476  1.00  0.00     0.029 A 
ATOM     60  N   UNL A   1      46.929  29.284  27.475  1.00  0.00    -0.354 N 
ATOM     61  N   UNL A   1      45.883  26.562  27.088  1.00  0.00    -0.248 NA
ATOM     62  C   UNL A   1      46.184  24.354  26.383  1.00  0.00     0.031 C 
ATOM     63  C   UNL A   1      49.061  29.669  26.988  1.00  0.00     0.029 A 
ATOM     64  C   UNL A   1      48.086  28.685  27.006  1.00  0.00     0.049 A 
ATOM     65  H   UNL A   1      46.063  28.829  27.590  1.00  0.00     0.167 HD
ATOM     66  C   UNL A   1      47.198  26.392  26.670  1.00  0.00     0.074 A 
ATOM     67  C   UNL A   1      47.333  25.005  26.271  1.00  0.00     0.031 C 
ATOM     68  C   UNL A   1      48.204  27.300  26.623  1.00  0.00     0.037 A 
BRANCH  55  69
ATOM     69  C   UNL A   1      46.580  32.981  28.449  1.00  0.00     0.058 A 
ATOM     70  C   UNL A   1      46.448  33.928  27.420  1.00  0.00     0.135 A 
ATOM     71  C   UNL A   1      47.079  33.424  29.684  1.00  0.00     0.135 A 
ATOM     72  F   UNL A   1      45.990  33.555  26.213  1.00  0.00    -0.206 F 
ATOM     73  C   UNL A   1      46.824  35.254  27.599  1.00  0.00     0.059 A 
ATOM     74  C   UNL A   1      47.438  34.752  29.894  1.00  0.00     0.059 A 
ATOM     75  F   UNL A   1      47.227  32.560  30.702  1.00  0.00    -0.206 F 
ATOM     76  C   UNL A   1      47.322  35.657  28.839  1.00  0.00     0.060 A 
BRANCH  76  77
ATOM     77  S   UNL A   1      47.810  37.382  29.055  1.00  0.00     0.124 S 
ATOM     78  O   UNL A   1      47.288  37.665  30.389  1.00  0.00    -0.237 OA
ATOM     79  O   UNL A   1      49.264  37.312  28.947  1.00  0.00    -0.237 OA
ATOM     80  O   UNL A   1      47.134  38.066  27.958  1.00  0.00    -0.744 OA
ENDBRANCH  76  77
ENDBRANCH  55  69
BRANCH  56  81
ATOM     81  C   UNL A   1      43.420  23.602  27.014  1.00  0.00     0.058 A 
ATOM     82  C   UNL A   1      43.335  22.678  28.065  1.00  0.00     0.135 A 
ATOM     83  C   UNL A   1      43.029  23.177  25.735  1.00  0.00     0.135 A 
ATOM     84  F   UNL A   1      43.701  23.038  29.305  1.00  0.00    -0.206 F 
ATOM     85  C   UNL A   1      42.894  21.375  27.857  1.00  0.00     0.059 A 
ATOM     86  C   UNL A   1      42.565  21.886  25.505  1.00  0.00     0.059 A 
ATOM     87  F   UNL A   1      43.076  24.030  24.699  1.00  0.00    -0.206 F 
ATOM     88  C   UNL A   1      42.510  20.989  26.571  1.00  0.00     0.060 A 
BRANCH  88  89
ATOM     89  S   UNL A   1      41.892  19.310  26.319  1.00  0.00     0.124 S 
ATOM     90  O   UNL A   1      42.087  18.725  27.641  1.00  0.00    -0.237 OA
ATOM     91  O   UNL A   1      40.507  19.548  25.924  1.00  0.00    -0.237 OA
ATOM     92  O   UNL A   1      42.757  18.792  25.263  1.00  0.00    -0.744 OA
ENDBRANCH  88  89
ENDBRANCH  56  81
BRANCH  68  93
ATOM     93  C   UNL A   1      49.547  26.819  26.153  1.00  0.00     0.058 A 
ATOM     94  C   UNL A   1      49.918  26.878  24.801  1.00  0.00     0.135 A 
ATOM     95  C   UNL A   1      50.493  26.345  27.075  1.00  0.00     0.135 A 
ATOM     96  F   UNL A   1      49.047  27.319  23.880  1.00  0.00    -0.206 F 
ATOM     97  C   UNL A   1      51.176  26.464  24.376  1.00  0.00     0.059 A 
ATOM     98  C   UNL A   1      51.765  25.948  26.676  1.00  0.00     0.059 A 
ATOM     99  F   UNL A   1      50.190  26.277  28.381  1.00  0.00    -0.206 F 
ATOM    100  C   UNL A   1      52.094  26.001  25.322  1.00  0.00     0.060 A 
BRANCH 100 101
ATOM    101  S   UNL A   1      53.737  25.502  24.765  1.00  0.00     0.124 S 
ATOM    102  O   UNL A   1      54.583  26.048  25.821  1.00  0.00    -0.237 OA
ATOM    103  O   UNL A   1      53.628  24.046  24.729  1.00  0.00    -0.237 OA
ATOM    104  O   UNL A   1      53.863  26.147  23.461  1.00  0.00    -0.744 OA
ENDBRANCH 100 101
ENDBRANCH  68  93
ENDBRANCH  42  43
ENDBRANCH  34  37
ENDBRANCH  32  33
ENDBRANCH  31  32
ENDBRANCH   1  31
TORSDOF 17
ENDMDL
MODEL 2
REMARK VINA RESULT:     -12.3      0.984      1.890
REMARK SMILES Cn1cc(S(=O)(=O)N2CCCc3cc(C(=O)NCCCCNC(=O)c4ccc(-c5c6nc(c(-c7c(F)cc(S(=O)(=O)[O-])cc7F)c7ccc([nH]7)c(-c7c(F)cc(S(=O)(=O)[O-])cc7F)c7nc(c(-c8c(F)cc(S(=O)(=O)[O-])cc8F)c8ccc5[nH]8)C=C7)C=C6)cc4)ccc32)cc1C(N)=O
REMARK SMILES IDX 19 1 18 2 17 3 15 4 16 5 14 7 8 8 9 9 93 10 10 11 12 12
REMARK SMILES IDX 92 13 11 14 13 15 91 16 5 17 6 18 7 19 4 20 1 21 2 22 3 23
REMARK SMILES IDX 95 24 94 25 96 26 97 27 98 28 20 31 21 32 22 33 23 34 24 36
REMARK SMILES IDX 25 37 26 38 90 39 27 40 89 41 28 42 29 43 30 44 83 45 31 46
REMARK SMILES IDX 88 47 82 48 84 49 32 50 87 51 81 52 80 53 33 55 67 56 46 57
REMARK SMILES IDX 66 58 47 59 50 60 65 61 85 62 48 63 49 64 64 66 86 67 51 68
REMARK SMILES IDX 34 69 35 70 44 71 36 72 37 73 43 74 45 75 38 76 39 77 40 78
REMARK SMILES IDX 41 79 42 80 68 81 69 82 78 83 70 84 71 85 77 86 79 87 72 88
REMARK SMILES IDX 73 89 74 90 75 91 76 92 52 93 53 94 62 95 54 96 55 97 61 98
REMARK SMILES IDX 63 99 56 100 57 101 58 102 59 103 60 104
REMARK H PARENT 17 6 97 29 97 30 22 35 84 54 50 65
REMARK Flexibility Score: inf
ROOT
ATOM      1  C   UNL A   1      35.919  32.028  27.741  1.00  0.00     0.023 C 
ENDROOT
BRANCH   1   2
ATOM      2  C   UNL A   1      34.876  30.908  27.707  1.00  0.00     0.116 C 
BRANCH   2   3
ATOM      3  N   UNL A   1      33.550  31.450  27.484  1.00  0.00    -0.352 N 
ATOM      4  C   UNL A   1      32.473  30.984  26.776  1.00  0.00     0.251 C 
ATOM      5  O   UNL A   1      31.446  31.664  26.787  1.00  0.00    -0.269 OA
ATOM      6  H   UNL A   1      33.394  32.317  27.923  1.00  0.00     0.163 HD
BRANCH   4   7
ATOM      7  C   UNL A   1      32.464  29.687  26.036  1.00  0.00     0.040 A 
ATOM      8  N   UNL A   1      32.273  25.843  24.202  1.00  0.00    -0.266 N 
ATOM      9  C   UNL A   1      31.061  25.037  24.432  1.00  0.00     0.136 C 
ATOM     10  C   UNL A   1      32.340  27.143  24.802  1.00  0.00     0.055 A 
ATOM     11  C   UNL A   1      30.763  25.010  25.921  1.00  0.00     0.028 C 
ATOM     12  C   UNL A   1      31.547  27.416  25.926  1.00  0.00    -0.023 A 
ATOM     13  C   UNL A   1      33.111  28.166  24.253  1.00  0.00     0.028 A 
ATOM     14  C   UNL A   1      30.532  26.425  26.439  1.00  0.00     0.039 C 
ATOM     15  C   UNL A   1      31.628  28.678  26.541  1.00  0.00     0.019 A 
ATOM     16  C   UNL A   1      33.159  29.429  24.856  1.00  0.00     0.016 A 
BRANCH   8  17
ATOM     17  S   UNL A   1      33.669  25.050  23.649  1.00  0.00     0.265 S 
ATOM     18  O   UNL A   1      34.691  25.122  24.676  1.00  0.00    -0.201 OA
ATOM     19  O   UNL A   1      33.954  25.356  22.267  1.00  0.00    -0.201 OA
BRANCH  17  20
ATOM     20  C   UNL A   1      33.284  23.359  23.606  1.00  0.00     0.106 A 
ATOM     21  C   UNL A   1      31.964  20.381  22.059  1.00  0.00     0.150 C 
ATOM     22  N   UNL A   1      32.578  21.359  22.932  1.00  0.00    -0.345 N 
ATOM     23  C   UNL A   1      32.667  22.686  22.579  1.00  0.00     0.108 A 
ATOM     24  C   UNL A   1      33.138  21.156  24.187  1.00  0.00     0.107 A 
ATOM     25  C   UNL A   1      33.554  22.413  24.621  1.00  0.00     0.056 A 
BRANCH  24  26
ATOM     26  C   UNL A   1      33.256  19.880  24.872  1.00  0.00     0.265 C 
ATOM     27  N   UNL A   1      34.516  19.359  24.953  1.00  0.00    -0.364 N 
ATOM     28  O   UNL A   1      32.329  19.245  25.362  1.00  0.00    -0.268 OA
ATOM     29  H   UNL A   1      35.277  19.849  24.568  1.00  0.00     0.160 HD
ATOM     30  H   UNL A   1      34.663  18.493  25.398  1.00  0.00     0.160 HD
ENDBRANCH  24  26
ENDBRANCH  17  20
ENDBRANCH   8  17
ENDBRANCH   4   7
ENDBRANCH   2   3
ENDBRANCH   1   2
BRANCH   1  31
ATOM     31  C   UNL A   1      35.705  33.056  28.855  1.00  0.00     0.023 C 
BRANCH  31  32
ATOM     32  C   UNL A   1      36.581  32.862  30.086  1.00  0.00     0.116 C 
BRANCH  32  33
ATOM     33  N   UNL A   1      36.142  31.766  30.937  1.00  0.00    -0.352 N 
ATOM     34  C   UNL A   1      36.789  30.583  31.202  1.00  0.00     0.251 C 
ATOM     35  H   UNL A   1      35.271  31.888  31.379  1.00  0.00     0.163 HD
ATOM     36  O   UNL A   1      36.236  29.709  31.861  1.00  0.00    -0.269 OA
BRANCH  34  37
ATOM     37  C   UNL A   1      38.139  30.361  30.643  1.00  0.00     0.039 A 
ATOM     38  C   UNL A   1      39.235  30.374  31.509  1.00  0.00     0.014 A 
ATOM     39  C   UNL A   1      38.311  30.096  29.282  1.00  0.00     0.014 A 
ATOM     40  C   UNL A   1      40.501  30.050  31.018  1.00  0.00     0.010 A 
ATOM     41  C   UNL A   1      39.561  29.710  28.810  1.00  0.00     0.010 A 
ATOM     42  C   UNL A   1      40.667  29.679  29.674  1.00  0.00    -0.014 A 
BRANCH  42  43
ATOM     43  C   UNL A   1      41.987  29.248  29.153  1.00  0.00     0.031 A 
ATOM     44  C   UNL A   1      43.106  30.242  29.020  1.00  0.00     0.074 A 
ATOM     45  C   UNL A   1      42.152  27.977  28.733  1.00  0.00     0.049 A 
ATOM     46  N   UNL A   1      44.302  30.077  28.519  1.00  0.00    -0.248 NA
ATOM     47  C   UNL A   1      42.833  31.612  29.484  1.00  0.00     0.031 C 
ATOM     48  C   UNL A   1      41.123  26.935  28.762  1.00  0.00     0.029 A 
ATOM     49  N   UNL A   1      43.244  27.349  28.189  1.00  0.00    -0.354 N 
ATOM     50  C   UNL A   1      44.919  31.320  28.592  1.00  0.00     0.074 A 
ATOM     51  C   UNL A   1      43.947  32.242  29.140  1.00  0.00     0.031 C 
ATOM     52  C   UNL A   1      41.638  25.794  28.276  1.00  0.00     0.029 A 
ATOM     53  C   UNL A   1      43.020  26.030  27.872  1.00  0.00     0.049 A 
ATOM     54  H   UNL A   1      44.105  27.801  28.039  1.00  0.00     0.167 HD
ATOM     55  C   UNL A   1      46.186  31.657  28.255  1.00  0.00     0.037 A 
ATOM     56  C   UNL A   1      43.838  25.114  27.315  1.00  0.00     0.037 A 
ATOM     57  C   UNL A   1      47.156  30.726  27.740  1.00  0.00     0.049 A 
ATOM     58  C   UNL A   1      45.247  25.509  26.965  1.00  0.00     0.074 A 
ATOM     59  C   UNL A   1      48.485  30.954  27.427  1.00  0.00     0.029 A 
ATOM     60  N   UNL A   1      46.903  29.391  27.462  1.00  0.00    -0.354 N 
ATOM     61  N   UNL A   1      45.834  26.674  27.100  1.00  0.00    -0.248 NA
ATOM     62  C   UNL A   1      46.106  24.464  26.391  1.00  0.00     0.031 C 
ATOM     63  C   UNL A   1      49.026  29.763  26.928  1.00  0.00     0.029 A 
ATOM     64  C   UNL A   1      48.046  28.785  26.969  1.00  0.00     0.049 A 
ATOM     65  H   UNL A   1      46.038  28.940  27.597  1.00  0.00     0.167 HD
ATOM     66  C   UNL A   1      47.138  26.496  26.654  1.00  0.00     0.074 A 
ATOM     67  C   UNL A   1      47.256  25.109  26.253  1.00  0.00     0.031 C 
ATOM     68  C   UNL A   1      48.147  27.399  26.583  1.00  0.00     0.037 A 
BRANCH  55  69
ATOM     69  C   UNL A   1      46.597  33.090  28.442  1.00  0.00     0.058 A 
ATOM     70  C   UNL A   1      47.144  33.546  29.653  1.00  0.00     0.135 A 
ATOM     71  C   UNL A   1      46.464  34.016  27.395  1.00  0.00     0.135 A 
ATOM     72  F   UNL A   1      47.279  32.707  30.692  1.00  0.00    -0.206 F 
ATOM     73  C   UNL A   1      47.516  34.874  29.828  1.00  0.00     0.059 A 
ATOM     74  C   UNL A   1      46.853  35.344  27.540  1.00  0.00     0.059 A 
ATOM     75  F   UNL A   1      45.945  33.634  26.217  1.00  0.00    -0.206 F 
ATOM     76  C   UNL A   1      47.364  35.767  28.767  1.00  0.00     0.060 A 
BRANCH  76  77
ATOM     77  S   UNL A   1      47.849  37.489  29.010  1.00  0.00     0.124 S 
ATOM     78  O   UNL A   1      49.272  37.438  28.688  1.00  0.00    -0.237 OA
ATOM     79  O   UNL A   1      47.007  38.191  28.046  1.00  0.00    -0.237 OA
ATOM     80  O   UNL A   1      47.532  37.737  30.413  1.00  0.00    -0.744 OA
ENDBRANCH  76  77
ENDBRANCH  55  69
BRANCH  56  81
ATOM     81  C   UNL A   1      43.353  23.729  27.083  1.00  0.00     0.058 A 
ATOM     82  C   UNL A   1      42.984  23.302  25.800  1.00  0.00     0.135 A 
ATOM     83  C   UNL A   1      43.264  22.801  28.133  1.00  0.00     0.135 A 
ATOM     84  F   UNL A   1      43.048  24.155  24.766  1.00  0.00    -0.206 F 
ATOM     85  C   UNL A   1      42.528  22.009  25.564  1.00  0.00     0.059 A 
ATOM     86  C   UNL A   1      42.832  21.496  27.918  1.00  0.00     0.059 A 
ATOM     87  F   UNL A   1      43.622  23.156  29.376  1.00  0.00    -0.206 F 
ATOM     88  C   UNL A   1      42.456  21.112  26.631  1.00  0.00     0.060 A 
BRANCH  88  89
ATOM     89  S   UNL A   1      41.911  19.421  26.307  1.00  0.00     0.124 S 
ATOM     90  O   UNL A   1      40.467  19.593  26.204  1.00  0.00    -0.237 OA
ATOM     91  O   UNL A   1      42.607  19.106  25.063  1.00  0.00    -0.237 OA
ATOM     92  O   UNL A   1      42.380  18.689  27.480  1.00  0.00    -0.744 OA
ENDBRANCH  88  89
ENDBRANCH  56  81
BRANCH  68  93
ATOM     93  C   UNL A   1      49.478  26.911  26.085  1.00  0.00     0.058 A 
ATOM     94  C   UNL A   1      49.838  27.012  24.731  1.00  0.00     0.135 A 
ATOM     95  C   UNL A   1      50.422  26.385  26.980  1.00  0.00     0.135 A 
ATOM     96  F   UNL A   1      48.968  27.501  23.835  1.00  0.00    -0.206 F 
ATOM     97  C   UNL A   1      51.084  26.589  24.281  1.00  0.00     0.059 A 
ATOM     98  C   UNL A   1      51.683  25.979  26.555  1.00  0.00     0.059 A 
ATOM     99  F   UNL A   1      50.128  26.276  28.285  1.00  0.00    -0.206 F 
ATOM    100  C   UNL A   1      52.001  26.075  25.201  1.00  0.00     0.060 A 
BRANCH 100 101
ATOM    101  S   UNL A   1      53.629  25.566  24.611  1.00  0.00     0.124 S 
ATOM    102  O   UNL A   1      53.524  24.112  24.677  1.00  0.00    -0.237 OA
ATOM    103  O   UNL A   1      53.670  26.137  23.267  1.00  0.00    -0.237 OA
ATOM    104  O   UNL A   1      54.544  26.175  25.571  1.00  0.00    -0.744 OA
ENDBRANCH 100 101
ENDBRANCH  68  93
ENDBRANCH  42  43
ENDBRANCH  34  37
ENDBRANCH  32  33
ENDBRANCH  31  32
ENDBRANCH   1  31
TORSDOF 17
ENDMDL
MODEL 3
REMARK VINA RESULT:     -12.3      6.337     12.094
REMARK SMILES Cn1cc(S(=O)(=O)N2CCCc3cc(C(=O)NCCCCNC(=O)c4ccc(-c5c6nc(c(-c7c(F)cc(S(=O)(=O)[O-])cc7F)c7ccc([nH]7)c(-c7c(F)cc(S(=O)(=O)[O-])cc7F)c7nc(c(-c8c(F)cc(S(=O)(=O)[O-])cc8F)c8ccc5[nH]8)C=C7)C=C6)cc4)ccc32)cc1C(N)=O
REMARK SMILES IDX 19 1 18 2 17 3 15 4 16 5 14 7 8 8 9 9 93 10 10 11 12 12
REMARK SMILES IDX 92 13 11 14 13 15 91 16 5 17 6 18 7 19 4 20 1 21 2 22 3 23
REMARK SMILES IDX 95 24 94 25 96 26 97 27 98 28 20 31 21 32 22 33 23 34 24 36
REMARK SMILES IDX 25 37 26 38 90 39 27 40 89 41 28 42 29 43 30 44 83 45 31 46
REMARK SMILES IDX 88 47 82 48 84 49 32 50 87 51 81 52 80 53 33 55 67 56 46 57
REMARK SMILES IDX 66 58 47 59 50 60 65 61 85 62 48 63 49 64 64 66 86 67 51 68
REMARK SMILES IDX 34 69 35 70 44 71 36 72 37 73 43 74 45 75 38 76 39 77 40 78
REMARK SMILES IDX 41 79 42 80 68 81 69 82 78 83 70 84 71 85 77 86 79 87 72 88
REMARK SMILES IDX 73 89 74 90 75 91 76 92 52 93 53 94 62 95 54 96 55 97 61 98
REMARK SMILES IDX 63 99 56 100 57 101 58 102 59 103 60 104
REMARK H PARENT 17 6 97 29 97 30 22 35 84 54 50 65
REMARK Flexibility Score: inf
ROOT
ATOM      1  C   UNL A   1      38.524  23.526  26.494  1.00  0.00     0.023 C 
ENDROOT
BRANCH   1   2
ATOM      2  C   UNL A   1      37.506  22.981  25.487  1.00  0.00     0.116 C 
BRANCH   2   3
ATOM      3  N   UNL A   1      36.501  22.182  26.158  1.00  0.00    -0.352 N 
ATOM      4  C   UNL A   1      35.134  22.279  26.211  1.00  0.00     0.251 C 
ATOM      5  O   UNL A   1      34.526  21.422  26.855  1.00  0.00    -0.269 OA
ATOM      6  H   UNL A   1      36.867  21.428  26.674  1.00  0.00     0.163 HD
BRANCH   4   7
ATOM      7  C   UNL A   1      34.347  23.330  25.500  1.00  0.00     0.040 A 
ATOM      8  N   UNL A   1      32.238  26.211  23.170  1.00  0.00    -0.266 N 
ATOM      9  C   UNL A   1      31.719  25.780  21.861  1.00  0.00     0.136 C 
ATOM     10  C   UNL A   1      32.935  25.245  23.967  1.00  0.00     0.055 A 
ATOM     11  C   UNL A   1      32.830  25.082  21.095  1.00  0.00     0.028 C 
ATOM     12  C   UNL A   1      33.518  24.135  23.339  1.00  0.00    -0.023 A 
ATOM     13  C   UNL A   1      32.983  25.338  25.357  1.00  0.00     0.028 A 
ATOM     14  C   UNL A   1      33.319  23.863  21.868  1.00  0.00     0.039 C 
ATOM     15  C   UNL A   1      34.231  23.199  24.108  1.00  0.00     0.019 A 
ATOM     16  C   UNL A   1      33.669  24.381  26.116  1.00  0.00     0.016 A 
BRANCH   8  17
ATOM     17  S   UNL A   1      32.388  27.876  23.464  1.00  0.00     0.265 S 
ATOM     18  O   UNL A   1      33.310  28.444  22.497  1.00  0.00    -0.201 OA
ATOM     19  O   UNL A   1      32.484  28.172  24.873  1.00  0.00    -0.201 OA
BRANCH  17  20
ATOM     20  C   UNL A   1      30.872  28.589  23.013  1.00  0.00     0.106 A 
ATOM     21  C   UNL A   1      27.280  28.889  23.126  1.00  0.00     0.150 C 
ATOM     22  N   UNL A   1      28.697  29.043  22.876  1.00  0.00    -0.345 N 
ATOM     23  C   UNL A   1      29.626  28.200  23.444  1.00  0.00     0.108 A 
ATOM     24  C   UNL A   1      29.329  29.986  22.076  1.00  0.00     0.107 A 
ATOM     25  C   UNL A   1      30.688  29.684  22.140  1.00  0.00     0.056 A 
BRANCH  24  26
ATOM     26  C   UNL A   1      28.676  31.059  21.346  1.00  0.00     0.265 C 
ATOM     27  N   UNL A   1      29.055  32.328  21.679  1.00  0.00    -0.364 N 
ATOM     28  O   UNL A   1      27.822  30.915  20.478  1.00  0.00    -0.268 OA
ATOM     29  H   UNL A   1      29.739  32.471  22.372  1.00  0.00     0.160 HD
ATOM     30  H   UNL A   1      28.645  33.100  21.226  1.00  0.00     0.160 HD
ENDBRANCH  24  26
ENDBRANCH  17  20
ENDBRANCH   8  17
ENDBRANCH   4   7
ENDBRANCH   2   3
ENDBRANCH   1   2
BRANCH   1  31
ATOM     31  C   UNL A   1      39.644  22.547  26.851  1.00  0.00     0.023 C 
BRANCH  31  32
ATOM     32  C   UNL A   1      40.991  23.193  27.152  1.00  0.00     0.116 C 
BRANCH  32  33
ATOM     33  N   UNL A   1      41.511  23.981  26.044  1.00  0.00    -0.352 N 
ATOM     34  C   UNL A   1      41.817  25.320  26.023  1.00  0.00     0.251 C 
ATOM     35  H   UNL A   1      41.664  23.491  25.204  1.00  0.00     0.163 HD
ATOM     36  O   UNL A   1      42.149  25.862  24.974  1.00  0.00    -0.269 OA
BRANCH  34  37
ATOM     37  C   UNL A   1      41.694  26.106  27.268  1.00  0.00     0.039 A 
ATOM     38  C   UNL A   1      42.660  27.075  27.548  1.00  0.00     0.014 A 
ATOM     39  C   UNL A   1      40.608  25.916  28.126  1.00  0.00     0.014 A 
ATOM     40  C   UNL A   1      42.497  27.906  28.658  1.00  0.00     0.010 A 
ATOM     41  C   UNL A   1      40.414  26.787  29.193  1.00  0.00     0.010 A 
ATOM     42  C   UNL A   1      41.354  27.792  29.466  1.00  0.00    -0.014 A 
BRANCH  42  43
ATOM     43  C   UNL A   1      41.119  28.722  30.599  1.00  0.00     0.031 A 
ATOM     44  C   UNL A   1      41.936  28.601  31.854  1.00  0.00     0.074 A 
ATOM     45  C   UNL A   1      40.120  29.624  30.521  1.00  0.00     0.049 A 
ATOM     46  N   UNL A   1      41.831  29.266  32.974  1.00  0.00    -0.248 NA
ATOM     47  C   UNL A   1      42.992  27.576  31.861  1.00  0.00     0.031 C 
ATOM     48  C   UNL A   1      39.224  29.799  29.375  1.00  0.00     0.029 A 
ATOM     49  N   UNL A   1      39.683  30.556  31.427  1.00  0.00    -0.354 N 
ATOM     50  C   UNL A   1      42.792  28.734  33.825  1.00  0.00     0.074 A 
ATOM     51  C   UNL A   1      43.438  27.655  33.107  1.00  0.00     0.031 C 
ATOM     52  C   UNL A   1      38.358  30.790  29.640  1.00  0.00     0.029 A 
ATOM     53  C   UNL A   1      38.614  31.300  30.983  1.00  0.00     0.049 A 
ATOM     54  H   UNL A   1      40.095  30.681  32.312  1.00  0.00     0.167 HD
ATOM     55  C   UNL A   1      43.122  29.122  35.078  1.00  0.00     0.037 A 
ATOM     56  C   UNL A   1      37.918  32.279  31.593  1.00  0.00     0.037 A 
ATOM     57  C   UNL A   1      42.495  30.216  35.774  1.00  0.00     0.049 A 
ATOM     58  C   UNL A   1      38.314  32.703  32.981  1.00  0.00     0.074 A 
ATOM     59  C   UNL A   1      42.799  30.729  37.023  1.00  0.00     0.029 A 
ATOM     60  N   UNL A   1      41.437  30.965  35.280  1.00  0.00    -0.354 N 
ATOM     61  N   UNL A   1      39.269  32.230  33.746  1.00  0.00    -0.248 NA
ATOM     62  C   UNL A   1      37.543  33.797  33.587  1.00  0.00     0.031 C 
ATOM     63  C   UNL A   1      41.902  31.768  37.297  1.00  0.00     0.029 A 
ATOM     64  C   UNL A   1      41.067  31.928  36.204  1.00  0.00     0.049 A 
ATOM     65  H   UNL A   1      41.013  30.833  34.401  1.00  0.00     0.167 HD
ATOM     66  C   UNL A   1      39.231  32.986  34.911  1.00  0.00     0.074 A 
ATOM     67  C   UNL A   1      38.165  33.954  34.747  1.00  0.00     0.031 C 
ATOM     68  C   UNL A   1      40.009  32.889  36.018  1.00  0.00     0.037 A 
BRANCH  55  69
ATOM     69  C   UNL A   1      44.215  28.362  35.776  1.00  0.00     0.058 A 
ATOM     70  C   UNL A   1      43.935  27.261  36.601  1.00  0.00     0.135 A 
ATOM     71  C   UNL A   1      45.561  28.723  35.603  1.00  0.00     0.135 A 
ATOM     72  F   UNL A   1      42.664  26.882  36.814  1.00  0.00    -0.206 F 
ATOM     73  C   UNL A   1      44.945  26.564  37.253  1.00  0.00     0.059 A 
ATOM     74  C   UNL A   1      46.591  28.024  36.225  1.00  0.00     0.059 A 
ATOM     75  F   UNL A   1      45.886  29.769  34.826  1.00  0.00    -0.206 F 
ATOM     76  C   UNL A   1      46.271  26.955  37.062  1.00  0.00     0.060 A 
BRANCH  76  77
ATOM     77  S   UNL A   1      47.573  26.042  37.917  1.00  0.00     0.124 S 
ATOM     78  O   UNL A   1      47.639  26.755  39.189  1.00  0.00    -0.237 OA
ATOM     79  O   UNL A   1      47.021  24.692  37.977  1.00  0.00    -0.237 OA
ATOM     80  O   UNL A   1      48.732  26.205  37.045  1.00  0.00    -0.744 OA
ENDBRANCH  76  77
ENDBRANCH  55  69
BRANCH  56  81
ATOM     81  C   UNL A   1      36.794  32.944  30.882  1.00  0.00     0.058 A 
ATOM     82  C   UNL A   1      35.466  32.719  31.269  1.00  0.00     0.135 A 
ATOM     83  C   UNL A   1      37.026  33.828  29.817  1.00  0.00     0.135 A 
ATOM     84  F   UNL A   1      35.196  31.879  32.280  1.00  0.00    -0.206 F 
ATOM     85  C   UNL A   1      34.402  33.333  30.616  1.00  0.00     0.059 A 
ATOM     86  C   UNL A   1      35.980  34.471  29.162  1.00  0.00     0.059 A 
ATOM     87  F   UNL A   1      38.281  34.090  29.421  1.00  0.00    -0.206 F 
ATOM     88  C   UNL A   1      34.670  34.209  29.563  1.00  0.00     0.060 A 
BRANCH  88  89
ATOM     89  S   UNL A   1      33.286  35.041  28.754  1.00  0.00     0.124 S 
ATOM     90  O   UNL A   1      32.439  35.375  29.892  1.00  0.00    -0.237 OA
ATOM     91  O   UNL A   1      33.945  36.166  28.096  1.00  0.00    -0.237 OA
ATOM     92  O   UNL A   1      32.763  34.018  27.852  1.00  0.00    -0.744 OA
ENDBRANCH  88  89
ENDBRANCH  56  81
BRANCH  68  93
ATOM     93  C   UNL A   1      39.760  33.874  37.126  1.00  0.00     0.058 A 
ATOM     94  C   UNL A   1      38.975  33.542  38.242  1.00  0.00     0.135 A 
ATOM     95  C   UNL A   1      40.358  35.143  37.094  1.00  0.00     0.135 A 
ATOM     96  F   UNL A   1      38.377  32.343  38.315  1.00  0.00    -0.206 F 
ATOM     97  C   UNL A   1      38.776  34.446  39.281  1.00  0.00     0.059 A 
ATOM     98  C   UNL A   1      40.192  36.053  38.134  1.00  0.00     0.059 A 
ATOM     99  F   UNL A   1      41.124  35.504  36.053  1.00  0.00    -0.206 F 
ATOM    100  C   UNL A   1      39.390  35.698  39.218  1.00  0.00     0.060 A 
BRANCH 100 101
ATOM    101  S   UNL A   1      39.157  36.848  40.590  1.00  0.00     0.124 S 
ATOM    102  O   UNL A   1      38.477  37.958  39.930  1.00  0.00    -0.237 OA
ATOM    103  O   UNL A   1      38.342  36.069  41.518  1.00  0.00    -0.237 OA
ATOM    104  O   UNL A   1      40.518  37.122  41.039  1.00  0.00    -0.744 OA
ENDBRANCH 100 101
ENDBRANCH  68  93
ENDBRANCH  42  43
ENDBRANCH  34  37
ENDBRANCH  32  33
ENDBRANCH  31  32
ENDBRANCH   1  31
TORSDOF 17
ENDMDL
