MODEL 1
REMARK VINA RESULT:     -10.9      0.000      0.000
REMARK SMILES CC[N@@H+](Cc1cccc(C)n1)Cc1csc(C(=O)NCCCCNC(=O)c2ccc(-c3c4nc(c(-c5c(F)cc(S(=O)(=O)[O-])cc5F)c5ccc([nH]5)c(-c5c(F)cc(S(=O)(=O)[O-])cc5F)c5nc(c(-c6c(F)cc(S(=O)(=O)[O-])cc6F)c6ccc3[nH]6)C=C5)C=C4)cc2)n1
REMARK SMILES IDX 21 1 20 2 19 3 17 4 18 5 16 7 13 8 14 9 93 10 15 11 12 12
REMARK SMILES IDX 3 13 2 15 1 16 4 17 5 18 6 19 11 20 7 21 9 22 8 23 10 24
REMARK SMILES IDX 22 25 23 26 24 27 25 28 26 30 27 31 28 32 92 33 29 34 91 35
REMARK SMILES IDX 30 36 31 37 32 38 85 39 33 40 90 41 84 42 86 43 34 44 89 45
REMARK SMILES IDX 83 46 82 47 35 49 69 50 48 51 68 52 49 53 52 54 67 55 87 56
REMARK SMILES IDX 50 57 51 58 66 60 88 61 53 62 36 63 37 64 46 65 38 66 39 67
REMARK SMILES IDX 45 68 47 69 40 70 41 71 42 72 43 73 44 74 70 75 71 76 80 77
REMARK SMILES IDX 72 78 73 79 79 80 81 81 74 82 75 83 76 84 77 85 78 86 54 87
REMARK SMILES IDX 55 88 64 89 56 90 57 91 63 92 65 93 58 94 59 95 60 96 61 97
REMARK SMILES IDX 62 98
REMARK H PARENT 19 6 3 14 24 29 86 48 52 59
REMARK Flexibility Score: inf
ROOT
ATOM      1  C   UNL A   1      32.367  27.347  25.599  1.00  0.00     0.023 C 
ENDROOT
BRANCH   1   2
ATOM      2  C   UNL A   1      33.473  26.421  25.096  1.00  0.00     0.116 C 
BRANCH   2   3
ATOM      3  N   UNL A   1      33.746  26.640  23.684  1.00  0.00    -0.350 N 
ATOM      4  C   UNL A   1      33.402  25.864  22.592  1.00  0.00     0.280 C 
ATOM      5  O   UNL A   1      33.731  26.289  21.486  1.00  0.00    -0.267 OA
ATOM      6  H   UNL A   1      34.250  27.460  23.476  1.00  0.00     0.163 HD
BRANCH   4   7
ATOM      7  C   UNL A   1      32.640  24.636  22.803  1.00  0.00     0.181 A 
ATOM      8  C   UNL A   1      32.265  22.481  23.215  1.00  0.00     0.106 A 
ATOM      9  C   UNL A   1      31.026  23.004  23.534  1.00  0.00     0.097 A 
ATOM     10  N   UNL A   1      33.149  23.425  22.723  1.00  0.00    -0.230 NA
ATOM     11  S   UNL A   1      30.988  24.696  23.250  1.00  0.00    -0.117 S 
BRANCH   8  12
ATOM     12  C   UNL A   1      32.790  21.076  23.282  1.00  0.00     0.320 C 
BRANCH  12  13
ATOM     13  N   UNL A   1      32.748  20.393  24.579  1.00  0.00    -0.325 N 
ATOM     14  H   UNL A   1      31.824  20.693  24.886  1.00  0.00     0.348 HD
BRANCH  13  15
ATOM     15  C   UNL A   1      32.779  18.923  24.485  1.00  0.00     0.259 C 
ATOM     16  C   UNL A   1      32.706  18.200  25.827  1.00  0.00     0.071 C 
ENDBRANCH  13  15
BRANCH  13  17
ATOM     17  C   UNL A   1      33.639  20.870  25.661  1.00  0.00     0.319 C 
BRANCH  17  18
ATOM     18  C   UNL A   1      35.121  21.087  25.402  1.00  0.00     0.095 A 
ATOM     19  C   UNL A   1      35.950  20.094  24.894  1.00  0.00     0.030 A 
ATOM     20  N   UNL A   1      35.599  22.318  25.728  1.00  0.00    -0.252 NA
ATOM     21  C   UNL A   1      37.323  20.320  24.866  1.00  0.00     0.004 A 
ATOM     22  C   UNL A   1      36.931  22.540  25.652  1.00  0.00     0.038 A 
ATOM     23  C   UNL A   1      37.825  21.557  25.254  1.00  0.00     0.023 A 
ATOM     24  C   UNL A   1      37.395  23.929  25.968  1.00  0.00     0.067 C 
ENDBRANCH  17  18
ENDBRANCH  13  17
ENDBRANCH  12  13
ENDBRANCH   8  12
ENDBRANCH   4   7
ENDBRANCH   2   3
ENDBRANCH   1   2
BRANCH   1  25
ATOM     25  C   UNL A   1      32.696  28.023  26.935  1.00  0.00     0.023 C 
BRANCH  25  26
ATOM     26  C   UNL A   1      33.963  28.871  26.927  1.00  0.00     0.116 C 
BRANCH  26  27
ATOM     27  N   UNL A   1      33.806  30.145  27.613  1.00  0.00    -0.352 N 
ATOM     28  C   UNL A   1      34.725  30.776  28.419  1.00  0.00     0.251 C 
ATOM     29  H   UNL A   1      32.946  30.608  27.486  1.00  0.00     0.163 HD
ATOM     30  O   UNL A   1      34.434  31.795  29.032  1.00  0.00    -0.269 OA
BRANCH  28  31
ATOM     31  C   UNL A   1      36.061  30.164  28.561  1.00  0.00     0.039 A 
ATOM     32  C   UNL A   1      36.956  30.236  27.491  1.00  0.00     0.014 A 
ATOM     33  C   UNL A   1      36.450  29.609  29.782  1.00  0.00     0.014 A 
ATOM     34  C   UNL A   1      38.273  29.811  27.672  1.00  0.00     0.010 A 
ATOM     35  C   UNL A   1      37.776  29.242  29.977  1.00  0.00     0.010 A 
ATOM     36  C   UNL A   1      38.703  29.350  28.927  1.00  0.00    -0.014 A 
BRANCH  36  37
ATOM     37  C   UNL A   1      40.118  28.983  29.175  1.00  0.00     0.031 A 
ATOM     38  C   UNL A   1      41.069  30.006  29.729  1.00  0.00     0.074 A 
ATOM     39  C   UNL A   1      40.564  27.761  28.821  1.00  0.00     0.049 A 
ATOM     40  N   UNL A   1      42.361  29.923  29.904  1.00  0.00    -0.248 NA
ATOM     41  C   UNL A   1      40.493  31.307  30.107  1.00  0.00     0.031 C 
ATOM     42  C   UNL A   1      39.745  26.698  28.233  1.00  0.00     0.029 A 
ATOM     43  N   UNL A   1      41.820  27.213  28.888  1.00  0.00    -0.354 N 
ATOM     44  C   UNL A   1      42.757  31.161  30.393  1.00  0.00     0.074 A 
ATOM     45  C   UNL A   1      41.574  31.993  30.445  1.00  0.00     0.031 C 
ATOM     46  C   UNL A   1      40.518  25.623  28.005  1.00  0.00     0.029 A 
ATOM     47  C   UNL A   1      41.890  25.930  28.396  1.00  0.00     0.049 A 
ATOM     48  H   UNL A   1      42.598  27.693  29.253  1.00  0.00     0.167 HD
ATOM     49  C   UNL A   1      43.991  31.562  30.781  1.00  0.00     0.037 A 
ATOM     50  C   UNL A   1      42.944  25.101  28.265  1.00  0.00     0.037 A 
ATOM     51  C   UNL A   1      45.157  30.719  30.757  1.00  0.00     0.049 A 
ATOM     52  C   UNL A   1      44.303  25.565  28.713  1.00  0.00     0.074 A 
ATOM     53  C   UNL A   1      46.441  31.014  31.181  1.00  0.00     0.029 A 
ATOM     54  N   UNL A   1      45.180  29.415  30.285  1.00  0.00    -0.354 N 
ATOM     55  N   UNL A   1      44.651  26.724  29.221  1.00  0.00    -0.248 NA
ATOM     56  C   UNL A   1      45.412  24.612  28.574  1.00  0.00     0.031 C 
ATOM     57  C   UNL A   1      47.248  29.896  30.940  1.00  0.00     0.029 A 
ATOM     58  C   UNL A   1      46.458  28.894  30.399  1.00  0.00     0.049 A 
ATOM     59  H   UNL A   1      44.403  28.931  29.924  1.00  0.00     0.167 HD
ATOM     60  C   UNL A   1      46.012  26.630  29.486  1.00  0.00     0.074 A 
ATOM     61  C   UNL A   1      46.424  25.299  29.089  1.00  0.00     0.031 C 
ATOM     62  C   UNL A   1      46.845  27.561  30.011  1.00  0.00     0.037 A 
BRANCH  49  63
ATOM     63  C   UNL A   1      44.137  32.975  31.273  1.00  0.00     0.058 A 
ATOM     64  C   UNL A   1      44.028  33.291  32.637  1.00  0.00     0.135 A 
ATOM     65  C   UNL A   1      44.410  34.020  30.377  1.00  0.00     0.135 A 
ATOM     66  F   UNL A   1      43.752  32.330  33.533  1.00  0.00    -0.206 F 
ATOM     67  C   UNL A   1      44.154  34.598  33.092  1.00  0.00     0.059 A 
ATOM     68  C   UNL A   1      44.564  35.333  30.814  1.00  0.00     0.059 A 
ATOM     69  F   UNL A   1      44.522  33.772  29.063  1.00  0.00    -0.206 F 
ATOM     70  C   UNL A   1      44.418  35.614  32.172  1.00  0.00     0.060 A 
BRANCH  70  71
ATOM     71  S   UNL A   1      44.575  37.307  32.777  1.00  0.00     0.124 S 
ATOM     72  O   UNL A   1      43.229  37.559  33.284  1.00  0.00    -0.237 OA
ATOM     73  O   UNL A   1      45.619  37.185  33.788  1.00  0.00    -0.237 OA
ATOM     74  O   UNL A   1      44.948  38.060  31.584  1.00  0.00    -0.744 OA
ENDBRANCH  70  71
ENDBRANCH  49  63
BRANCH  50  75
ATOM     75  C   UNL A   1      42.752  23.737  27.706  1.00  0.00     0.058 A 
ATOM     76  C   UNL A   1      42.524  22.642  28.550  1.00  0.00     0.135 A 
ATOM     77  C   UNL A   1      42.780  23.505  26.322  1.00  0.00     0.135 A 
ATOM     78  F   UNL A   1      42.495  22.815  29.880  1.00  0.00    -0.206 F 
ATOM     79  C   UNL A   1      42.345  21.358  28.045  1.00  0.00     0.059 A 
ATOM     80  C   UNL A   1      42.582  22.234  25.792  1.00  0.00     0.059 A 
ATOM     81  F   UNL A   1      42.977  24.524  25.472  1.00  0.00    -0.206 F 
ATOM     82  C   UNL A   1      42.375  21.164  26.663  1.00  0.00     0.060 A 
BRANCH  82  83
ATOM     83  S   UNL A   1      42.094  19.502  26.014  1.00  0.00     0.124 S 
ATOM     84  O   UNL A   1      42.599  18.673  27.102  1.00  0.00    -0.237 OA
ATOM     85  O   UNL A   1      40.647  19.489  25.818  1.00  0.00    -0.237 OA
ATOM     86  O   UNL A   1      42.882  19.486  24.786  1.00  0.00    -0.744 OA
ENDBRANCH  82  83
ENDBRANCH  50  75
BRANCH  62  87
ATOM     87  C   UNL A   1      48.279  27.167  30.224  1.00  0.00     0.058 A 
ATOM     88  C   UNL A   1      49.285  27.537  29.319  1.00  0.00     0.135 A 
ATOM     89  C   UNL A   1      48.658  26.470  31.383  1.00  0.00     0.135 A 
ATOM     90  F   UNL A   1      48.971  28.197  28.193  1.00  0.00    -0.206 F 
ATOM     91  C   UNL A   1      50.620  27.221  29.550  1.00  0.00     0.059 A 
ATOM     92  C   UNL A   1      49.989  26.163  31.645  1.00  0.00     0.059 A 
ATOM     93  F   UNL A   1      47.733  26.101  32.283  1.00  0.00    -0.206 F 
ATOM     94  C   UNL A   1      50.962  26.536  30.718  1.00  0.00     0.060 A 
BRANCH  94  95
ATOM     95  S   UNL A   1      52.703  26.179  31.034  1.00  0.00     0.124 S 
ATOM     96  O   UNL A   1      53.235  26.085  29.678  1.00  0.00    -0.237 OA
ATOM     97  O   UNL A   1      53.129  27.343  31.805  1.00  0.00    -0.237 OA
ATOM     98  O   UNL A   1      52.661  24.923  31.779  1.00  0.00    -0.744 OA
ENDBRANCH  94  95
ENDBRANCH  62  87
ENDBRANCH  36  37
ENDBRANCH  28  31
ENDBRANCH  26  27
ENDBRANCH  25  26
ENDBRANCH   1  25
TORSDOF 19
ENDMDL
MODEL 2
REMARK VINA RESULT:     -10.6      3.317      9.708
REMARK SMILES CC[N@@H+](Cc1cccc(C)n1)Cc1csc(C(=O)NCCCCNC(=O)c2ccc(-c3c4nc(c(-c5c(F)cc(S(=O)(=O)[O-])cc5F)c5ccc([nH]5)c(-c5c(F)cc(S(=O)(=O)[O-])cc5F)c5nc(c(-c6c(F)cc(S(=O)(=O)[O-])cc6F)c6ccc3[nH]6)C=C5)C=C4)cc2)n1
REMARK SMILES IDX 21 1 20 2 19 3 17 4 18 5 16 7 13 8 14 9 93 10 15 11 12 12
REMARK SMILES IDX 3 13 2 15 1 16 4 17 5 18 6 19 11 20 7 21 9 22 8 23 10 24
REMARK SMILES IDX 22 25 23 26 24 27 25 28 26 30 27 31 28 32 92 33 29 34 91 35
REMARK SMILES IDX 30 36 31 37 32 38 85 39 33 40 90 41 84 42 86 43 34 44 89 45
REMARK SMILES IDX 83 46 82 47 35 49 69 50 48 51 68 52 49 53 52 54 67 55 87 56
REMARK SMILES IDX 50 57 51 58 66 60 88 61 53 62 36 63 37 64 46 65 38 66 39 67
REMARK SMILES IDX 45 68 47 69 40 70 41 71 42 72 43 73 44 74 70 75 71 76 80 77
REMARK SMILES IDX 72 78 73 79 79 80 81 81 74 82 75 83 76 84 77 85 78 86 54 87
REMARK SMILES IDX 55 88 64 89 56 90 57 91 63 92 65 93 58 94 59 95 60 96 61 97
REMARK SMILES IDX 62 98
REMARK H PARENT 19 6 3 14 24 29 86 48 52 59
REMARK Flexibility Score: inf
ROOT
ATOM      1  C   UNL A   1      35.685  21.570  25.032  1.00  0.00     0.023 C 
ENDROOT
BRANCH   1   2
ATOM      2  C   UNL A   1      34.247  21.105  25.252  1.00  0.00     0.116 C 
BRANCH   2   3
ATOM      3  N   UNL A   1      33.832  21.296  26.633  1.00  0.00    -0.350 N 
ATOM      4  C   UNL A   1      33.084  22.316  27.192  1.00  0.00     0.280 C 
ATOM      5  O   UNL A   1      32.844  22.230  28.395  1.00  0.00    -0.267 OA
ATOM      6  H   UNL A   1      34.129  20.599  27.261  1.00  0.00     0.163 HD
BRANCH   4   7
ATOM      7  C   UNL A   1      32.587  23.387  26.333  1.00  0.00     0.181 A 
ATOM      8  C   UNL A   1      32.592  25.317  25.222  1.00  0.00     0.106 A 
ATOM      9  C   UNL A   1      31.593  24.651  24.538  1.00  0.00     0.097 A 
ATOM     10  N   UNL A   1      33.091  24.603  26.297  1.00  0.00    -0.230 NA
ATOM     11  S   UNL A   1      31.311  23.105  25.227  1.00  0.00    -0.117 S 
BRANCH   8  12
ATOM     12  C   UNL A   1      33.191  26.678  25.015  1.00  0.00     0.320 C 
BRANCH  12  13
ATOM     13  N   UNL A   1      32.583  27.806  25.727  1.00  0.00    -0.325 N 
ATOM     14  H   UNL A   1      31.685  27.383  25.958  1.00  0.00     0.348 HD
BRANCH  13  15
ATOM     15  C   UNL A   1      33.282  28.178  26.971  1.00  0.00     0.259 C 
ATOM     16  C   UNL A   1      34.377  29.226  26.793  1.00  0.00     0.071 C 
ENDBRANCH  13  15
BRANCH  13  17
ATOM     17  C   UNL A   1      32.204  29.012  24.956  1.00  0.00     0.319 C 
BRANCH  17  18
ATOM     18  C   UNL A   1      30.848  29.098  24.276  1.00  0.00     0.095 A 
ATOM     19  C   UNL A   1      30.206  27.992  23.733  1.00  0.00     0.030 A 
ATOM     20  N   UNL A   1      30.306  30.344  24.205  1.00  0.00    -0.252 NA
ATOM     21  C   UNL A   1      29.061  28.193  22.967  1.00  0.00     0.004 A 
ATOM     22  C   UNL A   1      29.167  30.519  23.497  1.00  0.00     0.038 A 
ATOM     23  C   UNL A   1      28.534  29.473  22.841  1.00  0.00     0.023 A 
ATOM     24  C   UNL A   1      28.584  31.899  23.499  1.00  0.00     0.067 C 
ENDBRANCH  17  18
ENDBRANCH  13  17
ENDBRANCH  12  13
ENDBRANCH   8  12
ENDBRANCH   4   7
ENDBRANCH   2   3
ENDBRANCH   1   2
BRANCH   1  25
ATOM     25  C   UNL A   1      35.801  23.062  24.696  1.00  0.00     0.023 C 
BRANCH  25  26
ATOM     26  C   UNL A   1      37.100  23.720  25.152  1.00  0.00     0.116 C 
BRANCH  26  27
ATOM     27  N   UNL A   1      38.181  22.770  25.366  1.00  0.00    -0.352 N 
ATOM     28  C   UNL A   1      39.342  22.975  26.074  1.00  0.00     0.251 C 
ATOM     29  H   UNL A   1      38.070  21.880  24.959  1.00  0.00     0.163 HD
ATOM     30  O   UNL A   1      40.231  22.132  26.090  1.00  0.00    -0.269 OA
BRANCH  28  31
ATOM     31  C   UNL A   1      39.507  24.261  26.779  1.00  0.00     0.039 A 
ATOM     32  C   UNL A   1      38.926  24.423  28.039  1.00  0.00     0.014 A 
ATOM     33  C   UNL A   1      40.315  25.260  26.231  1.00  0.00     0.014 A 
ATOM     34  C   UNL A   1      39.215  25.568  28.783  1.00  0.00     0.010 A 
ATOM     35  C   UNL A   1      40.648  26.370  26.997  1.00  0.00     0.010 A 
ATOM     36  C   UNL A   1      40.110  26.530  28.285  1.00  0.00    -0.014 A 
BRANCH  36  37
ATOM     37  C   UNL A   1      40.511  27.707  29.093  1.00  0.00     0.031 A 
ATOM     38  C   UNL A   1      41.799  27.680  29.866  1.00  0.00     0.074 A 
ATOM     39  C   UNL A   1      39.676  28.761  29.199  1.00  0.00     0.049 A 
ATOM     40  N   UNL A   1      42.268  28.551  30.719  1.00  0.00    -0.248 NA
ATOM     41  C   UNL A   1      42.658  26.500  29.676  1.00  0.00     0.031 C 
ATOM     42  C   UNL A   1      38.377  28.883  28.531  1.00  0.00     0.029 A 
ATOM     43  N   UNL A   1      39.788  29.921  29.922  1.00  0.00    -0.354 N 
ATOM     44  C   UNL A   1      43.465  28.019  31.183  1.00  0.00     0.074 A 
ATOM     45  C   UNL A   1      43.628  26.729  30.549  1.00  0.00     0.031 C 
ATOM     46  C   UNL A   1      37.820  30.059  28.867  1.00  0.00     0.029 A 
ATOM     47  C   UNL A   1      38.701  30.756  29.798  1.00  0.00     0.049 A 
ATOM     48  H   UNL A   1      40.571  30.136  30.478  1.00  0.00     0.167 HD
ATOM     49  C   UNL A   1      44.356  28.565  32.044  1.00  0.00     0.037 A 
ATOM     50  C   UNL A   1      38.441  31.944  30.379  1.00  0.00     0.037 A 
ATOM     51  C   UNL A   1      44.203  29.863  32.646  1.00  0.00     0.049 A 
ATOM     52  C   UNL A   1      39.451  32.535  31.324  1.00  0.00     0.074 A 
ATOM     53  C   UNL A   1      45.076  30.529  33.489  1.00  0.00     0.029 A 
ATOM     54  N   UNL A   1      43.106  30.693  32.468  1.00  0.00    -0.354 N 
ATOM     55  N   UNL A   1      40.603  32.041  31.713  1.00  0.00    -0.248 NA
ATOM     56  C   UNL A   1      39.131  33.844  31.908  1.00  0.00     0.031 C 
ATOM     57  C   UNL A   1      44.494  31.752  33.842  1.00  0.00     0.029 A 
ATOM     58  C   UNL A   1      43.275  31.862  33.191  1.00  0.00     0.049 A 
ATOM     59  H   UNL A   1      42.324  30.484  31.909  1.00  0.00     0.167 HD
ATOM     60  C   UNL A   1      41.155  32.990  32.565  1.00  0.00     0.074 A 
ATOM     61  C   UNL A   1      40.215  34.090  32.631  1.00  0.00     0.031 C 
ATOM     62  C   UNL A   1      42.335  32.953  33.233  1.00  0.00     0.037 A 
BRANCH  49  63
ATOM     63  C   UNL A   1      45.580  27.759  32.377  1.00  0.00     0.058 A 
ATOM     64  C   UNL A   1      45.600  26.871  33.464  1.00  0.00     0.135 A 
ATOM     65  C   UNL A   1      46.738  27.859  31.590  1.00  0.00     0.135 A 
ATOM     66  F   UNL A   1      44.524  26.751  34.258  1.00  0.00    -0.206 F 
ATOM     67  C   UNL A   1      46.735  26.133  33.778  1.00  0.00     0.059 A 
ATOM     68  C   UNL A   1      47.878  27.111  31.871  1.00  0.00     0.059 A 
ATOM     69  F   UNL A   1      46.772  28.694  30.540  1.00  0.00    -0.206 F 
ATOM     70  C   UNL A   1      47.871  26.262  32.978  1.00  0.00     0.060 A 
BRANCH  70  71
ATOM     71  S   UNL A   1      49.339  25.301  33.400  1.00  0.00     0.124 S 
ATOM     72  O   UNL A   1      49.942  25.099  32.086  1.00  0.00    -0.237 OA
ATOM     73  O   UNL A   1      50.059  26.203  34.294  1.00  0.00    -0.237 OA
ATOM     74  O   UNL A   1      48.791  24.105  34.031  1.00  0.00    -0.744 OA
ENDBRANCH  70  71
ENDBRANCH  49  63
BRANCH  50  75
ATOM     75  C   UNL A   1      37.180  32.665  30.066  1.00  0.00     0.058 A 
ATOM     76  C   UNL A   1      35.998  32.379  30.764  1.00  0.00     0.135 A 
ATOM     77  C   UNL A   1      37.132  33.658  29.076  1.00  0.00     0.135 A 
ATOM     78  F   UNL A   1      35.994  31.434  31.715  1.00  0.00    -0.206 F 
ATOM     79  C   UNL A   1      34.807  33.042  30.484  1.00  0.00     0.059 A 
ATOM     80  C   UNL A   1      35.959  34.349  28.791  1.00  0.00     0.059 A 
ATOM     81  F   UNL A   1      38.241  33.980  28.391  1.00  0.00    -0.206 F 
ATOM     82  C   UNL A   1      34.799  34.026  29.494  1.00  0.00     0.060 A 
BRANCH  82  83
ATOM     83  S   UNL A   1      33.259  34.915  29.170  1.00  0.00     0.124 S 
ATOM     84  O   UNL A   1      32.623  34.049  28.184  1.00  0.00    -0.237 OA
ATOM     85  O   UNL A   1      32.637  34.946  30.490  1.00  0.00    -0.237 OA
ATOM     86  O   UNL A   1      33.720  36.208  28.674  1.00  0.00    -0.744 OA
ENDBRANCH  82  83
ENDBRANCH  50  75
BRANCH  62  87
ATOM     87  C   UNL A   1      42.698  34.150  34.064  1.00  0.00     0.058 A 
ATOM     88  C   UNL A   1      42.430  34.197  35.440  1.00  0.00     0.135 A 
ATOM     89  C   UNL A   1      43.384  35.231  33.488  1.00  0.00     0.135 A 
ATOM     90  F   UNL A   1      41.769  33.191  36.035  1.00  0.00    -0.206 F 
ATOM     91  C   UNL A   1      42.821  35.282  36.218  1.00  0.00     0.059 A 
ATOM     92  C   UNL A   1      43.804  36.316  34.250  1.00  0.00     0.059 A 
ATOM     93  F   UNL A   1      43.670  35.229  32.177  1.00  0.00    -0.206 F 
ATOM     94  C   UNL A   1      43.511  36.336  35.613  1.00  0.00     0.060 A 
BRANCH  94  95
ATOM     95  S   UNL A   1      44.062  37.714  36.642  1.00  0.00     0.124 S 
ATOM     96  O   UNL A   1      43.846  38.850  35.751  1.00  0.00    -0.237 OA
ATOM     97  O   UNL A   1      43.165  37.628  37.790  1.00  0.00    -0.237 OA
ATOM     98  O   UNL A   1      45.459  37.392  36.920  1.00  0.00    -0.744 OA
ENDBRANCH  94  95
ENDBRANCH  62  87
ENDBRANCH  36  37
ENDBRANCH  28  31
ENDBRANCH  26  27
ENDBRANCH  25  26
ENDBRANCH   1  25
TORSDOF 19
ENDMDL
MODEL 3
REMARK VINA RESULT:     -10.5      5.004     10.060
REMARK SMILES CC[N@@H+](Cc1cccc(C)n1)Cc1csc(C(=O)NCCCCNC(=O)c2ccc(-c3c4nc(c(-c5c(F)cc(S(=O)(=O)[O-])cc5F)c5ccc([nH]5)c(-c5c(F)cc(S(=O)(=O)[O-])cc5F)c5nc(c(-c6c(F)cc(S(=O)(=O)[O-])cc6F)c6ccc3[nH]6)C=C5)C=C4)cc2)n1
REMARK SMILES IDX 21 1 20 2 19 3 17 4 18 5 16 7 13 8 14 9 93 10 15 11 12 12
REMARK SMILES IDX 3 13 2 15 1 16 4 17 5 18 6 19 11 20 7 21 9 22 8 23 10 24
REMARK SMILES IDX 22 25 23 26 24 27 25 28 26 30 27 31 28 32 92 33 29 34 91 35
REMARK SMILES IDX 30 36 31 37 32 38 85 39 33 40 90 41 84 42 86 43 34 44 89 45
REMARK SMILES IDX 83 46 82 47 35 49 69 50 48 51 68 52 49 53 52 54 67 55 87 56
REMARK SMILES IDX 50 57 51 58 66 60 88 61 53 62 36 63 37 64 46 65 38 66 39 67
REMARK SMILES IDX 45 68 47 69 40 70 41 71 42 72 43 73 44 74 70 75 71 76 80 77
REMARK SMILES IDX 72 78 73 79 79 80 81 81 74 82 75 83 76 84 77 85 78 86 54 87
REMARK SMILES IDX 55 88 64 89 56 90 57 91 63 92 65 93 58 94 59 95 60 96 61 97
REMARK SMILES IDX 62 98
REMARK H PARENT 19 6 3 14 24 29 86 48 52 59
REMARK Flexibility Score: inf
ROOT
ATOM      1  C   UNL A   1      38.369  23.891  26.452  1.00  0.00     0.023 C 
ENDROOT
BRANCH   1   2
ATOM      2  C   UNL A   1      37.107  23.240  25.888  1.00  0.00     0.116 C 
BRANCH   2   3
ATOM      3  N   UNL A   1      37.206  23.051  24.448  1.00  0.00    -0.350 N 
ATOM      4  C   UNL A   1      36.218  23.122  23.484  1.00  0.00     0.280 C 
ATOM      5  O   UNL A   1      36.569  22.948  22.318  1.00  0.00    -0.267 OA
ATOM      6  H   UNL A   1      38.107  22.841  24.113  1.00  0.00     0.163 HD
BRANCH   4   7
ATOM      7  C   UNL A   1      34.851  23.444  23.887  1.00  0.00     0.181 A 
ATOM      8  C   UNL A   1      32.934  24.572  23.978  1.00  0.00     0.106 A 
ATOM      9  C   UNL A   1      32.507  23.338  24.433  1.00  0.00     0.097 A 
ATOM     10  N   UNL A   1      34.297  24.629  23.748  1.00  0.00    -0.230 NA
ATOM     11  S   UNL A   1      33.820  22.239  24.532  1.00  0.00    -0.117 S 
BRANCH   8  12
ATOM     12  C   UNL A   1      32.181  25.846  23.729  1.00  0.00     0.320 C 
BRANCH  12  13
ATOM     13  N   UNL A   1      31.623  26.547  24.889  1.00  0.00    -0.325 N 
ATOM     14  H   UNL A   1      31.611  27.494  24.512  1.00  0.00     0.348 HD
BRANCH  13  15
ATOM     15  C   UNL A   1      30.250  26.140  25.233  1.00  0.00     0.259 C 
ATOM     16  C   UNL A   1      29.291  26.074  24.047  1.00  0.00     0.071 C 
ENDBRANCH  13  15
BRANCH  13  17
ATOM     17  C   UNL A   1      32.455  26.677  26.108  1.00  0.00     0.319 C 
BRANCH  17  18
ATOM     18  C   UNL A   1      32.826  28.048  26.647  1.00  0.00     0.095 A 
ATOM     19  C   UNL A   1      31.885  29.040  26.894  1.00  0.00     0.030 A 
ATOM     20  N   UNL A   1      34.155  28.260  26.848  1.00  0.00    -0.252 NA
ATOM     21  C   UNL A   1      32.330  30.321  27.205  1.00  0.00     0.004 A 
ATOM     22  C   UNL A   1      34.572  29.498  27.196  1.00  0.00     0.038 A 
ATOM     23  C   UNL A   1      33.692  30.559  27.355  1.00  0.00     0.023 A 
ATOM     24  C   UNL A   1      36.038  29.660  27.459  1.00  0.00     0.067 C 
ENDBRANCH  17  18
ENDBRANCH  13  17
ENDBRANCH  12  13
ENDBRANCH   8  12
ENDBRANCH   4   7
ENDBRANCH   2   3
ENDBRANCH   1   2
BRANCH   1  25
ATOM     25  C   UNL A   1      39.516  22.901  26.686  1.00  0.00     0.023 C 
BRANCH  25  26
ATOM     26  C   UNL A   1      40.873  23.546  26.946  1.00  0.00     0.116 C 
BRANCH  26  27
ATOM     27  N   UNL A   1      41.302  24.435  25.875  1.00  0.00    -0.352 N 
ATOM     28  C   UNL A   1      41.567  25.781  25.966  1.00  0.00     0.251 C 
ATOM     29  H   UNL A   1      41.414  24.026  24.987  1.00  0.00     0.163 HD
ATOM     30  O   UNL A   1      41.813  26.446  24.967  1.00  0.00    -0.269 OA
BRANCH  28  31
ATOM     31  C   UNL A   1      41.501  26.414  27.298  1.00  0.00     0.039 A 
ATOM     32  C   UNL A   1      42.480  27.344  27.655  1.00  0.00     0.014 A 
ATOM     33  C   UNL A   1      40.421  26.152  28.144  1.00  0.00     0.014 A 
ATOM     34  C   UNL A   1      42.335  28.069  28.839  1.00  0.00     0.010 A 
ATOM     35  C   UNL A   1      40.248  26.917  29.291  1.00  0.00     0.010 A 
ATOM     36  C   UNL A   1      41.198  27.890  29.644  1.00  0.00    -0.014 A 
BRANCH  36  37
ATOM     37  C   UNL A   1      40.969  28.714  30.856  1.00  0.00     0.031 A 
ATOM     38  C   UNL A   1      39.889  29.758  30.856  1.00  0.00     0.074 A 
ATOM     39  C   UNL A   1      41.788  28.581  31.919  1.00  0.00     0.049 A 
ATOM     40  N   UNL A   1      39.609  30.656  31.764  1.00  0.00    -0.248 NA
ATOM     41  C   UNL A   1      39.029  29.820  29.663  1.00  0.00     0.031 C 
ATOM     42  C   UNL A   1      42.900  27.633  32.019  1.00  0.00     0.029 A 
ATOM     43  N   UNL A   1      41.822  29.259  33.112  1.00  0.00    -0.354 N 
ATOM     44  C   UNL A   1      38.557  31.402  31.246  1.00  0.00     0.074 A 
ATOM     45  C   UNL A   1      38.277  30.879  29.926  1.00  0.00     0.031 C 
ATOM     46  C   UNL A   1      43.499  27.781  33.213  1.00  0.00     0.029 A 
ATOM     47  C   UNL A   1      42.838  28.855  33.947  1.00  0.00     0.049 A 
ATOM     48  H   UNL A   1      41.181  29.967  33.347  1.00  0.00     0.167 HD
ATOM     49  C   UNL A   1      37.874  32.416  31.826  1.00  0.00     0.037 A 
ATOM     50  C   UNL A   1      43.202  29.309  35.163  1.00  0.00     0.037 A 
ATOM     51  C   UNL A   1      38.136  32.910  33.152  1.00  0.00     0.049 A 
ATOM     52  C   UNL A   1      42.421  30.430  35.791  1.00  0.00     0.074 A 
ATOM     53  C   UNL A   1      37.464  33.897  33.852  1.00  0.00     0.029 A 
ATOM     54  N   UNL A   1      39.150  32.452  33.981  1.00  0.00    -0.354 N 
ATOM     55  N   UNL A   1      41.395  31.091  35.308  1.00  0.00    -0.248 NA
ATOM     56  C   UNL A   1      42.842  30.868  37.129  1.00  0.00     0.031 C 
ATOM     57  C   UNL A   1      38.089  34.055  35.094  1.00  0.00     0.029 A 
ATOM     58  C   UNL A   1      39.128  33.142  35.181  1.00  0.00     0.049 A 
ATOM     59  H   UNL A   1      39.789  31.740  33.751  1.00  0.00     0.167 HD
ATOM     60  C   UNL A   1      41.033  32.003  36.292  1.00  0.00     0.074 A 
ATOM     61  C   UNL A   1      41.944  31.806  37.401  1.00  0.00     0.031 C 
ATOM     62  C   UNL A   1      40.035  32.921  36.279  1.00  0.00     0.037 A 
BRANCH  49  63
ATOM     63  C   UNL A   1      36.770  33.053  31.029  1.00  0.00     0.058 A 
ATOM     64  C   UNL A   1      37.034  34.055  30.082  1.00  0.00     0.135 A 
ATOM     65  C   UNL A   1      35.438  32.643  31.198  1.00  0.00     0.135 A 
ATOM     66  F   UNL A   1      38.289  34.494  29.895  1.00  0.00    -0.206 F 
ATOM     67  C   UNL A   1      36.012  34.650  29.351  1.00  0.00     0.059 A 
ATOM     68  C   UNL A   1      34.403  33.209  30.459  1.00  0.00     0.059 A 
ATOM     69  F   UNL A   1      35.132  31.690  32.091  1.00  0.00    -0.206 F 
ATOM     70  C   UNL A   1      34.699  34.224  29.549  1.00  0.00     0.060 A 
BRANCH  70  71
ATOM     71  S   UNL A   1      33.383  35.009  28.597  1.00  0.00     0.124 S 
ATOM     72  O   UNL A   1      32.619  35.673  29.650  1.00  0.00    -0.237 OA
ATOM     73  O   UNL A   1      34.125  35.892  27.703  1.00  0.00    -0.237 OA
ATOM     74  O   UNL A   1      32.715  33.885  27.949  1.00  0.00    -0.744 OA
ENDBRANCH  70  71
ENDBRANCH  49  63
BRANCH  50  75
ATOM     75  C   UNL A   1      44.348  28.687  35.876  1.00  0.00     0.058 A 
ATOM     76  C   UNL A   1      44.156  27.573  36.705  1.00  0.00     0.135 A 
ATOM     77  C   UNL A   1      45.653  29.182  35.734  1.00  0.00     0.135 A 
ATOM     78  F   UNL A   1      42.926  27.068  36.876  1.00  0.00    -0.206 F 
ATOM     79  C   UNL A   1      45.216  26.978  37.383  1.00  0.00     0.059 A 
ATOM     80  C   UNL A   1      46.732  28.592  36.385  1.00  0.00     0.059 A 
ATOM     81  F   UNL A   1      45.890  30.236  34.938  1.00  0.00    -0.206 F 
ATOM     82  C   UNL A   1      46.501  27.496  37.215  1.00  0.00     0.060 A 
BRANCH  82  83
ATOM     83  S   UNL A   1      47.878  26.688  38.061  1.00  0.00     0.124 S 
ATOM     84  O   UNL A   1      48.953  27.651  37.859  1.00  0.00    -0.237 OA
ATOM     85  O   UNL A   1      47.374  26.570  39.426  1.00  0.00    -0.237 OA
ATOM     86  O   UNL A   1      48.015  25.424  37.343  1.00  0.00    -0.744 OA
ENDBRANCH  82  83
ENDBRANCH  50  75
BRANCH  62  87
ATOM     87  C   UNL A   1      39.848  33.758  37.512  1.00  0.00     0.058 A 
ATOM     88  C   UNL A   1      40.492  34.995  37.665  1.00  0.00     0.135 A 
ATOM     89  C   UNL A   1      38.959  33.349  38.519  1.00  0.00     0.135 A 
ATOM     90  F   UNL A   1      41.358  35.425  36.733  1.00  0.00    -0.206 F 
ATOM     91  C   UNL A   1      40.271  35.795  38.781  1.00  0.00     0.059 A 
ATOM     92  C   UNL A   1      38.705  34.143  39.632  1.00  0.00     0.059 A 
ATOM     93  F   UNL A   1      38.311  32.178  38.414  1.00  0.00    -0.206 F 
ATOM     94  C   UNL A   1      39.372  35.361  39.758  1.00  0.00     0.060 A 
BRANCH  94  95
ATOM     95  S   UNL A   1      39.050  36.431  41.176  1.00  0.00     0.124 S 
ATOM     96  O   UNL A   1      38.682  37.683  40.521  1.00  0.00    -0.237 OA
ATOM     97  O   UNL A   1      37.968  35.731  41.860  1.00  0.00    -0.237 OA
ATOM     98  O   UNL A   1      40.326  36.446  41.885  1.00  0.00    -0.744 OA
ENDBRANCH  94  95
ENDBRANCH  62  87
ENDBRANCH  36  37
ENDBRANCH  28  31
ENDBRANCH  26  27
ENDBRANCH  25  26
ENDBRANCH   1  25
TORSDOF 19
ENDMDL
