MODEL 1
REMARK VINA RESULT:     -11.6      0.000      0.000
REMARK SMILES C[C@H]1[C@H](C(=O)NCCCCNC(=O)c2ccc(-c3c4nc(c(-c5c(F)cc(S(=O)(=O)[O-])cc5F)c5ccc([nH]5)c(-c5c(F)cc(S(=O)(=O)[O-])cc5F)c5nc(c(-c6c(F)cc(S(=O)(=O)[O-])cc6F)c6ccc3[nH]6)C=C5)C=C4)cc2)CC[N@@H+]1[C@@H](c1ccccc1)c1ccco1
REMARK SMILES IDX 9 1 8 2 7 3 6 4 4 5 5 6 3 8 1 9 2 10 82 11 80 12 81 13 83 15
REMARK SMILES IDX 84 16 85 17 89 18 86 19 88 20 87 21 90 22 91 23 94 24 92 25
REMARK SMILES IDX 93 26 10 27 11 28 12 29 13 31 14 32 15 33 79 34 16 35 78 36
REMARK SMILES IDX 17 37 18 38 19 39 72 40 20 41 77 42 71 43 73 44 21 45 76 46
REMARK SMILES IDX 70 47 69 48 22 50 56 51 35 52 55 53 36 54 39 55 54 56 74 57
REMARK SMILES IDX 37 58 38 59 53 61 75 62 40 63 23 64 24 65 33 66 25 67 26 68
REMARK SMILES IDX 32 69 34 70 27 71 28 72 29 73 30 74 31 75 57 76 58 77 67 78
REMARK SMILES IDX 59 79 60 80 66 81 68 82 61 83 62 84 63 85 64 86 65 87 41 88
REMARK SMILES IDX 42 89 51 90 43 91 44 92 50 93 52 94 45 95 46 96 47 97 48 98
REMARK SMILES IDX 49 99
REMARK H PARENT 6 7 82 14 11 30 73 49 39 60
REMARK Flexibility Score: inf
ROOT
ATOM      1  C   UNL A   1      31.928  28.819  26.749  1.00  0.00     0.023 C 
ENDROOT
BRANCH   1   2
ATOM      2  C   UNL A   1      31.382  29.812  25.715  1.00  0.00     0.023 C 
BRANCH   2   3
ATOM      3  C   UNL A   1      31.157  29.239  24.311  1.00  0.00     0.116 C 
BRANCH   3   4
ATOM      4  N   UNL A   1      30.336  28.045  24.325  1.00  0.00    -0.356 N 
ATOM      5  C   UNL A   1      30.564  26.781  23.883  1.00  0.00     0.229 C 
ATOM      6  O   UNL A   1      29.675  25.954  24.125  1.00  0.00    -0.275 OA
ATOM      7  H   UNL A   1      29.448  28.173  24.729  1.00  0.00     0.163 HD
BRANCH   5   8
ATOM      8  C   UNL A   1      31.831  26.305  23.167  1.00  0.00     0.142 C 
ATOM      9  C   UNL A   1      34.031  27.029  24.139  1.00  0.00     0.076 C 
ATOM     10  C   UNL A   1      33.034  25.868  24.017  1.00  0.00     0.194 C 
ATOM     11  N   UNL A   1      33.695  24.753  23.290  1.00  0.00    -0.319 N 
ATOM     12  C   UNL A   1      31.632  25.176  22.173  1.00  0.00     0.081 C 
ATOM     13  C   UNL A   1      33.051  24.642  21.986  1.00  0.00     0.264 C 
ATOM     14  H   UNL A   1      34.678  24.960  23.115  1.00  0.00     0.349 HD
BRANCH  11  15
ATOM     15  C   UNL A   1      33.901  23.518  24.086  1.00  0.00     0.283 C 
BRANCH  15  16
ATOM     16  C   UNL A   1      35.301  23.138  24.584  1.00  0.00     0.017 A 
ATOM     17  C   UNL A   1      35.652  21.776  24.573  1.00  0.00     0.010 A 
ATOM     18  C   UNL A   1      36.185  24.022  25.224  1.00  0.00     0.010 A 
ATOM     19  C   UNL A   1      36.853  21.340  25.130  1.00  0.00     0.001 A 
ATOM     20  C   UNL A   1      37.429  23.598  25.699  1.00  0.00     0.001 A 
ATOM     21  C   UNL A   1      37.765  22.253  25.645  1.00  0.00     0.000 A 
ENDBRANCH  15  16
BRANCH  15  22
ATOM     22  C   UNL A   1      32.878  23.274  25.179  1.00  0.00     0.165 A 
ATOM     23  C   UNL A   1      32.844  23.618  26.519  1.00  0.00     0.052 A 
ATOM     24  O   UNL A   1      31.628  22.873  24.787  1.00  0.00    -0.463 OA
ATOM     25  C   UNL A   1      31.485  23.532  26.922  1.00  0.00     0.042 A 
ATOM     26  C   UNL A   1      30.787  23.082  25.828  1.00  0.00     0.195 A 
ENDBRANCH  15  22
ENDBRANCH  11  15
ENDBRANCH   5   8
ENDBRANCH   3   4
ENDBRANCH   2   3
ENDBRANCH   1   2
BRANCH   1  27
ATOM     27  C   UNL A   1      33.356  29.067  27.240  1.00  0.00     0.116 C 
BRANCH  27  28
ATOM     28  N   UNL A   1      33.555  30.377  27.840  1.00  0.00    -0.352 N 
ATOM     29  C   UNL A   1      34.692  30.951  28.375  1.00  0.00     0.251 C 
ATOM     30  H   UNL A   1      32.750  30.945  27.869  1.00  0.00     0.163 HD
ATOM     31  O   UNL A   1      34.666  32.086  28.813  1.00  0.00    -0.269 OA
BRANCH  29  32
ATOM     32  C   UNL A   1      35.920  30.140  28.501  1.00  0.00     0.039 A 
ATOM     33  C   UNL A   1      36.780  30.096  27.399  1.00  0.00     0.014 A 
ATOM     34  C   UNL A   1      36.274  29.532  29.704  1.00  0.00     0.014 A 
ATOM     35  C   UNL A   1      38.061  29.575  27.551  1.00  0.00     0.010 A 
ATOM     36  C   UNL A   1      37.578  29.087  29.879  1.00  0.00     0.010 A 
ATOM     37  C   UNL A   1      38.491  29.145  28.816  1.00  0.00    -0.014 A 
BRANCH  37  38
ATOM     38  C   UNL A   1      39.918  28.838  29.068  1.00  0.00     0.031 A 
ATOM     39  C   UNL A   1      40.825  29.894  29.621  1.00  0.00     0.074 A 
ATOM     40  C   UNL A   1      40.392  27.632  28.694  1.00  0.00     0.049 A 
ATOM     41  N   UNL A   1      42.112  29.846  29.834  1.00  0.00    -0.248 NA
ATOM     42  C   UNL A   1      40.209  31.193  29.944  1.00  0.00     0.031 C 
ATOM     43  C   UNL A   1      39.600  26.569  28.067  1.00  0.00     0.029 A 
ATOM     44  N   UNL A   1      41.652  27.097  28.770  1.00  0.00    -0.354 N 
ATOM     45  C   UNL A   1      42.465  31.106  30.298  1.00  0.00     0.074 A 
ATOM     46  C   UNL A   1      41.267  31.915  30.281  1.00  0.00     0.031 C 
ATOM     47  C   UNL A   1      40.383  25.501  27.845  1.00  0.00     0.029 A 
ATOM     48  C   UNL A   1      41.738  25.814  28.282  1.00  0.00     0.049 A 
ATOM     49  H   UNL A   1      42.423  27.585  29.140  1.00  0.00     0.167 HD
ATOM     50  C   UNL A   1      43.677  31.536  30.721  1.00  0.00     0.037 A 
ATOM     51  C   UNL A   1      42.795  24.983  28.200  1.00  0.00     0.037 A 
ATOM     52  C   UNL A   1      44.848  30.700  30.749  1.00  0.00     0.049 A 
ATOM     53  C   UNL A   1      44.119  25.467  28.724  1.00  0.00     0.074 A 
ATOM     54  C   UNL A   1      46.117  31.003  31.208  1.00  0.00     0.029 A 
ATOM     55  N   UNL A   1      44.887  29.384  30.302  1.00  0.00    -0.354 N 
ATOM     56  N   UNL A   1      44.423  26.642  29.226  1.00  0.00    -0.248 NA
ATOM     57  C   UNL A   1      45.239  24.520  28.682  1.00  0.00     0.031 C 
ATOM     58  C   UNL A   1      46.929  29.880  31.010  1.00  0.00     0.029 A 
ATOM     59  C   UNL A   1      46.158  28.865  30.466  1.00  0.00     0.049 A 
ATOM     60  H   UNL A   1      44.121  28.894  29.923  1.00  0.00     0.167 HD
ATOM     61  C   UNL A   1      45.763  26.568  29.581  1.00  0.00     0.074 A 
ATOM     62  C   UNL A   1      46.207  25.228  29.249  1.00  0.00     0.031 C 
ATOM     63  C   UNL A   1      46.559  27.521  30.127  1.00  0.00     0.037 A 
BRANCH  50  64
ATOM     64  C   UNL A   1      43.782  32.961  31.191  1.00  0.00     0.058 A 
ATOM     65  C   UNL A   1      44.070  34.009  30.301  1.00  0.00     0.135 A 
ATOM     66  C   UNL A   1      43.596  33.288  32.544  1.00  0.00     0.135 A 
ATOM     67  F   UNL A   1      44.276  33.752  28.999  1.00  0.00    -0.206 F 
ATOM     68  C   UNL A   1      44.211  35.321  30.740  1.00  0.00     0.059 A 
ATOM     69  C   UNL A   1      43.705  34.599  33.001  1.00  0.00     0.059 A 
ATOM     70  F   UNL A   1      43.320  32.327  33.440  1.00  0.00    -0.206 F 
ATOM     71  C   UNL A   1      44.031  35.606  32.094  1.00  0.00     0.060 A 
BRANCH  71  72
ATOM     72  S   UNL A   1      44.230  37.313  32.650  1.00  0.00     0.124 S 
ATOM     73  O   UNL A   1      44.070  38.046  31.397  1.00  0.00    -0.237 OA
ATOM     74  O   UNL A   1      43.142  37.458  33.610  1.00  0.00    -0.237 OA
ATOM     75  O   UNL A   1      45.573  37.329  33.219  1.00  0.00    -0.744 OA
ENDBRANCH  71  72
ENDBRANCH  50  64
BRANCH  51  76
ATOM     76  C   UNL A   1      42.630  23.609  27.652  1.00  0.00     0.058 A 
ATOM     77  C   UNL A   1      42.744  23.364  26.276  1.00  0.00     0.135 A 
ATOM     78  C   UNL A   1      42.387  22.509  28.491  1.00  0.00     0.135 A 
ATOM     79  F   UNL A   1      42.976  24.381  25.432  1.00  0.00    -0.206 F 
ATOM     80  C   UNL A   1      42.611  22.083  25.747  1.00  0.00     0.059 A 
ATOM     81  C   UNL A   1      42.272  21.216  27.988  1.00  0.00     0.059 A 
ATOM     82  F   UNL A   1      42.291  22.683  29.818  1.00  0.00    -0.206 F 
ATOM     83  C   UNL A   1      42.376  21.014  26.612  1.00  0.00     0.060 A 
BRANCH  83  84
ATOM     84  S   UNL A   1      42.259  19.349  25.920  1.00  0.00     0.124 S 
ATOM     85  O   UNL A   1      40.825  19.227  25.692  1.00  0.00    -0.237 OA
ATOM     86  O   UNL A   1      43.090  19.453  24.724  1.00  0.00    -0.237 OA
ATOM     87  O   UNL A   1      42.804  18.506  26.980  1.00  0.00    -0.744 OA
ENDBRANCH  83  84
ENDBRANCH  51  76
BRANCH  63  88
ATOM     88  C   UNL A   1      47.980  27.134  30.419  1.00  0.00     0.058 A 
ATOM     89  C   UNL A   1      48.992  27.289  29.461  1.00  0.00     0.135 A 
ATOM     90  C   UNL A   1      48.338  26.658  31.690  1.00  0.00     0.135 A 
ATOM     91  F   UNL A   1      48.695  27.734  28.230  1.00  0.00    -0.206 F 
ATOM     92  C   UNL A   1      50.313  26.967  29.746  1.00  0.00     0.059 A 
ATOM     93  C   UNL A   1      49.657  26.353  32.006  1.00  0.00     0.059 A 
ATOM     94  F   UNL A   1      47.404  26.502  32.642  1.00  0.00    -0.206 F 
ATOM     95  C   UNL A   1      50.636  26.501  31.023  1.00  0.00     0.060 A 
BRANCH  95  96
ATOM     96  S   UNL A   1      52.361  26.125  31.396  1.00  0.00     0.124 S 
ATOM     97  O   UNL A   1      52.981  26.267  30.082  1.00  0.00    -0.237 OA
ATOM     98  O   UNL A   1      52.702  27.154  32.373  1.00  0.00    -0.237 OA
ATOM     99  O   UNL A   1      52.306  24.764  31.922  1.00  0.00    -0.744 OA
ENDBRANCH  95  96
ENDBRANCH  63  88
ENDBRANCH  37  38
ENDBRANCH  29  32
ENDBRANCH  27  28
ENDBRANCH   1  27
TORSDOF 17
ENDMDL
MODEL 2
REMARK VINA RESULT:     -11.6      1.377      2.411
REMARK SMILES C[C@H]1[C@H](C(=O)NCCCCNC(=O)c2ccc(-c3c4nc(c(-c5c(F)cc(S(=O)(=O)[O-])cc5F)c5ccc([nH]5)c(-c5c(F)cc(S(=O)(=O)[O-])cc5F)c5nc(c(-c6c(F)cc(S(=O)(=O)[O-])cc6F)c6ccc3[nH]6)C=C5)C=C4)cc2)CC[N@@H+]1[C@@H](c1ccccc1)c1ccco1
REMARK SMILES IDX 9 1 8 2 7 3 6 4 4 5 5 6 3 8 1 9 2 10 82 11 80 12 81 13 83 15
REMARK SMILES IDX 84 16 85 17 89 18 86 19 88 20 87 21 90 22 91 23 94 24 92 25
REMARK SMILES IDX 93 26 10 27 11 28 12 29 13 31 14 32 15 33 79 34 16 35 78 36
REMARK SMILES IDX 17 37 18 38 19 39 72 40 20 41 77 42 71 43 73 44 21 45 76 46
REMARK SMILES IDX 70 47 69 48 22 50 56 51 35 52 55 53 36 54 39 55 54 56 74 57
REMARK SMILES IDX 37 58 38 59 53 61 75 62 40 63 23 64 24 65 33 66 25 67 26 68
REMARK SMILES IDX 32 69 34 70 27 71 28 72 29 73 30 74 31 75 57 76 58 77 67 78
REMARK SMILES IDX 59 79 60 80 66 81 68 82 61 83 62 84 63 85 64 86 65 87 41 88
REMARK SMILES IDX 42 89 51 90 43 91 44 92 50 93 52 94 45 95 46 96 47 97 48 98
REMARK SMILES IDX 49 99
REMARK H PARENT 6 7 82 14 11 30 73 49 39 60
REMARK Flexibility Score: inf
ROOT
ATOM      1  C   UNL A   1      32.977  28.790  25.844  1.00  0.00     0.023 C 
ENDROOT
BRANCH   1   2
ATOM      2  C   UNL A   1      31.563  28.299  25.506  1.00  0.00     0.023 C 
BRANCH   2   3
ATOM      3  C   UNL A   1      31.440  27.506  24.200  1.00  0.00     0.116 C 
BRANCH   3   4
ATOM      4  N   UNL A   1      32.697  26.911  23.791  1.00  0.00    -0.356 N 
ATOM      5  C   UNL A   1      33.195  25.656  23.931  1.00  0.00     0.229 C 
ATOM      6  O   UNL A   1      34.285  25.442  23.385  1.00  0.00    -0.275 OA
ATOM      7  H   UNL A   1      33.301  27.533  23.326  1.00  0.00     0.163 HD
BRANCH   5   8
ATOM      8  C   UNL A   1      32.501  24.500  24.655  1.00  0.00     0.142 C 
ATOM      9  C   UNL A   1      31.466  22.713  23.224  1.00  0.00     0.076 C 
ATOM     10  C   UNL A   1      32.672  23.077  24.101  1.00  0.00     0.194 C 
ATOM     11  N   UNL A   1      32.701  22.158  25.269  1.00  0.00    -0.319 N 
ATOM     12  C   UNL A   1      32.813  24.376  26.135  1.00  0.00     0.081 C 
ATOM     13  C   UNL A   1      32.373  22.948  26.451  1.00  0.00     0.264 C 
ATOM     14  H   UNL A   1      31.982  21.439  25.188  1.00  0.00     0.349 HD
BRANCH  11  15
ATOM     15  C   UNL A   1      33.871  21.249  25.326  1.00  0.00     0.283 C 
BRANCH  15  16
ATOM     16  C   UNL A   1      33.815  19.865  24.665  1.00  0.00     0.017 A 
ATOM     17  C   UNL A   1      32.586  19.450  24.121  1.00  0.00     0.010 A 
ATOM     18  C   UNL A   1      34.842  18.910  24.730  1.00  0.00     0.010 A 
ATOM     19  C   UNL A   1      32.422  18.159  23.623  1.00  0.00     0.001 A 
ATOM     20  C   UNL A   1      34.707  17.648  24.147  1.00  0.00     0.001 A 
ATOM     21  C   UNL A   1      33.494  17.274  23.586  1.00  0.00     0.000 A 
ENDBRANCH  15  16
BRANCH  15  22
ATOM     22  C   UNL A   1      35.212  21.901  25.046  1.00  0.00     0.165 A 
ATOM     23  C   UNL A   1      35.809  22.346  23.880  1.00  0.00     0.052 A 
ATOM     24  O   UNL A   1      35.900  22.402  26.121  1.00  0.00    -0.463 OA
ATOM     25  C   UNL A   1      36.831  23.251  24.271  1.00  0.00     0.042 A 
ATOM     26  C   UNL A   1      36.838  23.255  25.645  1.00  0.00     0.195 A 
ENDBRANCH  15  22
ENDBRANCH  11  15
ENDBRANCH   5   8
ENDBRANCH   3   4
ENDBRANCH   2   3
ENDBRANCH   1   2
BRANCH   1  27
ATOM     27  C   UNL A   1      33.339  28.849  27.329  1.00  0.00     0.116 C 
BRANCH  27  28
ATOM     28  N   UNL A   1      33.542  30.197  27.835  1.00  0.00    -0.352 N 
ATOM     29  C   UNL A   1      34.690  30.817  28.290  1.00  0.00     0.251 C 
ATOM     30  H   UNL A   1      32.732  30.757  27.856  1.00  0.00     0.163 HD
ATOM     31  O   UNL A   1      34.665  31.978  28.653  1.00  0.00    -0.269 OA
BRANCH  29  32
ATOM     32  C   UNL A   1      35.932  30.029  28.424  1.00  0.00     0.039 A 
ATOM     33  C   UNL A   1      36.790  29.985  27.321  1.00  0.00     0.014 A 
ATOM     34  C   UNL A   1      36.299  29.443  29.634  1.00  0.00     0.014 A 
ATOM     35  C   UNL A   1      38.081  29.488  27.477  1.00  0.00     0.010 A 
ATOM     36  C   UNL A   1      37.610  29.023  29.812  1.00  0.00     0.010 A 
ATOM     37  C   UNL A   1      38.521  29.083  28.746  1.00  0.00    -0.014 A 
BRANCH  37  38
ATOM     38  C   UNL A   1      39.953  28.803  29.000  1.00  0.00     0.031 A 
ATOM     39  C   UNL A   1      40.840  29.878  29.550  1.00  0.00     0.074 A 
ATOM     40  C   UNL A   1      40.450  27.605  28.629  1.00  0.00     0.049 A 
ATOM     41  N   UNL A   1      42.128  29.854  29.763  1.00  0.00    -0.248 NA
ATOM     42  C   UNL A   1      40.200  31.166  29.869  1.00  0.00     0.031 C 
ATOM     43  C   UNL A   1      39.678  26.525  28.005  1.00  0.00     0.029 A 
ATOM     44  N   UNL A   1      41.719  27.094  28.707  1.00  0.00    -0.354 N 
ATOM     45  C   UNL A   1      42.456  31.122  30.224  1.00  0.00     0.074 A 
ATOM     46  C   UNL A   1      41.243  31.909  30.205  1.00  0.00     0.031 C 
ATOM     47  C   UNL A   1      40.482  25.472  27.786  1.00  0.00     0.029 A 
ATOM     48  C   UNL A   1      41.830  25.811  28.222  1.00  0.00     0.049 A 
ATOM     49  H   UNL A   1      42.481  27.598  29.075  1.00  0.00     0.167 HD
ATOM     50  C   UNL A   1      43.660  31.577  30.646  1.00  0.00     0.037 A 
ATOM     51  C   UNL A   1      42.903  25.001  28.143  1.00  0.00     0.037 A 
ATOM     52  C   UNL A   1      44.846  30.762  30.677  1.00  0.00     0.049 A 
ATOM     53  C   UNL A   1      44.218  25.511  28.665  1.00  0.00     0.074 A 
ATOM     54  C   UNL A   1      46.109  31.091  31.134  1.00  0.00     0.029 A 
ATOM     55  N   UNL A   1      44.910  29.447  30.233  1.00  0.00    -0.354 N 
ATOM     56  N   UNL A   1      44.499  26.693  29.165  1.00  0.00    -0.248 NA
ATOM     57  C   UNL A   1      45.355  24.586  28.627  1.00  0.00     0.031 C 
ATOM     58  C   UNL A   1      46.942  29.983  30.940  1.00  0.00     0.029 A 
ATOM     59  C   UNL A   1      46.191  28.952  30.398  1.00  0.00     0.049 A 
ATOM     60  H   UNL A   1      44.154  28.941  29.856  1.00  0.00     0.167 HD
ATOM     61  C   UNL A   1      45.840  26.646  29.520  1.00  0.00     0.074 A 
ATOM     62  C   UNL A   1      46.309  25.314  29.191  1.00  0.00     0.031 C 
ATOM     63  C   UNL A   1      46.618  27.615  30.064  1.00  0.00     0.037 A 
BRANCH  50  64
ATOM     64  C   UNL A   1      43.737  33.005  31.112  1.00  0.00     0.058 A 
ATOM     65  C   UNL A   1      44.027  34.052  30.223  1.00  0.00     0.135 A 
ATOM     66  C   UNL A   1      43.524  33.333  32.460  1.00  0.00     0.135 A 
ATOM     67  F   UNL A   1      44.258  33.794  28.925  1.00  0.00    -0.206 F 
ATOM     68  C   UNL A   1      44.143  35.368  30.659  1.00  0.00     0.059 A 
ATOM     69  C   UNL A   1      43.607  34.648  32.914  1.00  0.00     0.059 A 
ATOM     70  F   UNL A   1      43.246  32.373  33.355  1.00  0.00    -0.206 F 
ATOM     71  C   UNL A   1      43.935  35.656  32.009  1.00  0.00     0.060 A 
BRANCH  71  72
ATOM     72  S   UNL A   1      44.103  37.367  32.561  1.00  0.00     0.124 S 
ATOM     73  O   UNL A   1      45.494  37.394  33.002  1.00  0.00    -0.237 OA
ATOM     74  O   UNL A   1      43.810  38.118  31.345  1.00  0.00    -0.237 OA
ATOM     75  O   UNL A   1      43.106  37.481  33.620  1.00  0.00    -0.744 OA
ENDBRANCH  71  72
ENDBRANCH  50  64
BRANCH  51  76
ATOM     76  C   UNL A   1      42.763  23.622  27.599  1.00  0.00     0.058 A 
ATOM     77  C   UNL A   1      42.484  22.539  28.444  1.00  0.00     0.135 A 
ATOM     78  C   UNL A   1      42.872  23.362  26.223  1.00  0.00     0.135 A 
ATOM     79  F   UNL A   1      42.371  22.735  29.767  1.00  0.00    -0.206 F 
ATOM     80  C   UNL A   1      42.331  21.246  27.952  1.00  0.00     0.059 A 
ATOM     81  C   UNL A   1      42.701  22.082  25.704  1.00  0.00     0.059 A 
ATOM     82  F   UNL A   1      43.116  24.365  25.366  1.00  0.00    -0.206 F 
ATOM     83  C   UNL A   1      42.440  21.027  26.579  1.00  0.00     0.060 A 
BRANCH  83  84
ATOM     84  S   UNL A   1      42.186  19.355  25.944  1.00  0.00     0.124 S 
ATOM     85  O   UNL A   1      40.746  19.341  25.722  1.00  0.00    -0.237 OA
ATOM     86  O   UNL A   1      43.018  19.350  24.744  1.00  0.00    -0.237 OA
ATOM     87  O   UNL A   1      42.665  18.507  27.032  1.00  0.00    -0.744 OA
ENDBRANCH  83  84
ENDBRANCH  51  76
BRANCH  63  88
ATOM     88  C   UNL A   1      48.046  27.256  30.357  1.00  0.00     0.058 A 
ATOM     89  C   UNL A   1      49.075  27.553  29.452  1.00  0.00     0.135 A 
ATOM     90  C   UNL A   1      48.390  26.661  31.581  1.00  0.00     0.135 A 
ATOM     91  F   UNL A   1      48.792  28.115  28.267  1.00  0.00    -0.206 F 
ATOM     92  C   UNL A   1      50.401  27.255  29.743  1.00  0.00     0.059 A 
ATOM     93  C   UNL A   1      49.712  26.376  31.903  1.00  0.00     0.059 A 
ATOM     94  F   UNL A   1      47.439  26.367  32.481  1.00  0.00    -0.206 F 
ATOM     95  C   UNL A   1      50.709  26.668  30.972  1.00  0.00     0.060 A 
BRANCH  95  96
ATOM     96  S   UNL A   1      52.438  26.323  31.357  1.00  0.00     0.124 S 
ATOM     97  O   UNL A   1      52.780  27.460  32.206  1.00  0.00    -0.237 OA
ATOM     98  O   UNL A   1      52.358  25.031  32.029  1.00  0.00    -0.237 OA
ATOM     99  O   UNL A   1      53.080  26.302  30.045  1.00  0.00    -0.744 OA
ENDBRANCH  95  96
ENDBRANCH  63  88
ENDBRANCH  37  38
ENDBRANCH  29  32
ENDBRANCH  27  28
ENDBRANCH   1  27
TORSDOF 17
ENDMDL
MODEL 3
REMARK VINA RESULT:     -11.4      4.732     10.583
REMARK SMILES C[C@H]1[C@H](C(=O)NCCCCNC(=O)c2ccc(-c3c4nc(c(-c5c(F)cc(S(=O)(=O)[O-])cc5F)c5ccc([nH]5)c(-c5c(F)cc(S(=O)(=O)[O-])cc5F)c5nc(c(-c6c(F)cc(S(=O)(=O)[O-])cc6F)c6ccc3[nH]6)C=C5)C=C4)cc2)CC[N@@H+]1[C@@H](c1ccccc1)c1ccco1
REMARK SMILES IDX 9 1 8 2 7 3 6 4 4 5 5 6 3 8 1 9 2 10 82 11 80 12 81 13 83 15
REMARK SMILES IDX 84 16 85 17 89 18 86 19 88 20 87 21 90 22 91 23 94 24 92 25
REMARK SMILES IDX 93 26 10 27 11 28 12 29 13 31 14 32 15 33 79 34 16 35 78 36
REMARK SMILES IDX 17 37 18 38 19 39 72 40 20 41 77 42 71 43 73 44 21 45 76 46
REMARK SMILES IDX 70 47 69 48 22 50 56 51 35 52 55 53 36 54 39 55 54 56 74 57
REMARK SMILES IDX 37 58 38 59 53 61 75 62 40 63 23 64 24 65 33 66 25 67 26 68
REMARK SMILES IDX 32 69 34 70 27 71 28 72 29 73 30 74 31 75 57 76 58 77 67 78
REMARK SMILES IDX 59 79 60 80 66 81 68 82 61 83 62 84 63 85 64 86 65 87 41 88
REMARK SMILES IDX 42 89 51 90 43 91 44 92 50 93 52 94 45 95 46 96 47 97 48 98
REMARK SMILES IDX 49 99
REMARK H PARENT 6 7 82 14 11 30 73 49 39 60
REMARK Flexibility Score: inf
ROOT
ATOM      1  C   UNL A   1      37.598  22.874  25.726  1.00  0.00     0.023 C 
ENDROOT
BRANCH   1   2
ATOM      2  C   UNL A   1      37.025  23.125  24.325  1.00  0.00     0.023 C 
BRANCH   2   3
ATOM      3  C   UNL A   1      35.559  22.719  24.135  1.00  0.00     0.116 C 
BRANCH   3   4
ATOM      4  N   UNL A   1      34.706  23.204  25.202  1.00  0.00    -0.356 N 
ATOM      5  C   UNL A   1      33.612  24.008  25.195  1.00  0.00     0.229 C 
ATOM      6  O   UNL A   1      33.049  24.165  26.287  1.00  0.00    -0.275 OA
ATOM      7  H   UNL A   1      34.969  22.893  26.098  1.00  0.00     0.163 HD
BRANCH   5   8
ATOM      8  C   UNL A   1      33.008  24.678  23.959  1.00  0.00     0.142 C 
ATOM      9  C   UNL A   1      30.778  23.829  23.175  1.00  0.00     0.076 C 
ATOM     10  C   UNL A   1      31.497  24.952  23.935  1.00  0.00     0.194 C 
ATOM     11  N   UNL A   1      31.299  26.225  23.195  1.00  0.00    -0.319 N 
ATOM     12  C   UNL A   1      33.644  25.995  23.555  1.00  0.00     0.081 C 
ATOM     13  C   UNL A   1      32.591  26.606  22.634  1.00  0.00     0.264 C 
ATOM     14  H   UNL A   1      30.663  26.098  22.408  1.00  0.00     0.349 HD
BRANCH  11  15
ATOM     15  C   UNL A   1      30.507  27.254  23.912  1.00  0.00     0.283 C 
BRANCH  15  16
ATOM     16  C   UNL A   1      31.148  28.097  25.021  1.00  0.00     0.017 A 
ATOM     17  C   UNL A   1      31.331  27.495  26.279  1.00  0.00     0.010 A 
ATOM     18  C   UNL A   1      31.394  29.478  24.931  1.00  0.00     0.010 A 
ATOM     19  C   UNL A   1      31.785  28.234  27.369  1.00  0.00     0.001 A 
ATOM     20  C   UNL A   1      31.936  30.197  25.998  1.00  0.00     0.001 A 
ATOM     21  C   UNL A   1      32.138  29.571  27.219  1.00  0.00     0.000 A 
ENDBRANCH  15  16
BRANCH  15  22
ATOM     22  C   UNL A   1      29.636  28.132  23.033  1.00  0.00     0.165 A 
ATOM     23  C   UNL A   1      28.330  28.570  23.152  1.00  0.00     0.052 A 
ATOM     24  O   UNL A   1      30.268  28.865  22.062  1.00  0.00    -0.463 OA
ATOM     25  C   UNL A   1      28.203  29.696  22.298  1.00  0.00     0.042 A 
ATOM     26  C   UNL A   1      29.413  29.837  21.664  1.00  0.00     0.195 A 
ENDBRANCH  15  22
ENDBRANCH  11  15
ENDBRANCH   5   8
ENDBRANCH   3   4
ENDBRANCH   2   3
ENDBRANCH   1   2
BRANCH   1  27
ATOM     27  C   UNL A   1      38.410  24.015  26.342  1.00  0.00     0.116 C 
BRANCH  27  28
ATOM     28  N   UNL A   1      39.840  23.757  26.401  1.00  0.00    -0.352 N 
ATOM     29  C   UNL A   1      40.842  24.429  27.076  1.00  0.00     0.251 C 
ATOM     30  H   UNL A   1      40.142  22.980  25.877  1.00  0.00     0.163 HD
ATOM     31  O   UNL A   1      41.993  24.039  27.024  1.00  0.00    -0.269 OA
BRANCH  29  32
ATOM     32  C   UNL A   1      40.519  25.684  27.786  1.00  0.00     0.039 A 
ATOM     33  C   UNL A   1      39.404  25.680  28.628  1.00  0.00     0.014 A 
ATOM     34  C   UNL A   1      41.352  26.798  27.714  1.00  0.00     0.014 A 
ATOM     35  C   UNL A   1      39.211  26.736  29.514  1.00  0.00     0.010 A 
ATOM     36  C   UNL A   1      41.208  27.812  28.652  1.00  0.00     0.010 A 
ATOM     37  C   UNL A   1      40.162  27.765  29.585  1.00  0.00    -0.014 A 
BRANCH  37  38
ATOM     38  C   UNL A   1      40.129  28.754  30.687  1.00  0.00     0.031 A 
ATOM     39  C   UNL A   1      41.016  28.574  31.881  1.00  0.00     0.074 A 
ATOM     40  C   UNL A   1      39.217  29.747  30.634  1.00  0.00     0.049 A 
ATOM     41  N   UNL A   1      41.075  29.281  32.977  1.00  0.00    -0.248 NA
ATOM     42  C   UNL A   1      41.935  27.423  31.856  1.00  0.00     0.031 C 
ATOM     43  C   UNL A   1      38.252  29.952  29.549  1.00  0.00     0.029 A 
ATOM     44  N   UNL A   1      38.940  30.762  31.512  1.00  0.00    -0.354 N 
ATOM     45  C   UNL A   1      42.021  28.655  33.778  1.00  0.00     0.074 A 
ATOM     46  C   UNL A   1      42.468  27.479  33.067  1.00  0.00     0.031 C 
ATOM     47  C   UNL A   1      37.512  31.041  29.811  1.00  0.00     0.029 A 
ATOM     48  C   UNL A   1      37.925  31.593  31.095  1.00  0.00     0.049 A 
ATOM     49  H   UNL A   1      39.422  30.886  32.362  1.00  0.00     0.167 HD
ATOM     50  C   UNL A   1      42.487  29.045  34.988  1.00  0.00     0.037 A 
ATOM     51  C   UNL A   1      37.393  32.680  31.685  1.00  0.00     0.037 A 
ATOM     52  C   UNL A   1      42.040  30.236  35.662  1.00  0.00     0.049 A 
ATOM     53  C   UNL A   1      37.963  33.122  33.004  1.00  0.00     0.074 A 
ATOM     54  C   UNL A   1      42.476  30.766  36.863  1.00  0.00     0.029 A 
ATOM     55  N   UNL A   1      41.052  31.087  35.183  1.00  0.00    -0.354 N 
ATOM     56  N   UNL A   1      38.909  32.557  33.719  1.00  0.00    -0.248 NA
ATOM     57  C   UNL A   1      37.410  34.345  33.594  1.00  0.00     0.031 C 
ATOM     58  C   UNL A   1      41.731  31.921  37.123  1.00  0.00     0.029 A 
ATOM     59  C   UNL A   1      40.858  32.134  36.066  1.00  0.00     0.049 A 
ATOM     60  H   UNL A   1      40.561  30.963  34.339  1.00  0.00     0.167 HD
ATOM     61  C   UNL A   1      39.079  33.369  34.833  1.00  0.00     0.074 A 
ATOM     62  C   UNL A   1      38.148  34.471  34.688  1.00  0.00     0.031 C 
ATOM     63  C   UNL A   1      39.924  33.218  35.883  1.00  0.00     0.037 A 
BRANCH  50  64
ATOM     64  C   UNL A   1      43.533  28.182  35.639  1.00  0.00     0.058 A 
ATOM     65  C   UNL A   1      44.898  28.337  35.347  1.00  0.00     0.135 A 
ATOM     66  C   UNL A   1      43.172  27.186  36.561  1.00  0.00     0.135 A 
ATOM     67  F   UNL A   1      45.299  29.261  34.459  1.00  0.00    -0.206 F 
ATOM     68  C   UNL A   1      45.864  27.512  35.914  1.00  0.00     0.059 A 
ATOM     69  C   UNL A   1      44.125  26.367  37.162  1.00  0.00     0.059 A 
ATOM     70  F   UNL A   1      41.882  26.991  36.876  1.00  0.00    -0.206 F 
ATOM     71  C   UNL A   1      45.467  26.525  36.818  1.00  0.00     0.060 A 
BRANCH  71  72
ATOM     72  S   UNL A   1      46.731  25.453  37.534  1.00  0.00     0.124 S 
ATOM     73  O   UNL A   1      47.736  25.441  36.474  1.00  0.00    -0.237 OA
ATOM     74  O   UNL A   1      47.101  26.173  38.748  1.00  0.00    -0.237 OA
ATOM     75  O   UNL A   1      46.027  24.193  37.746  1.00  0.00    -0.744 OA
ENDBRANCH  71  72
ENDBRANCH  50  64
BRANCH  51  76
ATOM     76  C   UNL A   1      36.306  33.442  31.012  1.00  0.00     0.058 A 
ATOM     77  C   UNL A   1      35.003  33.447  31.529  1.00  0.00     0.135 A 
ATOM     78  C   UNL A   1      36.551  34.208  29.860  1.00  0.00     0.135 A 
ATOM     79  F   UNL A   1      34.717  32.731  32.628  1.00  0.00    -0.206 F 
ATOM     80  C   UNL A   1      33.977  34.168  30.925  1.00  0.00     0.059 A 
ATOM     81  C   UNL A   1      35.548  34.956  29.250  1.00  0.00     0.059 A 
ATOM     82  F   UNL A   1      37.785  34.258  29.336  1.00  0.00    -0.206 F 
ATOM     83  C   UNL A   1      34.260  34.922  29.785  1.00  0.00     0.060 A 
BRANCH  83  84
ATOM     84  S   UNL A   1      32.935  35.898  29.040  1.00  0.00     0.124 S 
ATOM     85  O   UNL A   1      32.316  34.922  28.151  1.00  0.00    -0.237 OA
ATOM     86  O   UNL A   1      32.148  36.290  30.206  1.00  0.00    -0.237 OA
ATOM     87  O   UNL A   1      33.649  36.987  28.382  1.00  0.00    -0.744 OA
ENDBRANCH  83  84
ENDBRANCH  51  76
BRANCH  63  88
ATOM     88  C   UNL A   1      39.891  34.283  36.941  1.00  0.00     0.058 A 
ATOM     89  C   UNL A   1      40.569  35.499  36.774  1.00  0.00     0.135 A 
ATOM     90  C   UNL A   1      39.128  34.103  38.105  1.00  0.00     0.135 A 
ATOM     91  F   UNL A   1      41.318  35.713  35.681  1.00  0.00    -0.206 F 
ATOM     92  C   UNL A   1      40.506  36.499  37.738  1.00  0.00     0.059 A 
ATOM     93  C   UNL A   1      39.030  35.099  39.070  1.00  0.00     0.059 A 
ATOM     94  F   UNL A   1      38.455  32.958  38.302  1.00  0.00    -0.206 F 
ATOM     95  C   UNL A   1      39.732  36.289  38.882  1.00  0.00     0.060 A 
BRANCH  95  96
ATOM     96  S   UNL A   1      39.623  37.610  40.106  1.00  0.00     0.124 S 
ATOM     97  O   UNL A   1      39.092  36.894  41.261  1.00  0.00    -0.237 OA
ATOM     98  O   UNL A   1      41.010  38.051  40.216  1.00  0.00    -0.237 OA
ATOM     99  O   UNL A   1      38.714  38.571  39.489  1.00  0.00    -0.744 OA
ENDBRANCH  95  96
ENDBRANCH  63  88
ENDBRANCH  37  38
ENDBRANCH  29  32
ENDBRANCH  27  28
ENDBRANCH   1  27
TORSDOF 17
ENDMDL
