MODEL 1
REMARK VINA RESULT:     -13.3      0.000      0.000
REMARK SMILES CC(C)[C@H](NC(=O)c1cc2cc(Cl)ccc2n1C)C(=O)N[C@@H](C(=O)NCCCCNC(=O)c1ccc(-c2c3nc(c(-c4c(F)cc(S(=O)(=O)[O-])cc4F)c4ccc([nH]4)c(-c4c(F)cc(S(=O)(=O)[O-])cc4F)c4nc(c(-c5c(F)cc(S(=O)(=O)[O-])cc5F)c5ccc2[nH]5)C=C4)C=C3)cc1)c1ccccc1
REMARK SMILES IDX 27 1 26 2 25 3 23 4 24 5 22 7 21 8 19 9 20 10 4 12 2 13 1 14
REMARK SMILES IDX 3 15 5 16 6 17 7 19 8 20 9 21 17 22 10 23 16 24 18 25 11 26
REMARK SMILES IDX 15 27 12 28 14 29 13 30 99 31 100 32 104 33 101 34 103 35
REMARK SMILES IDX 102 36 28 37 29 38 30 39 31 40 32 42 33 43 34 44 98 45 35 46
REMARK SMILES IDX 97 47 36 48 37 49 38 50 91 51 39 52 96 53 90 54 92 55 40 56
REMARK SMILES IDX 95 57 89 58 88 59 41 61 75 62 54 63 74 64 55 65 58 66 73 67
REMARK SMILES IDX 93 68 56 69 57 70 72 72 94 73 59 74 42 75 43 76 52 77 44 78
REMARK SMILES IDX 45 79 51 80 53 81 46 82 47 83 48 84 49 85 50 86 76 87 77 88
REMARK SMILES IDX 86 89 78 90 79 91 85 92 87 93 80 94 81 95 82 96 83 97 84 98
REMARK SMILES IDX 60 99 61 100 70 101 62 102 63 103 69 104 71 105 64 106
REMARK SMILES IDX 65 107 66 108 67 109 68 110
REMARK H PARENT 25 6 21 11 5 18 30 41 92 60 58 71
REMARK Flexibility Score: inf
ROOT
ATOM      1  C   UNL A   1      37.610  22.460  25.625  1.00  0.00     0.023 C 
ENDROOT
BRANCH   1   2
ATOM      2  C   UNL A   1      36.505  23.460  25.338  1.00  0.00     0.116 C 
BRANCH   2   3
ATOM      3  N   UNL A   1      35.479  23.518  26.338  1.00  0.00    -0.354 N 
ATOM      4  C   UNL A   1      34.213  23.013  26.249  1.00  0.00     0.247 C 
ATOM      5  O   UNL A   1      33.737  22.655  27.333  1.00  0.00    -0.272 OA
ATOM      6  H   UNL A   1      35.713  23.971  27.180  1.00  0.00     0.163 HD
BRANCH   4   7
ATOM      7  C   UNL A   1      33.490  22.710  24.860  1.00  0.00     0.202 C 
BRANCH   7   8
ATOM      8  N   UNL A   1      32.100  23.157  24.697  1.00  0.00    -0.339 N 
ATOM      9  C   UNL A   1      31.518  24.145  23.961  1.00  0.00     0.243 C 
ATOM     10  O   UNL A   1      30.380  23.887  23.542  1.00  0.00    -0.273 OA
ATOM     11  H   UNL A   1      31.456  22.636  25.229  1.00  0.00     0.164 HD
BRANCH   9  12
ATOM     12  C   UNL A   1      32.141  25.530  23.595  1.00  0.00     0.174 C 
BRANCH  12  13
ATOM     13  C   UNL A   1      33.085  25.558  22.356  1.00  0.00     0.015 C 
ATOM     14  C   UNL A   1      32.399  25.636  20.987  1.00  0.00     0.010 C 
ATOM     15  C   UNL A   1      34.194  26.607  22.487  1.00  0.00     0.010 C 
ENDBRANCH  12  13
BRANCH  12  16
ATOM     16  N   UNL A   1      32.699  26.263  24.724  1.00  0.00    -0.339 N 
ATOM     17  C   UNL A   1      32.517  27.554  25.163  1.00  0.00     0.268 C 
ATOM     18  H   UNL A   1      33.321  25.736  25.276  1.00  0.00     0.164 HD
ATOM     19  O   UNL A   1      33.234  27.875  26.115  1.00  0.00    -0.268 OA
BRANCH  17  20
ATOM     20  C   UNL A   1      31.579  28.487  24.566  1.00  0.00     0.107 A 
ATOM     21  C   UNL A   1      31.126  28.374  23.252  1.00  0.00     0.042 A 
ATOM     22  N   UNL A   1      31.119  29.725  24.990  1.00  0.00    -0.340 N 
ATOM     23  C   UNL A   1      30.262  29.455  22.948  1.00  0.00     0.002 A 
ATOM     24  C   UNL A   1      30.210  30.251  24.084  1.00  0.00     0.048 A 
ATOM     25  C   UNL A   1      31.649  30.575  26.032  1.00  0.00     0.150 C 
ATOM     26  C   UNL A   1      29.535  29.846  21.807  1.00  0.00     0.030 A 
ATOM     27  C   UNL A   1      29.428  31.417  24.152  1.00  0.00     0.028 A 
ATOM     28  C   UNL A   1      28.752  31.004  21.867  1.00  0.00     0.041 A 
ATOM     29  C   UNL A   1      28.691  31.775  23.023  1.00  0.00     0.023 A 
ATOM     30  Cl  UNL A   1      27.843  31.483  20.484  1.00  0.00    -0.084 Cl
ENDBRANCH  17  20
ENDBRANCH  12  16
ENDBRANCH   9  12
ENDBRANCH   7   8
BRANCH   7  31
ATOM     31  C   UNL A   1      33.500  21.192  24.548  1.00  0.00    -0.016 A 
ATOM     32  C   UNL A   1      32.445  20.560  23.865  1.00  0.00     0.006 A 
ATOM     33  C   UNL A   1      34.601  20.393  24.888  1.00  0.00     0.006 A 
ATOM     34  C   UNL A   1      32.437  19.177  23.654  1.00  0.00     0.000 A 
ATOM     35  C   UNL A   1      34.611  19.014  24.656  1.00  0.00     0.000 A 
ATOM     36  C   UNL A   1      33.515  18.401  24.063  1.00  0.00     0.000 A 
ENDBRANCH   7  31
ENDBRANCH   4   7
ENDBRANCH   2   3
ENDBRANCH   1   2
BRANCH   1  37
ATOM     37  C   UNL A   1      38.853  23.040  26.286  1.00  0.00     0.023 C 
BRANCH  37  38
ATOM     38  C   UNL A   1      40.012  22.053  26.482  1.00  0.00     0.116 C 
BRANCH  38  39
ATOM     39  N   UNL A   1      41.123  22.210  25.563  1.00  0.00    -0.352 N 
ATOM     40  C   UNL A   1      42.187  23.073  25.504  1.00  0.00     0.251 C 
ATOM     41  H   UNL A   1      41.110  21.560  24.823  1.00  0.00     0.163 HD
ATOM     42  O   UNL A   1      43.142  22.731  24.799  1.00  0.00    -0.269 OA
BRANCH  40  43
ATOM     43  C   UNL A   1      42.231  24.414  26.155  1.00  0.00     0.039 A 
ATOM     44  C   UNL A   1      42.806  24.685  27.394  1.00  0.00     0.014 A 
ATOM     45  C   UNL A   1      41.522  25.446  25.510  1.00  0.00     0.014 A 
ATOM     46  C   UNL A   1      42.555  25.889  28.041  1.00  0.00     0.010 A 
ATOM     47  C   UNL A   1      41.302  26.670  26.135  1.00  0.00     0.010 A 
ATOM     48  C   UNL A   1      41.765  26.865  27.432  1.00  0.00    -0.014 A 
BRANCH  48  49
ATOM     49  C   UNL A   1      41.536  28.102  28.176  1.00  0.00     0.031 A 
ATOM     50  C   UNL A   1      42.631  29.109  28.060  1.00  0.00     0.074 A 
ATOM     51  C   UNL A   1      40.401  28.372  28.854  1.00  0.00     0.049 A 
ATOM     52  N   UNL A   1      43.411  29.568  28.985  1.00  0.00    -0.248 NA
ATOM     53  C   UNL A   1      42.980  29.566  26.705  1.00  0.00     0.031 C 
ATOM     54  C   UNL A   1      39.138  27.628  28.846  1.00  0.00     0.029 A 
ATOM     55  N   UNL A   1      40.114  29.446  29.643  1.00  0.00    -0.354 N 
ATOM     56  C   UNL A   1      44.221  30.521  28.368  1.00  0.00     0.074 A 
ATOM     57  C   UNL A   1      44.015  30.371  26.950  1.00  0.00     0.031 C 
ATOM     58  C   UNL A   1      38.168  28.389  29.403  1.00  0.00     0.029 A 
ATOM     59  C   UNL A   1      38.764  29.602  29.937  1.00  0.00     0.049 A 
ATOM     60  H   UNL A   1      40.807  30.061  29.979  1.00  0.00     0.167 HD
ATOM     61  C   UNL A   1      44.855  31.502  29.068  1.00  0.00     0.037 A 
ATOM     62  C   UNL A   1      38.182  30.679  30.523  1.00  0.00     0.037 A 
ATOM     63  C   UNL A   1      44.948  31.183  30.467  1.00  0.00     0.049 A 
ATOM     64  C   UNL A   1      39.253  31.417  31.241  1.00  0.00     0.074 A 
ATOM     65  C   UNL A   1      45.565  30.193  31.204  1.00  0.00     0.029 A 
ATOM     66  N   UNL A   1      44.051  31.777  31.319  1.00  0.00    -0.354 N 
ATOM     67  N   UNL A   1      39.888  30.963  32.285  1.00  0.00    -0.248 NA
ATOM     68  C   UNL A   1      39.906  32.512  30.539  1.00  0.00     0.031 C 
ATOM     69  C   UNL A   1      44.680  29.931  32.291  1.00  0.00     0.029 A 
ATOM     70  C   UNL A   1      43.598  30.807  32.175  1.00  0.00     0.049 A 
ATOM     71  H   UNL A   1      43.782  32.724  31.316  1.00  0.00     0.167 HD
ATOM     72  C   UNL A   1      41.189  31.417  32.135  1.00  0.00     0.074 A 
ATOM     73  C   UNL A   1      41.116  32.441  31.097  1.00  0.00     0.031 C 
ATOM     74  C   UNL A   1      42.242  30.737  32.675  1.00  0.00     0.037 A 
BRANCH  61  75
ATOM     75  C   UNL A   1      45.087  32.900  28.543  1.00  0.00     0.058 A 
ATOM     76  C   UNL A   1      46.403  33.390  28.405  1.00  0.00     0.135 A 
ATOM     77  C   UNL A   1      44.064  33.869  28.438  1.00  0.00     0.135 A 
ATOM     78  F   UNL A   1      47.455  32.562  28.502  1.00  0.00    -0.206 F 
ATOM     79  C   UNL A   1      46.681  34.750  28.241  1.00  0.00     0.059 A 
ATOM     80  C   UNL A   1      44.317  35.219  28.222  1.00  0.00     0.059 A 
ATOM     81  F   UNL A   1      42.775  33.568  28.640  1.00  0.00    -0.206 F 
ATOM     82  C   UNL A   1      45.628  35.658  28.166  1.00  0.00     0.060 A 
BRANCH  82  83
ATOM     83  S   UNL A   1      45.985  37.420  28.065  1.00  0.00     0.124 S 
ATOM     84  O   UNL A   1      45.118  37.953  29.109  1.00  0.00    -0.237 OA
ATOM     85  O   UNL A   1      47.416  37.456  28.341  1.00  0.00    -0.237 OA
ATOM     86  O   UNL A   1      45.608  37.762  26.696  1.00  0.00    -0.744 OA
ENDBRANCH  82  83
ENDBRANCH  61  75
BRANCH  62  87
ATOM     87  C   UNL A   1      36.874  31.314  30.204  1.00  0.00     0.058 A 
ATOM     88  C   UNL A   1      36.134  31.979  31.202  1.00  0.00     0.135 A 
ATOM     89  C   UNL A   1      36.480  31.560  28.874  1.00  0.00     0.135 A 
ATOM     90  F   UNL A   1      36.447  31.815  32.496  1.00  0.00    -0.206 F 
ATOM     91  C   UNL A   1      35.116  32.889  30.895  1.00  0.00     0.059 A 
ATOM     92  C   UNL A   1      35.461  32.454  28.545  1.00  0.00     0.059 A 
ATOM     93  F   UNL A   1      37.143  31.013  27.844  1.00  0.00    -0.206 F 
ATOM     94  C   UNL A   1      34.806  33.141  29.561  1.00  0.00     0.060 A 
BRANCH  94  95
ATOM     95  S   UNL A   1      33.637  34.461  29.157  1.00  0.00     0.124 S 
ATOM     96  O   UNL A   1      33.051  34.756  30.460  1.00  0.00    -0.237 OA
ATOM     97  O   UNL A   1      34.515  35.489  28.606  1.00  0.00    -0.237 OA
ATOM     98  O   UNL A   1      32.736  33.835  28.194  1.00  0.00    -0.744 OA
ENDBRANCH  94  95
ENDBRANCH  62  87
BRANCH  74  99
ATOM     99  C   UNL A   1      41.952  29.669  33.699  1.00  0.00     0.058 A 
ATOM    100  C   UNL A   1      41.642  28.333  33.388  1.00  0.00     0.135 A 
ATOM    101  C   UNL A   1      42.153  29.982  35.052  1.00  0.00     0.135 A 
ATOM    102  F   UNL A   1      41.529  27.929  32.115  1.00  0.00    -0.206 F 
ATOM    103  C   UNL A   1      41.513  27.360  34.382  1.00  0.00     0.059 A 
ATOM    104  C   UNL A   1      42.059  29.022  36.056  1.00  0.00     0.059 A 
ATOM    105  F   UNL A   1      42.506  31.229  35.408  1.00  0.00    -0.206 F 
ATOM    106  C   UNL A   1      41.731  27.712  35.714  1.00  0.00     0.060 A 
BRANCH 106 107
ATOM    107  S   UNL A   1      41.666  26.433  36.988  1.00  0.00     0.124 S 
ATOM    108  O   UNL A   1      41.724  25.206  36.196  1.00  0.00    -0.237 OA
ATOM    109  O   UNL A   1      42.855  26.724  37.789  1.00  0.00    -0.237 OA
ATOM    110  O   UNL A   1      40.398  26.680  37.662  1.00  0.00    -0.744 OA
ENDBRANCH 106 107
ENDBRANCH  74  99
ENDBRANCH  48  49
ENDBRANCH  40  43
ENDBRANCH  38  39
ENDBRANCH  37  38
ENDBRANCH   1  37
TORSDOF 20
ENDMDL
MODEL 2
REMARK VINA RESULT:     -13.2      1.190      2.031
REMARK SMILES CC(C)[C@H](NC(=O)c1cc2cc(Cl)ccc2n1C)C(=O)N[C@@H](C(=O)NCCCCNC(=O)c1ccc(-c2c3nc(c(-c4c(F)cc(S(=O)(=O)[O-])cc4F)c4ccc([nH]4)c(-c4c(F)cc(S(=O)(=O)[O-])cc4F)c4nc(c(-c5c(F)cc(S(=O)(=O)[O-])cc5F)c5ccc2[nH]5)C=C4)C=C3)cc1)c1ccccc1
REMARK SMILES IDX 27 1 26 2 25 3 23 4 24 5 22 7 21 8 19 9 20 10 4 12 2 13 1 14
REMARK SMILES IDX 3 15 5 16 6 17 7 19 8 20 9 21 17 22 10 23 16 24 18 25 11 26
REMARK SMILES IDX 15 27 12 28 14 29 13 30 99 31 100 32 104 33 101 34 103 35
REMARK SMILES IDX 102 36 28 37 29 38 30 39 31 40 32 42 33 43 34 44 98 45 35 46
REMARK SMILES IDX 97 47 36 48 37 49 38 50 91 51 39 52 96 53 90 54 92 55 40 56
REMARK SMILES IDX 95 57 89 58 88 59 41 61 75 62 54 63 74 64 55 65 58 66 73 67
REMARK SMILES IDX 93 68 56 69 57 70 72 72 94 73 59 74 42 75 43 76 52 77 44 78
REMARK SMILES IDX 45 79 51 80 53 81 46 82 47 83 48 84 49 85 50 86 76 87 77 88
REMARK SMILES IDX 86 89 78 90 79 91 85 92 87 93 80 94 81 95 82 96 83 97 84 98
REMARK SMILES IDX 60 99 61 100 70 101 62 102 63 103 69 104 71 105 64 106
REMARK SMILES IDX 65 107 66 108 67 109 68 110
REMARK H PARENT 25 6 21 11 5 18 30 41 92 60 58 71
REMARK Flexibility Score: inf
ROOT
ATOM      1  C   UNL A   1      38.050  21.224  25.266  1.00  0.00     0.023 C 
ENDROOT
BRANCH   1   2
ATOM      2  C   UNL A   1      36.551  21.459  25.213  1.00  0.00     0.116 C 
BRANCH   2   3
ATOM      3  N   UNL A   1      35.916  21.540  26.496  1.00  0.00    -0.354 N 
ATOM      4  C   UNL A   1      34.699  22.091  26.778  1.00  0.00     0.247 C 
ATOM      5  O   UNL A   1      34.117  21.563  27.734  1.00  0.00    -0.272 OA
ATOM      6  H   UNL A   1      36.411  21.157  27.256  1.00  0.00     0.163 HD
BRANCH   4   7
ATOM      7  C   UNL A   1      33.990  23.169  25.840  1.00  0.00     0.202 C 
BRANCH   7   8
ATOM      8  N   UNL A   1      32.969  24.038  26.442  1.00  0.00    -0.339 N 
ATOM      9  C   UNL A   1      32.600  25.331  26.227  1.00  0.00     0.243 C 
ATOM     10  O   UNL A   1      31.393  25.567  26.390  1.00  0.00    -0.273 OA
ATOM     11  H   UNL A   1      32.442  23.593  27.146  1.00  0.00     0.164 HD
BRANCH   9  12
ATOM     12  C   UNL A   1      33.529  26.510  25.793  1.00  0.00     0.174 C 
BRANCH  12  13
ATOM     13  C   UNL A   1      33.092  27.936  26.242  1.00  0.00     0.015 C 
ATOM     14  C   UNL A   1      32.221  28.011  27.501  1.00  0.00     0.010 C 
ATOM     15  C   UNL A   1      34.270  28.914  26.316  1.00  0.00     0.010 C 
ENDBRANCH  12  13
BRANCH  12  16
ATOM     16  N   UNL A   1      33.939  26.478  24.395  1.00  0.00    -0.339 N 
ATOM     17  C   UNL A   1      33.293  26.845  23.237  1.00  0.00     0.268 C 
ATOM     18  H   UNL A   1      34.850  26.131  24.253  1.00  0.00     0.164 HD
ATOM     19  O   UNL A   1      33.915  26.590  22.203  1.00  0.00    -0.268 OA
BRANCH  17  20
ATOM     20  C   UNL A   1      31.982  27.468  23.206  1.00  0.00     0.107 A 
ATOM     21  C   UNL A   1      31.782  28.831  23.422  1.00  0.00     0.042 A 
ATOM     22  N   UNL A   1      30.707  26.922  23.200  1.00  0.00    -0.340 N 
ATOM     23  C   UNL A   1      30.396  29.125  23.375  1.00  0.00     0.002 A 
ATOM     24  C   UNL A   1      29.743  27.920  23.156  1.00  0.00     0.048 A 
ATOM     25  C   UNL A   1      30.304  25.565  23.494  1.00  0.00     0.150 C 
ATOM     26  C   UNL A   1      29.631  30.298  23.522  1.00  0.00     0.030 A 
ATOM     27  C   UNL A   1      28.345  27.831  23.037  1.00  0.00     0.028 A 
ATOM     28  C   UNL A   1      28.239  30.219  23.402  1.00  0.00     0.041 A 
ATOM     29  C   UNL A   1      27.604  29.007  23.155  1.00  0.00     0.023 A 
ATOM     30  Cl  UNL A   1      27.294  31.650  23.560  1.00  0.00    -0.084 Cl
ENDBRANCH  17  20
ENDBRANCH  12  16
ENDBRANCH   9  12
ENDBRANCH   7   8
BRANCH   7  31
ATOM     31  C   UNL A   1      33.322  22.491  24.619  1.00  0.00    -0.016 A 
ATOM     32  C   UNL A   1      32.780  21.194  24.685  1.00  0.00     0.006 A 
ATOM     33  C   UNL A   1      33.180  23.174  23.402  1.00  0.00     0.006 A 
ATOM     34  C   UNL A   1      32.243  20.569  23.555  1.00  0.00     0.000 A 
ATOM     35  C   UNL A   1      32.620  22.563  22.276  1.00  0.00     0.000 A 
ATOM     36  C   UNL A   1      32.176  21.249  22.345  1.00  0.00     0.000 A 
ENDBRANCH   7  31
ENDBRANCH   4   7
ENDBRANCH   2   3
ENDBRANCH   1   2
BRANCH   1  37
ATOM     37  C   UNL A   1      38.848  22.291  26.003  1.00  0.00     0.023 C 
BRANCH  37  38
ATOM     38  C   UNL A   1      40.207  21.834  26.548  1.00  0.00     0.116 C 
BRANCH  38  39
ATOM     39  N   UNL A   1      41.320  21.957  25.625  1.00  0.00    -0.352 N 
ATOM     40  C   UNL A   1      42.401  22.796  25.553  1.00  0.00     0.251 C 
ATOM     41  H   UNL A   1      41.292  21.297  24.893  1.00  0.00     0.163 HD
ATOM     42  O   UNL A   1      43.346  22.427  24.850  1.00  0.00    -0.269 OA
BRANCH  40  43
ATOM     43  C   UNL A   1      42.473  24.144  26.187  1.00  0.00     0.039 A 
ATOM     44  C   UNL A   1      43.149  24.439  27.368  1.00  0.00     0.014 A 
ATOM     45  C   UNL A   1      41.688  25.155  25.600  1.00  0.00     0.014 A 
ATOM     46  C   UNL A   1      42.931  25.644  28.026  1.00  0.00     0.010 A 
ATOM     47  C   UNL A   1      41.498  26.381  26.232  1.00  0.00     0.010 A 
ATOM     48  C   UNL A   1      42.070  26.598  27.481  1.00  0.00    -0.014 A 
BRANCH  48  49
ATOM     49  C   UNL A   1      41.881  27.837  28.233  1.00  0.00     0.031 A 
ATOM     50  C   UNL A   1      42.963  28.848  28.047  1.00  0.00     0.074 A 
ATOM     51  C   UNL A   1      40.788  28.105  28.977  1.00  0.00     0.049 A 
ATOM     52  N   UNL A   1      43.796  29.313  28.921  1.00  0.00    -0.248 NA
ATOM     53  C   UNL A   1      43.228  29.300  26.672  1.00  0.00     0.031 C 
ATOM     54  C   UNL A   1      39.530  27.356  29.048  1.00  0.00     0.029 A 
ATOM     55  N   UNL A   1      40.545  29.181  29.778  1.00  0.00    -0.354 N 
ATOM     56  C   UNL A   1      44.563  30.267  28.252  1.00  0.00     0.074 A 
ATOM     57  C   UNL A   1      44.272  30.111  26.851  1.00  0.00     0.031 C 
ATOM     58  C   UNL A   1      38.592  28.116  29.660  1.00  0.00     0.029 A 
ATOM     59  C   UNL A   1      39.215  29.333  30.153  1.00  0.00     0.049 A 
ATOM     60  H   UNL A   1      41.254  29.801  30.069  1.00  0.00     0.167 HD
ATOM     61  C   UNL A   1      45.233  31.254  28.909  1.00  0.00     0.037 A 
ATOM     62  C   UNL A   1      38.665  30.410  30.769  1.00  0.00     0.037 A 
ATOM     63  C   UNL A   1      45.412  30.940  30.301  1.00  0.00     0.049 A 
ATOM     64  C   UNL A   1      39.774  31.155  31.418  1.00  0.00     0.074 A 
ATOM     65  C   UNL A   1      46.077  29.956  31.004  1.00  0.00     0.029 A 
ATOM     66  N   UNL A   1      44.566  31.534  31.204  1.00  0.00    -0.354 N 
ATOM     67  N   UNL A   1      40.473  30.708  32.424  1.00  0.00    -0.248 NA
ATOM     68  C   UNL A   1      40.379  32.250  30.674  1.00  0.00     0.031 C 
ATOM     69  C   UNL A   1      45.260  29.695  32.143  1.00  0.00     0.029 A 
ATOM     70  C   UNL A   1      44.170  30.566  32.090  1.00  0.00     0.049 A 
ATOM     71  H   UNL A   1      44.293  32.480  31.213  1.00  0.00     0.167 HD
ATOM     72  C   UNL A   1      41.761  31.167  32.193  1.00  0.00     0.074 A 
ATOM     73  C   UNL A   1      41.621  32.186  31.157  1.00  0.00     0.031 C 
ATOM     74  C   UNL A   1      42.847  30.493  32.671  1.00  0.00     0.037 A 
BRANCH  61  75
ATOM     75  C   UNL A   1      45.428  32.650  28.365  1.00  0.00     0.058 A 
ATOM     76  C   UNL A   1      46.731  33.166  28.201  1.00  0.00     0.135 A 
ATOM     77  C   UNL A   1      44.383  33.596  28.268  1.00  0.00     0.135 A 
ATOM     78  F   UNL A   1      47.801  32.361  28.289  1.00  0.00    -0.206 F 
ATOM     79  C   UNL A   1      46.977  34.529  28.018  1.00  0.00     0.059 A 
ATOM     80  C   UNL A   1      44.604  34.949  28.033  1.00  0.00     0.059 A 
ATOM     81  F   UNL A   1      43.105  33.271  28.494  1.00  0.00    -0.206 F 
ATOM     82  C   UNL A   1      45.905  35.414  27.951  1.00  0.00     0.060 A 
BRANCH  82  83
ATOM     83  S   UNL A   1      46.223  37.182  27.825  1.00  0.00     0.124 S 
ATOM     84  O   UNL A   1      46.219  37.377  26.380  1.00  0.00    -0.237 OA
ATOM     85  O   UNL A   1      45.089  37.745  28.550  1.00  0.00    -0.237 OA
ATOM     86  O   UNL A   1      47.519  37.339  28.480  1.00  0.00    -0.744 OA
ENDBRANCH  82  83
ENDBRANCH  61  75
BRANCH  62  87
ATOM     87  C   UNL A   1      37.337  31.039  30.527  1.00  0.00     0.058 A 
ATOM     88  C   UNL A   1      36.631  31.658  31.578  1.00  0.00     0.135 A 
ATOM     89  C   UNL A   1      36.885  31.326  29.224  1.00  0.00     0.135 A 
ATOM     90  F   UNL A   1      37.000  31.452  32.851  1.00  0.00    -0.206 F 
ATOM     91  C   UNL A   1      35.591  32.565  31.346  1.00  0.00     0.059 A 
ATOM     92  C   UNL A   1      35.843  32.218  28.970  1.00  0.00     0.059 A 
ATOM     93  F   UNL A   1      37.511  30.825  28.149  1.00  0.00    -0.206 F 
ATOM     94  C   UNL A   1      35.223  32.860  30.036  1.00  0.00     0.060 A 
BRANCH  94  95
ATOM     95  S   UNL A   1      34.023  34.178  29.728  1.00  0.00     0.124 S 
ATOM     96  O   UNL A   1      33.538  34.467  31.074  1.00  0.00    -0.237 OA
ATOM     97  O   UNL A   1      34.853  35.211  29.116  1.00  0.00    -0.237 OA
ATOM     98  O   UNL A   1      33.052  33.553  28.836  1.00  0.00    -0.744 OA
ENDBRANCH  94  95
ENDBRANCH  62  87
BRANCH  74  99
ATOM     99  C   UNL A   1      42.624  29.428  33.715  1.00  0.00     0.058 A 
ATOM    100  C   UNL A   1      42.562  29.672  35.099  1.00  0.00     0.135 A 
ATOM    101  C   UNL A   1      42.302  28.135  33.277  1.00  0.00     0.135 A 
ATOM    102  F   UNL A   1      42.761  30.902  35.592  1.00  0.00    -0.206 F 
ATOM    103  C   UNL A   1      42.222  28.666  36.006  1.00  0.00     0.059 A 
ATOM    104  C   UNL A   1      41.930  27.125  34.161  1.00  0.00     0.059 A 
ATOM    105  F   UNL A   1      42.287  27.853  31.963  1.00  0.00    -0.206 F 
ATOM    106  C   UNL A   1      41.900  27.396  35.527  1.00  0.00     0.060 A 
BRANCH 106 107
ATOM    107  S   UNL A   1      41.359  26.124  36.691  1.00  0.00     0.124 S 
ATOM    108  O   UNL A   1      42.627  25.657  37.249  1.00  0.00    -0.237 OA
ATOM    109  O   UNL A   1      40.507  26.878  37.609  1.00  0.00    -0.237 OA
ATOM    110  O   UNL A   1      40.656  25.164  35.851  1.00  0.00    -0.744 OA
ENDBRANCH 106 107
ENDBRANCH  74  99
ENDBRANCH  48  49
ENDBRANCH  40  43
ENDBRANCH  38  39
ENDBRANCH  37  38
ENDBRANCH   1  37
TORSDOF 20
ENDMDL
MODEL 3
REMARK VINA RESULT:     -12.2      2.037      2.917
REMARK SMILES CC(C)[C@H](NC(=O)c1cc2cc(Cl)ccc2n1C)C(=O)N[C@@H](C(=O)NCCCCNC(=O)c1ccc(-c2c3nc(c(-c4c(F)cc(S(=O)(=O)[O-])cc4F)c4ccc([nH]4)c(-c4c(F)cc(S(=O)(=O)[O-])cc4F)c4nc(c(-c5c(F)cc(S(=O)(=O)[O-])cc5F)c5ccc2[nH]5)C=C4)C=C3)cc1)c1ccccc1
REMARK SMILES IDX 27 1 26 2 25 3 23 4 24 5 22 7 21 8 19 9 20 10 4 12 2 13 1 14
REMARK SMILES IDX 3 15 5 16 6 17 7 19 8 20 9 21 17 22 10 23 16 24 18 25 11 26
REMARK SMILES IDX 15 27 12 28 14 29 13 30 99 31 100 32 104 33 101 34 103 35
REMARK SMILES IDX 102 36 28 37 29 38 30 39 31 40 32 42 33 43 34 44 98 45 35 46
REMARK SMILES IDX 97 47 36 48 37 49 38 50 91 51 39 52 96 53 90 54 92 55 40 56
REMARK SMILES IDX 95 57 89 58 88 59 41 61 75 62 54 63 74 64 55 65 58 66 73 67
REMARK SMILES IDX 93 68 56 69 57 70 72 72 94 73 59 74 42 75 43 76 52 77 44 78
REMARK SMILES IDX 45 79 51 80 53 81 46 82 47 83 48 84 49 85 50 86 76 87 77 88
REMARK SMILES IDX 86 89 78 90 79 91 85 92 87 93 80 94 81 95 82 96 83 97 84 98
REMARK SMILES IDX 60 99 61 100 70 101 62 102 63 103 69 104 71 105 64 106
REMARK SMILES IDX 65 107 66 108 67 109 68 110
REMARK H PARENT 25 6 21 11 5 18 30 41 92 60 58 71
REMARK Flexibility Score: inf
ROOT
ATOM      1  C   UNL A   1      36.807  22.168  25.096  1.00  0.00     0.023 C 
ENDROOT
BRANCH   1   2
ATOM      2  C   UNL A   1      36.254  22.647  23.767  1.00  0.00     0.116 C 
BRANCH   2   3
ATOM      3  N   UNL A   1      35.803  24.008  23.764  1.00  0.00    -0.354 N 
ATOM      4  C   UNL A   1      34.516  24.449  23.887  1.00  0.00     0.247 C 
ATOM      5  O   UNL A   1      34.414  25.557  24.429  1.00  0.00    -0.272 OA
ATOM      6  H   UNL A   1      36.496  24.700  23.663  1.00  0.00     0.163 HD
BRANCH   4   7
ATOM      7  C   UNL A   1      33.247  23.539  23.563  1.00  0.00     0.202 C 
BRANCH   7   8
ATOM      8  N   UNL A   1      32.331  23.989  22.506  1.00  0.00    -0.339 N 
ATOM      9  C   UNL A   1      31.804  25.204  22.184  1.00  0.00     0.243 C 
ATOM     10  O   UNL A   1      31.618  25.391  20.972  1.00  0.00    -0.273 OA
ATOM     11  H   UNL A   1      32.038  23.265  21.906  1.00  0.00     0.164 HD
BRANCH   9  12
ATOM     12  C   UNL A   1      31.433  26.355  23.172  1.00  0.00     0.174 C 
BRANCH  12  13
ATOM     13  C   UNL A   1      30.412  26.001  24.294  1.00  0.00     0.015 C 
ATOM     14  C   UNL A   1      30.749  26.514  25.699  1.00  0.00     0.010 C 
ATOM     15  C   UNL A   1      28.970  26.342  23.904  1.00  0.00     0.010 C 
ENDBRANCH  12  13
BRANCH  12  16
ATOM     16  N   UNL A   1      31.125  27.629  22.534  1.00  0.00    -0.339 N 
ATOM     17  C   UNL A   1      31.377  28.929  22.906  1.00  0.00     0.268 C 
ATOM     18  H   UNL A   1      30.649  27.543  21.677  1.00  0.00     0.164 HD
ATOM     19  O   UNL A   1      30.882  29.778  22.160  1.00  0.00    -0.268 OA
BRANCH  17  20
ATOM     20  C   UNL A   1      32.144  29.300  24.081  1.00  0.00     0.107 A 
ATOM     21  C   UNL A   1      33.248  28.574  24.529  1.00  0.00     0.042 A 
ATOM     22  N   UNL A   1      31.889  30.211  25.095  1.00  0.00    -0.340 N 
ATOM     23  C   UNL A   1      33.753  29.154  25.719  1.00  0.00     0.002 A 
ATOM     24  C   UNL A   1      32.928  30.232  26.014  1.00  0.00     0.048 A 
ATOM     25  C   UNL A   1      30.645  30.871  25.422  1.00  0.00     0.150 C 
ATOM     26  C   UNL A   1      34.819  28.854  26.588  1.00  0.00     0.030 A 
ATOM     27  C   UNL A   1      33.139  31.059  27.131  1.00  0.00     0.028 A 
ATOM     28  C   UNL A   1      35.038  29.674  27.701  1.00  0.00     0.041 A 
ATOM     29  C   UNL A   1      34.217  30.765  27.966  1.00  0.00     0.023 A 
ATOM     30  Cl  UNL A   1      36.350  29.328  28.761  1.00  0.00    -0.084 Cl
ENDBRANCH  17  20
ENDBRANCH  12  16
ENDBRANCH   9  12
ENDBRANCH   7   8
BRANCH   7  31
ATOM     31  C   UNL A   1      32.380  23.323  24.828  1.00  0.00    -0.016 A 
ATOM     32  C   UNL A   1      32.835  23.661  26.116  1.00  0.00     0.006 A 
ATOM     33  C   UNL A   1      31.071  22.828  24.730  1.00  0.00     0.006 A 
ATOM     34  C   UNL A   1      32.067  23.394  27.254  1.00  0.00     0.000 A 
ATOM     35  C   UNL A   1      30.289  22.584  25.863  1.00  0.00     0.000 A 
ATOM     36  C   UNL A   1      30.799  22.841  27.129  1.00  0.00     0.000 A 
ENDBRANCH   7  31
ENDBRANCH   4   7
ENDBRANCH   2   3
ENDBRANCH   1   2
BRANCH   1  37
ATOM     37  C   UNL A   1      37.868  23.066  25.719  1.00  0.00     0.023 C 
BRANCH  37  38
ATOM     38  C   UNL A   1      38.966  22.336  26.504  1.00  0.00     0.116 C 
BRANCH  38  39
ATOM     39  N   UNL A   1      40.232  22.189  25.810  1.00  0.00    -0.352 N 
ATOM     40  C   UNL A   1      41.458  22.787  25.943  1.00  0.00     0.251 C 
ATOM     41  H   UNL A   1      40.204  21.516  25.091  1.00  0.00     0.163 HD
ATOM     42  O   UNL A   1      42.420  22.202  25.437  1.00  0.00    -0.269 OA
BRANCH  40  43
ATOM     43  C   UNL A   1      41.689  24.119  26.572  1.00  0.00     0.039 A 
ATOM     44  C   UNL A   1      42.490  24.350  27.688  1.00  0.00     0.014 A 
ATOM     45  C   UNL A   1      40.933  25.192  26.063  1.00  0.00     0.014 A 
ATOM     46  C   UNL A   1      42.425  25.561  28.366  1.00  0.00     0.010 A 
ATOM     47  C   UNL A   1      40.895  26.422  26.714  1.00  0.00     0.010 A 
ATOM     48  C   UNL A   1      41.592  26.583  27.906  1.00  0.00    -0.014 A 
BRANCH  48  49
ATOM     49  C   UNL A   1      41.567  27.825  28.676  1.00  0.00     0.031 A 
ATOM     50  C   UNL A   1      42.662  28.784  28.345  1.00  0.00     0.074 A 
ATOM     51  C   UNL A   1      40.599  28.141  29.561  1.00  0.00     0.049 A 
ATOM     52  N   UNL A   1      43.627  29.203  29.099  1.00  0.00    -0.248 NA
ATOM     53  C   UNL A   1      42.761  29.231  26.947  1.00  0.00     0.031 C 
ATOM     54  C   UNL A   1      39.327  27.453  29.801  1.00  0.00     0.029 A 
ATOM     55  N   UNL A   1      40.519  29.222  30.387  1.00  0.00    -0.354 N 
ATOM     56  C   UNL A   1      44.342  30.123  28.332  1.00  0.00     0.074 A 
ATOM     57  C   UNL A   1      43.857  29.989  26.983  1.00  0.00     0.031 C 
ATOM     58  C   UNL A   1      38.518  28.253  30.534  1.00  0.00     0.029 A 
ATOM     59  C   UNL A   1      39.260  29.436  30.937  1.00  0.00     0.049 A 
ATOM     60  H   UNL A   1      41.290  29.805  30.579  1.00  0.00     0.167 HD
ATOM     61  C   UNL A   1      45.142  31.072  28.892  1.00  0.00     0.037 A 
ATOM     62  C   UNL A   1      38.851  30.534  31.622  1.00  0.00     0.037 A 
ATOM     63  C   UNL A   1      45.492  30.742  30.248  1.00  0.00     0.049 A 
ATOM     64  C   UNL A   1      40.072  31.221  32.115  1.00  0.00     0.074 A 
ATOM     65  C   UNL A   1      46.197  29.722  30.854  1.00  0.00     0.029 A 
ATOM     66  N   UNL A   1      44.805  31.370  31.256  1.00  0.00    -0.354 N 
ATOM     67  N   UNL A   1      40.878  30.735  33.017  1.00  0.00    -0.248 NA
ATOM     68  C   UNL A   1      40.624  32.290  31.295  1.00  0.00     0.031 C 
ATOM     69  C   UNL A   1      45.529  29.493  32.093  1.00  0.00     0.029 A 
ATOM     70  C   UNL A   1      44.485  30.416  32.187  1.00  0.00     0.049 A 
ATOM     71  H   UNL A   1      44.582  32.328  31.302  1.00  0.00     0.167 HD
ATOM     72  C   UNL A   1      42.144  31.132  32.615  1.00  0.00     0.074 A 
ATOM     73  C   UNL A   1      41.915  32.164  31.607  1.00  0.00     0.031 C 
ATOM     74  C   UNL A   1      43.250  30.404  32.942  1.00  0.00     0.037 A 
BRANCH  61  75
ATOM     75  C   UNL A   1      45.329  32.460  28.327  1.00  0.00     0.058 A 
ATOM     76  C   UNL A   1      46.622  32.916  27.994  1.00  0.00     0.135 A 
ATOM     77  C   UNL A   1      44.326  33.454  28.365  1.00  0.00     0.135 A 
ATOM     78  F   UNL A   1      47.657  32.062  27.943  1.00  0.00    -0.206 F 
ATOM     79  C   UNL A   1      46.906  34.267  27.780  1.00  0.00     0.059 A 
ATOM     80  C   UNL A   1      44.577  34.797  28.102  1.00  0.00     0.059 A 
ATOM     81  F   UNL A   1      43.074  33.187  28.756  1.00  0.00    -0.206 F 
ATOM     82  C   UNL A   1      45.877  35.202  27.851  1.00  0.00     0.060 A 
BRANCH  82  83
ATOM     83  S   UNL A   1      46.258  36.954  27.684  1.00  0.00     0.124 S 
ATOM     84  O   UNL A   1      46.492  37.335  29.072  1.00  0.00    -0.237 OA
ATOM     85  O   UNL A   1      47.432  36.927  26.820  1.00  0.00    -0.237 OA
ATOM     86  O   UNL A   1      45.050  37.504  27.073  1.00  0.00    -0.744 OA
ENDBRANCH  82  83
ENDBRANCH  61  75
BRANCH  62  87
ATOM     87  C   UNL A   1      37.535  31.228  31.561  1.00  0.00     0.058 A 
ATOM     88  C   UNL A   1      36.705  31.298  32.697  1.00  0.00     0.135 A 
ATOM     89  C   UNL A   1      37.210  32.099  30.503  1.00  0.00     0.135 A 
ATOM     90  F   UNL A   1      36.947  30.514  33.759  1.00  0.00    -0.206 F 
ATOM     91  C   UNL A   1      35.664  32.227  32.806  1.00  0.00     0.059 A 
ATOM     92  C   UNL A   1      36.171  33.026  30.584  1.00  0.00     0.059 A 
ATOM     93  F   UNL A   1      37.960  32.147  29.391  1.00  0.00    -0.206 F 
ATOM     94  C   UNL A   1      35.423  33.108  31.753  1.00  0.00     0.060 A 
BRANCH  94  95
ATOM     95  S   UNL A   1      34.218  34.439  31.970  1.00  0.00     0.124 S 
ATOM     96  O   UNL A   1      33.350  33.896  33.009  1.00  0.00    -0.237 OA
ATOM     97  O   UNL A   1      35.066  35.557  32.369  1.00  0.00    -0.237 OA
ATOM     98  O   UNL A   1      33.608  34.563  30.649  1.00  0.00    -0.744 OA
ENDBRANCH  94  95
ENDBRANCH  62  87
BRANCH  74  99
ATOM     99  C   UNL A   1      43.118  29.345  34.007  1.00  0.00     0.058 A 
ATOM    100  C   UNL A   1      43.195  29.593  35.389  1.00  0.00     0.135 A 
ATOM    101  C   UNL A   1      42.741  28.053  33.608  1.00  0.00     0.135 A 
ATOM    102  F   UNL A   1      43.454  30.822  35.856  1.00  0.00    -0.206 F 
ATOM    103  C   UNL A   1      42.934  28.594  36.330  1.00  0.00     0.059 A 
ATOM    104  C   UNL A   1      42.447  27.051  34.527  1.00  0.00     0.059 A 
ATOM    105  F   UNL A   1      42.595  27.769  32.303  1.00  0.00    -0.206 F 
ATOM    106  C   UNL A   1      42.553  27.326  35.889  1.00  0.00     0.060 A 
BRANCH 106 107
ATOM    107  S   UNL A   1      42.114  26.064  37.105  1.00  0.00     0.124 S 
ATOM    108  O   UNL A   1      42.304  24.827  36.349  1.00  0.00    -0.237 OA
ATOM    109  O   UNL A   1      43.083  26.304  38.174  1.00  0.00    -0.237 OA
ATOM    110  O   UNL A   1      40.734  26.379  37.447  1.00  0.00    -0.744 OA
ENDBRANCH 106 107
ENDBRANCH  74  99
ENDBRANCH  48  49
ENDBRANCH  40  43
ENDBRANCH  38  39
ENDBRANCH  37  38
ENDBRANCH   1  37
TORSDOF 20
ENDMDL
