MODEL 1
REMARK VINA RESULT:     -11.2      0.000      0.000
REMARK SMILES CC[N@@H+]1CCO[C@H](C[NH2+][C@@H]2CCC[C@H](C(=O)NCCCCNC(=O)c3ccc(-c4c5nc(c(-c6c(F)cc(S(=O)(=O)[O-])cc6F)c6ccc([nH]6)c(-c6c(F)cc(S(=O)(=O)[O-])cc6F)c6nc(c(-c7c(F)cc(S(=O)(=O)[O-])cc7F)c7ccc4[nH]7)C=C6)C=C5)cc3)C2)C1
REMARK SMILES IDX 19 1 18 2 17 3 15 4 16 5 14 7 10 8 11 9 91 10 12 11 13 12
REMARK SMILES IDX 9 13 8 16 7 17 3 18 4 19 92 20 5 22 6 23 2 24 1 25 20 26
REMARK SMILES IDX 21 27 22 28 23 29 24 31 25 32 26 33 90 34 27 35 89 36 28 37
REMARK SMILES IDX 29 38 30 39 83 40 31 41 88 42 82 43 84 44 32 45 87 46 81 47
REMARK SMILES IDX 80 48 33 50 67 51 46 52 66 53 47 54 50 55 65 56 85 57 48 58
REMARK SMILES IDX 49 59 64 61 86 62 51 63 34 64 35 65 44 66 36 67 37 68 43 69
REMARK SMILES IDX 45 70 38 71 39 72 40 73 41 74 42 75 68 76 69 77 78 78 70 79
REMARK SMILES IDX 71 80 77 81 79 82 72 83 73 84 74 85 75 86 76 87 52 88 53 89
REMARK SMILES IDX 62 90 54 91 55 92 61 93 63 94 56 95 57 96 58 97 59 98 60 99
REMARK H PARENT 17 6 9 14 9 15 3 21 22 30 84 49 50 60
REMARK Flexibility Score: inf
ROOT
ATOM      1  C   UNL A   1      34.445  33.521  28.162  1.00  0.00     0.023 C 
ENDROOT
BRANCH   1   2
ATOM      2  C   UNL A   1      33.652  32.271  27.786  1.00  0.00     0.116 C 
BRANCH   2   3
ATOM      3  N   UNL A   1      34.504  31.103  27.632  1.00  0.00    -0.356 N 
ATOM      4  C   UNL A   1      34.231  29.832  27.223  1.00  0.00     0.223 C 
ATOM      5  O   UNL A   1      35.169  29.030  27.178  1.00  0.00    -0.275 OA
ATOM      6  H   UNL A   1      35.448  31.258  27.864  1.00  0.00     0.163 HD
BRANCH   4   7
ATOM      7  C   UNL A   1      32.833  29.398  26.790  1.00  0.00     0.084 C 
ATOM      8  C   UNL A   1      31.354  27.297  26.512  1.00  0.00     0.183 C 
ATOM      9  C   UNL A   1      31.269  27.635  25.022  1.00  0.00     0.065 C 
ATOM     10  C   UNL A   1      32.597  27.927  27.155  1.00  0.00     0.078 C 
ATOM     11  C   UNL A   1      31.262  29.142  24.804  1.00  0.00     0.007 C 
ATOM     12  C   UNL A   1      32.538  29.778  25.335  1.00  0.00     0.014 C 
BRANCH   8  13
ATOM     13  N   UNL A   1      31.441  25.842  26.626  1.00  0.00    -0.341 N 
ATOM     14  H   UNL A   1      32.222  25.621  27.243  1.00  0.00     0.346 HD
ATOM     15  H   UNL A   1      30.537  25.532  26.983  1.00  0.00     0.346 HD
BRANCH  13  16
ATOM     16  C   UNL A   1      31.644  25.126  25.369  1.00  0.00     0.299 C 
BRANCH  16  17
ATOM     17  C   UNL A   1      30.809  23.821  25.177  1.00  0.00     0.227 C 
ATOM     18  N   UNL A   1      31.858  21.985  26.621  1.00  0.00    -0.331 N 
ATOM     19  C   UNL A   1      32.236  21.333  25.367  1.00  0.00     0.291 C 
ATOM     20  C   UNL A   1      30.716  22.881  26.406  1.00  0.00     0.300 C 
ATOM     21  H   UNL A   1      31.603  21.182  27.196  1.00  0.00     0.348 HD
ATOM     22  C   UNL A   1      32.284  22.234  24.121  1.00  0.00     0.222 C 
ATOM     23  O   UNL A   1      31.140  23.088  23.982  1.00  0.00    -0.361 OA
BRANCH  18  24
ATOM     24  C   UNL A   1      32.866  22.524  27.527  1.00  0.00     0.258 C 
ATOM     25  C   UNL A   1      34.240  22.844  26.953  1.00  0.00     0.071 C 
ENDBRANCH  18  24
ENDBRANCH  16  17
ENDBRANCH  13  16
ENDBRANCH   8  13
ENDBRANCH   4   7
ENDBRANCH   2   3
ENDBRANCH   1   2
BRANCH   1  26
ATOM     26  C   UNL A   1      35.960  33.393  28.006  1.00  0.00     0.023 C 
BRANCH  26  27
ATOM     27  C   UNL A   1      36.753  33.388  29.307  1.00  0.00     0.116 C 
BRANCH  27  28
ATOM     28  N   UNL A   1      36.147  32.565  30.343  1.00  0.00    -0.352 N 
ATOM     29  C   UNL A   1      36.567  31.357  30.846  1.00  0.00     0.251 C 
ATOM     30  H   UNL A   1      35.320  32.924  30.740  1.00  0.00     0.163 HD
ATOM     31  O   UNL A   1      35.851  30.744  31.636  1.00  0.00    -0.269 OA
BRANCH  29  32
ATOM     32  C   UNL A   1      37.861  30.784  30.414  1.00  0.00     0.039 A 
ATOM     33  C   UNL A   1      37.969  30.256  29.125  1.00  0.00     0.014 A 
ATOM     34  C   UNL A   1      38.967  30.783  31.268  1.00  0.00     0.014 A 
ATOM     35  C   UNL A   1      39.204  29.783  28.674  1.00  0.00     0.010 A 
ATOM     36  C   UNL A   1      40.212  30.390  30.788  1.00  0.00     0.010 A 
ATOM     37  C   UNL A   1      40.345  29.878  29.489  1.00  0.00    -0.014 A 
BRANCH  37  38
ATOM     38  C   UNL A   1      41.678  29.432  29.009  1.00  0.00     0.031 A 
ATOM     39  C   UNL A   1      42.815  30.415  28.918  1.00  0.00     0.074 A 
ATOM     40  C   UNL A   1      41.852  28.159  28.599  1.00  0.00     0.049 A 
ATOM     41  N   UNL A   1      44.034  30.233  28.480  1.00  0.00    -0.248 NA
ATOM     42  C   UNL A   1      42.534  31.794  29.350  1.00  0.00     0.031 C 
ATOM     43  C   UNL A   1      40.817  27.122  28.594  1.00  0.00     0.029 A 
ATOM     44  N   UNL A   1      42.962  27.521  28.104  1.00  0.00    -0.354 N 
ATOM     45  C   UNL A   1      44.658  31.471  28.569  1.00  0.00     0.074 A 
ATOM     46  C   UNL A   1      43.665  32.410  29.043  1.00  0.00     0.031 C 
ATOM     47  C   UNL A   1      41.351  25.970  28.155  1.00  0.00     0.029 A 
ATOM     48  C   UNL A   1      42.752  26.195  27.811  1.00  0.00     0.049 A 
ATOM     49  H   UNL A   1      43.827  27.971  27.972  1.00  0.00     0.167 HD
ATOM     50  C   UNL A   1      45.948  31.795  28.307  1.00  0.00     0.037 A 
ATOM     51  C   UNL A   1      43.594  25.262  27.322  1.00  0.00     0.037 A 
ATOM     52  C   UNL A   1      46.937  30.850  27.857  1.00  0.00     0.049 A 
ATOM     53  C   UNL A   1      45.019  25.646  27.028  1.00  0.00     0.074 A 
ATOM     54  C   UNL A   1      48.283  31.062  27.615  1.00  0.00     0.029 A 
ATOM     55  N   UNL A   1      46.687  29.514  27.576  1.00  0.00    -0.354 N 
ATOM     56  N   UNL A   1      45.610  26.808  27.178  1.00  0.00    -0.248 NA
ATOM     57  C   UNL A   1      45.895  24.589  26.502  1.00  0.00     0.031 C 
ATOM     58  C   UNL A   1      48.837  29.866  27.145  1.00  0.00     0.029 A 
ATOM     59  C   UNL A   1      47.848  28.895  27.144  1.00  0.00     0.049 A 
ATOM     60  H   UNL A   1      45.813  29.071  27.671  1.00  0.00     0.167 HD
ATOM     61  C   UNL A   1      46.935  26.612  26.802  1.00  0.00     0.074 A 
ATOM     62  C   UNL A   1      47.058  25.219  26.422  1.00  0.00     0.031 C 
ATOM     63  C   UNL A   1      47.958  27.504  26.779  1.00  0.00     0.037 A 
BRANCH  50  64
ATOM     64  C   UNL A   1      46.355  33.230  28.501  1.00  0.00     0.058 A 
ATOM     65  C   UNL A   1      46.796  33.713  29.746  1.00  0.00     0.135 A 
ATOM     66  C   UNL A   1      46.307  34.139  27.432  1.00  0.00     0.135 A 
ATOM     67  F   UNL A   1      46.851  32.893  30.808  1.00  0.00    -0.206 F 
ATOM     68  C   UNL A   1      47.126  35.051  29.934  1.00  0.00     0.059 A 
ATOM     69  C   UNL A   1      46.664  35.475  27.590  1.00  0.00     0.059 A 
ATOM     70  F   UNL A   1      45.897  33.734  26.219  1.00  0.00    -0.206 F 
ATOM     71  C   UNL A   1      47.051  35.926  28.851  1.00  0.00     0.060 A 
BRANCH  71  72
ATOM     72  S   UNL A   1      47.457  37.665  29.117  1.00  0.00     0.124 S 
ATOM     73  O   UNL A   1      46.278  38.130  29.844  1.00  0.00    -0.237 OA
ATOM     74  O   UNL A   1      48.689  37.583  29.896  1.00  0.00    -0.237 OA
ATOM     75  O   UNL A   1      47.607  38.190  27.764  1.00  0.00    -0.744 OA
ENDBRANCH  71  72
ENDBRANCH  50  64
BRANCH  51  76
ATOM     76  C   UNL A   1      43.124  23.865  27.123  1.00  0.00     0.058 A 
ATOM     77  C   UNL A   1      42.746  23.412  25.850  1.00  0.00     0.135 A 
ATOM     78  C   UNL A   1      43.056  22.953  28.187  1.00  0.00     0.135 A 
ATOM     79  F   UNL A   1      42.787  24.248  24.801  1.00  0.00    -0.206 F 
ATOM     80  C   UNL A   1      42.303  22.110  25.641  1.00  0.00     0.059 A 
ATOM     81  C   UNL A   1      42.641  21.638  27.998  1.00  0.00     0.059 A 
ATOM     82  F   UNL A   1      43.423  23.331  29.421  1.00  0.00    -0.206 F 
ATOM     83  C   UNL A   1      42.257  21.229  26.722  1.00  0.00     0.060 A 
BRANCH  83  84
ATOM     84  S   UNL A   1      41.729  19.527  26.427  1.00  0.00     0.124 S 
ATOM     85  O   UNL A   1      42.468  19.195  25.215  1.00  0.00    -0.237 OA
ATOM     86  O   UNL A   1      42.166  18.856  27.646  1.00  0.00    -0.237 OA
ATOM     87  O   UNL A   1      40.282  19.648  26.272  1.00  0.00    -0.744 OA
ENDBRANCH  83  84
ENDBRANCH  51  76
BRANCH  63  88
ATOM     88  C   UNL A   1      49.313  26.991  26.372  1.00  0.00     0.058 A 
ATOM     89  C   UNL A   1      50.241  26.517  27.312  1.00  0.00     0.135 A 
ATOM     90  C   UNL A   1      49.668  26.933  25.014  1.00  0.00     0.135 A 
ATOM     91  F   UNL A   1      49.953  26.555  28.623  1.00  0.00    -0.206 F 
ATOM     92  C   UNL A   1      51.485  26.031  26.924  1.00  0.00     0.059 A 
ATOM     93  C   UNL A   1      50.895  26.423  24.601  1.00  0.00     0.059 A 
ATOM     94  F   UNL A   1      48.814  27.362  24.072  1.00  0.00    -0.206 F 
ATOM     95  C   UNL A   1      51.803  25.988  25.565  1.00  0.00     0.060 A 
BRANCH  95  96
ATOM     96  S   UNL A   1      53.410  25.330  25.071  1.00  0.00     0.124 S 
ATOM     97  O   UNL A   1      53.229  23.903  25.309  1.00  0.00    -0.237 OA
ATOM     98  O   UNL A   1      53.496  25.735  23.671  1.00  0.00    -0.237 OA
ATOM     99  O   UNL A   1      54.343  26.004  25.969  1.00  0.00    -0.744 OA
ENDBRANCH  95  96
ENDBRANCH  63  88
ENDBRANCH  37  38
ENDBRANCH  29  32
ENDBRANCH  27  28
ENDBRANCH  26  27
ENDBRANCH   1  26
TORSDOF 18
ENDMDL
MODEL 2
REMARK VINA RESULT:     -11.2      1.214      2.129
REMARK SMILES CC[N@@H+]1CCO[C@H](C[NH2+][C@@H]2CCC[C@H](C(=O)NCCCCNC(=O)c3ccc(-c4c5nc(c(-c6c(F)cc(S(=O)(=O)[O-])cc6F)c6ccc([nH]6)c(-c6c(F)cc(S(=O)(=O)[O-])cc6F)c6nc(c(-c7c(F)cc(S(=O)(=O)[O-])cc7F)c7ccc4[nH]7)C=C6)C=C5)cc3)C2)C1
REMARK SMILES IDX 19 1 18 2 17 3 15 4 16 5 14 7 10 8 11 9 91 10 12 11 13 12
REMARK SMILES IDX 9 13 8 16 7 17 3 18 4 19 92 20 5 22 6 23 2 24 1 25 20 26
REMARK SMILES IDX 21 27 22 28 23 29 24 31 25 32 26 33 90 34 27 35 89 36 28 37
REMARK SMILES IDX 29 38 30 39 83 40 31 41 88 42 82 43 84 44 32 45 87 46 81 47
REMARK SMILES IDX 80 48 33 50 67 51 46 52 66 53 47 54 50 55 65 56 85 57 48 58
REMARK SMILES IDX 49 59 64 61 86 62 51 63 34 64 35 65 44 66 36 67 37 68 43 69
REMARK SMILES IDX 45 70 38 71 39 72 40 73 41 74 42 75 68 76 69 77 78 78 70 79
REMARK SMILES IDX 71 80 77 81 79 82 72 83 73 84 74 85 75 86 76 87 52 88 53 89
REMARK SMILES IDX 62 90 54 91 55 92 61 93 63 94 56 95 57 96 58 97 59 98 60 99
REMARK H PARENT 17 6 9 14 9 15 3 21 22 30 84 49 50 60
REMARK Flexibility Score: inf
ROOT
ATOM      1  C   UNL A   1      33.170  30.027  27.434  1.00  0.00     0.023 C 
ENDROOT
BRANCH   1   2
ATOM      2  C   UNL A   1      32.441  30.536  26.193  1.00  0.00     0.116 C 
BRANCH   2   3
ATOM      3  N   UNL A   1      32.936  29.921  24.972  1.00  0.00    -0.356 N 
ATOM      4  C   UNL A   1      32.522  28.821  24.280  1.00  0.00     0.223 C 
ATOM      5  O   UNL A   1      33.134  28.529  23.249  1.00  0.00    -0.275 OA
ATOM      6  H   UNL A   1      33.708  30.382  24.572  1.00  0.00     0.163 HD
BRANCH   4   7
ATOM      7  C   UNL A   1      31.322  27.986  24.719  1.00  0.00     0.084 C 
ATOM      8  C   UNL A   1      30.699  25.901  26.112  1.00  0.00     0.183 C 
ATOM      9  C   UNL A   1      30.139  25.291  24.825  1.00  0.00     0.065 C 
ATOM     10  C   UNL A   1      31.739  26.987  25.805  1.00  0.00     0.078 C 
ATOM     11  C   UNL A   1      29.525  26.364  23.935  1.00  0.00     0.007 C 
ATOM     12  C   UNL A   1      30.566  27.396  23.526  1.00  0.00     0.014 C 
BRANCH   8  13
ATOM     13  N   UNL A   1      31.340  24.822  26.863  1.00  0.00    -0.341 N 
ATOM     14  H   UNL A   1      32.145  25.215  27.351  1.00  0.00     0.346 HD
ATOM     15  H   UNL A   1      30.624  24.449  27.487  1.00  0.00     0.346 HD
BRANCH  13  16
ATOM     16  C   UNL A   1      31.806  23.692  26.063  1.00  0.00     0.299 C 
BRANCH  16  17
ATOM     17  C   UNL A   1      33.332  23.663  25.735  1.00  0.00     0.227 C 
ATOM     18  N   UNL A   1      33.829  21.504  24.450  1.00  0.00    -0.331 N 
ATOM     19  C   UNL A   1      34.583  21.077  25.629  1.00  0.00     0.291 C 
ATOM     20  C   UNL A   1      33.733  22.969  24.409  1.00  0.00     0.300 C 
ATOM     21  H   UNL A   1      34.414  21.145  23.696  1.00  0.00     0.348 HD
ATOM     22  C   UNL A   1      34.241  21.790  26.949  1.00  0.00     0.222 C 
ATOM     23  O   UNL A   1      34.155  23.216  26.829  1.00  0.00    -0.361 OA
BRANCH  18  24
ATOM     24  C   UNL A   1      32.603  20.824  24.048  1.00  0.00     0.258 C 
ATOM     25  C   UNL A   1      32.560  19.306  24.169  1.00  0.00     0.071 C 
ENDBRANCH  18  24
ENDBRANCH  16  17
ENDBRANCH  13  16
ENDBRANCH   8  13
ENDBRANCH   4   7
ENDBRANCH   2   3
ENDBRANCH   1   2
BRANCH   1  26
ATOM     26  C   UNL A   1      34.670  29.798  27.252  1.00  0.00     0.023 C 
BRANCH  26  27
ATOM     27  C   UNL A   1      35.575  30.774  27.994  1.00  0.00     0.116 C 
BRANCH  27  28
ATOM     28  N   UNL A   1      35.449  30.686  29.441  1.00  0.00    -0.352 N 
ATOM     29  C   UNL A   1      36.384  30.297  30.371  1.00  0.00     0.251 C 
ATOM     30  H   UNL A   1      34.570  30.940  29.806  1.00  0.00     0.163 HD
ATOM     31  O   UNL A   1      36.053  30.161  31.547  1.00  0.00    -0.269 OA
BRANCH  29  32
ATOM     32  C   UNL A   1      37.773  30.013  29.949  1.00  0.00     0.039 A 
ATOM     33  C   UNL A   1      38.719  29.677  30.920  1.00  0.00     0.014 A 
ATOM     34  C   UNL A   1      38.139  30.063  28.601  1.00  0.00     0.014 A 
ATOM     35  C   UNL A   1      40.016  29.330  30.532  1.00  0.00     0.010 A 
ATOM     36  C   UNL A   1      39.405  29.637  28.211  1.00  0.00     0.010 A 
ATOM     37  C   UNL A   1      40.361  29.273  29.171  1.00  0.00    -0.014 A 
BRANCH  37  38
ATOM     38  C   UNL A   1      41.717  28.854  28.733  1.00  0.00     0.031 A 
ATOM     39  C   UNL A   1      42.834  29.862  28.668  1.00  0.00     0.074 A 
ATOM     40  C   UNL A   1      41.932  27.583  28.339  1.00  0.00     0.049 A 
ATOM     41  N   UNL A   1      44.069  29.704  28.268  1.00  0.00    -0.248 NA
ATOM     42  C   UNL A   1      42.510  31.238  29.081  1.00  0.00     0.031 C 
ATOM     43  C   UNL A   1      40.921  26.523  28.312  1.00  0.00     0.029 A 
ATOM     44  N   UNL A   1      43.069  26.966  27.882  1.00  0.00    -0.354 N 
ATOM     45  C   UNL A   1      44.662  30.957  28.365  1.00  0.00     0.074 A 
ATOM     46  C   UNL A   1      43.636  31.877  28.802  1.00  0.00     0.031 C 
ATOM     47  C   UNL A   1      41.493  25.380  27.898  1.00  0.00     0.029 A 
ATOM     48  C   UNL A   1      42.898  25.633  27.593  1.00  0.00     0.049 A 
ATOM     49  H   UNL A   1      43.928  27.434  27.771  1.00  0.00     0.167 HD
ATOM     50  C   UNL A   1      45.952  31.308  28.139  1.00  0.00     0.037 A 
ATOM     51  C   UNL A   1      43.774  24.717  27.137  1.00  0.00     0.037 A 
ATOM     52  C   UNL A   1      46.975  30.382  27.725  1.00  0.00     0.049 A 
ATOM     53  C   UNL A   1      45.199  25.130  26.882  1.00  0.00     0.074 A 
ATOM     54  C   UNL A   1      48.322  30.623  27.521  1.00  0.00     0.029 A 
ATOM     55  N   UNL A   1      46.763  29.039  27.448  1.00  0.00    -0.354 N 
ATOM     56  N   UNL A   1      45.759  26.306  27.040  1.00  0.00    -0.248 NA
ATOM     57  C   UNL A   1      46.113  24.089  26.390  1.00  0.00     0.031 C 
ATOM     58  C   UNL A   1      48.916  29.436  27.077  1.00  0.00     0.029 A 
ATOM     59  C   UNL A   1      47.950  28.443  27.055  1.00  0.00     0.049 A 
ATOM     60  H   UNL A   1      45.897  28.577  27.521  1.00  0.00     0.167 HD
ATOM     61  C   UNL A   1      47.098  26.138  26.705  1.00  0.00     0.074 A 
ATOM     62  C   UNL A   1      47.264  24.745  26.340  1.00  0.00     0.031 C 
ATOM     63  C   UNL A   1      48.102  27.052  26.704  1.00  0.00     0.037 A 
BRANCH  50  64
ATOM     64  C   UNL A   1      46.321  32.754  28.333  1.00  0.00     0.058 A 
ATOM     65  C   UNL A   1      46.756  33.246  29.576  1.00  0.00     0.135 A 
ATOM     66  C   UNL A   1      46.241  33.663  27.266  1.00  0.00     0.135 A 
ATOM     67  F   UNL A   1      46.841  32.425  30.635  1.00  0.00    -0.206 F 
ATOM     68  C   UNL A   1      47.051  34.592  29.765  1.00  0.00     0.059 A 
ATOM     69  C   UNL A   1      46.563  35.008  27.424  1.00  0.00     0.059 A 
ATOM     70  F   UNL A   1      45.834  33.249  26.055  1.00  0.00    -0.206 F 
ATOM     71  C   UNL A   1      46.945  35.467  28.683  1.00  0.00     0.060 A 
BRANCH  71  72
ATOM     72  S   UNL A   1      47.305  37.215  28.951  1.00  0.00     0.124 S 
ATOM     73  O   UNL A   1      47.835  37.605  27.647  1.00  0.00    -0.237 OA
ATOM     74  O   UNL A   1      45.993  37.758  29.288  1.00  0.00    -0.237 OA
ATOM     75  O   UNL A   1      48.274  37.200  30.042  1.00  0.00    -0.744 OA
ENDBRANCH  71  72
ENDBRANCH  50  64
BRANCH  51  76
ATOM     76  C   UNL A   1      43.342  23.307  26.936  1.00  0.00     0.058 A 
ATOM     77  C   UNL A   1      43.180  22.788  25.642  1.00  0.00     0.135 A 
ATOM     78  C   UNL A   1      43.098  22.451  28.020  1.00  0.00     0.135 A 
ATOM     79  F   UNL A   1      43.395  23.569  24.573  1.00  0.00    -0.206 F 
ATOM     80  C   UNL A   1      42.775  21.473  25.430  1.00  0.00     0.059 A 
ATOM     81  C   UNL A   1      42.718  21.125  27.832  1.00  0.00     0.059 A 
ATOM     82  F   UNL A   1      43.255  22.895  29.276  1.00  0.00    -0.206 F 
ATOM     83  C   UNL A   1      42.550  20.648  26.533  1.00  0.00     0.060 A 
BRANCH  83  84
ATOM     84  S   UNL A   1      42.076  18.930  26.243  1.00  0.00     0.124 S 
ATOM     85  O   UNL A   1      40.691  19.076  25.810  1.00  0.00    -0.237 OA
ATOM     86  O   UNL A   1      43.027  18.519  25.216  1.00  0.00    -0.237 OA
ATOM     87  O   UNL A   1      42.266  18.306  27.549  1.00  0.00    -0.744 OA
ENDBRANCH  83  84
ENDBRANCH  51  76
BRANCH  63  88
ATOM     88  C   UNL A   1      49.479  26.567  26.342  1.00  0.00     0.058 A 
ATOM     89  C   UNL A   1      50.007  26.727  25.051  1.00  0.00     0.135 A 
ATOM     90  C   UNL A   1      50.297  25.971  27.316  1.00  0.00     0.135 A 
ATOM     91  F   UNL A   1      49.264  27.284  24.082  1.00  0.00    -0.206 F 
ATOM     92  C   UNL A   1      51.288  26.288  24.731  1.00  0.00     0.059 A 
ATOM     93  C   UNL A   1      51.592  25.552  27.026  1.00  0.00     0.059 A 
ATOM     94  F   UNL A   1      49.846  25.804  28.569  1.00  0.00    -0.206 F 
ATOM     95  C   UNL A   1      52.073  25.701  25.726  1.00  0.00     0.060 A 
BRANCH  95  96
ATOM     96  S   UNL A   1      53.743  25.160  25.305  1.00  0.00     0.124 S 
ATOM     97  O   UNL A   1      53.910  25.732  23.973  1.00  0.00    -0.237 OA
ATOM     98  O   UNL A   1      54.544  25.768  26.362  1.00  0.00    -0.237 OA
ATOM     99  O   UNL A   1      53.651  23.704  25.357  1.00  0.00    -0.744 OA
ENDBRANCH  95  96
ENDBRANCH  63  88
ENDBRANCH  37  38
ENDBRANCH  29  32
ENDBRANCH  27  28
ENDBRANCH  26  27
ENDBRANCH   1  26
TORSDOF 18
ENDMDL
MODEL 3
REMARK VINA RESULT:     -11.1      6.393     11.982
REMARK SMILES CC[N@@H+]1CCO[C@H](C[NH2+][C@@H]2CCC[C@H](C(=O)NCCCCNC(=O)c3ccc(-c4c5nc(c(-c6c(F)cc(S(=O)(=O)[O-])cc6F)c6ccc([nH]6)c(-c6c(F)cc(S(=O)(=O)[O-])cc6F)c6nc(c(-c7c(F)cc(S(=O)(=O)[O-])cc7F)c7ccc4[nH]7)C=C6)C=C5)cc3)C2)C1
REMARK SMILES IDX 19 1 18 2 17 3 15 4 16 5 14 7 10 8 11 9 91 10 12 11 13 12
REMARK SMILES IDX 9 13 8 16 7 17 3 18 4 19 92 20 5 22 6 23 2 24 1 25 20 26
REMARK SMILES IDX 21 27 22 28 23 29 24 31 25 32 26 33 90 34 27 35 89 36 28 37
REMARK SMILES IDX 29 38 30 39 83 40 31 41 88 42 82 43 84 44 32 45 87 46 81 47
REMARK SMILES IDX 80 48 33 50 67 51 46 52 66 53 47 54 50 55 65 56 85 57 48 58
REMARK SMILES IDX 49 59 64 61 86 62 51 63 34 64 35 65 44 66 36 67 37 68 43 69
REMARK SMILES IDX 45 70 38 71 39 72 40 73 41 74 42 75 68 76 69 77 78 78 70 79
REMARK SMILES IDX 71 80 77 81 79 82 72 83 73 84 74 85 75 86 76 87 52 88 53 89
REMARK SMILES IDX 62 90 54 91 55 92 61 93 63 94 56 95 57 96 58 97 59 98 60 99
REMARK H PARENT 17 6 9 14 9 15 3 21 22 30 84 49 50 60
REMARK Flexibility Score: inf
ROOT
ATOM      1  C   UNL A   1      38.489  23.074  25.907  1.00  0.00     0.023 C 
ENDROOT
BRANCH   1   2
ATOM      2  C   UNL A   1      37.415  22.208  25.252  1.00  0.00     0.116 C 
BRANCH   2   3
ATOM      3  N   UNL A   1      36.344  21.868  26.174  1.00  0.00    -0.356 N 
ATOM      4  C   UNL A   1      35.013  21.649  25.975  1.00  0.00     0.223 C 
ATOM      5  O   UNL A   1      34.325  21.361  26.958  1.00  0.00    -0.275 OA
ATOM      6  H   UNL A   1      36.631  21.777  27.112  1.00  0.00     0.163 HD
BRANCH   4   7
ATOM      7  C   UNL A   1      34.376  21.711  24.589  1.00  0.00     0.084 C 
ATOM      8  C   UNL A   1      33.184  23.337  22.972  1.00  0.00     0.183 C 
ATOM      9  C   UNL A   1      31.967  22.412  23.045  1.00  0.00     0.065 C 
ATOM     10  C   UNL A   1      34.086  23.167  24.203  1.00  0.00     0.078 C 
ATOM     11  C   UNL A   1      32.396  20.957  23.180  1.00  0.00     0.007 C 
ATOM     12  C   UNL A   1      33.200  20.740  24.453  1.00  0.00     0.014 C 
BRANCH   8  13
ATOM     13  N   UNL A   1      32.686  24.712  22.930  1.00  0.00    -0.341 N 
ATOM     14  H   UNL A   1      32.867  25.083  21.998  1.00  0.00     0.346 HD
ATOM     15  H   UNL A   1      31.695  24.660  23.165  1.00  0.00     0.346 HD
BRANCH  13  16
ATOM     16  C   UNL A   1      33.282  25.624  23.902  1.00  0.00     0.299 C 
BRANCH  16  17
ATOM     17  C   UNL A   1      32.313  26.650  24.570  1.00  0.00     0.227 C 
ATOM     18  N   UNL A   1      31.170  25.493  26.548  1.00  0.00    -0.331 N 
ATOM     19  C   UNL A   1      29.931  25.583  25.775  1.00  0.00     0.291 C 
ATOM     20  C   UNL A   1      32.125  26.516  26.102  1.00  0.00     0.300 C 
ATOM     21  H   UNL A   1      30.831  25.682  27.492  1.00  0.00     0.348 HD
ATOM     22  C   UNL A   1      30.091  25.770  24.256  1.00  0.00     0.222 C 
ATOM     23  O   UNL A   1      31.046  26.778  23.896  1.00  0.00    -0.361 OA
BRANCH  18  24
ATOM     24  C   UNL A   1      31.786  24.205  26.846  1.00  0.00     0.258 C 
ATOM     25  C   UNL A   1      31.026  22.946  26.448  1.00  0.00     0.071 C 
ENDBRANCH  18  24
ENDBRANCH  16  17
ENDBRANCH  13  16
ENDBRANCH   8  13
ENDBRANCH   4   7
ENDBRANCH   2   3
ENDBRANCH   1   2
BRANCH   1  26
ATOM     26  C   UNL A   1      39.455  22.321  26.821  1.00  0.00     0.023 C 
BRANCH  26  27
ATOM     27  C   UNL A   1      40.718  23.081  27.204  1.00  0.00     0.116 C 
BRANCH  27  28
ATOM     28  N   UNL A   1      41.269  23.867  26.110  1.00  0.00    -0.352 N 
ATOM     29  C   UNL A   1      41.552  25.211  26.064  1.00  0.00     0.251 C 
ATOM     30  H   UNL A   1      41.465  23.365  25.285  1.00  0.00     0.163 HD
ATOM     31  O   UNL A   1      41.896  25.725  25.002  1.00  0.00    -0.269 OA
BRANCH  29  32
ATOM     32  C   UNL A   1      41.414  26.038  27.283  1.00  0.00     0.039 A 
ATOM     33  C   UNL A   1      42.443  26.920  27.622  1.00  0.00     0.014 A 
ATOM     34  C   UNL A   1      40.270  25.956  28.081  1.00  0.00     0.014 A 
ATOM     35  C   UNL A   1      42.295  27.764  28.725  1.00  0.00     0.010 A 
ATOM     36  C   UNL A   1      40.089  26.855  29.127  1.00  0.00     0.010 A 
ATOM     37  C   UNL A   1      41.102  27.764  29.468  1.00  0.00    -0.014 A 
BRANCH  37  38
ATOM     38  C   UNL A   1      40.902  28.692  30.611  1.00  0.00     0.031 A 
ATOM     39  C   UNL A   1      41.766  28.574  31.838  1.00  0.00     0.074 A 
ATOM     40  C   UNL A   1      39.907  29.601  30.570  1.00  0.00     0.049 A 
ATOM     41  N   UNL A   1      41.716  29.255  32.954  1.00  0.00    -0.248 NA
ATOM     42  C   UNL A   1      42.806  27.533  31.819  1.00  0.00     0.031 C 
ATOM     43  C   UNL A   1      38.972  29.784  29.458  1.00  0.00     0.029 A 
ATOM     44  N   UNL A   1      39.513  30.540  31.490  1.00  0.00    -0.354 N 
ATOM     45  C   UNL A   1      42.702  28.715  33.771  1.00  0.00     0.074 A 
ATOM     46  C   UNL A   1      43.292  27.611  33.048  1.00  0.00     0.031 C 
ATOM     47  C   UNL A   1      38.139  30.798  29.745  1.00  0.00     0.029 A 
ATOM     48  C   UNL A   1      38.453  31.310  31.075  1.00  0.00     0.049 A 
ATOM     49  H   UNL A   1      39.949  30.652  32.366  1.00  0.00     0.167 HD
ATOM     50  C   UNL A   1      43.101  29.119  35.002  1.00  0.00     0.037 A 
ATOM     51  C   UNL A   1      37.808  32.318  31.695  1.00  0.00     0.037 A 
ATOM     52  C   UNL A   1      42.523  30.233  35.708  1.00  0.00     0.049 A 
ATOM     53  C   UNL A   1      38.261  32.743  33.067  1.00  0.00     0.074 A 
ATOM     54  C   UNL A   1      42.890  30.759  36.935  1.00  0.00     0.029 A 
ATOM     55  N   UNL A   1      41.455  30.992  35.252  1.00  0.00    -0.354 N 
ATOM     56  N   UNL A   1      39.238  32.264  33.799  1.00  0.00    -0.248 NA
ATOM     57  C   UNL A   1      37.526  33.851  33.693  1.00  0.00     0.031 C 
ATOM     58  C   UNL A   1      42.014  31.806  37.241  1.00  0.00     0.029 A 
ATOM     59  C   UNL A   1      41.136  31.968  36.182  1.00  0.00     0.049 A 
ATOM     60  H   UNL A   1      40.992  30.858  34.394  1.00  0.00     0.167 HD
ATOM     61  C   UNL A   1      39.260  33.035  34.956  1.00  0.00     0.074 A 
ATOM     62  C   UNL A   1      38.200  34.016  34.822  1.00  0.00     0.031 C 
ATOM     63  C   UNL A   1      40.084  32.944  36.030  1.00  0.00     0.037 A 
BRANCH  50  64
ATOM     64  C   UNL A   1      44.213  28.345  35.658  1.00  0.00     0.058 A 
ATOM     65  C   UNL A   1      43.954  27.274  36.532  1.00  0.00     0.135 A 
ATOM     66  C   UNL A   1      45.556  28.674  35.413  1.00  0.00     0.135 A 
ATOM     67  F   UNL A   1      42.689  26.923  36.813  1.00  0.00    -0.206 F 
ATOM     68  C   UNL A   1      44.982  26.591  37.173  1.00  0.00     0.059 A 
ATOM     69  C   UNL A   1      46.601  27.983  36.019  1.00  0.00     0.059 A 
ATOM     70  F   UNL A   1      45.863  29.686  34.585  1.00  0.00    -0.206 F 
ATOM     71  C   UNL A   1      46.303  26.958  36.915  1.00  0.00     0.060 A 
BRANCH  71  72
ATOM     72  S   UNL A   1      47.625  26.081  37.776  1.00  0.00     0.124 S 
ATOM     73  O   UNL A   1      48.747  26.997  37.594  1.00  0.00    -0.237 OA
ATOM     74  O   UNL A   1      47.103  25.982  39.135  1.00  0.00    -0.237 OA
ATOM     75  O   UNL A   1      47.723  24.818  37.051  1.00  0.00    -0.744 OA
ENDBRANCH  71  72
ENDBRANCH  50  64
BRANCH  51  76
ATOM     76  C   UNL A   1      36.696  33.027  31.007  1.00  0.00     0.058 A 
ATOM     77  C   UNL A   1      36.959  33.914  29.951  1.00  0.00     0.135 A 
ATOM     78  C   UNL A   1      35.357  32.825  31.372  1.00  0.00     0.135 A 
ATOM     79  F   UNL A   1      38.224  34.146  29.569  1.00  0.00    -0.206 F 
ATOM     80  C   UNL A   1      35.935  34.588  29.293  1.00  0.00     0.059 A 
ATOM     81  C   UNL A   1      34.314  33.468  30.711  1.00  0.00     0.059 A 
ATOM     82  F   UNL A   1      35.051  31.974  32.363  1.00  0.00    -0.206 F 
ATOM     83  C   UNL A   1      34.615  34.356  29.679  1.00  0.00     0.060 A 
BRANCH  83  84
ATOM     84  S   UNL A   1      33.292  35.198  28.783  1.00  0.00     0.124 S 
ATOM     85  O   UNL A   1      32.484  35.724  29.876  1.00  0.00    -0.237 OA
ATOM     86  O   UNL A   1      34.032  36.185  28.003  1.00  0.00    -0.237 OA
ATOM     87  O   UNL A   1      32.680  34.126  28.004  1.00  0.00    -0.744 OA
ENDBRANCH  83  84
ENDBRANCH  51  76
BRANCH  63  88
ATOM     88  C   UNL A   1      39.907  33.960  37.127  1.00  0.00     0.058 A 
ATOM     89  C   UNL A   1      40.493  35.233  37.061  1.00  0.00     0.135 A 
ATOM     90  C   UNL A   1      39.101  33.665  38.238  1.00  0.00     0.135 A 
ATOM     91  F   UNL A   1      41.277  35.564  36.023  1.00  0.00    -0.206 F 
ATOM     92  C   UNL A   1      40.310  36.170  38.074  1.00  0.00     0.059 A 
ATOM     93  C   UNL A   1      38.880  34.597  39.248  1.00  0.00     0.059 A 
ATOM     94  F   UNL A   1      38.507  32.466  38.346  1.00  0.00    -0.206 F 
ATOM     95  C   UNL A   1      39.501  35.842  39.163  1.00  0.00     0.060 A 
BRANCH  95  96
ATOM     96  S   UNL A   1      39.250  37.075  40.458  1.00  0.00     0.124 S 
ATOM     97  O   UNL A   1      40.624  37.439  40.788  1.00  0.00    -0.237 OA
ATOM     98  O   UNL A   1      38.471  38.098  39.767  1.00  0.00    -0.237 OA
ATOM     99  O   UNL A   1      38.528  36.340  41.492  1.00  0.00    -0.744 OA
ENDBRANCH  95  96
ENDBRANCH  63  88
ENDBRANCH  37  38
ENDBRANCH  29  32
ENDBRANCH  27  28
ENDBRANCH  26  27
ENDBRANCH   1  26
TORSDOF 18
ENDMDL
