MODEL 1
REMARK VINA RESULT:     -13.1      0.000      0.000
REMARK SMILES O=C(CC1(CC(=O)Nc2ccc3ccccc3n2)CCCCC1)NCCCCNC(=O)c1ccc(-c2c3nc(c(-c4c(F)cc(S(=O)(=O)[O-])cc4F)c4ccc([nH]4)c(-c4c(F)cc(S(=O)(=O)[O-])cc4F)c4nc(c(-c5c(F)cc(S(=O)(=O)[O-])cc5F)c5ccc2[nH]5)C=C4)C=C3)cc1
REMARK SMILES IDX 26 1 25 2 24 3 1 4 2 5 3 7 4 8 19 9 23 10 20 11 22 12 21 13
REMARK SMILES IDX 5 14 6 15 7 16 8 17 9 19 10 20 18 21 11 22 17 23 12 24 16 25
REMARK SMILES IDX 13 26 15 27 14 28 27 29 28 30 29 31 30 32 31 34 32 35 33 36
REMARK SMILES IDX 97 37 34 38 96 39 35 40 36 41 37 42 90 43 38 44 95 45 89 46
REMARK SMILES IDX 91 47 39 48 94 49 88 50 87 51 40 53 74 54 53 55 73 56 54 57
REMARK SMILES IDX 57 58 72 59 92 60 55 61 56 62 71 64 93 65 58 66 41 67 42 68
REMARK SMILES IDX 51 69 43 70 44 71 50 72 52 73 45 74 46 75 47 76 48 77 49 78
REMARK SMILES IDX 75 79 76 80 85 81 77 82 78 83 84 84 86 85 79 86 80 87 81 88
REMARK SMILES IDX 82 89 83 90 59 91 60 92 69 93 61 94 62 95 68 96 70 97 63 98
REMARK SMILES IDX 64 99 65 100 66 101 67 102
REMARK H PARENT 24 6 8 18 29 33 91 52 57 63
REMARK Flexibility Score: inf
ROOT
ATOM      1  C   UNL A   1      37.029  23.009  24.550  1.00  0.00     0.023 C 
ENDROOT
BRANCH   1   2
ATOM      2  C   UNL A   1      36.008  23.175  23.422  1.00  0.00     0.116 C 
BRANCH   2   3
ATOM      3  N   UNL A   1      34.669  23.491  23.883  1.00  0.00    -0.356 N 
ATOM      4  O   UNL A   1      34.211  25.019  22.224  1.00  0.00    -0.275 OA
ATOM      5  C   UNL A   1      33.861  24.399  23.226  1.00  0.00     0.220 C 
ATOM      6  H   UNL A   1      34.323  23.043  24.689  1.00  0.00     0.163 HD
BRANCH   5   7
ATOM      7  C   UNL A   1      32.473  24.577  23.833  1.00  0.00     0.107 C 
BRANCH   7   8
ATOM      8  C   UNL A   1      32.380  25.377  25.175  1.00  0.00    -0.012 C 
ATOM      9  C   UNL A   1      33.540  26.432  25.223  1.00  0.00     0.008 C 
ATOM     10  C   UNL A   1      31.141  26.262  25.255  1.00  0.00     0.008 C 
ATOM     11  C   UNL A   1      33.481  27.436  26.394  1.00  0.00     0.001 C 
ATOM     12  C   UNL A   1      31.007  26.999  26.586  1.00  0.00     0.001 C 
ATOM     13  C   UNL A   1      32.103  28.040  26.663  1.00  0.00     0.000 C 
BRANCH   8  14
ATOM     14  C   UNL A   1      32.477  24.372  26.368  1.00  0.00     0.108 C 
BRANCH  14  15
ATOM     15  C   UNL A   1      31.407  23.282  26.640  1.00  0.00     0.226 C 
ATOM     16  O   UNL A   1      30.452  23.573  27.373  1.00  0.00    -0.275 OA
ATOM     17  N   UNL A   1      31.301  22.120  25.927  1.00  0.00    -0.311 N 
ATOM     18  H   UNL A   1      30.372  21.856  25.729  1.00  0.00     0.171 HD
BRANCH  17  19
ATOM     19  C   UNL A   1      32.260  21.236  25.428  1.00  0.00     0.133 A 
ATOM     20  C   UNL A   1      33.530  21.247  25.973  1.00  0.00     0.048 A 
ATOM     21  N   UNL A   1      31.963  20.449  24.387  1.00  0.00    -0.231 NA
ATOM     22  C   UNL A   1      34.425  20.239  25.599  1.00  0.00     0.014 A 
ATOM     23  C   UNL A   1      32.799  19.437  24.049  1.00  0.00     0.073 A 
ATOM     24  C   UNL A   1      34.033  19.257  24.679  1.00  0.00     0.000 A 
ATOM     25  C   UNL A   1      32.383  18.466  23.135  1.00  0.00     0.029 A 
ATOM     26  C   UNL A   1      34.786  18.091  24.426  1.00  0.00     0.010 A 
ATOM     27  C   UNL A   1      33.090  17.284  22.922  1.00  0.00     0.002 A 
ATOM     28  C   UNL A   1      34.293  17.093  23.581  1.00  0.00     0.001 A 
ENDBRANCH  17  19
ENDBRANCH  14  15
ENDBRANCH   8  14
ENDBRANCH   7   8
ENDBRANCH   5   7
ENDBRANCH   2   3
ENDBRANCH   1   2
BRANCH   1  29
ATOM     29  C   UNL A   1      36.884  23.954  25.746  1.00  0.00     0.023 C 
BRANCH  29  30
ATOM     30  C   UNL A   1      38.104  24.083  26.655  1.00  0.00     0.116 C 
BRANCH  30  31
ATOM     31  N   UNL A   1      39.358  24.273  25.947  1.00  0.00    -0.352 N 
ATOM     32  C   UNL A   1      40.437  25.068  26.254  1.00  0.00     0.251 C 
ATOM     33  H   UNL A   1      39.450  23.749  25.118  1.00  0.00     0.163 HD
ATOM     34  O   UNL A   1      41.400  25.095  25.484  1.00  0.00    -0.269 OA
BRANCH  32  35
ATOM     35  C   UNL A   1      40.446  25.931  27.460  1.00  0.00     0.039 A 
ATOM     36  C   UNL A   1      41.357  26.992  27.507  1.00  0.00     0.014 A 
ATOM     37  C   UNL A   1      39.594  25.709  28.546  1.00  0.00     0.014 A 
ATOM     38  C   UNL A   1      41.360  27.871  28.595  1.00  0.00     0.010 A 
ATOM     39  C   UNL A   1      39.549  26.628  29.600  1.00  0.00     0.010 A 
ATOM     40  C   UNL A   1      40.424  27.726  29.633  1.00  0.00    -0.014 A 
BRANCH  40  41
ATOM     41  C   UNL A   1      40.342  28.729  30.732  1.00  0.00     0.031 A 
ATOM     42  C   UNL A   1      41.218  28.610  31.951  1.00  0.00     0.074 A 
ATOM     43  C   UNL A   1      39.441  29.731  30.655  1.00  0.00     0.049 A 
ATOM     44  N   UNL A   1      41.245  29.358  33.025  1.00  0.00    -0.248 NA
ATOM     45  C   UNL A   1      42.175  27.493  31.975  1.00  0.00     0.031 C 
ATOM     46  C   UNL A   1      38.505  29.940  29.549  1.00  0.00     0.029 A 
ATOM     47  N   UNL A   1      39.157  30.757  31.525  1.00  0.00    -0.354 N 
ATOM     48  C   UNL A   1      42.217  28.804  33.853  1.00  0.00     0.074 A 
ATOM     49  C   UNL A   1      42.713  27.622  33.179  1.00  0.00     0.031 C 
ATOM     50  C   UNL A   1      37.767  31.034  29.797  1.00  0.00     0.029 A 
ATOM     51  C   UNL A   1      38.143  31.581  31.097  1.00  0.00     0.049 A 
ATOM     52  H   UNL A   1      39.635  30.887  32.376  1.00  0.00     0.167 HD
ATOM     53  C   UNL A   1      42.669  29.251  35.050  1.00  0.00     0.037 A 
ATOM     54  C   UNL A   1      37.568  32.650  31.685  1.00  0.00     0.037 A 
ATOM     55  C   UNL A   1      42.181  30.435  35.712  1.00  0.00     0.049 A 
ATOM     56  C   UNL A   1      38.070  33.113  33.026  1.00  0.00     0.074 A 
ATOM     57  C   UNL A   1      42.607  30.988  36.908  1.00  0.00     0.029 A 
ATOM     58  N   UNL A   1      41.160  31.247  35.241  1.00  0.00    -0.354 N 
ATOM     59  N   UNL A   1      39.025  32.604  33.769  1.00  0.00    -0.248 NA
ATOM     60  C   UNL A   1      37.423  34.297  33.608  1.00  0.00     0.031 C 
ATOM     61  C   UNL A   1      41.807  32.101  37.187  1.00  0.00     0.029 A 
ATOM     62  C   UNL A   1      40.924  32.281  36.135  1.00  0.00     0.049 A 
ATOM     63  H   UNL A   1      40.673  31.110  34.397  1.00  0.00     0.167 HD
ATOM     64  C   UNL A   1      39.112  33.423  34.890  1.00  0.00     0.074 A 
ATOM     65  C   UNL A   1      38.121  34.467  34.722  1.00  0.00     0.031 C 
ATOM     66  C   UNL A   1      39.939  33.319  35.960  1.00  0.00     0.037 A 
BRANCH  53  67
ATOM     67  C   UNL A   1      43.748  28.451  35.732  1.00  0.00     0.058 A 
ATOM     68  C   UNL A   1      45.111  28.682  35.476  1.00  0.00     0.135 A 
ATOM     69  C   UNL A   1      43.421  27.468  36.680  1.00  0.00     0.135 A 
ATOM     70  F   UNL A   1      45.482  29.601  34.571  1.00  0.00    -0.206 F 
ATOM     71  C   UNL A   1      46.106  27.945  36.109  1.00  0.00     0.059 A 
ATOM     72  C   UNL A   1      44.402  26.740  37.349  1.00  0.00     0.059 A 
ATOM     73  F   UNL A   1      42.136  27.205  36.965  1.00  0.00    -0.206 F 
ATOM     74  C   UNL A   1      45.741  26.975  37.044  1.00  0.00     0.060 A 
BRANCH  74  75
ATOM     75  S   UNL A   1      47.045  26.021  37.849  1.00  0.00     0.124 S 
ATOM     76  O   UNL A   1      47.527  25.199  36.744  1.00  0.00    -0.237 OA
ATOM     77  O   UNL A   1      47.956  27.065  38.308  1.00  0.00    -0.237 OA
ATOM     78  O   UNL A   1      46.339  25.301  38.904  1.00  0.00    -0.744 OA
ENDBRANCH  74  75
ENDBRANCH  53  67
BRANCH  54  79
ATOM     79  C   UNL A   1      36.453  33.362  31.002  1.00  0.00     0.058 A 
ATOM     80  C   UNL A   1      35.134  33.265  31.470  1.00  0.00     0.135 A 
ATOM     81  C   UNL A   1      36.685  34.162  29.871  1.00  0.00     0.135 A 
ATOM     82  F   UNL A   1      34.857  32.505  32.541  1.00  0.00    -0.206 F 
ATOM     83  C   UNL A   1      34.083  33.922  30.836  1.00  0.00     0.059 A 
ATOM     84  C   UNL A   1      35.657  34.851  29.237  1.00  0.00     0.059 A 
ATOM     85  F   UNL A   1      37.931  34.300  29.390  1.00  0.00    -0.206 F 
ATOM     86  C   UNL A   1      34.357  34.716  29.722  1.00  0.00     0.060 A 
BRANCH  86  87
ATOM     87  S   UNL A   1      32.994  35.604  28.936  1.00  0.00     0.124 S 
ATOM     88  O   UNL A   1      32.234  36.059  30.095  1.00  0.00    -0.237 OA
ATOM     89  O   UNL A   1      33.697  36.640  28.186  1.00  0.00    -0.237 OA
ATOM     90  O   UNL A   1      32.350  34.578  28.121  1.00  0.00    -0.744 OA
ENDBRANCH  86  87
ENDBRANCH  54  79
BRANCH  66  91
ATOM     91  C   UNL A   1      39.838  34.380  37.024  1.00  0.00     0.058 A 
ATOM     92  C   UNL A   1      40.579  35.570  36.957  1.00  0.00     0.135 A 
ATOM     93  C   UNL A   1      38.946  34.226  38.098  1.00  0.00     0.135 A 
ATOM     94  F   UNL A   1      41.452  35.768  35.955  1.00  0.00    -0.206 F 
ATOM     95  C   UNL A   1      40.459  36.558  37.929  1.00  0.00     0.059 A 
ATOM     96  C   UNL A   1      38.786  35.215  39.065  1.00  0.00     0.059 A 
ATOM     97  F   UNL A   1      38.204  33.112  38.206  1.00  0.00    -0.206 F 
ATOM     98  C   UNL A   1      39.556  36.373  38.978  1.00  0.00     0.060 A 
BRANCH  98  99
ATOM     99  S   UNL A   1      39.382  37.680  40.212  1.00  0.00     0.124 S 
ATOM    100  O   UNL A   1      39.044  36.913  41.408  1.00  0.00    -0.237 OA
ATOM    101  O   UNL A   1      40.706  38.291  40.205  1.00  0.00    -0.237 OA
ATOM    102  O   UNL A   1      38.309  38.513  39.677  1.00  0.00    -0.744 OA
ENDBRANCH  98  99
ENDBRANCH  66  91
ENDBRANCH  40  41
ENDBRANCH  32  35
ENDBRANCH  30  31
ENDBRANCH  29  30
ENDBRANCH   1  29
TORSDOF 18
ENDMDL
MODEL 2
REMARK VINA RESULT:     -12.8      4.818      5.990
REMARK SMILES O=C(CC1(CC(=O)Nc2ccc3ccccc3n2)CCCCC1)NCCCCNC(=O)c1ccc(-c2c3nc(c(-c4c(F)cc(S(=O)(=O)[O-])cc4F)c4ccc([nH]4)c(-c4c(F)cc(S(=O)(=O)[O-])cc4F)c4nc(c(-c5c(F)cc(S(=O)(=O)[O-])cc5F)c5ccc2[nH]5)C=C4)C=C3)cc1
REMARK SMILES IDX 26 1 25 2 24 3 1 4 2 5 3 7 4 8 19 9 23 10 20 11 22 12 21 13
REMARK SMILES IDX 5 14 6 15 7 16 8 17 9 19 10 20 18 21 11 22 17 23 12 24 16 25
REMARK SMILES IDX 13 26 15 27 14 28 27 29 28 30 29 31 30 32 31 34 32 35 33 36
REMARK SMILES IDX 97 37 34 38 96 39 35 40 36 41 37 42 90 43 38 44 95 45 89 46
REMARK SMILES IDX 91 47 39 48 94 49 88 50 87 51 40 53 74 54 53 55 73 56 54 57
REMARK SMILES IDX 57 58 72 59 92 60 55 61 56 62 71 64 93 65 58 66 41 67 42 68
REMARK SMILES IDX 51 69 43 70 44 71 50 72 52 73 45 74 46 75 47 76 48 77 49 78
REMARK SMILES IDX 75 79 76 80 85 81 77 82 78 83 84 84 86 85 79 86 80 87 81 88
REMARK SMILES IDX 82 89 83 90 59 91 60 92 69 93 61 94 62 95 68 96 70 97 63 98
REMARK SMILES IDX 64 99 65 100 66 101 67 102
REMARK H PARENT 24 6 8 18 29 33 91 52 57 63
REMARK Flexibility Score: inf
ROOT
ATOM      1  C   UNL A   1      36.354  23.138  23.679  1.00  0.00     0.023 C 
ENDROOT
BRANCH   1   2
ATOM      2  C   UNL A   1      35.071  23.009  22.855  1.00  0.00     0.116 C 
BRANCH   2   3
ATOM      3  N   UNL A   1      33.906  23.605  23.483  1.00  0.00    -0.356 N 
ATOM      4  O   UNL A   1      33.603  25.243  21.894  1.00  0.00    -0.275 OA
ATOM      5  C   UNL A   1      33.250  24.690  22.933  1.00  0.00     0.220 C 
ATOM      6  H   UNL A   1      33.572  23.224  24.327  1.00  0.00     0.163 HD
BRANCH   5   7
ATOM      7  C   UNL A   1      32.025  25.158  23.713  1.00  0.00     0.107 C 
BRANCH   7   8
ATOM      8  C   UNL A   1      32.282  25.844  25.097  1.00  0.00    -0.012 C 
ATOM      9  C   UNL A   1      33.541  26.772  24.982  1.00  0.00     0.008 C 
ATOM     10  C   UNL A   1      31.189  26.836  25.480  1.00  0.00     0.008 C 
ATOM     11  C   UNL A   1      33.820  27.671  26.205  1.00  0.00     0.001 C 
ATOM     12  C   UNL A   1      31.396  27.464  26.856  1.00  0.00     0.001 C 
ATOM     13  C   UNL A   1      32.597  28.381  26.783  1.00  0.00     0.000 C 
BRANCH   8  14
ATOM     14  C   UNL A   1      32.490  24.733  26.177  1.00  0.00     0.108 C 
BRANCH  14  15
ATOM     15  C   UNL A   1      31.396  23.693  26.536  1.00  0.00     0.226 C 
ATOM     16  O   UNL A   1      30.467  24.054  27.271  1.00  0.00    -0.275 OA
ATOM     17  N   UNL A   1      31.242  22.494  25.897  1.00  0.00    -0.311 N 
ATOM     18  H   UNL A   1      30.303  22.246  25.734  1.00  0.00     0.171 HD
BRANCH  17  19
ATOM     19  C   UNL A   1      32.165  21.555  25.430  1.00  0.00     0.133 A 
ATOM     20  C   UNL A   1      33.360  21.396  26.107  1.00  0.00     0.048 A 
ATOM     21  N   UNL A   1      31.917  20.880  24.302  1.00  0.00    -0.231 NA
ATOM     22  C   UNL A   1      34.193  20.332  25.748  1.00  0.00     0.014 A 
ATOM     23  C   UNL A   1      32.688  19.815  23.971  1.00  0.00     0.073 A 
ATOM     24  C   UNL A   1      33.819  19.464  24.713  1.00  0.00     0.000 A 
ATOM     25  C   UNL A   1      32.289  18.960  22.941  1.00  0.00     0.029 A 
ATOM     26  C   UNL A   1      34.483  18.249  24.445  1.00  0.00     0.010 A 
ATOM     27  C   UNL A   1      32.902  17.731  22.707  1.00  0.00     0.002 A 
ATOM     28  C   UNL A   1      33.999  17.371  23.472  1.00  0.00     0.001 A 
ENDBRANCH  17  19
ENDBRANCH  14  15
ENDBRANCH   8  14
ENDBRANCH   7   8
ENDBRANCH   5   7
ENDBRANCH   2   3
ENDBRANCH   1   2
BRANCH   1  29
ATOM     29  C   UNL A   1      36.265  23.983  24.954  1.00  0.00     0.023 C 
BRANCH  29  30
ATOM     30  C   UNL A   1      36.553  23.256  26.265  1.00  0.00     0.116 C 
BRANCH  30  31
ATOM     31  N   UNL A   1      37.702  22.369  26.217  1.00  0.00    -0.352 N 
ATOM     32  C   UNL A   1      39.028  22.624  26.472  1.00  0.00     0.251 C 
ATOM     33  H   UNL A   1      37.499  21.440  25.961  1.00  0.00     0.163 HD
ATOM     34  O   UNL A   1      39.850  21.714  26.341  1.00  0.00    -0.269 OA
BRANCH  32  35
ATOM     35  C   UNL A   1      39.499  23.979  26.851  1.00  0.00     0.039 A 
ATOM     36  C   UNL A   1      39.511  24.318  28.209  1.00  0.00     0.014 A 
ATOM     37  C   UNL A   1      39.909  24.921  25.904  1.00  0.00     0.014 A 
ATOM     38  C   UNL A   1      40.006  25.560  28.619  1.00  0.00     0.010 A 
ATOM     39  C   UNL A   1      40.468  26.135  26.320  1.00  0.00     0.010 A 
ATOM     40  C   UNL A   1      40.533  26.465  27.683  1.00  0.00    -0.014 A 
BRANCH  40  41
ATOM     41  C   UNL A   1      41.172  27.737  28.125  1.00  0.00     0.031 A 
ATOM     42  C   UNL A   1      42.666  27.914  28.050  1.00  0.00     0.074 A 
ATOM     43  C   UNL A   1      40.410  28.724  28.640  1.00  0.00     0.049 A 
ATOM     44  N   UNL A   1      43.398  28.928  28.438  1.00  0.00    -0.248 NA
ATOM     45  C   UNL A   1      43.440  26.799  27.484  1.00  0.00     0.031 C 
ATOM     46  C   UNL A   1      38.956  28.667  28.806  1.00  0.00     0.029 A 
ATOM     47  N   UNL A   1      40.749  29.964  29.127  1.00  0.00    -0.354 N 
ATOM     48  C   UNL A   1      44.716  28.575  28.167  1.00  0.00     0.074 A 
ATOM     49  C   UNL A   1      44.685  27.228  27.635  1.00  0.00     0.031 C 
ATOM     50  C   UNL A   1      38.527  29.824  29.335  1.00  0.00     0.029 A 
ATOM     51  C   UNL A   1      39.675  30.690  29.589  1.00  0.00     0.049 A 
ATOM     52  H   UNL A   1      41.674  30.300  29.145  1.00  0.00     0.167 HD
ATOM     53  C   UNL A   1      45.843  29.311  28.323  1.00  0.00     0.037 A 
ATOM     54  C   UNL A   1      39.617  31.908  30.163  1.00  0.00     0.037 A 
ATOM     55  C   UNL A   1      45.869  30.656  28.841  1.00  0.00     0.049 A 
ATOM     56  C   UNL A   1      40.885  32.697  30.350  1.00  0.00     0.074 A 
ATOM     57  C   UNL A   1      46.959  31.496  28.998  1.00  0.00     0.029 A 
ATOM     58  N   UNL A   1      44.760  31.359  29.289  1.00  0.00    -0.354 N 
ATOM     59  N   UNL A   1      42.115  32.365  30.040  1.00  0.00    -0.248 NA
ATOM     60  C   UNL A   1      40.758  34.029  30.960  1.00  0.00     0.031 C 
ATOM     61  C   UNL A   1      46.517  32.683  29.592  1.00  0.00     0.029 A 
ATOM     62  C   UNL A   1      45.143  32.610  29.747  1.00  0.00     0.049 A 
ATOM     63  H   UNL A   1      43.836  31.019  29.284  1.00  0.00     0.167 HD
ATOM     64  C   UNL A   1      42.904  33.457  30.388  1.00  0.00     0.074 A 
ATOM     65  C   UNL A   1      42.010  34.463  30.922  1.00  0.00     0.031 C 
ATOM     66  C   UNL A   1      44.247  33.610  30.274  1.00  0.00     0.037 A 
BRANCH  53  67
ATOM     67  C   UNL A   1      47.153  28.676  27.934  1.00  0.00     0.058 A 
ATOM     68  C   UNL A   1      47.950  27.996  28.869  1.00  0.00     0.135 A 
ATOM     69  C   UNL A   1      47.598  28.713  26.603  1.00  0.00     0.135 A 
ATOM     70  F   UNL A   1      47.580  27.939  30.158  1.00  0.00    -0.206 F 
ATOM     71  C   UNL A   1      49.157  27.407  28.507  1.00  0.00     0.059 A 
ATOM     72  C   UNL A   1      48.787  28.102  26.211  1.00  0.00     0.059 A 
ATOM     73  F   UNL A   1      46.876  29.347  25.665  1.00  0.00    -0.206 F 
ATOM     74  C   UNL A   1      49.567  27.466  27.174  1.00  0.00     0.060 A 
BRANCH  74  75
ATOM     75  S   UNL A   1      51.140  26.704  26.723  1.00  0.00     0.124 S 
ATOM     76  O   UNL A   1      50.850  26.215  25.379  1.00  0.00    -0.237 OA
ATOM     77  O   UNL A   1      52.066  27.830  26.802  1.00  0.00    -0.237 OA
ATOM     78  O   UNL A   1      51.323  25.673  27.740  1.00  0.00    -0.744 OA
ENDBRANCH  74  75
ENDBRANCH  53  67
BRANCH  54  79
ATOM     79  C   UNL A   1      38.304  32.460  30.600  1.00  0.00     0.058 A 
ATOM     80  C   UNL A   1      37.814  32.232  31.894  1.00  0.00     0.135 A 
ATOM     81  C   UNL A   1      37.518  33.236  29.732  1.00  0.00     0.135 A 
ATOM     82  F   UNL A   1      38.522  31.489  32.758  1.00  0.00    -0.206 F 
ATOM     83  C   UNL A   1      36.586  32.739  32.310  1.00  0.00     0.059 A 
ATOM     84  C   UNL A   1      36.301  33.778  30.133  1.00  0.00     0.059 A 
ATOM     85  F   UNL A   1      37.948  33.496  28.487  1.00  0.00    -0.206 F 
ATOM     86  C   UNL A   1      35.839  33.514  31.422  1.00  0.00     0.060 A 
BRANCH  86  87
ATOM     87  S   UNL A   1      34.271  34.209  31.988  1.00  0.00     0.124 S 
ATOM     88  O   UNL A   1      33.768  33.141  32.844  1.00  0.00    -0.237 OA
ATOM     89  O   UNL A   1      34.704  35.425  32.670  1.00  0.00    -0.237 OA
ATOM     90  O   UNL A   1      33.532  34.425  30.747  1.00  0.00    -0.744 OA
ENDBRANCH  86  87
ENDBRANCH  54  79
BRANCH  66  91
ATOM     91  C   UNL A   1      44.836  34.928  30.702  1.00  0.00     0.058 A 
ATOM     92  C   UNL A   1      45.333  35.133  31.998  1.00  0.00     0.135 A 
ATOM     93  C   UNL A   1      44.954  35.984  29.783  1.00  0.00     0.135 A 
ATOM     94  F   UNL A   1      45.241  34.160  32.919  1.00  0.00    -0.206 F 
ATOM     95  C   UNL A   1      45.902  36.345  32.376  1.00  0.00     0.059 A 
ATOM     96  C   UNL A   1      45.548  37.194  30.130  1.00  0.00     0.059 A 
ATOM     97  F   UNL A   1      44.504  35.840  28.526  1.00  0.00    -0.206 F 
ATOM     98  C   UNL A   1      46.009  37.369  31.433  1.00  0.00     0.060 A 
BRANCH  98  99
ATOM     99  S   UNL A   1      46.784  38.924  31.927  1.00  0.00     0.124 S 
ATOM    100  O   UNL A   1      45.810  39.902  31.451  1.00  0.00    -0.237 OA
ATOM    101  O   UNL A   1      46.879  38.777  33.376  1.00  0.00    -0.237 OA
ATOM    102  O   UNL A   1      48.058  38.910  31.216  1.00  0.00    -0.744 OA
ENDBRANCH  98  99
ENDBRANCH  66  91
ENDBRANCH  40  41
ENDBRANCH  32  35
ENDBRANCH  30  31
ENDBRANCH  29  30
ENDBRANCH   1  29
TORSDOF 18
ENDMDL
MODEL 3
REMARK VINA RESULT:     -12.7      6.532     11.536
REMARK SMILES O=C(CC1(CC(=O)Nc2ccc3ccccc3n2)CCCCC1)NCCCCNC(=O)c1ccc(-c2c3nc(c(-c4c(F)cc(S(=O)(=O)[O-])cc4F)c4ccc([nH]4)c(-c4c(F)cc(S(=O)(=O)[O-])cc4F)c4nc(c(-c5c(F)cc(S(=O)(=O)[O-])cc5F)c5ccc2[nH]5)C=C4)C=C3)cc1
REMARK SMILES IDX 26 1 25 2 24 3 1 4 2 5 3 7 4 8 19 9 23 10 20 11 22 12 21 13
REMARK SMILES IDX 5 14 6 15 7 16 8 17 9 19 10 20 18 21 11 22 17 23 12 24 16 25
REMARK SMILES IDX 13 26 15 27 14 28 27 29 28 30 29 31 30 32 31 34 32 35 33 36
REMARK SMILES IDX 97 37 34 38 96 39 35 40 36 41 37 42 90 43 38 44 95 45 89 46
REMARK SMILES IDX 91 47 39 48 94 49 88 50 87 51 40 53 74 54 53 55 73 56 54 57
REMARK SMILES IDX 57 58 72 59 92 60 55 61 56 62 71 64 93 65 58 66 41 67 42 68
REMARK SMILES IDX 51 69 43 70 44 71 50 72 52 73 45 74 46 75 47 76 48 77 49 78
REMARK SMILES IDX 75 79 76 80 85 81 77 82 78 83 84 84 86 85 79 86 80 87 81 88
REMARK SMILES IDX 82 89 83 90 59 91 60 92 69 93 61 94 62 95 68 96 70 97 63 98
REMARK SMILES IDX 64 99 65 100 66 101 67 102
REMARK H PARENT 24 6 8 18 29 33 91 52 57 63
REMARK Flexibility Score: inf
ROOT
ATOM      1  C   UNL A   1      34.008  30.317  27.294  1.00  0.00     0.023 C 
ENDROOT
BRANCH   1   2
ATOM      2  C   UNL A   1      32.579  30.061  26.810  1.00  0.00     0.116 C 
BRANCH   2   3
ATOM      3  N   UNL A   1      32.169  28.672  26.898  1.00  0.00    -0.356 N 
ATOM      4  O   UNL A   1      31.133  28.608  24.843  1.00  0.00    -0.275 OA
ATOM      5  C   UNL A   1      31.474  28.045  25.882  1.00  0.00     0.220 C 
ATOM      6  H   UNL A   1      32.394  28.159  27.708  1.00  0.00     0.163 HD
BRANCH   5   7
ATOM      7  C   UNL A   1      31.159  26.574  26.135  1.00  0.00     0.107 C 
BRANCH   7   8
ATOM      8  C   UNL A   1      32.174  25.522  25.574  1.00  0.00    -0.012 C 
ATOM      9  C   UNL A   1      31.654  24.998  24.190  1.00  0.00     0.008 C 
ATOM     10  C   UNL A   1      33.519  26.135  25.198  1.00  0.00     0.008 C 
ATOM     11  C   UNL A   1      32.632  24.094  23.410  1.00  0.00     0.001 C 
ATOM     12  C   UNL A   1      34.537  25.107  24.710  1.00  0.00     0.001 C 
ATOM     13  C   UNL A   1      34.078  24.587  23.365  1.00  0.00     0.000 C 
BRANCH   8  14
ATOM     14  C   UNL A   1      32.313  24.357  26.608  1.00  0.00     0.108 C 
BRANCH  14  15
ATOM     15  C   UNL A   1      31.255  23.231  26.754  1.00  0.00     0.226 C 
ATOM     16  O   UNL A   1      30.257  23.455  27.453  1.00  0.00    -0.275 OA
ATOM     17  N   UNL A   1      31.212  22.115  25.965  1.00  0.00    -0.311 N 
ATOM     18  H   UNL A   1      30.302  21.846  25.702  1.00  0.00     0.171 HD
BRANCH  17  19
ATOM     19  C   UNL A   1      32.216  21.285  25.461  1.00  0.00     0.133 A 
ATOM     20  C   UNL A   1      33.509  21.439  25.925  1.00  0.00     0.048 A 
ATOM     21  N   UNL A   1      31.932  20.408  24.491  1.00  0.00    -0.231 NA
ATOM     22  C   UNL A   1      34.467  20.488  25.559  1.00  0.00     0.014 A 
ATOM     23  C   UNL A   1      32.833  19.450  24.164  1.00  0.00     0.073 A 
ATOM     24  C   UNL A   1      34.112  19.417  24.727  1.00  0.00     0.000 A 
ATOM     25  C   UNL A   1      32.454  18.389  23.339  1.00  0.00     0.029 A 
ATOM     26  C   UNL A   1      34.949  18.305  24.498  1.00  0.00     0.010 A 
ATOM     27  C   UNL A   1      33.249  17.260  23.155  1.00  0.00     0.002 A 
ATOM     28  C   UNL A   1      34.500  17.215  23.748  1.00  0.00     0.001 A 
ENDBRANCH  17  19
ENDBRANCH  14  15
ENDBRANCH   8  14
ENDBRANCH   7   8
ENDBRANCH   5   7
ENDBRANCH   2   3
ENDBRANCH   1   2
BRANCH   1  29
ATOM     29  C   UNL A   1      34.286  31.697  27.899  1.00  0.00     0.023 C 
BRANCH  29  30
ATOM     30  C   UNL A   1      35.559  31.824  28.731  1.00  0.00     0.116 C 
BRANCH  30  31
ATOM     31  N   UNL A   1      35.466  31.240  30.058  1.00  0.00    -0.352 N 
ATOM     32  C   UNL A   1      36.412  30.575  30.801  1.00  0.00     0.251 C 
ATOM     33  H   UNL A   1      34.588  31.337  30.493  1.00  0.00     0.163 HD
ATOM     34  O   UNL A   1      36.101  30.134  31.910  1.00  0.00    -0.269 OA
BRANCH  32  35
ATOM     35  C   UNL A   1      37.779  30.332  30.279  1.00  0.00     0.039 A 
ATOM     36  C   UNL A   1      38.842  30.323  31.189  1.00  0.00     0.014 A 
ATOM     37  C   UNL A   1      38.036  30.133  28.920  1.00  0.00     0.014 A 
ATOM     38  C   UNL A   1      40.139  30.035  30.753  1.00  0.00     0.010 A 
ATOM     39  C   UNL A   1      39.321  29.777  28.495  1.00  0.00     0.010 A 
ATOM     40  C   UNL A   1      40.387  29.713  29.408  1.00  0.00    -0.014 A 
BRANCH  40  41
ATOM     41  C   UNL A   1      41.743  29.287  28.962  1.00  0.00     0.031 A 
ATOM     42  C   UNL A   1      42.872  30.280  28.873  1.00  0.00     0.074 A 
ATOM     43  C   UNL A   1      41.953  28.006  28.592  1.00  0.00     0.049 A 
ATOM     44  N   UNL A   1      44.100  30.100  28.456  1.00  0.00    -0.248 NA
ATOM     45  C   UNL A   1      42.577  31.660  29.285  1.00  0.00     0.031 C 
ATOM     46  C   UNL A   1      40.937  26.951  28.594  1.00  0.00     0.029 A 
ATOM     47  N   UNL A   1      43.084  27.374  28.135  1.00  0.00    -0.354 N 
ATOM     48  C   UNL A   1      44.724  31.339  28.554  1.00  0.00     0.074 A 
ATOM     49  C   UNL A   1      43.719  32.275  29.014  1.00  0.00     0.031 C 
ATOM     50  C   UNL A   1      41.495  25.802  28.180  1.00  0.00     0.029 A 
ATOM     51  C   UNL A   1      42.894  26.043  27.840  1.00  0.00     0.049 A 
ATOM     52  H   UNL A   1      43.950  27.831  28.028  1.00  0.00     0.167 HD
ATOM     53  C   UNL A   1      46.017  31.663  28.306  1.00  0.00     0.037 A 
ATOM     54  C   UNL A   1      43.742  25.121  27.341  1.00  0.00     0.037 A 
ATOM     55  C   UNL A   1      47.017  30.725  27.861  1.00  0.00     0.049 A 
ATOM     56  C   UNL A   1      45.166  25.510  27.050  1.00  0.00     0.074 A 
ATOM     57  C   UNL A   1      48.363  30.953  27.622  1.00  0.00     0.029 A 
ATOM     58  N   UNL A   1      46.786  29.386  27.582  1.00  0.00    -0.354 N 
ATOM     59  N   UNL A   1      45.749  26.676  27.198  1.00  0.00    -0.248 NA
ATOM     60  C   UNL A   1      46.052  24.458  26.530  1.00  0.00     0.031 C 
ATOM     61  C   UNL A   1      48.931  29.766  27.148  1.00  0.00     0.029 A 
ATOM     62  C   UNL A   1      47.957  28.782  27.149  1.00  0.00     0.049 A 
ATOM     63  H   UNL A   1      45.918  28.931  27.677  1.00  0.00     0.167 HD
ATOM     64  C   UNL A   1      47.074  26.490  26.818  1.00  0.00     0.074 A 
ATOM     65  C   UNL A   1      47.210  25.097  26.445  1.00  0.00     0.031 C 
ATOM     66  C   UNL A   1      48.086  27.393  26.783  1.00  0.00     0.037 A 
BRANCH  53  67
ATOM     67  C   UNL A   1      46.429  33.098  28.508  1.00  0.00     0.058 A 
ATOM     68  C   UNL A   1      46.917  33.559  29.741  1.00  0.00     0.135 A 
ATOM     69  C   UNL A   1      46.372  34.014  27.446  1.00  0.00     0.135 A 
ATOM     70  F   UNL A   1      46.984  32.730  30.795  1.00  0.00    -0.206 F 
ATOM     71  C   UNL A   1      47.301  34.884  29.924  1.00  0.00     0.059 A 
ATOM     72  C   UNL A   1      46.781  35.338  27.597  1.00  0.00     0.059 A 
ATOM     73  F   UNL A   1      45.914  33.630  26.243  1.00  0.00    -0.206 F 
ATOM     74  C   UNL A   1      47.227  35.766  28.845  1.00  0.00     0.060 A 
BRANCH  74  75
ATOM     75  S   UNL A   1      47.720  37.483  29.102  1.00  0.00     0.124 S 
ATOM     76  O   UNL A   1      48.599  37.362  30.262  1.00  0.00    -0.237 OA
ATOM     77  O   UNL A   1      48.376  37.812  27.841  1.00  0.00    -0.237 OA
ATOM     78  O   UNL A   1      46.454  38.168  29.345  1.00  0.00    -0.744 OA
ENDBRANCH  74  75
ENDBRANCH  53  67
BRANCH  54  79
ATOM     79  C   UNL A   1      43.264  23.733  27.090  1.00  0.00     0.058 A 
ATOM     80  C   UNL A   1      43.083  22.825  28.144  1.00  0.00     0.135 A 
ATOM     81  C   UNL A   1      42.969  23.290  25.790  1.00  0.00     0.135 A 
ATOM     82  F   UNL A   1      43.360  23.196  29.403  1.00  0.00    -0.206 F 
ATOM     83  C   UNL A   1      42.641  21.525  27.919  1.00  0.00     0.059 A 
ATOM     84  C   UNL A   1      42.499  22.005  25.543  1.00  0.00     0.059 A 
ATOM     85  F   UNL A   1      43.112  24.124  24.747  1.00  0.00    -0.206 F 
ATOM     86  C   UNL A   1      42.349  21.125  26.614  1.00  0.00     0.060 A 
BRANCH  86  87
ATOM     87  S   UNL A   1      41.729  19.451  26.339  1.00  0.00     0.124 S 
ATOM     88  O   UNL A   1      42.437  19.073  25.121  1.00  0.00    -0.237 OA
ATOM     89  O   UNL A   1      42.146  18.767  27.559  1.00  0.00    -0.237 OA
ATOM     90  O   UNL A   1      40.289  19.645  26.199  1.00  0.00    -0.744 OA
ENDBRANCH  86  87
ENDBRANCH  54  79
BRANCH  66  91
ATOM     91  C   UNL A   1      49.445  26.900  26.360  1.00  0.00     0.058 A 
ATOM     92  C   UNL A   1      50.285  26.197  27.237  1.00  0.00     0.135 A 
ATOM     93  C   UNL A   1      49.888  27.088  25.040  1.00  0.00     0.135 A 
ATOM     94  F   UNL A   1      49.915  25.994  28.511  1.00  0.00    -0.206 F 
ATOM     95  C   UNL A   1      51.527  25.720  26.828  1.00  0.00     0.059 A 
ATOM     96  C   UNL A   1      51.113  26.593  24.602  1.00  0.00     0.059 A 
ATOM     97  F   UNL A   1      49.120  27.745  24.156  1.00  0.00    -0.206 F 
ATOM     98  C   UNL A   1      51.931  25.920  25.507  1.00  0.00     0.060 A 
BRANCH  98  99
ATOM     99  S   UNL A   1      53.528  25.263  24.981  1.00  0.00     0.124 S 
ATOM    100  O   UNL A   1      54.454  26.088  25.752  1.00  0.00    -0.237 OA
ATOM    101  O   UNL A   1      53.438  23.865  25.386  1.00  0.00    -0.237 OA
ATOM    102  O   UNL A   1      53.534  25.494  23.540  1.00  0.00    -0.744 OA
ENDBRANCH  98  99
ENDBRANCH  66  91
ENDBRANCH  40  41
ENDBRANCH  32  35
ENDBRANCH  30  31
ENDBRANCH  29  30
ENDBRANCH   1  29
TORSDOF 18
ENDMDL
