MODEL 1
REMARK VINA RESULT:     -11.1      0.000      0.000
REMARK SMILES C[NH2+][C@@](C)(CC[N@@H+](C)C1CCC(C)(C)CC1)C(=O)NCCCCNC(=O)c1ccc(-c2c3nc(c(-c4c(F)cc(S(=O)(=O)[O-])cc4F)c4ccc([nH]4)c(-c4c(F)cc(S(=O)(=O)[O-])cc4F)c4nc(c(-c5c(F)cc(S(=O)(=O)[O-])cc5F)c5ccc2[nH]5)C=C4)C=C3)cc1
REMARK SMILES IDX 21 1 20 2 19 3 17 4 18 5 3 7 4 8 2 9 1 10 5 13 6 14 7 15
REMARK SMILES IDX 8 16 9 18 10 19 16 20 11 21 15 22 12 23 13 24 14 25 22 26
REMARK SMILES IDX 23 27 24 28 25 29 26 31 27 32 28 33 92 34 29 35 91 36 30 37
REMARK SMILES IDX 31 38 32 39 85 40 33 41 90 42 84 43 86 44 34 45 89 46 83 47
REMARK SMILES IDX 82 48 35 50 69 51 48 52 68 53 49 54 52 55 67 56 87 57 50 58
REMARK SMILES IDX 51 59 66 61 88 62 53 63 36 64 37 65 46 66 38 67 39 68 45 69
REMARK SMILES IDX 47 70 40 71 41 72 42 73 43 74 44 75 70 76 71 77 80 78 72 79
REMARK SMILES IDX 73 80 79 81 81 82 74 83 75 84 76 85 77 86 78 87 54 88 55 89
REMARK SMILES IDX 64 90 56 91 57 92 63 93 65 94 58 95 59 96 60 97 61 98 62 99
REMARK H PARENT 19 6 2 11 2 12 7 17 24 30 86 49 52 60
REMARK Flexibility Score: inf
ROOT
ATOM      1  C   UNL A   1      34.680  30.111  27.318  1.00  0.00     0.023 C 
ENDROOT
BRANCH   1   2
ATOM      2  C   UNL A   1      33.527  29.668  26.421  1.00  0.00     0.116 C 
BRANCH   2   3
ATOM      3  N   UNL A   1      33.928  29.122  25.148  1.00  0.00    -0.351 N 
ATOM      4  C   UNL A   1      33.226  28.748  24.044  1.00  0.00     0.281 C 
ATOM      5  O   UNL A   1      33.905  28.572  23.046  1.00  0.00    -0.268 OA
ATOM      6  H   UNL A   1      34.900  28.995  25.060  1.00  0.00     0.163 HD
BRANCH   4   7
ATOM      7  C   UNL A   1      31.732  28.477  24.013  1.00  0.00     0.177 C 
ATOM      8  C   UNL A   1      31.354  27.866  25.368  1.00  0.00     0.090 C 
BRANCH   7   9
ATOM      9  N   UNL A   1      30.778  29.607  23.754  1.00  0.00    -0.336 N 
ATOM     10  C   UNL A   1      29.612  29.440  22.919  1.00  0.00     0.331 C 
ATOM     11  H   UNL A   1      30.436  29.909  24.666  1.00  0.00     0.346 HD
ATOM     12  H   UNL A   1      31.348  30.251  23.206  1.00  0.00     0.346 HD
ENDBRANCH   7   9
BRANCH   7  13
ATOM     13  C   UNL A   1      31.614  27.710  22.670  1.00  0.00     0.140 C 
BRANCH  13  14
ATOM     14  C   UNL A   1      31.236  26.163  22.880  1.00  0.00     0.269 C 
BRANCH  14  15
ATOM     15  N   UNL A   1      32.077  25.119  22.211  1.00  0.00    -0.335 N 
ATOM     16  C   UNL A   1      32.558  25.723  20.940  1.00  0.00     0.332 C 
ATOM     17  H   UNL A   1      31.457  24.312  22.138  1.00  0.00     0.348 HD
BRANCH  15  18
ATOM     18  C   UNL A   1      33.297  24.540  22.938  1.00  0.00     0.183 C 
ATOM     19  C   UNL A   1      34.030  25.226  24.101  1.00  0.00     0.065 C 
ATOM     20  C   UNL A   1      33.249  23.007  23.193  1.00  0.00     0.065 C 
ATOM     21  C   UNL A   1      33.576  24.867  25.514  1.00  0.00     0.012 C 
ATOM     22  C   UNL A   1      33.212  22.433  24.636  1.00  0.00     0.012 C 
ATOM     23  C   UNL A   1      33.478  23.356  25.871  1.00  0.00    -0.035 C 
ATOM     24  C   UNL A   1      32.425  23.102  27.010  1.00  0.00     0.011 C 
ATOM     25  C   UNL A   1      34.784  22.900  26.563  1.00  0.00     0.011 C 
ENDBRANCH  15  18
ENDBRANCH  14  15
ENDBRANCH  13  14
ENDBRANCH   7  13
ENDBRANCH   4   7
ENDBRANCH   2   3
ENDBRANCH   1   2
BRANCH   1  26
ATOM     26  C   UNL A   1      34.744  31.591  27.699  1.00  0.00     0.023 C 
BRANCH  26  27
ATOM     27  C   UNL A   1      35.781  31.981  28.749  1.00  0.00     0.116 C 
BRANCH  27  28
ATOM     28  N   UNL A   1      35.594  31.295  30.019  1.00  0.00    -0.352 N 
ATOM     29  C   UNL A   1      36.385  30.399  30.689  1.00  0.00     0.251 C 
ATOM     30  H   UNL A   1      34.751  31.513  30.479  1.00  0.00     0.163 HD
ATOM     31  O   UNL A   1      35.935  29.831  31.681  1.00  0.00    -0.269 OA
BRANCH  29  32
ATOM     32  C   UNL A   1      37.753  30.098  30.224  1.00  0.00     0.039 A 
ATOM     33  C   UNL A   1      38.763  29.948  31.178  1.00  0.00     0.014 A 
ATOM     34  C   UNL A   1      38.055  30.004  28.864  1.00  0.00     0.014 A 
ATOM     35  C   UNL A   1      40.062  29.642  30.771  1.00  0.00     0.010 A 
ATOM     36  C   UNL A   1      39.336  29.630  28.462  1.00  0.00     0.010 A 
ATOM     37  C   UNL A   1      40.352  29.446  29.412  1.00  0.00    -0.014 A 
BRANCH  37  38
ATOM     38  C   UNL A   1      41.711  29.047  28.967  1.00  0.00     0.031 A 
ATOM     39  C   UNL A   1      42.818  30.064  28.910  1.00  0.00     0.074 A 
ATOM     40  C   UNL A   1      41.929  27.780  28.562  1.00  0.00     0.049 A 
ATOM     41  N   UNL A   1      44.047  29.922  28.486  1.00  0.00    -0.248 NA
ATOM     42  C   UNL A   1      42.493  31.426  29.365  1.00  0.00     0.031 C 
ATOM     43  C   UNL A   1      40.921  26.717  28.534  1.00  0.00     0.029 A 
ATOM     44  N   UNL A   1      43.064  27.173  28.088  1.00  0.00    -0.354 N 
ATOM     45  C   UNL A   1      44.638  31.174  28.612  1.00  0.00     0.074 A 
ATOM     46  C   UNL A   1      43.617  32.075  29.102  1.00  0.00     0.031 C 
ATOM     47  C   UNL A   1      41.489  25.583  28.091  1.00  0.00     0.029 A 
ATOM     48  C   UNL A   1      42.887  25.847  27.767  1.00  0.00     0.049 A 
ATOM     49  H   UNL A   1      43.923  27.642  27.987  1.00  0.00     0.167 HD
ATOM     50  C   UNL A   1      45.920  31.534  28.365  1.00  0.00     0.037 A 
ATOM     51  C   UNL A   1      43.753  24.948  27.262  1.00  0.00     0.037 A 
ATOM     52  C   UNL A   1      46.934  30.624  27.897  1.00  0.00     0.049 A 
ATOM     53  C   UNL A   1      45.170  25.373  26.987  1.00  0.00     0.074 A 
ATOM     54  C   UNL A   1      48.274  30.877  27.660  1.00  0.00     0.029 A 
ATOM     55  N   UNL A   1      46.721  29.286  27.597  1.00  0.00    -0.354 N 
ATOM     56  N   UNL A   1      45.726  26.550  27.161  1.00  0.00    -0.248 NA
ATOM     57  C   UNL A   1      46.080  24.350  26.454  1.00  0.00     0.031 C 
ATOM     58  C   UNL A   1      48.861  29.703  27.178  1.00  0.00     0.029 A 
ATOM     59  C   UNL A   1      47.900  28.704  27.161  1.00  0.00     0.049 A 
ATOM     60  H   UNL A   1      45.858  28.819  27.682  1.00  0.00     0.167 HD
ATOM     61  C   UNL A   1      47.057  26.400  26.786  1.00  0.00     0.074 A 
ATOM     62  C   UNL A   1      47.224  25.017  26.387  1.00  0.00     0.031 C 
ATOM     63  C   UNL A   1      48.050  27.322  26.775  1.00  0.00     0.037 A 
BRANCH  50  64
ATOM     64  C   UNL A   1      46.300  32.970  28.602  1.00  0.00     0.058 A 
ATOM     65  C   UNL A   1      46.209  33.933  27.583  1.00  0.00     0.135 A 
ATOM     66  C   UNL A   1      46.726  33.401  29.870  1.00  0.00     0.135 A 
ATOM     67  F   UNL A   1      45.822  33.575  26.348  1.00  0.00    -0.206 F 
ATOM     68  C   UNL A   1      46.557  35.261  27.802  1.00  0.00     0.059 A 
ATOM     69  C   UNL A   1      47.051  34.731  30.119  1.00  0.00     0.059 A 
ATOM     70  F   UNL A   1      46.831  32.524  30.881  1.00  0.00    -0.206 F 
ATOM     71  C   UNL A   1      46.977  35.651  29.075  1.00  0.00     0.060 A 
BRANCH  71  72
ATOM     72  S   UNL A   1      47.418  37.381  29.343  1.00  0.00     0.124 S 
ATOM     73  O   UNL A   1      48.437  37.263  30.382  1.00  0.00    -0.237 OA
ATOM     74  O   UNL A   1      47.901  37.789  28.028  1.00  0.00    -0.237 OA
ATOM     75  O   UNL A   1      46.161  37.992  29.764  1.00  0.00    -0.744 OA
ENDBRANCH  71  72
ENDBRANCH  50  64
BRANCH  51  76
ATOM     76  C   UNL A   1      43.311  23.551  27.010  1.00  0.00     0.058 A 
ATOM     77  C   UNL A   1      43.037  23.107  25.708  1.00  0.00     0.135 A 
ATOM     78  C   UNL A   1      43.168  22.628  28.058  1.00  0.00     0.135 A 
ATOM     79  F   UNL A   1      43.154  23.953  24.673  1.00  0.00    -0.206 F 
ATOM     80  C   UNL A   1      42.622  21.805  25.453  1.00  0.00     0.059 A 
ATOM     81  C   UNL A   1      42.778  21.312  27.826  1.00  0.00     0.059 A 
ATOM     82  F   UNL A   1      43.435  22.997  29.321  1.00  0.00    -0.206 F 
ATOM     83  C   UNL A   1      42.497  20.913  26.520  1.00  0.00     0.060 A 
BRANCH  83  84
ATOM     84  S   UNL A   1      42.003  19.211  26.173  1.00  0.00     0.124 S 
ATOM     85  O   UNL A   1      42.281  18.559  27.448  1.00  0.00    -0.237 OA
ATOM     86  O   UNL A   1      40.593  19.365  25.828  1.00  0.00    -0.237 OA
ATOM     87  O   UNL A   1      42.872  18.828  25.065  1.00  0.00    -0.744 OA
ENDBRANCH  83  84
ENDBRANCH  51  76
BRANCH  63  88
ATOM     88  C   UNL A   1      49.417  26.862  26.353  1.00  0.00     0.058 A 
ATOM     89  C   UNL A   1      50.322  26.301  27.266  1.00  0.00     0.135 A 
ATOM     90  C   UNL A   1      49.805  26.935  25.005  1.00  0.00     0.135 A 
ATOM     91  F   UNL A   1      50.003  26.214  28.568  1.00  0.00    -0.206 F 
ATOM     92  C   UNL A   1      51.575  25.849  26.863  1.00  0.00     0.059 A 
ATOM     93  C   UNL A   1      51.041  26.464  24.574  1.00  0.00     0.059 A 
ATOM     94  F   UNL A   1      48.972  27.455  24.088  1.00  0.00    -0.206 F 
ATOM     95  C   UNL A   1      51.923  25.932  25.513  1.00  0.00     0.060 A 
BRANCH  95  96
ATOM     96  S   UNL A   1      53.537  25.308  24.996  1.00  0.00     0.124 S 
ATOM     97  O   UNL A   1      53.391  23.877  25.245  1.00  0.00    -0.237 OA
ATOM     98  O   UNL A   1      53.592  25.705  23.593  1.00  0.00    -0.237 OA
ATOM     99  O   UNL A   1      54.469  26.007  25.876  1.00  0.00    -0.744 OA
ENDBRANCH  95  96
ENDBRANCH  63  88
ENDBRANCH  37  38
ENDBRANCH  29  32
ENDBRANCH  27  28
ENDBRANCH  26  27
ENDBRANCH   1  26
TORSDOF 19
ENDMDL
MODEL 2
REMARK VINA RESULT:     -11.0      6.453     12.062
REMARK SMILES C[NH2+][C@@](C)(CC[N@@H+](C)C1CCC(C)(C)CC1)C(=O)NCCCCNC(=O)c1ccc(-c2c3nc(c(-c4c(F)cc(S(=O)(=O)[O-])cc4F)c4ccc([nH]4)c(-c4c(F)cc(S(=O)(=O)[O-])cc4F)c4nc(c(-c5c(F)cc(S(=O)(=O)[O-])cc5F)c5ccc2[nH]5)C=C4)C=C3)cc1
REMARK SMILES IDX 21 1 20 2 19 3 17 4 18 5 3 7 4 8 2 9 1 10 5 13 6 14 7 15
REMARK SMILES IDX 8 16 9 18 10 19 16 20 11 21 15 22 12 23 13 24 14 25 22 26
REMARK SMILES IDX 23 27 24 28 25 29 26 31 27 32 28 33 92 34 29 35 91 36 30 37
REMARK SMILES IDX 31 38 32 39 85 40 33 41 90 42 84 43 86 44 34 45 89 46 83 47
REMARK SMILES IDX 82 48 35 50 69 51 48 52 68 53 49 54 52 55 67 56 87 57 50 58
REMARK SMILES IDX 51 59 66 61 88 62 53 63 36 64 37 65 46 66 38 67 39 68 45 69
REMARK SMILES IDX 47 70 40 71 41 72 42 73 43 74 44 75 70 76 71 77 80 78 72 79
REMARK SMILES IDX 73 80 79 81 81 82 74 83 75 84 76 85 77 86 78 87 54 88 55 89
REMARK SMILES IDX 64 90 56 91 57 92 63 93 65 94 58 95 59 96 60 97 61 98 62 99
REMARK H PARENT 19 6 2 11 2 12 7 17 24 30 86 49 52 60
REMARK Flexibility Score: inf
ROOT
ATOM      1  C   UNL A   1      39.916  21.999  26.415  1.00  0.00     0.023 C 
ENDROOT
BRANCH   1   2
ATOM      2  C   UNL A   1      38.499  22.544  26.262  1.00  0.00     0.116 C 
BRANCH   2   3
ATOM      3  N   UNL A   1      38.007  22.577  24.907  1.00  0.00    -0.351 N 
ATOM      4  C   UNL A   1      36.754  22.653  24.383  1.00  0.00     0.281 C 
ATOM      5  O   UNL A   1      36.716  22.924  23.194  1.00  0.00    -0.268 OA
ATOM      6  H   UNL A   1      38.718  22.536  24.227  1.00  0.00     0.163 HD
BRANCH   4   7
ATOM      7  C   UNL A   1      35.473  22.356  25.144  1.00  0.00     0.177 C 
ATOM      8  C   UNL A   1      34.728  21.263  24.367  1.00  0.00     0.090 C 
BRANCH   7   9
ATOM      9  N   UNL A   1      35.547  21.912  26.576  1.00  0.00    -0.336 N 
ATOM     10  C   UNL A   1      34.370  21.839  27.410  1.00  0.00     0.331 C 
ATOM     11  H   UNL A   1      35.950  20.975  26.566  1.00  0.00     0.346 HD
ATOM     12  H   UNL A   1      36.075  22.668  27.012  1.00  0.00     0.346 HD
ENDBRANCH   7   9
BRANCH   7  13
ATOM     13  C   UNL A   1      34.921  23.793  25.334  1.00  0.00     0.140 C 
BRANCH  13  14
ATOM     14  C   UNL A   1      33.559  24.038  24.519  1.00  0.00     0.269 C 
BRANCH  14  15
ATOM     15  N   UNL A   1      33.577  24.978  23.353  1.00  0.00    -0.335 N 
ATOM     16  C   UNL A   1      33.054  24.211  22.191  1.00  0.00     0.332 C 
ATOM     17  H   UNL A   1      34.546  25.294  23.305  1.00  0.00     0.348 HD
BRANCH  15  18
ATOM     18  C   UNL A   1      32.797  26.297  23.423  1.00  0.00     0.183 C 
ATOM     19  C   UNL A   1      31.560  26.537  24.301  1.00  0.00     0.065 C 
ATOM     20  C   UNL A   1      33.670  27.583  23.402  1.00  0.00     0.065 C 
ATOM     21  C   UNL A   1      31.800  27.121  25.691  1.00  0.00     0.012 C 
ATOM     22  C   UNL A   1      33.704  28.552  24.616  1.00  0.00     0.012 C 
ATOM     23  C   UNL A   1      32.676  28.405  25.786  1.00  0.00    -0.035 C 
ATOM     24  C   UNL A   1      33.385  28.514  27.185  1.00  0.00     0.011 C 
ATOM     25  C   UNL A   1      31.766  29.654  25.812  1.00  0.00     0.011 C 
ENDBRANCH  15  18
ENDBRANCH  14  15
ENDBRANCH  13  14
ENDBRANCH   7  13
ENDBRANCH   4   7
ENDBRANCH   2   3
ENDBRANCH   1   2
BRANCH   1  26
ATOM     26  C   UNL A   1      40.634  22.268  27.739  1.00  0.00     0.023 C 
BRANCH  26  27
ATOM     27  C   UNL A   1      41.902  23.113  27.668  1.00  0.00     0.116 C 
BRANCH  27  28
ATOM     28  N   UNL A   1      42.018  23.868  26.429  1.00  0.00    -0.352 N 
ATOM     29  C   UNL A   1      41.810  25.194  26.154  1.00  0.00     0.251 C 
ATOM     30  H   UNL A   1      42.294  23.332  25.650  1.00  0.00     0.163 HD
ATOM     31  O   UNL A   1      41.819  25.569  24.984  1.00  0.00    -0.269 OA
BRANCH  29  32
ATOM     32  C   UNL A   1      41.561  26.164  27.238  1.00  0.00     0.039 A 
ATOM     33  C   UNL A   1      40.460  25.959  28.075  1.00  0.00     0.014 A 
ATOM     34  C   UNL A   1      42.372  27.288  27.410  1.00  0.00     0.014 A 
ATOM     35  C   UNL A   1      40.210  26.847  29.122  1.00  0.00     0.010 A 
ATOM     36  C   UNL A   1      42.163  28.134  28.496  1.00  0.00     0.010 A 
ATOM     37  C   UNL A   1      41.079  27.923  29.362  1.00  0.00    -0.014 A 
BRANCH  37  38
ATOM     38  C   UNL A   1      40.871  28.834  30.516  1.00  0.00     0.031 A 
ATOM     39  C   UNL A   1      41.703  28.683  31.759  1.00  0.00     0.074 A 
ATOM     40  C   UNL A   1      39.892  29.758  30.460  1.00  0.00     0.049 A 
ATOM     41  N   UNL A   1      41.623  29.336  32.890  1.00  0.00    -0.248 NA
ATOM     42  C   UNL A   1      42.747  27.645  31.738  1.00  0.00     0.031 C 
ATOM     43  C   UNL A   1      38.993  29.970  29.322  1.00  0.00     0.029 A 
ATOM     44  N   UNL A   1      39.481  30.687  31.382  1.00  0.00    -0.354 N 
ATOM     45  C   UNL A   1      42.594  28.783  33.717  1.00  0.00     0.074 A 
ATOM     46  C   UNL A   1      43.214  27.706  32.976  1.00  0.00     0.031 C 
ATOM     47  C   UNL A   1      38.154  30.980  29.605  1.00  0.00     0.029 A 
ATOM     48  C   UNL A   1      38.428  31.461  30.954  1.00  0.00     0.049 A 
ATOM     49  H   UNL A   1      39.901  30.789  32.267  1.00  0.00     0.167 HD
ATOM     50  C   UNL A   1      42.951  29.155  34.969  1.00  0.00     0.037 A 
ATOM     51  C   UNL A   1      37.755  32.444  31.583  1.00  0.00     0.037 A 
ATOM     52  C   UNL A   1      42.340  30.242  35.690  1.00  0.00     0.049 A 
ATOM     53  C   UNL A   1      38.164  32.834  32.978  1.00  0.00     0.074 A 
ATOM     54  C   UNL A   1      42.659  30.730  36.945  1.00  0.00     0.029 A 
ATOM     55  N   UNL A   1      41.286  31.013  35.218  1.00  0.00    -0.354 N 
ATOM     56  N   UNL A   1      39.119  32.333  33.726  1.00  0.00    -0.248 NA
ATOM     57  C   UNL A   1      37.409  33.924  33.612  1.00  0.00     0.031 C 
ATOM     58  C   UNL A   1      41.772  31.767  37.249  1.00  0.00     0.029 A 
ATOM     59  C   UNL A   1      40.932  31.960  36.164  1.00  0.00     0.049 A 
ATOM     60  H   UNL A   1      40.854  30.901  34.341  1.00  0.00     0.167 HD
ATOM     61  C   UNL A   1      39.100  33.067  34.907  1.00  0.00     0.074 A 
ATOM     62  C   UNL A   1      38.045  34.051  34.769  1.00  0.00     0.031 C 
ATOM     63  C   UNL A   1      39.884  32.939  36.006  1.00  0.00     0.037 A 
BRANCH  50  64
ATOM     64  C   UNL A   1      44.057  28.384  35.637  1.00  0.00     0.058 A 
ATOM     65  C   UNL A   1      45.404  28.747  35.484  1.00  0.00     0.135 A 
ATOM     66  C   UNL A   1      43.767  27.290  36.470  1.00  0.00     0.135 A 
ATOM     67  F   UNL A   1      45.740  29.775  34.688  1.00  0.00    -0.206 F 
ATOM     68  C   UNL A   1      46.427  28.037  36.104  1.00  0.00     0.059 A 
ATOM     69  C   UNL A   1      44.772  26.582  37.124  1.00  0.00     0.059 A 
ATOM     70  F   UNL A   1      42.497  26.898  36.654  1.00  0.00    -0.206 F 
ATOM     71  C   UNL A   1      46.100  26.955  36.923  1.00  0.00     0.060 A 
BRANCH  71  72
ATOM     72  S   UNL A   1      47.439  26.048  37.725  1.00  0.00     0.124 S 
ATOM     73  O   UNL A   1      48.500  26.155  36.729  1.00  0.00    -0.237 OA
ATOM     74  O   UNL A   1      47.644  26.812  38.951  1.00  0.00    -0.237 OA
ATOM     75  O   UNL A   1      46.883  24.711  37.908  1.00  0.00    -0.744 OA
ENDBRANCH  71  72
ENDBRANCH  50  64
BRANCH  51  76
ATOM     76  C   UNL A   1      36.643  33.146  30.888  1.00  0.00     0.058 A 
ATOM     77  C   UNL A   1      35.305  32.851  31.191  1.00  0.00     0.135 A 
ATOM     78  C   UNL A   1      36.891  34.132  29.920  1.00  0.00     0.135 A 
ATOM     79  F   UNL A   1      35.017  31.913  32.106  1.00  0.00    -0.206 F 
ATOM     80  C   UNL A   1      34.253  33.497  30.551  1.00  0.00     0.059 A 
ATOM     81  C   UNL A   1      35.855  34.809  29.283  1.00  0.00     0.059 A 
ATOM     82  F   UNL A   1      38.153  34.463  29.605  1.00  0.00    -0.206 F 
ATOM     83  C   UNL A   1      34.538  34.476  29.599  1.00  0.00     0.060 A 
BRANCH  83  84
ATOM     84  S   UNL A   1      33.165  35.341  28.808  1.00  0.00     0.124 S 
ATOM     85  O   UNL A   1      33.869  36.314  27.979  1.00  0.00    -0.237 OA
ATOM     86  O   UNL A   1      32.493  34.261  28.092  1.00  0.00    -0.237 OA
ATOM     87  O   UNL A   1      32.421  35.893  29.935  1.00  0.00    -0.744 OA
ENDBRANCH  83  84
ENDBRANCH  51  76
BRANCH  63  88
ATOM     88  C   UNL A   1      39.659  33.907  37.133  1.00  0.00     0.058 A 
ATOM     89  C   UNL A   1      38.873  33.575  38.246  1.00  0.00     0.135 A 
ATOM     90  C   UNL A   1      40.283  35.165  37.122  1.00  0.00     0.135 A 
ATOM     91  F   UNL A   1      38.248  32.388  38.302  1.00  0.00    -0.206 F 
ATOM     92  C   UNL A   1      38.693  34.465  39.301  1.00  0.00     0.059 A 
ATOM     93  C   UNL A   1      40.142  36.060  38.177  1.00  0.00     0.059 A 
ATOM     94  F   UNL A   1      41.055  35.529  36.085  1.00  0.00    -0.206 F 
ATOM     95  C   UNL A   1      39.335  35.705  39.258  1.00  0.00     0.060 A 
BRANCH  95  96
ATOM     96  S   UNL A   1      39.125  36.836  40.649  1.00  0.00     0.124 S 
ATOM     97  O   UNL A   1      40.511  37.130  41.001  1.00  0.00    -0.237 OA
ATOM     98  O   UNL A   1      38.376  37.935  40.049  1.00  0.00    -0.237 OA
ATOM     99  O   UNL A   1      38.385  36.040  41.624  1.00  0.00    -0.744 OA
ENDBRANCH  95  96
ENDBRANCH  63  88
ENDBRANCH  37  38
ENDBRANCH  29  32
ENDBRANCH  27  28
ENDBRANCH  26  27
ENDBRANCH   1  26
TORSDOF 19
ENDMDL
MODEL 3
REMARK VINA RESULT:     -11.0      6.472     12.013
REMARK SMILES C[NH2+][C@@](C)(CC[N@@H+](C)C1CCC(C)(C)CC1)C(=O)NCCCCNC(=O)c1ccc(-c2c3nc(c(-c4c(F)cc(S(=O)(=O)[O-])cc4F)c4ccc([nH]4)c(-c4c(F)cc(S(=O)(=O)[O-])cc4F)c4nc(c(-c5c(F)cc(S(=O)(=O)[O-])cc5F)c5ccc2[nH]5)C=C4)C=C3)cc1
REMARK SMILES IDX 21 1 20 2 19 3 17 4 18 5 3 7 4 8 2 9 1 10 5 13 6 14 7 15
REMARK SMILES IDX 8 16 9 18 10 19 16 20 11 21 15 22 12 23 13 24 14 25 22 26
REMARK SMILES IDX 23 27 24 28 25 29 26 31 27 32 28 33 92 34 29 35 91 36 30 37
REMARK SMILES IDX 31 38 32 39 85 40 33 41 90 42 84 43 86 44 34 45 89 46 83 47
REMARK SMILES IDX 82 48 35 50 69 51 48 52 68 53 49 54 52 55 67 56 87 57 50 58
REMARK SMILES IDX 51 59 66 61 88 62 53 63 36 64 37 65 46 66 38 67 39 68 45 69
REMARK SMILES IDX 47 70 40 71 41 72 42 73 43 74 44 75 70 76 71 77 80 78 72 79
REMARK SMILES IDX 73 80 79 81 81 82 74 83 75 84 76 85 77 86 78 87 54 88 55 89
REMARK SMILES IDX 64 90 56 91 57 92 63 93 65 94 58 95 59 96 60 97 61 98 62 99
REMARK H PARENT 19 6 2 11 2 12 7 17 24 30 86 49 52 60
REMARK Flexibility Score: inf
ROOT
ATOM      1  C   UNL A   1      37.710  21.982  25.435  1.00  0.00     0.023 C 
ENDROOT
BRANCH   1   2
ATOM      2  C   UNL A   1      36.275  21.462  25.448  1.00  0.00     0.116 C 
BRANCH   2   3
ATOM      3  N   UNL A   1      35.394  22.144  26.363  1.00  0.00    -0.351 N 
ATOM      4  C   UNL A   1      34.261  22.875  26.178  1.00  0.00     0.281 C 
ATOM      5  O   UNL A   1      33.622  23.088  27.196  1.00  0.00    -0.268 OA
ATOM      6  H   UNL A   1      35.664  22.065  27.306  1.00  0.00     0.163 HD
BRANCH   4   7
ATOM      7  C   UNL A   1      33.818  23.474  24.854  1.00  0.00     0.177 C 
ATOM      8  C   UNL A   1      34.856  24.534  24.466  1.00  0.00     0.090 C 
BRANCH   7   9
ATOM      9  N   UNL A   1      33.628  22.581  23.663  1.00  0.00    -0.336 N 
ATOM     10  C   UNL A   1      33.762  23.077  22.313  1.00  0.00     0.331 C 
ATOM     11  H   UNL A   1      34.306  21.825  23.759  1.00  0.00     0.346 HD
ATOM     12  H   UNL A   1      32.634  22.357  23.714  1.00  0.00     0.346 HD
ENDBRANCH   7   9
BRANCH   7  13
ATOM     13  C   UNL A   1      32.339  23.809  25.179  1.00  0.00     0.140 C 
BRANCH  13  14
ATOM     14  C   UNL A   1      31.783  25.038  24.306  1.00  0.00     0.269 C 
BRANCH  14  15
ATOM     15  N   UNL A   1      31.348  26.285  25.013  1.00  0.00    -0.335 N 
ATOM     16  C   UNL A   1      30.216  25.892  25.893  1.00  0.00     0.332 C 
ATOM     17  H   UNL A   1      31.146  26.939  24.257  1.00  0.00     0.348 HD
BRANCH  15  18
ATOM     18  C   UNL A   1      32.351  27.065  25.873  1.00  0.00     0.183 C 
ATOM     19  C   UNL A   1      33.382  28.064  25.326  1.00  0.00     0.065 C 
ATOM     20  C   UNL A   1      31.793  27.591  27.226  1.00  0.00     0.065 C 
ATOM     21  C   UNL A   1      32.964  29.532  25.273  1.00  0.00     0.012 C 
ATOM     22  C   UNL A   1      31.691  29.113  27.516  1.00  0.00     0.012 C 
ATOM     23  C   UNL A   1      32.377  30.156  26.572  1.00  0.00    -0.035 C 
ATOM     24  C   UNL A   1      31.412  31.354  26.249  1.00  0.00     0.011 C 
ATOM     25  C   UNL A   1      33.498  30.877  27.355  1.00  0.00     0.011 C 
ENDBRANCH  15  18
ENDBRANCH  14  15
ENDBRANCH  13  14
ENDBRANCH   7  13
ENDBRANCH   4   7
ENDBRANCH   2   3
ENDBRANCH   1   2
BRANCH   1  26
ATOM     26  C   UNL A   1      37.987  23.300  26.160  1.00  0.00     0.023 C 
BRANCH  26  27
ATOM     27  C   UNL A   1      39.244  23.353  27.023  1.00  0.00     0.116 C 
BRANCH  27  28
ATOM     28  N   UNL A   1      40.441  23.698  26.269  1.00  0.00    -0.352 N 
ATOM     29  C   UNL A   1      41.252  24.800  26.315  1.00  0.00     0.251 C 
ATOM     30  H   UNL A   1      40.715  23.021  25.609  1.00  0.00     0.163 HD
ATOM     31  O   UNL A   1      42.123  24.937  25.459  1.00  0.00    -0.269 OA
BRANCH  29  32
ATOM     32  C   UNL A   1      41.082  25.826  27.363  1.00  0.00     0.039 A 
ATOM     33  C   UNL A   1      40.031  25.681  28.273  1.00  0.00     0.014 A 
ATOM     34  C   UNL A   1      41.916  26.943  27.430  1.00  0.00     0.014 A 
ATOM     35  C   UNL A   1      39.856  26.623  29.288  1.00  0.00     0.010 A 
ATOM     36  C   UNL A   1      41.785  27.845  28.484  1.00  0.00     0.010 A 
ATOM     37  C   UNL A   1      40.752  27.694  29.422  1.00  0.00    -0.014 A 
BRANCH  37  38
ATOM     38  C   UNL A   1      40.626  28.663  30.539  1.00  0.00     0.031 A 
ATOM     39  C   UNL A   1      41.500  28.534  31.756  1.00  0.00     0.074 A 
ATOM     40  C   UNL A   1      39.683  29.624  30.477  1.00  0.00     0.049 A 
ATOM     41  N   UNL A   1      41.490  29.239  32.858  1.00  0.00    -0.248 NA
ATOM     42  C   UNL A   1      42.499  27.453  31.744  1.00  0.00     0.031 C 
ATOM     43  C   UNL A   1      38.749  29.823  29.365  1.00  0.00     0.029 A 
ATOM     44  N   UNL A   1      39.346  30.610  31.371  1.00  0.00    -0.354 N 
ATOM     45  C   UNL A   1      42.470  28.683  33.673  1.00  0.00     0.074 A 
ATOM     46  C   UNL A   1      43.017  27.549  32.960  1.00  0.00     0.031 C 
ATOM     47  C   UNL A   1      37.964  30.878  29.632  1.00  0.00     0.029 A 
ATOM     48  C   UNL A   1      38.309  31.407  30.947  1.00  0.00     0.049 A 
ATOM     49  H   UNL A   1      39.804  30.734  32.233  1.00  0.00     0.167 HD
ATOM     50  C   UNL A   1      42.890  29.095  34.892  1.00  0.00     0.037 A 
ATOM     51  C   UNL A   1      37.701  32.445  31.555  1.00  0.00     0.037 A 
ATOM     52  C   UNL A   1      42.352  30.238  35.584  1.00  0.00     0.049 A 
ATOM     53  C   UNL A   1      38.180  32.878  32.913  1.00  0.00     0.074 A 
ATOM     54  C   UNL A   1      42.740  30.767  36.803  1.00  0.00     0.029 A 
ATOM     55  N   UNL A   1      41.312  31.030  35.118  1.00  0.00    -0.354 N 
ATOM     56  N   UNL A   1      39.143  32.372  33.648  1.00  0.00    -0.248 NA
ATOM     57  C   UNL A   1      37.495  34.026  33.525  1.00  0.00     0.031 C 
ATOM     58  C   UNL A   1      41.907  31.853  37.092  1.00  0.00     0.029 A 
ATOM     59  C   UNL A   1      41.033  32.033  36.031  1.00  0.00     0.049 A 
ATOM     60  H   UNL A   1      40.842  30.898  34.263  1.00  0.00     0.167 HD
ATOM     61  C   UNL A   1      39.199  33.159  34.794  1.00  0.00     0.074 A 
ATOM     62  C   UNL A   1      38.180  34.178  34.650  1.00  0.00     0.031 C 
ATOM     63  C   UNL A   1      40.020  33.046  35.867  1.00  0.00     0.037 A 
BRANCH  50  64
ATOM     64  C   UNL A   1      43.989  28.309  35.554  1.00  0.00     0.058 A 
ATOM     65  C   UNL A   1      43.710  27.240  36.421  1.00  0.00     0.135 A 
ATOM     66  C   UNL A   1      45.338  28.600  35.292  1.00  0.00     0.135 A 
ATOM     67  F   UNL A   1      42.438  26.927  36.719  1.00  0.00    -0.206 F 
ATOM     68  C   UNL A   1      44.725  26.511  37.030  1.00  0.00     0.059 A 
ATOM     69  C   UNL A   1      46.371  27.864  35.868  1.00  0.00     0.059 A 
ATOM     70  F   UNL A   1      45.664  29.610  34.470  1.00  0.00    -0.206 F 
ATOM     71  C   UNL A   1      46.054  26.831  36.747  1.00  0.00     0.060 A 
BRANCH  71  72
ATOM     72  S   UNL A   1      47.359  25.869  37.541  1.00  0.00     0.124 S 
ATOM     73  O   UNL A   1      46.795  24.523  37.497  1.00  0.00    -0.237 OA
ATOM     74  O   UNL A   1      48.500  26.105  36.663  1.00  0.00    -0.237 OA
ATOM     75  O   UNL A   1      47.460  26.464  38.870  1.00  0.00    -0.744 OA
ENDBRANCH  71  72
ENDBRANCH  50  64
BRANCH  51  76
ATOM     76  C   UNL A   1      36.592  33.161  30.870  1.00  0.00     0.058 A 
ATOM     77  C   UNL A   1      35.258  32.957  31.255  1.00  0.00     0.135 A 
ATOM     78  C   UNL A   1      36.840  34.071  29.831  1.00  0.00     0.135 A 
ATOM     79  F   UNL A   1      34.970  32.093  32.240  1.00  0.00    -0.206 F 
ATOM     80  C   UNL A   1      34.209  33.617  30.626  1.00  0.00     0.059 A 
ATOM     81  C   UNL A   1      35.808  34.762  29.202  1.00  0.00     0.059 A 
ATOM     82  F   UNL A   1      38.099  34.315  29.435  1.00  0.00    -0.206 F 
ATOM     83  C   UNL A   1      34.494  34.520  29.600  1.00  0.00     0.060 A 
BRANCH  83  84
ATOM     84  S   UNL A   1      33.127  35.406  28.822  1.00  0.00     0.124 S 
ATOM     85  O   UNL A   1      33.838  36.401  28.027  1.00  0.00    -0.237 OA
ATOM     86  O   UNL A   1      32.461  34.346  28.071  1.00  0.00    -0.237 OA
ATOM     87  O   UNL A   1      32.374  35.927  29.958  1.00  0.00    -0.744 OA
ENDBRANCH  83  84
ENDBRANCH  51  76
BRANCH  63  88
ATOM     88  C   UNL A   1      39.879  34.073  36.956  1.00  0.00     0.058 A 
ATOM     89  C   UNL A   1      40.489  35.333  36.865  1.00  0.00     0.135 A 
ATOM     90  C   UNL A   1      39.080  33.809  38.080  1.00  0.00     0.135 A 
ATOM     91  F   UNL A   1      41.269  35.633  35.815  1.00  0.00    -0.206 F 
ATOM     92  C   UNL A   1      40.329  36.290  37.863  1.00  0.00     0.059 A 
ATOM     93  C   UNL A   1      38.883  34.760  39.076  1.00  0.00     0.059 A 
ATOM     94  F   UNL A   1      38.466  32.622  38.211  1.00  0.00    -0.206 F 
ATOM     95  C   UNL A   1      39.522  35.995  38.964  1.00  0.00     0.060 A 
BRANCH  95  96
ATOM     96  S   UNL A   1      39.293  37.258  40.233  1.00  0.00     0.124 S 
ATOM     97  O   UNL A   1      38.545  36.523  41.248  1.00  0.00    -0.237 OA
ATOM     98  O   UNL A   1      40.667  37.603  40.583  1.00  0.00    -0.237 OA
ATOM     99  O   UNL A   1      38.548  38.305  39.539  1.00  0.00    -0.744 OA
ENDBRANCH  95  96
ENDBRANCH  63  88
ENDBRANCH  37  38
ENDBRANCH  29  32
ENDBRANCH  27  28
ENDBRANCH  26  27
ENDBRANCH   1  26
TORSDOF 19
ENDMDL
