MODEL 1
REMARK VINA RESULT:     -14.3      0.000      0.000
REMARK SMILES Cc1ccc(NC(=O)[C@H]2CC=CC[C@H]2C(=O)NCCCCNC(=O)c2ccc(-c3c4nc(c(-c5c(F)cc(S(=O)(=O)[O-])cc5F)c5ccc([nH]5)c(-c5c(F)cc(S(=O)(=O)[O-])cc5F)c5nc(c(-c6c(F)cc(S(=O)(=O)[O-])cc6F)c6ccc3[nH]6)C=C5)C=C4)cc2)cc1F
REMARK SMILES IDX 20 1 19 2 18 3 17 4 15 5 16 6 14 8 9 9 10 10 11 11 13 12
REMARK SMILES IDX 12 13 7 14 6 15 8 17 5 18 1 19 2 20 3 21 92 22 4 23 91 24
REMARK SMILES IDX 93 25 21 26 22 27 23 28 24 30 25 31 26 32 90 33 27 34 89 35
REMARK SMILES IDX 28 36 29 37 30 38 83 39 31 40 88 41 82 42 84 43 32 44 87 45
REMARK SMILES IDX 81 46 80 47 33 49 67 50 46 51 66 52 47 53 50 54 65 55 85 56
REMARK SMILES IDX 48 57 49 58 64 60 86 61 51 62 34 63 35 64 44 65 36 66 37 67
REMARK SMILES IDX 43 68 45 69 38 70 39 71 40 72 41 73 42 74 68 75 69 76 78 77
REMARK SMILES IDX 70 78 71 79 77 80 79 81 72 82 73 83 74 84 75 85 76 86 52 87
REMARK SMILES IDX 53 88 62 89 54 90 55 91 61 92 63 93 56 94 57 95 58 96 59 97
REMARK SMILES IDX 60 98
REMARK H PARENT 17 7 6 16 22 29 84 48 50 59
REMARK Flexibility Score: inf
ROOT
ATOM      1  C   UNL A   1      33.342  31.029  27.251  1.00  0.00     0.023 C 
ENDROOT
BRANCH   1   2
ATOM      2  C   UNL A   1      32.130  30.163  26.893  1.00  0.00     0.023 C 
BRANCH   2   3
ATOM      3  C   UNL A   1      31.781  29.996  25.412  1.00  0.00     0.116 C 
BRANCH   3   4
ATOM      4  N   UNL A   1      32.884  29.564  24.570  1.00  0.00    -0.356 N 
ATOM      5  C   UNL A   1      33.337  28.340  24.199  1.00  0.00     0.224 C 
ATOM      6  O   UNL A   1      34.181  28.311  23.296  1.00  0.00    -0.275 OA
ATOM      7  H   UNL A   1      33.407  30.309  24.194  1.00  0.00     0.163 HD
BRANCH   5   8
ATOM      8  C   UNL A   1      32.844  27.027  24.799  1.00  0.00     0.095 C 
ATOM      9  C   UNL A   1      31.961  26.095  23.917  1.00  0.00     0.095 C 
ATOM     10  C   UNL A   1      32.154  24.570  24.149  1.00  0.00     0.041 C 
ATOM     11  C   UNL A   1      33.253  24.124  25.050  1.00  0.00    -0.030 C 
ATOM     12  C   UNL A   1      33.967  26.426  25.666  1.00  0.00     0.041 C 
ATOM     13  C   UNL A   1      34.060  24.944  25.722  1.00  0.00    -0.030 C 
BRANCH   9  14
ATOM     14  C   UNL A   1      31.871  26.392  22.412  1.00  0.00     0.228 C 
ATOM     15  N   UNL A   1      31.241  27.476  21.885  1.00  0.00    -0.326 N 
ATOM     16  H   UNL A   1      31.558  27.696  20.979  1.00  0.00     0.169 HD
ATOM     17  O   UNL A   1      32.390  25.634  21.583  1.00  0.00    -0.274 OA
BRANCH  15  18
ATOM     18  C   UNL A   1      30.246  28.352  22.336  1.00  0.00     0.044 A 
ATOM     19  C   UNL A   1      27.261  31.260  23.458  1.00  0.00     0.047 C 
ATOM     20  C   UNL A   1      28.311  30.268  23.068  1.00  0.00    -0.015 A 
ATOM     21  C   UNL A   1      29.507  30.673  22.473  1.00  0.00     0.008 A 
ATOM     22  C   UNL A   1      28.102  28.904  23.278  1.00  0.00     0.128 A 
ATOM     23  C   UNL A   1      30.456  29.718  22.094  1.00  0.00     0.026 A 
ATOM     24  C   UNL A   1      29.053  27.949  22.922  1.00  0.00     0.065 A 
ATOM     25  F   UNL A   1      26.941  28.486  23.806  1.00  0.00    -0.207 F 
ENDBRANCH  15  18
ENDBRANCH   9  14
ENDBRANCH   5   8
ENDBRANCH   3   4
ENDBRANCH   2   3
ENDBRANCH   1   2
BRANCH   1  26
ATOM     26  C   UNL A   1      34.534  30.260  27.788  1.00  0.00     0.116 C 
BRANCH  26  27
ATOM     27  N   UNL A   1      35.491  31.100  28.489  1.00  0.00    -0.352 N 
ATOM     28  C   UNL A   1      36.231  30.525  29.532  1.00  0.00     0.251 C 
ATOM     29  H   UNL A   1      35.615  32.043  28.239  1.00  0.00     0.163 HD
ATOM     30  O   UNL A   1      35.881  30.593  30.686  1.00  0.00    -0.269 OA
BRANCH  28  31
ATOM     31  C   UNL A   1      37.325  29.611  29.073  1.00  0.00     0.039 A 
ATOM     32  C   UNL A   1      38.042  29.919  27.913  1.00  0.00     0.014 A 
ATOM     33  C   UNL A   1      37.787  28.606  29.922  1.00  0.00     0.014 A 
ATOM     34  C   UNL A   1      39.294  29.327  27.693  1.00  0.00     0.010 A 
ATOM     35  C   UNL A   1      39.058  28.099  29.759  1.00  0.00     0.010 A 
ATOM     36  C   UNL A   1      39.837  28.472  28.660  1.00  0.00    -0.014 A 
BRANCH  36  37
ATOM     37  C   UNL A   1      41.208  27.944  28.615  1.00  0.00     0.031 A 
ATOM     38  C   UNL A   1      41.526  26.580  28.134  1.00  0.00     0.074 A 
ATOM     39  C   UNL A   1      42.226  28.700  29.090  1.00  0.00     0.049 A 
ATOM     40  N   UNL A   1      42.446  25.834  28.650  1.00  0.00    -0.248 NA
ATOM     41  C   UNL A   1      40.825  25.951  27.020  1.00  0.00     0.031 C 
ATOM     42  C   UNL A   1      43.652  28.414  29.074  1.00  0.00     0.029 A 
ATOM     43  N   UNL A   1      42.116  29.810  29.927  1.00  0.00    -0.354 N 
ATOM     44  C   UNL A   1      42.631  24.755  27.815  1.00  0.00     0.074 A 
ATOM     45  C   UNL A   1      41.553  24.837  26.851  1.00  0.00     0.031 C 
ATOM     46  C   UNL A   1      44.217  29.069  30.103  1.00  0.00     0.029 A 
ATOM     47  C   UNL A   1      43.149  29.707  30.862  1.00  0.00     0.049 A 
ATOM     48  H   UNL A   1      41.443  30.525  29.871  1.00  0.00     0.167 HD
ATOM     49  C   UNL A   1      43.744  23.972  27.935  1.00  0.00     0.037 A 
ATOM     50  C   UNL A   1      42.914  29.617  32.204  1.00  0.00     0.037 A 
ATOM     51  C   UNL A   1      44.649  24.465  28.968  1.00  0.00     0.049 A 
ATOM     52  C   UNL A   1      43.486  28.364  32.825  1.00  0.00     0.074 A 
ATOM     53  C   UNL A   1      45.771  25.277  28.938  1.00  0.00     0.029 A 
ATOM     54  N   UNL A   1      44.297  24.346  30.298  1.00  0.00    -0.354 N 
ATOM     55  N   UNL A   1      44.106  27.435  32.154  1.00  0.00    -0.248 NA
ATOM     56  C   UNL A   1      43.310  28.010  34.234  1.00  0.00     0.031 C 
ATOM     57  C   UNL A   1      46.074  25.667  30.268  1.00  0.00     0.029 A 
ATOM     58  C   UNL A   1      45.133  25.096  31.104  1.00  0.00     0.049 A 
ATOM     59  H   UNL A   1      43.548  23.799  30.628  1.00  0.00     0.167 HD
ATOM     60  C   UNL A   1      44.332  26.365  32.973  1.00  0.00     0.074 A 
ATOM     61  C   UNL A   1      43.846  26.779  34.274  1.00  0.00     0.031 C 
ATOM     62  C   UNL A   1      44.848  25.191  32.522  1.00  0.00     0.037 A 
BRANCH  49  63
ATOM     63  C   UNL A   1      44.133  22.885  26.959  1.00  0.00     0.058 A 
ATOM     64  C   UNL A   1      43.290  21.772  26.739  1.00  0.00     0.135 A 
ATOM     65  C   UNL A   1      45.320  22.890  26.203  1.00  0.00     0.135 A 
ATOM     66  F   UNL A   1      42.096  21.665  27.336  1.00  0.00    -0.206 F 
ATOM     67  C   UNL A   1      43.640  20.705  25.911  1.00  0.00     0.059 A 
ATOM     68  C   UNL A   1      45.714  21.811  25.400  1.00  0.00     0.059 A 
ATOM     69  F   UNL A   1      46.132  23.958  26.200  1.00  0.00    -0.206 F 
ATOM     70  C   UNL A   1      44.869  20.715  25.270  1.00  0.00     0.060 A 
BRANCH  70  71
ATOM     71  S   UNL A   1      45.344  19.271  24.300  1.00  0.00     0.124 S 
ATOM     72  O   UNL A   1      46.786  19.457  24.157  1.00  0.00    -0.237 OA
ATOM     73  O   UNL A   1      44.929  18.173  25.166  1.00  0.00    -0.237 OA
ATOM     74  O   UNL A   1      44.579  19.424  23.066  1.00  0.00    -0.744 OA
ENDBRANCH  70  71
ENDBRANCH  49  63
BRANCH  50  75
ATOM     75  C   UNL A   1      41.639  30.270  32.632  1.00  0.00     0.058 A 
ATOM     76  C   UNL A   1      40.551  29.436  32.955  1.00  0.00     0.135 A 
ATOM     77  C   UNL A   1      41.647  31.568  33.170  1.00  0.00     0.135 A 
ATOM     78  F   UNL A   1      40.491  28.189  32.459  1.00  0.00    -0.206 F 
ATOM     79  C   UNL A   1      39.610  29.806  33.911  1.00  0.00     0.059 A 
ATOM     80  C   UNL A   1      40.712  31.959  34.130  1.00  0.00     0.059 A 
ATOM     81  F   UNL A   1      42.663  32.402  32.903  1.00  0.00    -0.206 F 
ATOM     82  C   UNL A   1      39.739  31.045  34.541  1.00  0.00     0.060 A 
BRANCH  82  83
ATOM     83  S   UNL A   1      38.718  31.365  36.001  1.00  0.00     0.124 S 
ATOM     84  O   UNL A   1      39.558  32.280  36.765  1.00  0.00    -0.237 OA
ATOM     85  O   UNL A   1      37.516  31.954  35.411  1.00  0.00    -0.237 OA
ATOM     86  O   UNL A   1      38.531  30.042  36.582  1.00  0.00    -0.744 OA
ENDBRANCH  82  83
ENDBRANCH  50  75
BRANCH  62  87
ATOM     87  C   UNL A   1      45.122  24.038  33.427  1.00  0.00     0.058 A 
ATOM     88  C   UNL A   1      46.364  23.888  34.063  1.00  0.00     0.135 A 
ATOM     89  C   UNL A   1      44.192  22.994  33.587  1.00  0.00     0.135 A 
ATOM     90  F   UNL A   1      47.316  24.827  33.930  1.00  0.00    -0.206 F 
ATOM     91  C   UNL A   1      46.659  22.774  34.843  1.00  0.00     0.059 A 
ATOM     92  C   UNL A   1      44.479  21.855  34.330  1.00  0.00     0.059 A 
ATOM     93  F   UNL A   1      42.968  23.072  33.041  1.00  0.00    -0.206 F 
ATOM     94  C   UNL A   1      45.709  21.763  34.972  1.00  0.00     0.060 A 
BRANCH  94  95
ATOM     95  S   UNL A   1      46.091  20.306  35.964  1.00  0.00     0.124 S 
ATOM     96  O   UNL A   1      45.685  20.713  37.306  1.00  0.00    -0.237 OA
ATOM     97  O   UNL A   1      45.248  19.298  35.330  1.00  0.00    -0.237 OA
ATOM     98  O   UNL A   1      47.528  20.142  35.774  1.00  0.00    -0.744 OA
ENDBRANCH  94  95
ENDBRANCH  62  87
ENDBRANCH  36  37
ENDBRANCH  28  31
ENDBRANCH  26  27
ENDBRANCH   1  26
TORSDOF 16
ENDMDL
MODEL 2
REMARK VINA RESULT:     -14.2      5.583     11.884
REMARK SMILES Cc1ccc(NC(=O)[C@H]2CC=CC[C@H]2C(=O)NCCCCNC(=O)c2ccc(-c3c4nc(c(-c5c(F)cc(S(=O)(=O)[O-])cc5F)c5ccc([nH]5)c(-c5c(F)cc(S(=O)(=O)[O-])cc5F)c5nc(c(-c6c(F)cc(S(=O)(=O)[O-])cc6F)c6ccc3[nH]6)C=C5)C=C4)cc2)cc1F
REMARK SMILES IDX 20 1 19 2 18 3 17 4 15 5 16 6 14 8 9 9 10 10 11 11 13 12
REMARK SMILES IDX 12 13 7 14 6 15 8 17 5 18 1 19 2 20 3 21 92 22 4 23 91 24
REMARK SMILES IDX 93 25 21 26 22 27 23 28 24 30 25 31 26 32 90 33 27 34 89 35
REMARK SMILES IDX 28 36 29 37 30 38 83 39 31 40 88 41 82 42 84 43 32 44 87 45
REMARK SMILES IDX 81 46 80 47 33 49 67 50 46 51 66 52 47 53 50 54 65 55 85 56
REMARK SMILES IDX 48 57 49 58 64 60 86 61 51 62 34 63 35 64 44 65 36 66 37 67
REMARK SMILES IDX 43 68 45 69 38 70 39 71 40 72 41 73 42 74 68 75 69 76 78 77
REMARK SMILES IDX 70 78 71 79 77 80 79 81 72 82 73 83 74 84 75 85 76 86 52 87
REMARK SMILES IDX 53 88 62 89 54 90 55 91 61 92 63 93 56 94 57 95 58 96 59 97
REMARK SMILES IDX 60 98
REMARK H PARENT 17 7 6 16 22 29 84 48 50 59
REMARK Flexibility Score: inf
ROOT
ATOM      1  C   UNL A   1      38.550  21.789  25.736  1.00  0.00     0.023 C 
ENDROOT
BRANCH   1   2
ATOM      2  C   UNL A   1      37.397  21.550  24.756  1.00  0.00     0.023 C 
BRANCH   2   3
ATOM      3  C   UNL A   1      36.146  20.841  25.282  1.00  0.00     0.116 C 
BRANCH   3   4
ATOM      4  N   UNL A   1      35.477  21.518  26.380  1.00  0.00    -0.356 N 
ATOM      5  C   UNL A   1      34.579  22.534  26.427  1.00  0.00     0.224 C 
ATOM      6  O   UNL A   1      34.037  22.746  27.518  1.00  0.00    -0.275 OA
ATOM      7  H   UNL A   1      35.724  21.169  27.267  1.00  0.00     0.163 HD
BRANCH   5   8
ATOM      8  C   UNL A   1      34.187  23.387  25.224  1.00  0.00     0.095 C 
ATOM      9  C   UNL A   1      32.758  23.216  24.629  1.00  0.00     0.095 C 
ATOM     10  C   UNL A   1      32.111  24.507  24.054  1.00  0.00     0.041 C 
ATOM     11  C   UNL A   1      32.816  25.804  24.257  1.00  0.00    -0.030 C 
ATOM     12  C   UNL A   1      34.782  24.797  25.402  1.00  0.00     0.041 C 
ATOM     13  C   UNL A   1      33.998  25.936  24.856  1.00  0.00    -0.030 C 
BRANCH   9  14
ATOM     14  C   UNL A   1      31.723  22.426  25.444  1.00  0.00     0.228 C 
ATOM     15  N   UNL A   1      31.743  21.075  25.599  1.00  0.00    -0.326 N 
ATOM     16  H   UNL A   1      31.245  20.776  26.394  1.00  0.00     0.169 HD
ATOM     17  O   UNL A   1      30.794  23.005  26.022  1.00  0.00    -0.274 OA
BRANCH  15  18
ATOM     18  C   UNL A   1      32.310  20.011  24.886  1.00  0.00     0.044 A 
ATOM     19  C   UNL A   1      34.006  16.534  22.973  1.00  0.00     0.047 C 
ATOM     20  C   UNL A   1      33.432  17.736  23.654  1.00  0.00    -0.015 A 
ATOM     21  C   UNL A   1      33.571  17.927  25.029  1.00  0.00     0.008 A 
ATOM     22  C   UNL A   1      32.723  18.689  22.919  1.00  0.00     0.128 A 
ATOM     23  C   UNL A   1      32.997  19.047  25.640  1.00  0.00     0.026 A 
ATOM     24  C   UNL A   1      32.167  19.818  23.519  1.00  0.00     0.065 A 
ATOM     25  F   UNL A   1      32.536  18.505  21.604  1.00  0.00    -0.207 F 
ENDBRANCH  15  18
ENDBRANCH   9  14
ENDBRANCH   5   8
ENDBRANCH   3   4
ENDBRANCH   2   3
ENDBRANCH   1   2
BRANCH   1  26
ATOM     26  C   UNL A   1      38.847  23.249  26.022  1.00  0.00     0.116 C 
BRANCH  26  27
ATOM     27  N   UNL A   1      40.139  23.459  26.653  1.00  0.00    -0.352 N 
ATOM     28  C   UNL A   1      40.794  24.677  26.422  1.00  0.00     0.251 C 
ATOM     29  H   UNL A   1      40.541  22.768  27.226  1.00  0.00     0.163 HD
ATOM     30  O   UNL A   1      41.611  24.814  25.544  1.00  0.00    -0.269 OA
BRANCH  28  31
ATOM     31  C   UNL A   1      40.208  25.837  27.166  1.00  0.00     0.039 A 
ATOM     32  C   UNL A   1      39.618  25.629  28.416  1.00  0.00     0.014 A 
ATOM     33  C   UNL A   1      40.469  27.137  26.736  1.00  0.00     0.014 A 
ATOM     34  C   UNL A   1      39.436  26.713  29.288  1.00  0.00     0.010 A 
ATOM     35  C   UNL A   1      40.384  28.186  27.625  1.00  0.00     0.010 A 
ATOM     36  C   UNL A   1      39.893  27.985  28.919  1.00  0.00    -0.014 A 
BRANCH  36  37
ATOM     37  C   UNL A   1      39.918  29.144  29.821  1.00  0.00     0.031 A 
ATOM     38  C   UNL A   1      38.840  30.158  29.851  1.00  0.00     0.074 A 
ATOM     39  C   UNL A   1      40.994  29.342  30.618  1.00  0.00     0.049 A 
ATOM     40  N   UNL A   1      39.047  31.421  30.031  1.00  0.00    -0.248 NA
ATOM     41  C   UNL A   1      37.430  29.820  29.683  1.00  0.00     0.031 C 
ATOM     42  C   UNL A   1      41.195  30.366  31.631  1.00  0.00     0.029 A 
ATOM     43  N   UNL A   1      42.254  28.762  30.472  1.00  0.00    -0.354 N 
ATOM     44  C   UNL A   1      37.827  32.022  30.245  1.00  0.00     0.074 A 
ATOM     45  C   UNL A   1      36.846  30.998  29.950  1.00  0.00     0.031 C 
ATOM     46  C   UNL A   1      42.518  30.577  31.748  1.00  0.00     0.029 A 
ATOM     47  C   UNL A   1      43.187  29.765  30.740  1.00  0.00     0.049 A 
ATOM     48  H   UNL A   1      42.447  27.828  30.228  1.00  0.00     0.167 HD
ATOM     49  C   UNL A   1      37.760  33.281  30.772  1.00  0.00     0.037 A 
ATOM     50  C   UNL A   1      44.104  30.178  29.814  1.00  0.00     0.037 A 
ATOM     51  C   UNL A   1      39.082  33.807  31.094  1.00  0.00     0.049 A 
ATOM     52  C   UNL A   1      44.004  31.650  29.495  1.00  0.00     0.074 A 
ATOM     53  C   UNL A   1      39.831  33.844  32.259  1.00  0.00     0.029 A 
ATOM     54  N   UNL A   1      39.940  34.169  30.075  1.00  0.00    -0.354 N 
ATOM     55  N   UNL A   1      43.114  32.451  30.010  1.00  0.00    -0.248 NA
ATOM     56  C   UNL A   1      44.833  32.315  28.488  1.00  0.00     0.031 C 
ATOM     57  C   UNL A   1      41.161  34.207  31.922  1.00  0.00     0.029 A 
ATOM     58  C   UNL A   1      41.220  34.387  30.553  1.00  0.00     0.049 A 
ATOM     59  H   UNL A   1      39.676  34.260  29.130  1.00  0.00     0.167 HD
ATOM     60  C   UNL A   1      43.180  33.661  29.380  1.00  0.00     0.074 A 
ATOM     61  C   UNL A   1      44.290  33.543  28.456  1.00  0.00     0.031 C 
ATOM     62  C   UNL A   1      42.288  34.661  29.613  1.00  0.00     0.037 A 
BRANCH  49  63
ATOM     63  C   UNL A   1      36.482  33.955  31.214  1.00  0.00     0.058 A 
ATOM     64  C   UNL A   1      35.447  34.227  30.291  1.00  0.00     0.135 A 
ATOM     65  C   UNL A   1      36.214  34.347  32.540  1.00  0.00     0.135 A 
ATOM     66  F   UNL A   1      35.532  33.850  29.009  1.00  0.00    -0.206 F 
ATOM     67  C   UNL A   1      34.285  34.918  30.633  1.00  0.00     0.059 A 
ATOM     68  C   UNL A   1      35.075  35.080  32.900  1.00  0.00     0.059 A 
ATOM     69  F   UNL A   1      37.042  34.009  33.540  1.00  0.00    -0.206 F 
ATOM     70  C   UNL A   1      34.119  35.371  31.933  1.00  0.00     0.060 A 
BRANCH  70  71
ATOM     71  S   UNL A   1      32.662  36.361  32.319  1.00  0.00     0.124 S 
ATOM     72  O   UNL A   1      33.082  37.068  33.527  1.00  0.00    -0.237 OA
ATOM     73  O   UNL A   1      32.526  37.182  31.121  1.00  0.00    -0.237 OA
ATOM     74  O   UNL A   1      31.617  35.363  32.521  1.00  0.00    -0.744 OA
ENDBRANCH  70  71
ENDBRANCH  49  63
BRANCH  50  75
ATOM     75  C   UNL A   1      44.472  29.118  28.827  1.00  0.00     0.058 A 
ATOM     76  C   UNL A   1      43.955  29.230  27.521  1.00  0.00     0.135 A 
ATOM     77  C   UNL A   1      45.636  28.352  29.003  1.00  0.00     0.135 A 
ATOM     78  F   UNL A   1      42.838  29.943  27.300  1.00  0.00    -0.206 F 
ATOM     79  C   UNL A   1      44.658  28.757  26.418  1.00  0.00     0.059 A 
ATOM     80  C   UNL A   1      46.356  27.868  27.908  1.00  0.00     0.059 A 
ATOM     81  F   UNL A   1      46.177  28.219  30.222  1.00  0.00    -0.206 F 
ATOM     82  C   UNL A   1      45.891  28.136  26.619  1.00  0.00     0.060 A 
BRANCH  82  83
ATOM     83  S   UNL A   1      46.936  27.833  25.171  1.00  0.00     0.124 S 
ATOM     84  O   UNL A   1      46.439  26.546  24.702  1.00  0.00    -0.237 OA
ATOM     85  O   UNL A   1      46.619  28.981  24.320  1.00  0.00    -0.237 OA
ATOM     86  O   UNL A   1      48.286  27.831  25.720  1.00  0.00    -0.744 OA
ENDBRANCH  82  83
ENDBRANCH  50  75
BRANCH  62  87
ATOM     87  C   UNL A   1      42.386  35.991  28.946  1.00  0.00     0.058 A 
ATOM     88  C   UNL A   1      41.781  36.230  27.703  1.00  0.00     0.135 A 
ATOM     89  C   UNL A   1      43.185  37.020  29.478  1.00  0.00     0.135 A 
ATOM     90  F   UNL A   1      41.030  35.284  27.116  1.00  0.00    -0.206 F 
ATOM     91  C   UNL A   1      41.935  37.441  27.033  1.00  0.00     0.059 A 
ATOM     92  C   UNL A   1      43.385  38.222  28.808  1.00  0.00     0.059 A 
ATOM     93  F   UNL A   1      43.774  36.886  30.677  1.00  0.00    -0.206 F 
ATOM     94  C   UNL A   1      42.738  38.432  27.595  1.00  0.00     0.060 A 
BRANCH  94  95
ATOM     95  S   UNL A   1      42.961  39.995  26.724  1.00  0.00     0.124 S 
ATOM     96  O   UNL A   1      41.695  40.152  26.013  1.00  0.00    -0.237 OA
ATOM     97  O   UNL A   1      43.178  40.914  27.836  1.00  0.00    -0.237 OA
ATOM     98  O   UNL A   1      44.121  39.741  25.876  1.00  0.00    -0.744 OA
ENDBRANCH  94  95
ENDBRANCH  62  87
ENDBRANCH  36  37
ENDBRANCH  28  31
ENDBRANCH  26  27
ENDBRANCH   1  26
TORSDOF 16
ENDMDL
MODEL 3
REMARK VINA RESULT:     -14.0      1.364      2.999
REMARK SMILES Cc1ccc(NC(=O)[C@H]2CC=CC[C@H]2C(=O)NCCCCNC(=O)c2ccc(-c3c4nc(c(-c5c(F)cc(S(=O)(=O)[O-])cc5F)c5ccc([nH]5)c(-c5c(F)cc(S(=O)(=O)[O-])cc5F)c5nc(c(-c6c(F)cc(S(=O)(=O)[O-])cc6F)c6ccc3[nH]6)C=C5)C=C4)cc2)cc1F
REMARK SMILES IDX 20 1 19 2 18 3 17 4 15 5 16 6 14 8 9 9 10 10 11 11 13 12
REMARK SMILES IDX 12 13 7 14 6 15 8 17 5 18 1 19 2 20 3 21 92 22 4 23 91 24
REMARK SMILES IDX 93 25 21 26 22 27 23 28 24 30 25 31 26 32 90 33 27 34 89 35
REMARK SMILES IDX 28 36 29 37 30 38 83 39 31 40 88 41 82 42 84 43 32 44 87 45
REMARK SMILES IDX 81 46 80 47 33 49 67 50 46 51 66 52 47 53 50 54 65 55 85 56
REMARK SMILES IDX 48 57 49 58 64 60 86 61 51 62 34 63 35 64 44 65 36 66 37 67
REMARK SMILES IDX 43 68 45 69 38 70 39 71 40 72 41 73 42 74 68 75 69 76 78 77
REMARK SMILES IDX 70 78 71 79 77 80 79 81 72 82 73 83 74 84 75 85 76 86 52 87
REMARK SMILES IDX 53 88 62 89 54 90 55 91 61 92 63 93 56 94 57 95 58 96 59 97
REMARK SMILES IDX 60 98
REMARK H PARENT 17 7 6 16 22 29 84 48 50 59
REMARK Flexibility Score: inf
ROOT
ATOM      1  C   UNL A   1      33.268  31.140  27.316  1.00  0.00     0.023 C 
ENDROOT
BRANCH   1   2
ATOM      2  C   UNL A   1      32.038  30.303  26.950  1.00  0.00     0.023 C 
BRANCH   2   3
ATOM      3  C   UNL A   1      31.747  30.070  25.466  1.00  0.00     0.116 C 
BRANCH   3   4
ATOM      4  N   UNL A   1      32.778  29.338  24.749  1.00  0.00    -0.356 N 
ATOM      5  C   UNL A   1      32.733  28.414  23.757  1.00  0.00     0.224 C 
ATOM      6  O   UNL A   1      33.806  28.131  23.212  1.00  0.00    -0.275 OA
ATOM      7  H   UNL A   1      33.693  29.558  25.042  1.00  0.00     0.163 HD
BRANCH   5   8
ATOM      8  C   UNL A   1      31.452  27.746  23.266  1.00  0.00     0.095 C 
ATOM      9  C   UNL A   1      30.847  26.589  24.115  1.00  0.00     0.095 C 
ATOM     10  C   UNL A   1      29.295  26.498  24.120  1.00  0.00     0.041 C 
ATOM     11  C   UNL A   1      28.520  27.590  23.468  1.00  0.00    -0.030 C 
ATOM     12  C   UNL A   1      30.527  28.826  22.672  1.00  0.00     0.041 C 
ATOM     13  C   UNL A   1      29.063  28.624  22.828  1.00  0.00    -0.030 C 
BRANCH   9  14
ATOM     14  C   UNL A   1      31.392  26.369  25.535  1.00  0.00     0.228 C 
ATOM     15  N   UNL A   1      32.630  25.875  25.809  1.00  0.00    -0.326 N 
ATOM     16  H   UNL A   1      32.941  26.113  26.712  1.00  0.00     0.169 HD
ATOM     17  O   UNL A   1      30.708  26.647  26.528  1.00  0.00    -0.274 OA
BRANCH  15  18
ATOM     18  C   UNL A   1      33.561  25.105  25.102  1.00  0.00     0.044 A 
ATOM     19  C   UNL A   1      36.556  22.625  23.229  1.00  0.00     0.047 C 
ATOM     20  C   UNL A   1      35.533  23.494  23.891  1.00  0.00    -0.015 A 
ATOM     21  C   UNL A   1      35.788  24.109  25.118  1.00  0.00     0.008 A 
ATOM     22  C   UNL A   1      34.287  23.692  23.295  1.00  0.00     0.128 A 
ATOM     23  C   UNL A   1      34.801  24.892  25.724  1.00  0.00     0.026 A 
ATOM     24  C   UNL A   1      33.306  24.488  23.884  1.00  0.00     0.065 A 
ATOM     25  F   UNL A   1      34.001  23.074  22.139  1.00  0.00    -0.207 F 
ENDBRANCH  15  18
ENDBRANCH   9  14
ENDBRANCH   5   8
ENDBRANCH   3   4
ENDBRANCH   2   3
ENDBRANCH   1   2
BRANCH   1  26
ATOM     26  C   UNL A   1      34.399  30.358  27.957  1.00  0.00     0.116 C 
BRANCH  26  27
ATOM     27  N   UNL A   1      35.388  31.204  28.604  1.00  0.00    -0.352 N 
ATOM     28  C   UNL A   1      36.138  30.656  29.654  1.00  0.00     0.251 C 
ATOM     29  H   UNL A   1      35.527  32.134  28.313  1.00  0.00     0.163 HD
ATOM     30  O   UNL A   1      35.814  30.777  30.811  1.00  0.00    -0.269 OA
BRANCH  28  31
ATOM     31  C   UNL A   1      37.202  29.699  29.210  1.00  0.00     0.039 A 
ATOM     32  C   UNL A   1      37.856  29.910  27.993  1.00  0.00     0.014 A 
ATOM     33  C   UNL A   1      37.707  28.761  30.109  1.00  0.00     0.014 A 
ATOM     34  C   UNL A   1      39.093  29.293  27.752  1.00  0.00     0.010 A 
ATOM     35  C   UNL A   1      38.965  28.233  29.919  1.00  0.00     0.010 A 
ATOM     36  C   UNL A   1      39.685  28.512  28.753  1.00  0.00    -0.014 A 
BRANCH  36  37
ATOM     37  C   UNL A   1      41.049  27.972  28.677  1.00  0.00     0.031 A 
ATOM     38  C   UNL A   1      41.343  26.605  28.191  1.00  0.00     0.074 A 
ATOM     39  C   UNL A   1      42.085  28.720  29.124  1.00  0.00     0.049 A 
ATOM     40  N   UNL A   1      42.269  25.851  28.686  1.00  0.00    -0.248 NA
ATOM     41  C   UNL A   1      40.610  25.979  27.096  1.00  0.00     0.031 C 
ATOM     42  C   UNL A   1      43.508  28.421  29.074  1.00  0.00     0.029 A 
ATOM     43  N   UNL A   1      42.005  29.833  29.961  1.00  0.00    -0.354 N 
ATOM     44  C   UNL A   1      42.424  24.769  27.849  1.00  0.00     0.074 A 
ATOM     45  C   UNL A   1      41.323  24.858  26.912  1.00  0.00     0.031 C 
ATOM     46  C   UNL A   1      44.103  29.073  30.088  1.00  0.00     0.029 A 
ATOM     47  C   UNL A   1      43.060  29.723  30.871  1.00  0.00     0.049 A 
ATOM     48  H   UNL A   1      41.337  30.554  29.919  1.00  0.00     0.167 HD
ATOM     49  C   UNL A   1      43.533  23.976  27.944  1.00  0.00     0.037 A 
ATOM     50  C   UNL A   1      42.857  29.638  32.219  1.00  0.00     0.037 A 
ATOM     51  C   UNL A   1      44.466  24.463  28.954  1.00  0.00     0.049 A 
ATOM     52  C   UNL A   1      43.433  28.381  32.828  1.00  0.00     0.074 A 
ATOM     53  C   UNL A   1      45.595  25.265  28.894  1.00  0.00     0.029 A 
ATOM     54  N   UNL A   1      44.146  24.351  30.292  1.00  0.00    -0.354 N 
ATOM     55  N   UNL A   1      44.028  27.446  32.145  1.00  0.00    -0.248 NA
ATOM     56  C   UNL A   1      43.288  28.032  34.242  1.00  0.00     0.031 C 
ATOM     57  C   UNL A   1      45.934  25.656  30.216  1.00  0.00     0.029 A 
ATOM     58  C   UNL A   1      45.008  25.095  31.076  1.00  0.00     0.049 A 
ATOM     59  H   UNL A   1      43.401  23.811  30.642  1.00  0.00     0.167 HD
ATOM     60  C   UNL A   1      44.264  26.375  32.961  1.00  0.00     0.074 A 
ATOM     61  C   UNL A   1      43.814  26.796  34.272  1.00  0.00     0.031 C 
ATOM     62  C   UNL A   1      44.759  25.195  32.500  1.00  0.00     0.037 A 
BRANCH  49  63
ATOM     63  C   UNL A   1      43.887  22.883  26.962  1.00  0.00     0.058 A 
ATOM     64  C   UNL A   1      43.087  21.725  26.845  1.00  0.00     0.135 A 
ATOM     65  C   UNL A   1      45.000  22.926  26.101  1.00  0.00     0.135 A 
ATOM     66  F   UNL A   1      41.958  21.575  27.550  1.00  0.00    -0.206 F 
ATOM     67  C   UNL A   1      43.415  20.655  26.013  1.00  0.00     0.059 A 
ATOM     68  C   UNL A   1      45.376  21.847  25.290  1.00  0.00     0.059 A 
ATOM     69  F   UNL A   1      45.752  24.033  25.999  1.00  0.00    -0.206 F 
ATOM     70  C   UNL A   1      44.580  20.708  25.262  1.00  0.00     0.060 A 
BRANCH  70  71
ATOM     71  S   UNL A   1      45.040  19.263  24.286  1.00  0.00     0.124 S 
ATOM     72  O   UNL A   1      44.577  19.634  22.951  1.00  0.00    -0.237 OA
ATOM     73  O   UNL A   1      46.487  19.221  24.466  1.00  0.00    -0.237 OA
ATOM     74  O   UNL A   1      44.295  18.177  24.916  1.00  0.00    -0.744 OA
ENDBRANCH  70  71
ENDBRANCH  49  63
BRANCH  50  75
ATOM     75  C   UNL A   1      41.599  30.303  32.676  1.00  0.00     0.058 A 
ATOM     76  C   UNL A   1      40.491  29.483  32.965  1.00  0.00     0.135 A 
ATOM     77  C   UNL A   1      41.639  31.576  33.268  1.00  0.00     0.135 A 
ATOM     78  F   UNL A   1      40.399  28.260  32.417  1.00  0.00    -0.206 F 
ATOM     79  C   UNL A   1      39.560  29.836  33.937  1.00  0.00     0.059 A 
ATOM     80  C   UNL A   1      40.714  31.949  34.246  1.00  0.00     0.059 A 
ATOM     81  F   UNL A   1      42.675  32.396  33.035  1.00  0.00    -0.206 F 
ATOM     82  C   UNL A   1      39.720  31.043  34.619  1.00  0.00     0.060 A 
BRANCH  82  83
ATOM     83  S   UNL A   1      38.708  31.326  36.093  1.00  0.00     0.124 S 
ATOM     84  O   UNL A   1      38.433  29.966  36.539  1.00  0.00    -0.237 OA
ATOM     85  O   UNL A   1      39.614  32.099  36.943  1.00  0.00    -0.237 OA
ATOM     86  O   UNL A   1      37.563  32.070  35.582  1.00  0.00    -0.744 OA
ENDBRANCH  82  83
ENDBRANCH  50  75
BRANCH  62  87
ATOM     87  C   UNL A   1      45.045  24.042  33.401  1.00  0.00     0.058 A 
ATOM     88  C   UNL A   1      46.282  23.911  34.049  1.00  0.00     0.135 A 
ATOM     89  C   UNL A   1      44.132  22.981  33.545  1.00  0.00     0.135 A 
ATOM     90  F   UNL A   1      47.218  24.868  33.931  1.00  0.00    -0.206 F 
ATOM     91  C   UNL A   1      46.590  22.798  34.826  1.00  0.00     0.059 A 
ATOM     92  C   UNL A   1      44.432  21.842  34.284  1.00  0.00     0.059 A 
ATOM     93  F   UNL A   1      42.912  23.039  32.986  1.00  0.00    -0.206 F 
ATOM     94  C   UNL A   1      45.657  21.769  34.939  1.00  0.00     0.060 A 
BRANCH  94  95
ATOM     95  S   UNL A   1      46.055  20.313  35.926  1.00  0.00     0.124 S 
ATOM     96  O   UNL A   1      45.682  20.726  37.276  1.00  0.00    -0.237 OA
ATOM     97  O   UNL A   1      45.194  19.307  35.314  1.00  0.00    -0.237 OA
ATOM     98  O   UNL A   1      47.487  20.142  35.703  1.00  0.00    -0.744 OA
ENDBRANCH  94  95
ENDBRANCH  62  87
ENDBRANCH  36  37
ENDBRANCH  28  31
ENDBRANCH  26  27
ENDBRANCH   1  26
TORSDOF 16
ENDMDL
