MODEL 1
REMARK VINA RESULT:     -11.8      0.000      0.000
REMARK SMILES CCN(C(=O)Cc1c(C(=O)NCCCCNC(=O)c2ccc(-c3c4nc(c(-c5c(F)cc(S(=O)(=O)[O-])cc5F)c5ccc([nH]5)c(-c5c(F)cc(S(=O)(=O)[O-])cc5F)c5nc(c(-c6c(F)cc(S(=O)(=O)[O-])cc6F)c6ccc3[nH]6)C=C5)C=C4)cc2)[nH]c2ccc(Cl)cc12)c1ccc(C)c(C)c1
REMARK SMILES IDX 13 1 12 2 11 3 9 4 10 5 8 7 7 8 92 9 85 10 86 11 91 12 87 14
REMARK SMILES IDX 89 15 88 16 90 17 6 18 4 19 5 20 3 21 2 22 1 23 93 24 94 25
REMARK SMILES IDX 100 26 95 27 98 28 96 29 99 30 97 31 14 32 15 33 16 34 17 35
REMARK SMILES IDX 18 37 19 38 20 39 84 40 21 41 83 42 22 43 23 44 24 45 77 46
REMARK SMILES IDX 25 47 82 48 76 49 78 50 26 51 81 52 75 53 74 54 27 56 61 57
REMARK SMILES IDX 40 58 60 59 41 60 44 61 59 62 79 63 42 64 43 65 58 67 80 68
REMARK SMILES IDX 45 69 28 70 29 71 38 72 30 73 31 74 37 75 39 76 32 77 33 78
REMARK SMILES IDX 34 79 35 80 36 81 62 82 63 83 72 84 64 85 65 86 71 87 73 88
REMARK SMILES IDX 66 89 67 90 68 91 69 92 70 93 46 94 47 95 56 96 48 97 49 98
REMARK SMILES IDX 55 99 57 100 50 101 51 102 52 103 53 104 54 105
REMARK H PARENT 11 6 85 13 16 36 78 55 44 66
REMARK Flexibility Score: inf
ROOT
ATOM      1  C   UNL A   1      34.729  30.819  27.934  1.00  0.00     0.023 C 
ENDROOT
BRANCH   1   2
ATOM      2  C   UNL A   1      34.379  29.488  27.265  1.00  0.00     0.116 C 
BRANCH   2   3
ATOM      3  N   UNL A   1      33.102  28.986  27.709  1.00  0.00    -0.351 N 
ATOM      4  C   UNL A   1      32.239  28.029  27.260  1.00  0.00     0.268 C 
ATOM      5  O   UNL A   1      31.328  27.767  28.054  1.00  0.00    -0.268 OA
ATOM      6  H   UNL A   1      32.778  29.438  28.522  1.00  0.00     0.163 HD
BRANCH   4   7
ATOM      7  C   UNL A   1      32.299  27.300  25.995  1.00  0.00     0.109 A 
ATOM      8  C   UNL A   1      33.039  26.286  25.360  1.00  0.00    -0.000 A 
ATOM      9  C   UNL A   1      32.616  26.255  23.972  1.00  0.00     0.005 A 
ATOM     10  N   UNL A   1      31.391  27.740  25.042  1.00  0.00    -0.350 N 
ATOM     11  C   UNL A   1      31.548  27.130  23.833  1.00  0.00     0.046 A 
ATOM     12  C   UNL A   1      33.041  25.577  22.808  1.00  0.00     0.031 A 
ATOM     13  H   UNL A   1      30.704  28.422  25.221  1.00  0.00     0.167 HD
ATOM     14  C   UNL A   1      30.845  27.316  22.636  1.00  0.00     0.028 A 
ATOM     15  C   UNL A   1      32.361  25.752  21.600  1.00  0.00     0.041 A 
ATOM     16  C   UNL A   1      31.266  26.598  21.515  1.00  0.00     0.022 A 
ATOM     17  Cl  UNL A   1      32.899  24.899  20.202  1.00  0.00    -0.084 Cl
BRANCH   8  18
ATOM     18  C   UNL A   1      34.099  25.410  25.959  1.00  0.00     0.139 C 
BRANCH  18  19
ATOM     19  C   UNL A   1      33.753  23.965  26.248  1.00  0.00     0.231 C 
ATOM     20  O   UNL A   1      32.737  23.721  26.910  1.00  0.00    -0.274 OA
BRANCH  19  21
ATOM     21  N   UNL A   1      34.568  22.958  25.721  1.00  0.00    -0.312 N 
BRANCH  21  22
ATOM     22  C   UNL A   1      36.039  22.978  25.655  1.00  0.00     0.122 C 
ATOM     23  C   UNL A   1      36.624  23.203  24.264  1.00  0.00     0.028 C 
ENDBRANCH  21  22
BRANCH  21  24
ATOM     24  C   UNL A   1      33.902  21.853  25.129  1.00  0.00     0.044 A 
ATOM     25  C   UNL A   1      34.130  20.565  25.606  1.00  0.00     0.026 A 
ATOM     26  C   UNL A   1      33.138  22.043  23.975  1.00  0.00     0.030 A 
ATOM     27  C   UNL A   1      33.583  19.473  24.934  1.00  0.00     0.006 A 
ATOM     28  C   UNL A   1      32.589  20.952  23.283  1.00  0.00    -0.046 A 
ATOM     29  C   UNL A   1      32.809  19.650  23.771  1.00  0.00    -0.048 A 
ATOM     30  C   UNL A   1      31.824  21.220  22.018  1.00  0.00     0.044 C 
ATOM     31  C   UNL A   1      32.321  18.418  23.058  1.00  0.00     0.044 C 
ENDBRANCH  21  24
ENDBRANCH  19  21
ENDBRANCH  18  19
ENDBRANCH   8  18
ENDBRANCH   4   7
ENDBRANCH   2   3
ENDBRANCH   1   2
BRANCH   1  32
ATOM     32  C   UNL A   1      33.590  31.827  28.047  1.00  0.00     0.023 C 
BRANCH  32  33
ATOM     33  C   UNL A   1      33.875  33.194  27.440  1.00  0.00     0.116 C 
BRANCH  33  34
ATOM     34  N   UNL A   1      33.051  34.270  27.974  1.00  0.00    -0.352 N 
ATOM     35  C   UNL A   1      33.197  34.923  29.179  1.00  0.00     0.251 C 
ATOM     36  H   UNL A   1      32.301  34.565  27.409  1.00  0.00     0.163 HD
ATOM     37  O   UNL A   1      32.392  35.780  29.529  1.00  0.00    -0.269 OA
BRANCH  35  38
ATOM     38  C   UNL A   1      34.309  34.524  30.065  1.00  0.00     0.039 A 
ATOM     39  C   UNL A   1      34.022  33.787  31.215  1.00  0.00     0.014 A 
ATOM     40  C   UNL A   1      35.631  34.774  29.688  1.00  0.00     0.014 A 
ATOM     41  C   UNL A   1      35.068  33.214  31.938  1.00  0.00     0.010 A 
ATOM     42  C   UNL A   1      36.664  34.137  30.363  1.00  0.00     0.010 A 
ATOM     43  C   UNL A   1      36.393  33.339  31.486  1.00  0.00    -0.014 A 
BRANCH  43  44
ATOM     44  C   UNL A   1      37.507  32.618  32.148  1.00  0.00     0.031 A 
ATOM     45  C   UNL A   1      38.030  33.096  33.473  1.00  0.00     0.074 A 
ATOM     46  C   UNL A   1      38.103  31.589  31.513  1.00  0.00     0.049 A 
ATOM     47  N   UNL A   1      39.046  32.654  34.166  1.00  0.00    -0.248 NA
ATOM     48  C   UNL A   1      37.338  34.243  34.082  1.00  0.00     0.031 C 
ATOM     49  C   UNL A   1      37.725  31.073  30.195  1.00  0.00     0.029 A 
ATOM     50  N   UNL A   1      39.162  30.801  31.885  1.00  0.00    -0.354 N 
ATOM     51  C   UNL A   1      39.127  33.478  35.282  1.00  0.00     0.074 A 
ATOM     52  C   UNL A   1      38.091  34.479  35.146  1.00  0.00     0.031 C 
ATOM     53  C   UNL A   1      38.523  30.039  29.881  1.00  0.00     0.029 A 
ATOM     54  C   UNL A   1      39.490  29.841  30.956  1.00  0.00     0.049 A 
ATOM     55  H   UNL A   1      39.644  30.910  32.737  1.00  0.00     0.167 HD
ATOM     56  C   UNL A   1      39.972  33.393  36.337  1.00  0.00     0.037 A 
ATOM     57  C   UNL A   1      40.464  28.909  30.967  1.00  0.00     0.037 A 
ATOM     58  C   UNL A   1      40.980  32.376  36.480  1.00  0.00     0.049 A 
ATOM     59  C   UNL A   1      41.385  28.828  32.152  1.00  0.00     0.074 A 
ATOM     60  C   UNL A   1      41.837  32.156  37.545  1.00  0.00     0.029 A 
ATOM     61  N   UNL A   1      41.270  31.410  35.528  1.00  0.00    -0.354 N 
ATOM     62  N   UNL A   1      41.401  29.569  33.234  1.00  0.00    -0.248 NA
ATOM     63  C   UNL A   1      42.418  27.783  32.121  1.00  0.00     0.031 C 
ATOM     64  C   UNL A   1      42.668  31.079  37.220  1.00  0.00     0.029 A 
ATOM     65  C   UNL A   1      42.306  30.604  35.970  1.00  0.00     0.049 A 
ATOM     66  H   UNL A   1      40.806  31.311  34.664  1.00  0.00     0.167 HD
ATOM     67  C   UNL A   1      42.435  29.073  34.019  1.00  0.00     0.074 A 
ATOM     68  C   UNL A   1      43.011  27.958  33.294  1.00  0.00     0.031 C 
ATOM     69  C   UNL A   1      42.869  29.501  35.231  1.00  0.00     0.037 A 
BRANCH  56  70
ATOM     70  C   UNL A   1      39.829  34.428  37.417  1.00  0.00     0.058 A 
ATOM     71  C   UNL A   1      40.422  35.696  37.303  1.00  0.00     0.135 A 
ATOM     72  C   UNL A   1      39.092  34.152  38.580  1.00  0.00     0.135 A 
ATOM     73  F   UNL A   1      41.150  36.006  36.218  1.00  0.00    -0.206 F 
ATOM     74  C   UNL A   1      40.326  36.638  38.320  1.00  0.00     0.059 A 
ATOM     75  C   UNL A   1      38.961  35.090  39.600  1.00  0.00     0.059 A 
ATOM     76  F   UNL A   1      38.506  32.955  38.741  1.00  0.00    -0.206 F 
ATOM     77  C   UNL A   1      39.599  36.323  39.469  1.00  0.00     0.060 A 
BRANCH  77  78
ATOM     78  S   UNL A   1      39.503  37.546  40.793  1.00  0.00     0.124 S 
ATOM     79  O   UNL A   1      38.519  38.480  40.252  1.00  0.00    -0.237 OA
ATOM     80  O   UNL A   1      39.058  36.746  41.929  1.00  0.00    -0.237 OA
ATOM     81  O   UNL A   1      40.868  38.056  40.884  1.00  0.00    -0.744 OA
ENDBRANCH  77  78
ENDBRANCH  56  70
BRANCH  57  82
ATOM     82  C   UNL A   1      40.592  27.961  29.831  1.00  0.00     0.058 A 
ATOM     83  C   UNL A   1      39.684  26.904  29.674  1.00  0.00     0.135 A 
ATOM     84  C   UNL A   1      41.597  28.110  28.863  1.00  0.00     0.135 A 
ATOM     85  F   UNL A   1      38.710  26.718  30.578  1.00  0.00    -0.206 F 
ATOM     86  C   UNL A   1      39.769  26.022  28.602  1.00  0.00     0.059 A 
ATOM     87  C   UNL A   1      41.691  27.253  27.770  1.00  0.00     0.059 A 
ATOM     88  F   UNL A   1      42.481  29.116  28.960  1.00  0.00    -0.206 F 
ATOM     89  C   UNL A   1      40.775  26.208  27.651  1.00  0.00     0.060 A 
BRANCH  89  90
ATOM     90  S   UNL A   1      40.835  25.099  26.227  1.00  0.00     0.124 S 
ATOM     91  O   UNL A   1      41.826  24.121  26.658  1.00  0.00    -0.237 OA
ATOM     92  O   UNL A   1      39.458  24.622  26.150  1.00  0.00    -0.237 OA
ATOM     93  O   UNL A   1      41.247  25.979  25.136  1.00  0.00    -0.744 OA
ENDBRANCH  89  90
ENDBRANCH  57  82
BRANCH  69  94
ATOM     94  C   UNL A   1      44.013  28.756  35.856  1.00  0.00     0.058 A 
ATOM     95  C   UNL A   1      45.342  29.156  35.655  1.00  0.00     0.135 A 
ATOM     96  C   UNL A   1      43.774  27.669  36.710  1.00  0.00     0.135 A 
ATOM     97  F   UNL A   1      45.623  30.185  34.840  1.00  0.00    -0.206 F 
ATOM     98  C   UNL A   1      46.400  28.493  36.270  1.00  0.00     0.059 A 
ATOM     99  C   UNL A   1      44.814  27.006  37.354  1.00  0.00     0.059 A 
ATOM    100  F   UNL A   1      42.519  27.252  36.942  1.00  0.00    -0.206 F 
ATOM    101  C   UNL A   1      46.125  27.420  37.121  1.00  0.00     0.060 A 
BRANCH 101 102
ATOM    102  S   UNL A   1      47.501  26.597  37.949  1.00  0.00     0.124 S 
ATOM    103  O   UNL A   1      46.801  25.727  38.888  1.00  0.00    -0.237 OA
ATOM    104  O   UNL A   1      48.176  25.923  36.844  1.00  0.00    -0.237 OA
ATOM    105  O   UNL A   1      48.244  27.700  38.549  1.00  0.00    -0.744 OA
ENDBRANCH 101 102
ENDBRANCH  69  94
ENDBRANCH  43  44
ENDBRANCH  35  38
ENDBRANCH  33  34
ENDBRANCH  32  33
ENDBRANCH   1  32
TORSDOF 19
ENDMDL
MODEL 2
REMARK VINA RESULT:     -11.7      6.445     11.467
REMARK SMILES CCN(C(=O)Cc1c(C(=O)NCCCCNC(=O)c2ccc(-c3c4nc(c(-c5c(F)cc(S(=O)(=O)[O-])cc5F)c5ccc([nH]5)c(-c5c(F)cc(S(=O)(=O)[O-])cc5F)c5nc(c(-c6c(F)cc(S(=O)(=O)[O-])cc6F)c6ccc3[nH]6)C=C5)C=C4)cc2)[nH]c2ccc(Cl)cc12)c1ccc(C)c(C)c1
REMARK SMILES IDX 13 1 12 2 11 3 9 4 10 5 8 7 7 8 92 9 85 10 86 11 91 12 87 14
REMARK SMILES IDX 89 15 88 16 90 17 6 18 4 19 5 20 3 21 2 22 1 23 93 24 94 25
REMARK SMILES IDX 100 26 95 27 98 28 96 29 99 30 97 31 14 32 15 33 16 34 17 35
REMARK SMILES IDX 18 37 19 38 20 39 84 40 21 41 83 42 22 43 23 44 24 45 77 46
REMARK SMILES IDX 25 47 82 48 76 49 78 50 26 51 81 52 75 53 74 54 27 56 61 57
REMARK SMILES IDX 40 58 60 59 41 60 44 61 59 62 79 63 42 64 43 65 58 67 80 68
REMARK SMILES IDX 45 69 28 70 29 71 38 72 30 73 31 74 37 75 39 76 32 77 33 78
REMARK SMILES IDX 34 79 35 80 36 81 62 82 63 83 72 84 64 85 65 86 71 87 73 88
REMARK SMILES IDX 66 89 67 90 68 91 69 92 70 93 46 94 47 95 56 96 48 97 49 98
REMARK SMILES IDX 55 99 57 100 50 101 51 102 52 103 53 104 54 105
REMARK H PARENT 11 6 85 13 16 36 78 55 44 66
REMARK Flexibility Score: inf
ROOT
ATOM      1  C   UNL A   1      37.642  21.464  24.346  1.00  0.00     0.023 C 
ENDROOT
BRANCH   1   2
ATOM      2  C   UNL A   1      36.510  22.423  24.723  1.00  0.00     0.116 C 
BRANCH   2   3
ATOM      3  N   UNL A   1      35.562  22.580  23.647  1.00  0.00    -0.351 N 
ATOM      4  C   UNL A   1      34.662  23.544  23.296  1.00  0.00     0.268 C 
ATOM      5  O   UNL A   1      34.172  23.382  22.172  1.00  0.00    -0.268 OA
ATOM      6  H   UNL A   1      35.563  21.817  23.025  1.00  0.00     0.163 HD
BRANCH   4   7
ATOM      7  C   UNL A   1      34.257  24.710  24.077  1.00  0.00     0.109 A 
ATOM      8  C   UNL A   1      33.739  25.044  25.342  1.00  0.00    -0.000 A 
ATOM      9  C   UNL A   1      33.388  26.451  25.301  1.00  0.00     0.005 A 
ATOM     10  N   UNL A   1      34.326  25.911  23.383  1.00  0.00    -0.350 N 
ATOM     11  C   UNL A   1      33.827  26.964  24.089  1.00  0.00     0.046 A 
ATOM     12  C   UNL A   1      32.728  27.347  26.171  1.00  0.00     0.031 A 
ATOM     13  H   UNL A   1      34.697  25.992  22.475  1.00  0.00     0.167 HD
ATOM     14  C   UNL A   1      33.708  28.312  23.725  1.00  0.00     0.028 A 
ATOM     15  C   UNL A   1      32.590  28.694  25.828  1.00  0.00     0.041 A 
ATOM     16  C   UNL A   1      33.088  29.178  24.628  1.00  0.00     0.022 A 
ATOM     17  Cl  UNL A   1      31.790  29.762  26.919  1.00  0.00    -0.084 Cl
BRANCH   8  18
ATOM     18  C   UNL A   1      33.538  24.138  26.520  1.00  0.00     0.139 C 
BRANCH  18  19
ATOM     19  C   UNL A   1      32.219  23.405  26.641  1.00  0.00     0.231 C 
ATOM     20  O   UNL A   1      31.584  23.502  27.697  1.00  0.00    -0.274 OA
BRANCH  19  21
ATOM     21  N   UNL A   1      31.746  22.682  25.541  1.00  0.00    -0.312 N 
BRANCH  21  22
ATOM     22  C   UNL A   1      30.617  23.059  24.675  1.00  0.00     0.122 C 
ATOM     23  C   UNL A   1      30.929  24.118  23.622  1.00  0.00     0.028 C 
ENDBRANCH  21  22
BRANCH  21  24
ATOM     24  C   UNL A   1      32.374  21.433  25.289  1.00  0.00     0.044 A 
ATOM     25  C   UNL A   1      33.428  21.009  26.095  1.00  0.00     0.026 A 
ATOM     26  C   UNL A   1      32.033  20.706  24.147  1.00  0.00     0.030 A 
ATOM     27  C   UNL A   1      34.129  19.852  25.759  1.00  0.00     0.006 A 
ATOM     28  C   UNL A   1      32.736  19.544  23.792  1.00  0.00    -0.046 A 
ATOM     29  C   UNL A   1      33.795  19.107  24.612  1.00  0.00    -0.048 A 
ATOM     30  C   UNL A   1      32.356  18.838  22.522  1.00  0.00     0.044 C 
ATOM     31  C   UNL A   1      34.649  17.916  24.274  1.00  0.00     0.044 C 
ENDBRANCH  21  24
ENDBRANCH  19  21
ENDBRANCH  18  19
ENDBRANCH   8  18
ENDBRANCH   4   7
ENDBRANCH   2   3
ENDBRANCH   1   2
BRANCH   1  32
ATOM     32  C   UNL A   1      38.118  20.529  25.452  1.00  0.00     0.023 C 
BRANCH  32  33
ATOM     33  C   UNL A   1      39.555  20.744  25.907  1.00  0.00     0.116 C 
BRANCH  33  34
ATOM     34  N   UNL A   1      40.360  19.530  25.941  1.00  0.00    -0.352 N 
ATOM     35  C   UNL A   1      41.718  19.426  26.149  1.00  0.00     0.251 C 
ATOM     36  H   UNL A   1      39.878  18.685  25.796  1.00  0.00     0.163 HD
ATOM     37  O   UNL A   1      42.279  18.337  26.097  1.00  0.00    -0.269 OA
BRANCH  35  38
ATOM     38  C   UNL A   1      42.491  20.665  26.376  1.00  0.00     0.039 A 
ATOM     39  C   UNL A   1      42.997  21.354  25.273  1.00  0.00     0.014 A 
ATOM     40  C   UNL A   1      42.601  21.198  27.663  1.00  0.00     0.014 A 
ATOM     41  C   UNL A   1      43.531  22.630  25.450  1.00  0.00     0.010 A 
ATOM     42  C   UNL A   1      43.060  22.499  27.825  1.00  0.00     0.010 A 
ATOM     43  C   UNL A   1      43.515  23.233  26.719  1.00  0.00    -0.014 A 
BRANCH  43  44
ATOM     44  C   UNL A   1      43.937  24.643  26.910  1.00  0.00     0.031 A 
ATOM     45  C   UNL A   1      45.381  25.024  26.750  1.00  0.00     0.074 A 
ATOM     46  C   UNL A   1      43.034  25.558  27.315  1.00  0.00     0.049 A 
ATOM     47  N   UNL A   1      45.957  26.179  26.956  1.00  0.00    -0.248 NA
ATOM     48  C   UNL A   1      46.304  23.956  26.333  1.00  0.00     0.031 C 
ATOM     49  C   UNL A   1      41.614  25.294  27.565  1.00  0.00     0.029 A 
ATOM     50  N   UNL A   1      43.176  26.892  27.599  1.00  0.00    -0.354 N 
ATOM     51  C   UNL A   1      47.309  25.974  26.712  1.00  0.00     0.074 A 
ATOM     52  C   UNL A   1      47.475  24.572  26.396  1.00  0.00     0.031 C 
ATOM     53  C   UNL A   1      41.014  26.436  27.941  1.00  0.00     0.029 A 
ATOM     54  C   UNL A   1      42.008  27.502  27.992  1.00  0.00     0.049 A 
ATOM     55  H   UNL A   1      44.035  27.369  27.529  1.00  0.00     0.167 HD
ATOM     56  C   UNL A   1      48.318  26.878  26.727  1.00  0.00     0.037 A 
ATOM     57  C   UNL A   1      41.767  28.777  28.358  1.00  0.00     0.037 A 
ATOM     58  C   UNL A   1      48.141  28.276  27.014  1.00  0.00     0.049 A 
ATOM     59  C   UNL A   1      42.901  29.764  28.359  1.00  0.00     0.074 A 
ATOM     60  C   UNL A   1      49.084  29.289  26.981  1.00  0.00     0.029 A 
ATOM     61  N   UNL A   1      46.940  28.861  27.389  1.00  0.00    -0.354 N 
ATOM     62  N   UNL A   1      44.162  29.570  28.055  1.00  0.00    -0.248 NA
ATOM     63  C   UNL A   1      42.579  31.144  28.750  1.00  0.00     0.031 C 
ATOM     64  C   UNL A   1      48.460  30.479  27.370  1.00  0.00     0.029 A 
ATOM     65  C   UNL A   1      47.121  30.216  27.611  1.00  0.00     0.049 A 
ATOM     66  H   UNL A   1      46.084  28.383  27.483  1.00  0.00     0.167 HD
ATOM     67  C   UNL A   1      44.782  30.804  28.204  1.00  0.00     0.074 A 
ATOM     68  C   UNL A   1      43.755  31.742  28.610  1.00  0.00     0.031 C 
ATOM     69  C   UNL A   1      46.086  31.132  28.020  1.00  0.00     0.037 A 
BRANCH  56  70
ATOM     70  C   UNL A   1      49.699  26.371  26.417  1.00  0.00     0.058 A 
ATOM     71  C   UNL A   1      50.186  26.325  25.100  1.00  0.00     0.135 A 
ATOM     72  C   UNL A   1      50.546  25.927  27.444  1.00  0.00     0.135 A 
ATOM     73  F   UNL A   1      49.410  26.723  24.078  1.00  0.00    -0.206 F 
ATOM     74  C   UNL A   1      51.445  25.818  24.808  1.00  0.00     0.059 A 
ATOM     75  C   UNL A   1      51.823  25.440  27.177  1.00  0.00     0.059 A 
ATOM     76  F   UNL A   1      50.131  25.949  28.721  1.00  0.00    -0.206 F 
ATOM     77  C   UNL A   1      52.255  25.370  25.853  1.00  0.00     0.060 A 
BRANCH  77  78
ATOM     78  S   UNL A   1      53.880  24.691  25.457  1.00  0.00     0.124 S 
ATOM     79  O   UNL A   1      53.536  23.325  25.072  1.00  0.00    -0.237 OA
ATOM     80  O   UNL A   1      54.329  25.559  24.374  1.00  0.00    -0.237 OA
ATOM     81  O   UNL A   1      54.617  24.823  26.710  1.00  0.00    -0.744 OA
ENDBRANCH  77  78
ENDBRANCH  56  70
BRANCH  57  82
ATOM     82  C   UNL A   1      40.388  29.192  28.722  1.00  0.00     0.058 A 
ATOM     83  C   UNL A   1      39.431  29.443  27.729  1.00  0.00     0.135 A 
ATOM     84  C   UNL A   1      39.990  29.314  30.062  1.00  0.00     0.135 A 
ATOM     85  F   UNL A   1      39.767  29.345  26.434  1.00  0.00    -0.206 F 
ATOM     86  C   UNL A   1      38.126  29.805  28.048  1.00  0.00     0.059 A 
ATOM     87  C   UNL A   1      38.685  29.656  30.407  1.00  0.00     0.059 A 
ATOM     88  F   UNL A   1      40.865  29.070  31.049  1.00  0.00    -0.206 F 
ATOM     89  C   UNL A   1      37.761  29.905  29.392  1.00  0.00     0.060 A 
BRANCH  89  90
ATOM     90  S   UNL A   1      36.049  30.310  29.797  1.00  0.00     0.124 S 
ATOM     91  O   UNL A   1      35.895  29.671  31.097  1.00  0.00    -0.237 OA
ATOM     92  O   UNL A   1      36.070  31.769  29.801  1.00  0.00    -0.237 OA
ATOM     93  O   UNL A   1      35.295  29.706  28.701  1.00  0.00    -0.744 OA
ENDBRANCH  89  90
ENDBRANCH  57  82
BRANCH  69  94
ATOM     94  C   UNL A   1      46.474  32.565  28.245  1.00  0.00     0.058 A 
ATOM     95  C   UNL A   1      46.344  33.525  27.230  1.00  0.00     0.135 A 
ATOM     96  C   UNL A   1      46.922  32.994  29.503  1.00  0.00     0.135 A 
ATOM     97  F   UNL A   1      45.926  33.163  26.006  1.00  0.00    -0.206 F 
ATOM     98  C   UNL A   1      46.661  34.862  27.451  1.00  0.00     0.059 A 
ATOM     99  C   UNL A   1      47.223  34.329  29.753  1.00  0.00     0.059 A 
ATOM    100  F   UNL A   1      47.055  32.116  30.510  1.00  0.00    -0.206 F 
ATOM    101  C   UNL A   1      47.096  35.255  28.718  1.00  0.00     0.060 A 
BRANCH 101 102
ATOM    102  S   UNL A   1      47.460  36.999  29.007  1.00  0.00     0.124 S 
ATOM    103  O   UNL A   1      47.840  36.991  30.416  1.00  0.00    -0.237 OA
ATOM    104  O   UNL A   1      48.542  37.256  28.061  1.00  0.00    -0.237 OA
ATOM    105  O   UNL A   1      46.197  37.664  28.701  1.00  0.00    -0.744 OA
ENDBRANCH 101 102
ENDBRANCH  69  94
ENDBRANCH  43  44
ENDBRANCH  35  38
ENDBRANCH  33  34
ENDBRANCH  32  33
ENDBRANCH   1  32
TORSDOF 19
ENDMDL
MODEL 3
REMARK VINA RESULT:     -11.7      3.674      9.178
REMARK SMILES CCN(C(=O)Cc1c(C(=O)NCCCCNC(=O)c2ccc(-c3c4nc(c(-c5c(F)cc(S(=O)(=O)[O-])cc5F)c5ccc([nH]5)c(-c5c(F)cc(S(=O)(=O)[O-])cc5F)c5nc(c(-c6c(F)cc(S(=O)(=O)[O-])cc6F)c6ccc3[nH]6)C=C5)C=C4)cc2)[nH]c2ccc(Cl)cc12)c1ccc(C)c(C)c1
REMARK SMILES IDX 13 1 12 2 11 3 9 4 10 5 8 7 7 8 92 9 85 10 86 11 91 12 87 14
REMARK SMILES IDX 89 15 88 16 90 17 6 18 4 19 5 20 3 21 2 22 1 23 93 24 94 25
REMARK SMILES IDX 100 26 95 27 98 28 96 29 99 30 97 31 14 32 15 33 16 34 17 35
REMARK SMILES IDX 18 37 19 38 20 39 84 40 21 41 83 42 22 43 23 44 24 45 77 46
REMARK SMILES IDX 25 47 82 48 76 49 78 50 26 51 81 52 75 53 74 54 27 56 61 57
REMARK SMILES IDX 40 58 60 59 41 60 44 61 59 62 79 63 42 64 43 65 58 67 80 68
REMARK SMILES IDX 45 69 28 70 29 71 38 72 30 73 31 74 37 75 39 76 32 77 33 78
REMARK SMILES IDX 34 79 35 80 36 81 62 82 63 83 72 84 64 85 65 86 71 87 73 88
REMARK SMILES IDX 66 89 67 90 68 91 69 92 70 93 46 94 47 95 56 96 48 97 49 98
REMARK SMILES IDX 55 99 57 100 50 101 51 102 52 103 53 104 54 105
REMARK H PARENT 11 6 85 13 16 36 78 55 44 66
REMARK Flexibility Score: inf
ROOT
ATOM      1  C   UNL A   1      34.675  23.180  24.390  1.00  0.00     0.023 C 
ENDROOT
BRANCH   1   2
ATOM      2  C   UNL A   1      34.210  24.571  23.955  1.00  0.00     0.116 C 
BRANCH   2   3
ATOM      3  N   UNL A   1      33.849  24.602  22.559  1.00  0.00    -0.351 N 
ATOM      4  C   UNL A   1      32.962  25.324  21.814  1.00  0.00     0.268 C 
ATOM      5  O   UNL A   1      33.103  25.180  20.594  1.00  0.00    -0.268 OA
ATOM      6  H   UNL A   1      34.356  23.952  22.020  1.00  0.00     0.163 HD
BRANCH   4   7
ATOM      7  C   UNL A   1      31.923  26.229  22.298  1.00  0.00     0.109 A 
ATOM      8  C   UNL A   1      30.756  26.221  23.085  1.00  0.00    -0.000 A 
ATOM      9  C   UNL A   1      30.126  27.519  22.924  1.00  0.00     0.005 A 
ATOM     10  N   UNL A   1      32.028  27.526  21.814  1.00  0.00    -0.350 N 
ATOM     11  C   UNL A   1      30.980  28.318  22.179  1.00  0.00     0.046 A 
ATOM     12  C   UNL A   1      28.903  28.097  23.330  1.00  0.00     0.031 A 
ATOM     13  H   UNL A   1      32.782  27.841  21.265  1.00  0.00     0.167 HD
ATOM     14  C   UNL A   1      30.723  29.661  21.875  1.00  0.00     0.028 A 
ATOM     15  C   UNL A   1      28.619  29.433  23.033  1.00  0.00     0.041 A 
ATOM     16  C   UNL A   1      29.523  30.213  22.328  1.00  0.00     0.022 A 
ATOM     17  Cl  UNL A   1      27.122  30.110  23.554  1.00  0.00    -0.084 Cl
BRANCH   8  18
ATOM     18  C   UNL A   1      30.214  25.095  23.913  1.00  0.00     0.139 C 
BRANCH  18  19
ATOM     19  C   UNL A   1      30.093  25.300  25.407  1.00  0.00     0.231 C 
ATOM     20  O   UNL A   1      28.964  25.379  25.904  1.00  0.00    -0.274 OA
BRANCH  19  21
ATOM     21  N   UNL A   1      31.260  25.348  26.177  1.00  0.00    -0.312 N 
BRANCH  21  22
ATOM     22  C   UNL A   1      31.927  24.200  26.815  1.00  0.00     0.122 C 
ATOM     23  C   UNL A   1      31.586  22.837  26.220  1.00  0.00     0.028 C 
ENDBRANCH  21  22
BRANCH  21  24
ATOM     24  C   UNL A   1      31.801  26.638  26.423  1.00  0.00     0.044 A 
ATOM     25  C   UNL A   1      31.293  27.420  27.457  1.00  0.00     0.026 A 
ATOM     26  C   UNL A   1      32.736  27.175  25.535  1.00  0.00     0.030 A 
ATOM     27  C   UNL A   1      31.731  28.736  27.605  1.00  0.00     0.006 A 
ATOM     28  C   UNL A   1      33.178  28.501  25.667  1.00  0.00    -0.046 A 
ATOM     29  C   UNL A   1      32.675  29.291  26.719  1.00  0.00    -0.048 A 
ATOM     30  C   UNL A   1      34.143  29.037  24.647  1.00  0.00     0.044 C 
ATOM     31  C   UNL A   1      33.037  30.740  26.896  1.00  0.00     0.044 C 
ENDBRANCH  21  24
ENDBRANCH  19  21
ENDBRANCH  18  19
ENDBRANCH   8  18
ENDBRANCH   4   7
ENDBRANCH   2   3
ENDBRANCH   1   2
BRANCH   1  32
ATOM     32  C   UNL A   1      35.708  23.144  25.511  1.00  0.00     0.023 C 
BRANCH  32  33
ATOM     33  C   UNL A   1      37.084  23.679  25.141  1.00  0.00     0.116 C 
BRANCH  33  34
ATOM     34  N   UNL A   1      38.182  22.769  25.438  1.00  0.00    -0.352 N 
ATOM     35  C   UNL A   1      39.295  23.016  26.211  1.00  0.00     0.251 C 
ATOM     36  H   UNL A   1      38.122  21.871  25.038  1.00  0.00     0.163 HD
ATOM     37  O   UNL A   1      40.174  22.169  26.333  1.00  0.00    -0.269 OA
BRANCH  35  38
ATOM     38  C   UNL A   1      39.433  24.346  26.839  1.00  0.00     0.039 A 
ATOM     39  C   UNL A   1      38.938  24.534  28.131  1.00  0.00     0.014 A 
ATOM     40  C   UNL A   1      40.156  25.354  26.197  1.00  0.00     0.014 A 
ATOM     41  C   UNL A   1      39.255  25.705  28.819  1.00  0.00     0.010 A 
ATOM     42  C   UNL A   1      40.535  26.482  26.912  1.00  0.00     0.010 A 
ATOM     43  C   UNL A   1      40.101  26.663  28.235  1.00  0.00    -0.014 A 
BRANCH  43  44
ATOM     44  C   UNL A   1      40.576  27.843  28.998  1.00  0.00     0.031 A 
ATOM     45  C   UNL A   1      41.933  27.826  29.641  1.00  0.00     0.074 A 
ATOM     46  C   UNL A   1      39.748  28.890  29.185  1.00  0.00     0.049 A 
ATOM     47  N   UNL A   1      42.490  28.721  30.415  1.00  0.00    -0.248 NA
ATOM     48  C   UNL A   1      42.760  26.632  29.409  1.00  0.00     0.031 C 
ATOM     49  C   UNL A   1      38.383  28.995  28.663  1.00  0.00     0.029 A 
ATOM     50  N   UNL A   1      39.927  30.061  29.876  1.00  0.00    -0.354 N 
ATOM     51  C   UNL A   1      43.723  28.191  30.776  1.00  0.00     0.074 A 
ATOM     52  C   UNL A   1      43.809  26.875  30.181  1.00  0.00     0.031 C 
ATOM     53  C   UNL A   1      37.860  30.177  29.031  1.00  0.00     0.029 A 
ATOM     54  C   UNL A   1      38.836  30.897  29.843  1.00  0.00     0.049 A 
ATOM     55  H   UNL A   1      40.761  30.284  30.352  1.00  0.00     0.167 HD
ATOM     56  C   UNL A   1      44.704  28.760  31.516  1.00  0.00     0.037 A 
ATOM     57  C   UNL A   1      38.641  32.105  30.407  1.00  0.00     0.037 A 
ATOM     58  C   UNL A   1      44.623  30.081  32.080  1.00  0.00     0.049 A 
ATOM     59  C   UNL A   1      39.747  32.720  31.218  1.00  0.00     0.074 A 
ATOM     60  C   UNL A   1      45.590  30.779  32.781  1.00  0.00     0.029 A 
ATOM     61  N   UNL A   1      43.508  30.905  32.008  1.00  0.00    -0.354 N 
ATOM     62  N   UNL A   1      40.936  32.237  31.489  1.00  0.00    -0.248 NA
ATOM     63  C   UNL A   1      39.488  34.046  31.796  1.00  0.00     0.031 C 
ATOM     64  C   UNL A   1      45.048  32.011  33.164  1.00  0.00     0.029 A 
ATOM     65  C   UNL A   1      43.756  32.096  32.671  1.00  0.00     0.049 A 
ATOM     66  H   UNL A   1      42.666  30.676  31.553  1.00  0.00     0.167 HD
ATOM     67  C   UNL A   1      41.572  33.203  32.258  1.00  0.00     0.074 A 
ATOM     68  C   UNL A   1      40.643  34.306  32.395  1.00  0.00     0.031 C 
ATOM     69  C   UNL A   1      42.815  33.180  32.801  1.00  0.00     0.037 A 
BRANCH  56  70
ATOM     70  C   UNL A   1      45.948  27.949  31.747  1.00  0.00     0.058 A 
ATOM     71  C   UNL A   1      46.067  27.082  32.845  1.00  0.00     0.135 A 
ATOM     72  C   UNL A   1      47.035  28.038  30.862  1.00  0.00     0.135 A 
ATOM     73  F   UNL A   1      45.063  26.971  33.731  1.00  0.00    -0.206 F 
ATOM     74  C   UNL A   1      47.233  26.365  33.083  1.00  0.00     0.059 A 
ATOM     75  C   UNL A   1      48.203  27.309  31.067  1.00  0.00     0.059 A 
ATOM     76  F   UNL A   1      46.975  28.853  29.797  1.00  0.00    -0.206 F 
ATOM     77  C   UNL A   1      48.299  26.490  32.192  1.00  0.00     0.060 A 
BRANCH  77  78
ATOM     78  S   UNL A   1      49.817  25.572  32.525  1.00  0.00     0.124 S 
ATOM     79  O   UNL A   1      49.416  24.757  33.668  1.00  0.00    -0.237 OA
ATOM     80  O   UNL A   1      50.029  24.849  31.275  1.00  0.00    -0.237 OA
ATOM     81  O   UNL A   1      50.791  26.620  32.813  1.00  0.00    -0.744 OA
ENDBRANCH  77  78
ENDBRANCH  56  70
BRANCH  57  82
ATOM     82  C   UNL A   1      37.356  32.821  30.195  1.00  0.00     0.058 A 
ATOM     83  C   UNL A   1      37.178  33.659  29.086  1.00  0.00     0.135 A 
ATOM     84  C   UNL A   1      36.273  32.656  31.073  1.00  0.00     0.135 A 
ATOM     85  F   UNL A   1      38.188  33.852  28.223  1.00  0.00    -0.206 F 
ATOM     86  C   UNL A   1      35.975  34.316  28.854  1.00  0.00     0.059 A 
ATOM     87  C   UNL A   1      35.052  33.287  30.851  1.00  0.00     0.059 A 
ATOM     88  F   UNL A   1      36.388  31.852  32.140  1.00  0.00    -0.206 F 
ATOM     89  C   UNL A   1      34.914  34.120  29.740  1.00  0.00     0.060 A 
BRANCH  89  90
ATOM     90  S   UNL A   1      33.335  34.924  29.393  1.00  0.00     0.124 S 
ATOM     91  O   UNL A   1      33.770  36.221  28.892  1.00  0.00    -0.237 OA
ATOM     92  O   UNL A   1      32.742  34.024  28.408  1.00  0.00    -0.237 OA
ATOM     93  O   UNL A   1      32.673  34.937  30.695  1.00  0.00    -0.744 OA
ENDBRANCH  89  90
ENDBRANCH  57  82
BRANCH  69  94
ATOM     94  C   UNL A   1      43.247  34.387  33.584  1.00  0.00     0.058 A 
ATOM     95  C   UNL A   1      43.933  35.447  32.973  1.00  0.00     0.135 A 
ATOM     96  C   UNL A   1      42.920  34.511  34.943  1.00  0.00     0.135 A 
ATOM     97  F   UNL A   1      44.277  35.372  31.677  1.00  0.00    -0.206 F 
ATOM     98  C   UNL A   1      44.295  36.585  33.688  1.00  0.00     0.059 A 
ATOM     99  C   UNL A   1      43.250  35.649  35.671  1.00  0.00     0.059 A 
ATOM    100  F   UNL A   1      42.255  33.528  35.571  1.00  0.00    -0.206 F 
ATOM    101  C   UNL A   1      43.945  36.677  35.036  1.00  0.00     0.060 A 
BRANCH 101 102
ATOM    102  S   UNL A   1      44.378  38.178  35.942  1.00  0.00     0.124 S 
ATOM    103  O   UNL A   1      43.858  39.215  35.056  1.00  0.00    -0.237 OA
ATOM    104  O   UNL A   1      43.661  38.003  37.201  1.00  0.00    -0.237 OA
ATOM    105  O   UNL A   1      45.832  38.107  36.040  1.00  0.00    -0.744 OA
ENDBRANCH 101 102
ENDBRANCH  69  94
ENDBRANCH  43  44
ENDBRANCH  35  38
ENDBRANCH  33  34
ENDBRANCH  32  33
ENDBRANCH   1  32
TORSDOF 19
ENDMDL
