MODEL 1
REMARK VINA RESULT:     -13.5      0.000      0.000
REMARK SMILES O=C(NCCCCNC(=O)[C@H]1[C@H]2CC[C@H](C2)[C@@H]1C(=O)Nc1sc2c(c1C(=O)NC1CCCCC1)CCCC2)c1ccc(-c2c3nc(c(-c4c(F)cc(S(=O)(=O)[O-])cc4F)c4ccc([nH]4)c(-c4c(F)cc(S(=O)(=O)[O-])cc4F)c4nc(c(-c5c(F)cc(S(=O)(=O)[O-])cc5F)c5ccc2[nH]5)C=C4)C=C3)cc1
REMARK SMILES IDX 6 1 5 2 4 3 3 4 1 5 2 6 39 8 40 9 104 10 41 11 103 12 42 13
REMARK SMILES IDX 43 14 44 15 97 16 45 17 102 18 96 19 98 20 46 21 101 22
REMARK SMILES IDX 95 23 94 24 47 26 81 27 60 28 80 29 61 30 64 31 79 32 99 33
REMARK SMILES IDX 62 34 63 35 78 37 100 38 65 39 48 40 49 41 58 42 50 43 51 44
REMARK SMILES IDX 57 45 59 46 52 47 53 48 54 49 55 50 56 51 82 52 83 53 92 54
REMARK SMILES IDX 84 55 85 56 91 57 93 58 86 59 87 60 88 61 89 62 90 63 66 64
REMARK SMILES IDX 67 65 76 66 68 67 69 68 75 69 77 70 70 71 71 72 72 73 73 74
REMARK SMILES IDX 74 75 7 76 8 77 9 78 10 80 11 81 12 82 17 83 13 84 16 85
REMARK SMILES IDX 15 86 14 87 18 88 19 89 20 90 21 92 22 93 25 94 23 95 24 96
REMARK SMILES IDX 38 97 35 98 37 99 36 100 26 101 27 102 28 103 29 105 30 106
REMARK SMILES IDX 34 107 31 108 33 109 32 110
REMARK H PARENT 3 7 98 25 64 36 8 79 20 91 28 104
REMARK Flexibility Score: inf
ROOT
ATOM      1  C   UNL A   1      36.674  23.517  24.481  1.00  0.00     0.023 C 
ENDROOT
BRANCH   1   2
ATOM      2  C   UNL A   1      37.291  23.167  25.837  1.00  0.00     0.023 C 
BRANCH   2   3
ATOM      3  C   UNL A   1      38.196  24.243  26.421  1.00  0.00     0.116 C 
BRANCH   3   4
ATOM      4  N   UNL A   1      39.597  24.044  26.079  1.00  0.00    -0.352 N 
ATOM      5  O   UNL A   1      41.794  24.561  26.019  1.00  0.00    -0.269 OA
ATOM      6  C   UNL A   1      40.690  24.754  26.519  1.00  0.00     0.251 C 
ATOM      7  H   UNL A   1      39.787  23.309  25.453  1.00  0.00     0.163 HD
BRANCH   6   8
ATOM      8  C   UNL A   1      40.510  25.770  27.578  1.00  0.00     0.039 A 
ATOM      9  C   UNL A   1      41.318  26.910  27.603  1.00  0.00     0.014 A 
ATOM     10  C   UNL A   1      39.550  25.564  28.572  1.00  0.00     0.014 A 
ATOM     11  C   UNL A   1      41.267  27.765  28.697  1.00  0.00     0.010 A 
ATOM     12  C   UNL A   1      39.441  26.475  29.627  1.00  0.00     0.010 A 
ATOM     13  C   UNL A   1      40.320  27.565  29.715  1.00  0.00    -0.014 A 
BRANCH  13  14
ATOM     14  C   UNL A   1      40.236  28.548  30.827  1.00  0.00     0.031 A 
ATOM     15  C   UNL A   1      41.166  28.477  32.006  1.00  0.00     0.074 A 
ATOM     16  C   UNL A   1      39.324  29.537  30.741  1.00  0.00     0.049 A 
ATOM     17  N   UNL A   1      41.240  29.273  33.043  1.00  0.00    -0.248 NA
ATOM     18  C   UNL A   1      42.133  27.369  32.034  1.00  0.00     0.031 C 
ATOM     19  C   UNL A   1      38.360  29.700  29.648  1.00  0.00     0.029 A 
ATOM     20  N   UNL A   1      39.068  30.600  31.567  1.00  0.00    -0.354 N 
ATOM     21  C   UNL A   1      42.244  28.755  33.854  1.00  0.00     0.074 A 
ATOM     22  C   UNL A   1      42.735  27.560  33.201  1.00  0.00     0.031 C 
ATOM     23  C   UNL A   1      37.655  30.822  29.846  1.00  0.00     0.029 A 
ATOM     24  C   UNL A   1      38.069  31.425  31.107  1.00  0.00     0.049 A 
ATOM     25  H   UNL A   1      39.554  30.758  32.408  1.00  0.00     0.167 HD
ATOM     26  C   UNL A   1      42.716  29.239  35.030  1.00  0.00     0.037 A 
ATOM     27  C   UNL A   1      37.533  32.535  31.645  1.00  0.00     0.037 A 
ATOM     28  C   UNL A   1      42.230  30.439  35.665  1.00  0.00     0.049 A 
ATOM     29  C   UNL A   1      38.063  33.039  32.954  1.00  0.00     0.074 A 
ATOM     30  C   UNL A   1      42.664  31.029  36.839  1.00  0.00     0.029 A 
ATOM     31  N   UNL A   1      41.197  31.231  35.181  1.00  0.00    -0.354 N 
ATOM     32  N   UNL A   1      39.032  32.551  33.692  1.00  0.00    -0.248 NA
ATOM     33  C   UNL A   1      37.427  34.241  33.509  1.00  0.00     0.031 C 
ATOM     34  C   UNL A   1      41.868  32.151  37.089  1.00  0.00     0.029 A 
ATOM     35  C   UNL A   1      40.968  32.291  36.045  1.00  0.00     0.049 A 
ATOM     36  H   UNL A   1      40.701  31.065  34.348  1.00  0.00     0.167 HD
ATOM     37  C   UNL A   1      39.133  33.396  34.791  1.00  0.00     0.074 A 
ATOM     38  C   UNL A   1      38.139  34.435  34.609  1.00  0.00     0.031 C 
ATOM     39  C   UNL A   1      39.972  33.318  35.853  1.00  0.00     0.037 A 
BRANCH  26  40
ATOM     40  C   UNL A   1      43.804  28.462  35.721  1.00  0.00     0.058 A 
ATOM     41  C   UNL A   1      45.163  28.755  35.527  1.00  0.00     0.135 A 
ATOM     42  C   UNL A   1      43.483  27.437  36.627  1.00  0.00     0.135 A 
ATOM     43  F   UNL A   1      45.530  29.716  34.663  1.00  0.00    -0.206 F 
ATOM     44  C   UNL A   1      46.165  28.044  36.182  1.00  0.00     0.059 A 
ATOM     45  C   UNL A   1      44.465  26.730  37.313  1.00  0.00     0.059 A 
ATOM     46  F   UNL A   1      42.199  27.116  36.855  1.00  0.00    -0.206 F 
ATOM     47  C   UNL A   1      45.805  27.031  37.072  1.00  0.00     0.060 A 
BRANCH  47  48
ATOM     48  S   UNL A   1      47.114  26.115  37.915  1.00  0.00     0.124 S 
ATOM     49  O   UNL A   1      47.981  27.199  38.368  1.00  0.00    -0.237 OA
ATOM     50  O   UNL A   1      46.381  25.411  38.961  1.00  0.00    -0.237 OA
ATOM     51  O   UNL A   1      47.668  25.268  36.864  1.00  0.00    -0.744 OA
ENDBRANCH  47  48
ENDBRANCH  26  40
BRANCH  27  52
ATOM     52  C   UNL A   1      36.431  33.237  30.936  1.00  0.00     0.058 A 
ATOM     53  C   UNL A   1      35.110  33.161  31.398  1.00  0.00     0.135 A 
ATOM     54  C   UNL A   1      36.684  34.023  29.801  1.00  0.00     0.135 A 
ATOM     55  F   UNL A   1      34.818  32.419  32.477  1.00  0.00    -0.206 F 
ATOM     56  C   UNL A   1      34.075  33.831  30.755  1.00  0.00     0.059 A 
ATOM     57  C   UNL A   1      35.672  34.725  29.158  1.00  0.00     0.059 A 
ATOM     58  F   UNL A   1      37.936  34.142  29.331  1.00  0.00    -0.206 F 
ATOM     59  C   UNL A   1      34.368  34.615  29.637  1.00  0.00     0.060 A 
BRANCH  59  60
ATOM     60  S   UNL A   1      33.029  35.528  28.841  1.00  0.00     0.124 S 
ATOM     61  O   UNL A   1      32.256  35.976  29.993  1.00  0.00    -0.237 OA
ATOM     62  O   UNL A   1      33.754  36.566  28.115  1.00  0.00    -0.237 OA
ATOM     63  O   UNL A   1      32.388  34.519  28.003  1.00  0.00    -0.744 OA
ENDBRANCH  59  60
ENDBRANCH  27  52
BRANCH  39  64
ATOM     64  C   UNL A   1      39.867  34.401  36.888  1.00  0.00     0.058 A 
ATOM     65  C   UNL A   1      40.573  35.608  36.766  1.00  0.00     0.135 A 
ATOM     66  C   UNL A   1      39.031  34.239  38.005  1.00  0.00     0.135 A 
ATOM     67  F   UNL A   1      41.393  35.809  35.724  1.00  0.00    -0.206 F 
ATOM     68  C   UNL A   1      40.475  36.607  37.729  1.00  0.00     0.059 A 
ATOM     69  C   UNL A   1      38.896  35.235  38.966  1.00  0.00     0.059 A 
ATOM     70  F   UNL A   1      38.328  33.106  38.164  1.00  0.00    -0.206 F 
ATOM     71  C   UNL A   1      39.634  36.410  38.827  1.00  0.00     0.060 A 
BRANCH  71  72
ATOM     72  S   UNL A   1      39.499  37.721  40.062  1.00  0.00     0.124 S 
ATOM     73  O   UNL A   1      40.760  38.430  39.875  1.00  0.00    -0.237 OA
ATOM     74  O   UNL A   1      38.301  38.435  39.630  1.00  0.00    -0.237 OA
ATOM     75  O   UNL A   1      39.367  36.991  41.318  1.00  0.00    -0.744 OA
ENDBRANCH  71  72
ENDBRANCH  39  64
ENDBRANCH  13  14
ENDBRANCH   6   8
ENDBRANCH   3   4
ENDBRANCH   2   3
ENDBRANCH   1   2
BRANCH   1  76
ATOM     76  C   UNL A   1      35.148  23.430  24.458  1.00  0.00     0.116 C 
BRANCH  76  77
ATOM     77  N   UNL A   1      34.717  22.070  24.188  1.00  0.00    -0.356 N 
ATOM     78  C   UNL A   1      33.463  21.535  24.270  1.00  0.00     0.224 C 
ATOM     79  H   UNL A   1      35.427  21.447  23.908  1.00  0.00     0.163 HD
ATOM     80  O   UNL A   1      33.328  20.317  24.194  1.00  0.00    -0.275 OA
BRANCH  78  81
ATOM     81  C   UNL A   1      32.296  22.497  24.331  1.00  0.00     0.094 C 
ATOM     82  C   UNL A   1      31.530  22.270  25.668  1.00  0.00     0.002 C 
ATOM     83  C   UNL A   1      32.648  24.000  24.378  1.00  0.00     0.094 C 
ATOM     84  C   UNL A   1      32.390  22.565  26.912  1.00  0.00     0.005 C 
ATOM     85  C   UNL A   1      30.636  23.491  25.667  1.00  0.00     0.009 C 
ATOM     86  C   UNL A   1      31.806  24.484  25.578  1.00  0.00     0.002 C 
ATOM     87  C   UNL A   1      32.566  24.092  26.864  1.00  0.00     0.005 C 
BRANCH  83  88
ATOM     88  C   UNL A   1      32.576  24.689  22.993  1.00  0.00     0.229 C 
ATOM     89  O   UNL A   1      32.715  23.978  21.986  1.00  0.00    -0.274 OA
ATOM     90  N   UNL A   1      32.170  25.970  22.766  1.00  0.00    -0.317 N 
ATOM     91  H   UNL A   1      31.741  26.113  21.891  1.00  0.00     0.170 HD
BRANCH  90  92
ATOM     92  C   UNL A   1      32.255  27.098  23.547  1.00  0.00     0.108 A 
ATOM     93  S   UNL A   1      33.776  27.848  23.639  1.00  0.00    -0.122 S 
ATOM     94  C   UNL A   1      31.224  27.907  24.054  1.00  0.00     0.078 A 
ATOM     95  C   UNL A   1      33.245  28.740  24.970  1.00  0.00     0.011 A 
ATOM     96  C   UNL A   1      31.860  28.856  25.000  1.00  0.00    -0.019 A 
ATOM     97  C   UNL A   1      34.221  29.320  25.950  1.00  0.00     0.047 C 
ATOM     98  C   UNL A   1      31.273  29.810  26.011  1.00  0.00     0.037 C 
ATOM     99  C   UNL A   1      33.484  29.752  27.219  1.00  0.00     0.006 C 
ATOM    100  C   UNL A   1      32.291  30.616  26.829  1.00  0.00     0.005 C 
BRANCH  94 101
ATOM    101  C   UNL A   1      29.837  27.572  23.605  1.00  0.00     0.254 C 
ATOM    102  O   UNL A   1      29.395  26.431  23.800  1.00  0.00    -0.269 OA
ATOM    103  N   UNL A   1      28.925  28.389  22.982  1.00  0.00    -0.349 N 
ATOM    104  H   UNL A   1      28.069  27.945  22.788  1.00  0.00     0.164 HD
BRANCH 103 105
ATOM    105  C   UNL A   1      28.966  29.758  22.557  1.00  0.00     0.082 C 
ATOM    106  C   UNL A   1      28.045  30.068  21.380  1.00  0.00     0.025 C 
ATOM    107  C   UNL A   1      28.768  30.766  23.684  1.00  0.00     0.025 C 
ATOM    108  C   UNL A   1      28.421  31.442  20.818  1.00  0.00     0.002 C 
ATOM    109  C   UNL A   1      29.096  32.174  23.181  1.00  0.00     0.002 C 
ATOM    110  C   UNL A   1      28.362  32.536  21.887  1.00  0.00     0.000 C 
ENDBRANCH 103 105
ENDBRANCH  94 101
ENDBRANCH  90  92
ENDBRANCH  83  88
ENDBRANCH  78  81
ENDBRANCH  76  77
ENDBRANCH   1  76
TORSDOF 18
ENDMDL
MODEL 2
REMARK VINA RESULT:     -13.1      0.510      7.783
REMARK SMILES O=C(NCCCCNC(=O)[C@H]1[C@H]2CC[C@H](C2)[C@@H]1C(=O)Nc1sc2c(c1C(=O)NC1CCCCC1)CCCC2)c1ccc(-c2c3nc(c(-c4c(F)cc(S(=O)(=O)[O-])cc4F)c4ccc([nH]4)c(-c4c(F)cc(S(=O)(=O)[O-])cc4F)c4nc(c(-c5c(F)cc(S(=O)(=O)[O-])cc5F)c5ccc2[nH]5)C=C4)C=C3)cc1
REMARK SMILES IDX 6 1 5 2 4 3 3 4 1 5 2 6 39 8 40 9 104 10 41 11 103 12 42 13
REMARK SMILES IDX 43 14 44 15 97 16 45 17 102 18 96 19 98 20 46 21 101 22
REMARK SMILES IDX 95 23 94 24 47 26 81 27 60 28 80 29 61 30 64 31 79 32 99 33
REMARK SMILES IDX 62 34 63 35 78 37 100 38 65 39 48 40 49 41 58 42 50 43 51 44
REMARK SMILES IDX 57 45 59 46 52 47 53 48 54 49 55 50 56 51 82 52 83 53 92 54
REMARK SMILES IDX 84 55 85 56 91 57 93 58 86 59 87 60 88 61 89 62 90 63 66 64
REMARK SMILES IDX 67 65 76 66 68 67 69 68 75 69 77 70 70 71 71 72 72 73 73 74
REMARK SMILES IDX 74 75 7 76 8 77 9 78 10 80 11 81 12 82 17 83 13 84 16 85
REMARK SMILES IDX 15 86 14 87 18 88 19 89 20 90 21 92 22 93 25 94 23 95 24 96
REMARK SMILES IDX 38 97 35 98 37 99 36 100 26 101 27 102 28 103 29 105 30 106
REMARK SMILES IDX 34 107 31 108 33 109 32 110
REMARK H PARENT 3 7 98 25 64 36 8 79 20 91 28 104
REMARK Flexibility Score: inf
ROOT
ATOM      1  C   UNL A   1      35.957  23.978  25.765  1.00  0.00     0.023 C 
ENDROOT
BRANCH   1   2
ATOM      2  C   UNL A   1      37.415  23.550  25.585  1.00  0.00     0.023 C 
BRANCH   2   3
ATOM      3  C   UNL A   1      38.402  24.248  26.511  1.00  0.00     0.116 C 
BRANCH   3   4
ATOM      4  N   UNL A   1      39.777  24.149  26.042  1.00  0.00    -0.352 N 
ATOM      5  O   UNL A   1      41.917  24.821  25.783  1.00  0.00    -0.269 OA
ATOM      6  C   UNL A   1      40.852  24.936  26.383  1.00  0.00     0.251 C 
ATOM      7  H   UNL A   1      39.961  23.426  25.400  1.00  0.00     0.163 HD
BRANCH   6   8
ATOM      8  C   UNL A   1      40.696  25.941  27.456  1.00  0.00     0.039 A 
ATOM      9  C   UNL A   1      41.481  27.098  27.455  1.00  0.00     0.014 A 
ATOM     10  C   UNL A   1      39.785  25.708  28.489  1.00  0.00     0.014 A 
ATOM     11  C   UNL A   1      41.459  27.944  28.556  1.00  0.00     0.010 A 
ATOM     12  C   UNL A   1      39.702  26.610  29.554  1.00  0.00     0.010 A 
ATOM     13  C   UNL A   1      40.561  27.718  29.613  1.00  0.00    -0.014 A 
BRANCH  13  14
ATOM     14  C   UNL A   1      40.505  28.691  30.735  1.00  0.00     0.031 A 
ATOM     15  C   UNL A   1      39.479  29.788  30.769  1.00  0.00     0.074 A 
ATOM     16  C   UNL A   1      41.380  28.548  31.750  1.00  0.00     0.049 A 
ATOM     17  N   UNL A   1      39.279  30.700  31.688  1.00  0.00    -0.248 NA
ATOM     18  C   UNL A   1      38.560  29.885  29.624  1.00  0.00     0.031 C 
ATOM     19  C   UNL A   1      42.429  27.527  31.820  1.00  0.00     0.029 A 
ATOM     20  N   UNL A   1      41.517  29.242  32.925  1.00  0.00    -0.354 N 
ATOM     21  C   UNL A   1      38.230  31.487  31.228  1.00  0.00     0.074 A 
ATOM     22  C   UNL A   1      37.849  30.962  29.934  1.00  0.00     0.031 C 
ATOM     23  C   UNL A   1      43.068  27.630  32.994  1.00  0.00     0.029 A 
ATOM     24  C   UNL A   1      42.518  28.760  33.734  1.00  0.00     0.049 A 
ATOM     25  H   UNL A   1      40.953  30.012  33.165  1.00  0.00     0.167 HD
ATOM     26  C   UNL A   1      37.636  32.544  31.835  1.00  0.00     0.037 A 
ATOM     27  C   UNL A   1      42.959  29.187  34.931  1.00  0.00     0.037 A 
ATOM     28  C   UNL A   1      38.014  33.050  33.132  1.00  0.00     0.049 A 
ATOM     29  C   UNL A   1      42.293  30.368  35.573  1.00  0.00     0.074 A 
ATOM     30  C   UNL A   1      37.453  34.095  33.845  1.00  0.00     0.029 A 
ATOM     31  N   UNL A   1      39.052  32.552  33.908  1.00  0.00    -0.354 N 
ATOM     32  N   UNL A   1      41.284  31.083  35.135  1.00  0.00    -0.248 NA
ATOM     33  C   UNL A   1      42.827  30.806  36.869  1.00  0.00     0.031 C 
ATOM     34  C   UNL A   1      38.177  34.256  35.031  1.00  0.00     0.029 A 
ATOM     35  C   UNL A   1      39.159  33.281  35.082  1.00  0.00     0.049 A 
ATOM     36  H   UNL A   1      39.626  31.792  33.661  1.00  0.00     0.167 HD
ATOM     37  C   UNL A   1      41.051  32.045  36.109  1.00  0.00     0.074 A 
ATOM     38  C   UNL A   1      42.013  31.809  37.167  1.00  0.00     0.031 C 
ATOM     39  C   UNL A   1      40.125  33.036  36.125  1.00  0.00     0.037 A 
BRANCH  26  40
ATOM     40  C   UNL A   1      36.524  33.242  31.099  1.00  0.00     0.058 A 
ATOM     41  C   UNL A   1      35.185  33.135  31.505  1.00  0.00     0.135 A 
ATOM     42  C   UNL A   1      36.806  34.064  29.996  1.00  0.00     0.135 A 
ATOM     43  F   UNL A   1      34.854  32.353  32.545  1.00  0.00    -0.206 F 
ATOM     44  C   UNL A   1      34.162  33.797  30.830  1.00  0.00     0.059 A 
ATOM     45  C   UNL A   1      35.804  34.756  29.321  1.00  0.00     0.059 A 
ATOM     46  F   UNL A   1      38.070  34.206  29.564  1.00  0.00    -0.206 F 
ATOM     47  C   UNL A   1      34.483  34.603  29.737  1.00  0.00     0.060 A 
BRANCH  47  48
ATOM     48  S   UNL A   1      33.147  35.454  28.868  1.00  0.00     0.124 S 
ATOM     49  O   UNL A   1      32.358  35.969  29.984  1.00  0.00    -0.237 OA
ATOM     50  O   UNL A   1      33.866  36.454  28.087  1.00  0.00    -0.237 OA
ATOM     51  O   UNL A   1      32.514  34.392  28.092  1.00  0.00    -0.744 OA
ENDBRANCH  47  48
ENDBRANCH  26  40
BRANCH  27  52
ATOM     52  C   UNL A   1      44.089  28.483  35.592  1.00  0.00     0.058 A 
ATOM     53  C   UNL A   1      45.418  28.827  35.310  1.00  0.00     0.135 A 
ATOM     54  C   UNL A   1      43.860  27.476  36.542  1.00  0.00     0.135 A 
ATOM     55  F   UNL A   1      45.688  29.781  34.406  1.00  0.00    -0.206 F 
ATOM     56  C   UNL A   1      46.483  28.189  35.938  1.00  0.00     0.059 A 
ATOM     57  C   UNL A   1      44.906  26.845  37.204  1.00  0.00     0.059 A 
ATOM     58  F   UNL A   1      42.604  27.124  36.861  1.00  0.00    -0.206 F 
ATOM     59  C   UNL A   1      46.216  27.202  36.888  1.00  0.00     0.060 A 
BRANCH  59  60
ATOM     60  S   UNL A   1      47.601  26.420  37.742  1.00  0.00     0.124 S 
ATOM     61  O   UNL A   1      47.900  27.403  38.775  1.00  0.00    -0.237 OA
ATOM     62  O   UNL A   1      47.010  25.167  38.203  1.00  0.00    -0.237 OA
ATOM     63  O   UNL A   1      48.605  26.280  36.691  1.00  0.00    -0.744 OA
ENDBRANCH  59  60
ENDBRANCH  27  52
BRANCH  39  64
ATOM     64  C   UNL A   1      40.093  33.921  37.338  1.00  0.00     0.058 A 
ATOM     65  C   UNL A   1      40.864  35.091  37.418  1.00  0.00     0.135 A 
ATOM     66  C   UNL A   1      39.261  33.608  38.426  1.00  0.00     0.135 A 
ATOM     67  F   UNL A   1      41.683  35.430  36.410  1.00  0.00    -0.206 F 
ATOM     68  C   UNL A   1      40.834  35.906  38.545  1.00  0.00     0.059 A 
ATOM     69  C   UNL A   1      39.194  34.422  39.551  1.00  0.00     0.059 A 
ATOM     70  F   UNL A   1      38.497  32.504  38.397  1.00  0.00    -0.206 F 
ATOM     71  C   UNL A   1      39.996  35.562  39.608  1.00  0.00     0.060 A 
BRANCH  71  72
ATOM     72  S   UNL A   1      39.949  36.637  41.057  1.00  0.00     0.124 S 
ATOM     73  O   UNL A   1      41.116  37.484  40.832  1.00  0.00    -0.237 OA
ATOM     74  O   UNL A   1      38.653  37.294  40.918  1.00  0.00    -0.237 OA
ATOM     75  O   UNL A   1      40.055  35.704  42.174  1.00  0.00    -0.744 OA
ENDBRANCH  71  72
ENDBRANCH  39  64
ENDBRANCH  13  14
ENDBRANCH   6   8
ENDBRANCH   3   4
ENDBRANCH   2   3
ENDBRANCH   1   2
BRANCH   1  76
ATOM     76  C   UNL A   1      35.103  23.801  24.510  1.00  0.00     0.116 C 
BRANCH  76  77
ATOM     77  N   UNL A   1      34.860  22.392  24.252  1.00  0.00    -0.356 N 
ATOM     78  C   UNL A   1      33.684  21.700  24.312  1.00  0.00     0.224 C 
ATOM     79  H   UNL A   1      35.651  21.864  24.000  1.00  0.00     0.163 HD
ATOM     80  O   UNL A   1      33.711  20.473  24.252  1.00  0.00    -0.275 OA
BRANCH  78  81
ATOM     81  C   UNL A   1      32.401  22.502  24.329  1.00  0.00     0.094 C 
ATOM     82  C   UNL A   1      31.631  22.186  25.645  1.00  0.00     0.002 C 
ATOM     83  C   UNL A   1      32.554  24.038  24.368  1.00  0.00     0.094 C 
ATOM     84  C   UNL A   1      32.408  22.600  26.910  1.00  0.00     0.005 C 
ATOM     85  C   UNL A   1      30.586  23.280  25.605  1.00  0.00     0.009 C 
ATOM     86  C   UNL A   1      31.620  24.417  25.538  1.00  0.00     0.002 C 
ATOM     87  C   UNL A   1      32.386  24.136  26.851  1.00  0.00     0.005 C 
BRANCH  83  88
ATOM     88  C   UNL A   1      32.434  24.702  22.975  1.00  0.00     0.229 C 
ATOM     89  O   UNL A   1      32.529  23.972  21.977  1.00  0.00    -0.274 OA
ATOM     90  N   UNL A   1      32.030  25.982  22.739  1.00  0.00    -0.317 N 
ATOM     91  H   UNL A   1      31.569  26.113  21.879  1.00  0.00     0.170 HD
BRANCH  90  92
ATOM     92  C   UNL A   1      32.154  27.124  23.495  1.00  0.00     0.108 A 
ATOM     93  S   UNL A   1      33.701  27.816  23.581  1.00  0.00    -0.122 S 
ATOM     94  C   UNL A   1      31.151  27.983  23.977  1.00  0.00     0.078 A 
ATOM     95  C   UNL A   1      33.198  28.759  24.887  1.00  0.00     0.011 A 
ATOM     96  C   UNL A   1      31.818  28.928  24.905  1.00  0.00    -0.019 A 
ATOM     97  C   UNL A   1      34.189  29.323  25.861  1.00  0.00     0.047 C 
ATOM     98  C   UNL A   1      31.262  29.927  25.890  1.00  0.00     0.037 C 
ATOM     99  C   UNL A   1      33.462  29.812  27.115  1.00  0.00     0.006 C 
ATOM    100  C   UNL A   1      32.305  30.712  26.696  1.00  0.00     0.005 C 
BRANCH  94 101
ATOM    101  C   UNL A   1      29.755  27.692  23.525  1.00  0.00     0.254 C 
ATOM    102  O   UNL A   1      29.299  26.548  23.663  1.00  0.00    -0.269 OA
ATOM    103  N   UNL A   1      28.849  28.554  22.957  1.00  0.00    -0.349 N 
ATOM    104  H   UNL A   1      27.985  28.132  22.749  1.00  0.00     0.164 HD
BRANCH 103 105
ATOM    105  C   UNL A   1      28.905  29.943  22.606  1.00  0.00     0.082 C 
ATOM    106  C   UNL A   1      28.139  30.290  21.332  1.00  0.00     0.025 C 
ATOM    107  C   UNL A   1      28.529  30.887  23.743  1.00  0.00     0.025 C 
ATOM    108  C   UNL A   1      28.545  31.699  20.891  1.00  0.00     0.002 C 
ATOM    109  C   UNL A   1      28.878  32.326  23.355  1.00  0.00     0.002 C 
ATOM    110  C   UNL A   1      28.312  32.735  21.991  1.00  0.00     0.000 C 
ENDBRANCH 103 105
ENDBRANCH  94 101
ENDBRANCH  90  92
ENDBRANCH  83  88
ENDBRANCH  78  81
ENDBRANCH  76  77
ENDBRANCH   1  76
TORSDOF 18
ENDMDL
MODEL 3
REMARK VINA RESULT:     -12.9      5.906      7.693
REMARK SMILES O=C(NCCCCNC(=O)[C@H]1[C@H]2CC[C@H](C2)[C@@H]1C(=O)Nc1sc2c(c1C(=O)NC1CCCCC1)CCCC2)c1ccc(-c2c3nc(c(-c4c(F)cc(S(=O)(=O)[O-])cc4F)c4ccc([nH]4)c(-c4c(F)cc(S(=O)(=O)[O-])cc4F)c4nc(c(-c5c(F)cc(S(=O)(=O)[O-])cc5F)c5ccc2[nH]5)C=C4)C=C3)cc1
REMARK SMILES IDX 6 1 5 2 4 3 3 4 1 5 2 6 39 8 40 9 104 10 41 11 103 12 42 13
REMARK SMILES IDX 43 14 44 15 97 16 45 17 102 18 96 19 98 20 46 21 101 22
REMARK SMILES IDX 95 23 94 24 47 26 81 27 60 28 80 29 61 30 64 31 79 32 99 33
REMARK SMILES IDX 62 34 63 35 78 37 100 38 65 39 48 40 49 41 58 42 50 43 51 44
REMARK SMILES IDX 57 45 59 46 52 47 53 48 54 49 55 50 56 51 82 52 83 53 92 54
REMARK SMILES IDX 84 55 85 56 91 57 93 58 86 59 87 60 88 61 89 62 90 63 66 64
REMARK SMILES IDX 67 65 76 66 68 67 69 68 75 69 77 70 70 71 71 72 72 73 73 74
REMARK SMILES IDX 74 75 7 76 8 77 9 78 10 80 11 81 12 82 17 83 13 84 16 85
REMARK SMILES IDX 15 86 14 87 18 88 19 89 20 90 21 92 22 93 25 94 23 95 24 96
REMARK SMILES IDX 38 97 35 98 37 99 36 100 26 101 27 102 28 103 29 105 30 106
REMARK SMILES IDX 34 107 31 108 33 109 32 110
REMARK H PARENT 3 7 98 25 64 36 8 79 20 91 28 104
REMARK Flexibility Score: inf
ROOT
ATOM      1  C   UNL A   1      36.491  21.087  25.632  1.00  0.00     0.023 C 
ENDROOT
BRANCH   1   2
ATOM      2  C   UNL A   1      37.818  20.675  24.991  1.00  0.00     0.023 C 
BRANCH   2   3
ATOM      3  C   UNL A   1      39.053  21.001  25.819  1.00  0.00     0.116 C 
BRANCH   3   4
ATOM      4  N   UNL A   1      39.963  19.870  25.940  1.00  0.00    -0.352 N 
ATOM      5  O   UNL A   1      41.972  18.850  26.077  1.00  0.00    -0.269 OA
ATOM      6  C   UNL A   1      41.321  19.888  26.151  1.00  0.00     0.251 C 
ATOM      7  H   UNL A   1      39.553  18.979  25.862  1.00  0.00     0.163 HD
BRANCH   6   8
ATOM      8  C   UNL A   1      41.989  21.177  26.435  1.00  0.00     0.039 A 
ATOM      9  C   UNL A   1      42.285  21.540  27.751  1.00  0.00     0.014 A 
ATOM     10  C   UNL A   1      42.287  22.043  25.380  1.00  0.00     0.014 A 
ATOM     11  C   UNL A   1      42.744  22.822  28.024  1.00  0.00     0.010 A 
ATOM     12  C   UNL A   1      42.832  23.302  25.652  1.00  0.00     0.010 A 
ATOM     13  C   UNL A   1      43.035  23.714  26.978  1.00  0.00    -0.014 A 
BRANCH  13  14
ATOM     14  C   UNL A   1      43.604  25.048  27.303  1.00  0.00     0.031 A 
ATOM     15  C   UNL A   1      45.047  25.370  27.031  1.00  0.00     0.074 A 
ATOM     16  C   UNL A   1      42.785  25.986  27.819  1.00  0.00     0.049 A 
ATOM     17  N   UNL A   1      45.690  26.493  27.230  1.00  0.00    -0.248 NA
ATOM     18  C   UNL A   1      45.882  24.296  26.471  1.00  0.00     0.031 C 
ATOM     19  C   UNL A   1      41.368  25.783  28.136  1.00  0.00     0.029 A 
ATOM     20  N   UNL A   1      43.012  27.297  28.148  1.00  0.00    -0.354 N 
ATOM     21  C   UNL A   1      47.004  26.259  26.840  1.00  0.00     0.074 A 
ATOM     22  C   UNL A   1      47.073  24.877  26.414  1.00  0.00     0.031 C 
ATOM     23  C   UNL A   1      40.843  26.939  28.566  1.00  0.00     0.029 A 
ATOM     24  C   UNL A   1      41.895  27.947  28.615  1.00  0.00     0.049 A 
ATOM     25  H   UNL A   1      43.891  27.731  28.058  1.00  0.00     0.167 HD
ATOM     26  C   UNL A   1      48.051  27.121  26.830  1.00  0.00     0.037 A 
ATOM     27  C   UNL A   1      41.734  29.210  29.050  1.00  0.00     0.037 A 
ATOM     28  C   UNL A   1      47.966  28.501  27.243  1.00  0.00     0.049 A 
ATOM     29  C   UNL A   1      42.912  30.138  29.043  1.00  0.00     0.074 A 
ATOM     30  C   UNL A   1      48.962  29.462  27.239  1.00  0.00     0.029 A 
ATOM     31  N   UNL A   1      46.823  29.114  27.736  1.00  0.00    -0.354 N 
ATOM     32  N   UNL A   1      44.140  29.906  28.644  1.00  0.00    -0.248 NA
ATOM     33  C   UNL A   1      42.688  31.498  29.549  1.00  0.00     0.031 C 
ATOM     34  C   UNL A   1      48.433  30.644  27.770  1.00  0.00     0.029 A 
ATOM     35  C   UNL A   1      47.095  30.435  28.059  1.00  0.00     0.049 A 
ATOM     36  H   UNL A   1      45.948  28.677  27.840  1.00  0.00     0.167 HD
ATOM     37  C   UNL A   1      44.832  31.095  28.835  1.00  0.00     0.074 A 
ATOM     38  C   UNL A   1      43.879  32.049  29.368  1.00  0.00     0.031 C 
ATOM     39  C   UNL A   1      46.137  31.373  28.592  1.00  0.00     0.037 A 
BRANCH  26  40
ATOM     40  C   UNL A   1      49.387  26.597  26.376  1.00  0.00     0.058 A 
ATOM     41  C   UNL A   1      49.872  26.829  25.080  1.00  0.00     0.135 A 
ATOM     42  C   UNL A   1      50.213  25.890  27.265  1.00  0.00     0.135 A 
ATOM     43  F   UNL A   1      49.120  27.489  24.184  1.00  0.00    -0.206 F 
ATOM     44  C   UNL A   1      51.117  26.356  24.671  1.00  0.00     0.059 A 
ATOM     45  C   UNL A   1      51.471  25.430  26.887  1.00  0.00     0.059 A 
ATOM     46  F   UNL A   1      49.801  25.641  28.519  1.00  0.00    -0.206 F 
ATOM     47  C   UNL A   1      51.908  25.655  25.583  1.00  0.00     0.060 A 
BRANCH  47  48
ATOM     48  S   UNL A   1      53.519  25.045  25.039  1.00  0.00     0.124 S 
ATOM     49  O   UNL A   1      53.360  23.605  25.222  1.00  0.00    -0.237 OA
ATOM     50  O   UNL A   1      53.579  25.505  23.657  1.00  0.00    -0.237 OA
ATOM     51  O   UNL A   1      54.454  25.692  25.953  1.00  0.00    -0.744 OA
ENDBRANCH  47  48
ENDBRANCH  26  40
BRANCH  27  52
ATOM     52  C   UNL A   1      40.399  29.659  29.526  1.00  0.00     0.058 A 
ATOM     53  C   UNL A   1      40.149  29.864  30.890  1.00  0.00     0.135 A 
ATOM     54  C   UNL A   1      39.358  29.923  28.622  1.00  0.00     0.135 A 
ATOM     55  F   UNL A   1      41.112  29.622  31.792  1.00  0.00    -0.206 F 
ATOM     56  C   UNL A   1      38.911  30.305  31.343  1.00  0.00     0.059 A 
ATOM     57  C   UNL A   1      38.122  30.391  29.048  1.00  0.00     0.059 A 
ATOM     58  F   UNL A   1      39.554  29.760  27.303  1.00  0.00    -0.206 F 
ATOM     59  C   UNL A   1      37.904  30.570  30.413  1.00  0.00     0.060 A 
BRANCH  59  60
ATOM     60  S   UNL A   1      36.318  31.197  31.005  1.00  0.00     0.124 S 
ATOM     61  O   UNL A   1      35.907  30.137  31.918  1.00  0.00    -0.237 OA
ATOM     62  O   UNL A   1      36.699  32.462  31.625  1.00  0.00    -0.237 OA
ATOM     63  O   UNL A   1      35.529  31.320  29.782  1.00  0.00    -0.744 OA
ENDBRANCH  59  60
ENDBRANCH  27  52
BRANCH  39  64
ATOM     64  C   UNL A   1      46.603  32.772  28.877  1.00  0.00     0.058 A 
ATOM     65  C   UNL A   1      46.583  33.771  27.892  1.00  0.00     0.135 A 
ATOM     66  C   UNL A   1      47.052  33.124  30.161  1.00  0.00     0.135 A 
ATOM     67  F   UNL A   1      46.173  33.484  26.647  1.00  0.00    -0.206 F 
ATOM     68  C   UNL A   1      47.019  35.064  28.160  1.00  0.00     0.059 A 
ATOM     69  C   UNL A   1      47.466  34.417  30.459  1.00  0.00     0.059 A 
ATOM     70  F   UNL A   1      47.083  32.207  31.141  1.00  0.00    -0.206 F 
ATOM     71  C   UNL A   1      47.461  35.378  29.448  1.00  0.00     0.060 A 
BRANCH  71  72
ATOM     72  S   UNL A   1      48.006  37.064  29.791  1.00  0.00     0.124 S 
ATOM     73  O   UNL A   1      46.825  37.628  30.437  1.00  0.00    -0.237 OA
ATOM     74  O   UNL A   1      49.161  36.850  30.657  1.00  0.00    -0.237 OA
ATOM     75  O   UNL A   1      48.313  37.597  28.467  1.00  0.00    -0.744 OA
ENDBRANCH  71  72
ENDBRANCH  39  64
ENDBRANCH  13  14
ENDBRANCH   6   8
ENDBRANCH   3   4
ENDBRANCH   2   3
ENDBRANCH   1   2
BRANCH   1  76
ATOM     76  C   UNL A   1      35.408  21.458  24.620  1.00  0.00     0.116 C 
BRANCH  76  77
ATOM     77  N   UNL A   1      34.354  20.459  24.610  1.00  0.00    -0.356 N 
ATOM     78  C   UNL A   1      33.058  20.574  25.026  1.00  0.00     0.224 C 
ATOM     79  H   UNL A   1      34.608  19.577  24.253  1.00  0.00     0.163 HD
ATOM     80  O   UNL A   1      32.370  19.561  25.121  1.00  0.00    -0.275 OA
BRANCH  78  81
ATOM     81  C   UNL A   1      32.512  21.970  25.233  1.00  0.00     0.094 C 
ATOM     82  C   UNL A   1      32.219  22.173  26.749  1.00  0.00     0.002 C 
ATOM     83  C   UNL A   1      33.468  23.136  24.899  1.00  0.00     0.094 C 
ATOM     84  C   UNL A   1      33.484  22.077  27.625  1.00  0.00     0.005 C 
ATOM     85  C   UNL A   1      31.992  23.669  26.773  1.00  0.00     0.009 C 
ATOM     86  C   UNL A   1      33.370  24.000  26.176  1.00  0.00     0.002 C 
ATOM     87  C   UNL A   1      34.271  23.343  27.247  1.00  0.00     0.005 C 
BRANCH  83  88
ATOM     88  C   UNL A   1      33.239  23.731  23.488  1.00  0.00     0.229 C 
ATOM     89  O   UNL A   1      33.425  22.989  22.512  1.00  0.00    -0.274 OA
ATOM     90  N   UNL A   1      32.656  24.933  23.220  1.00  0.00    -0.317 N 
ATOM     91  H   UNL A   1      32.171  24.969  22.363  1.00  0.00     0.170 HD
BRANCH  90  92
ATOM     92  C   UNL A   1      32.626  26.105  23.938  1.00  0.00     0.108 A 
ATOM     93  S   UNL A   1      34.046  27.034  23.940  1.00  0.00    -0.122 S 
ATOM     94  C   UNL A   1      31.518  26.812  24.437  1.00  0.00     0.078 A 
ATOM     95  C   UNL A   1      33.449  27.929  25.240  1.00  0.00     0.011 A 
ATOM     96  C   UNL A   1      32.061  27.881  25.311  1.00  0.00    -0.019 A 
ATOM     97  C   UNL A   1      34.374  28.674  26.154  1.00  0.00     0.047 C 
ATOM     98  C   UNL A   1      31.392  28.813  26.290  1.00  0.00     0.037 C 
ATOM     99  C   UNL A   1      33.625  29.085  27.424  1.00  0.00     0.006 C 
ATOM    100  C   UNL A   1      32.326  29.778  27.030  1.00  0.00     0.005 C 
BRANCH  94 101
ATOM    101  C   UNL A   1      30.170  26.291  24.052  1.00  0.00     0.254 C 
ATOM    102  O   UNL A   1      29.938  25.077  24.152  1.00  0.00    -0.269 OA
ATOM    103  N   UNL A   1      29.087  26.996  23.589  1.00  0.00    -0.349 N 
ATOM    104  H   UNL A   1      28.301  26.433  23.408  1.00  0.00     0.164 HD
BRANCH 103 105
ATOM    105  C   UNL A   1      28.867  28.386  23.314  1.00  0.00     0.082 C 
ATOM    106  C   UNL A   1      29.680  28.920  22.138  1.00  0.00     0.025 C 
ATOM    107  C   UNL A   1      27.397  28.769  23.179  1.00  0.00     0.025 C 
ATOM    108  C   UNL A   1      29.617  30.450  22.159  1.00  0.00     0.002 C 
ATOM    109  C   UNL A   1      27.261  30.294  23.160  1.00  0.00     0.002 C 
ATOM    110  C   UNL A   1      28.176  30.966  22.132  1.00  0.00     0.000 C 
ENDBRANCH 103 105
ENDBRANCH  94 101
ENDBRANCH  90  92
ENDBRANCH  83  88
ENDBRANCH  78  81
ENDBRANCH  76  77
ENDBRANCH   1  76
TORSDOF 18
ENDMDL
