MODEL 1
REMARK VINA RESULT:     -12.6      0.000      0.000
REMARK SMILES Cc1nc(-c2ccc(S(=O)(=O)N3CC[NH2+][C@H](C(=O)NCCCCNC(=O)c4ccc(-c5c6nc(c(-c7c(F)cc(S(=O)(=O)[O-])cc7F)c7ccc([nH]7)c(-c7c(F)cc(S(=O)(=O)[O-])cc7F)c7nc(c(-c8c(F)cc(S(=O)(=O)[O-])cc8F)c8ccc5[nH]8)C=C7)C=C6)cc4)C3)s2)cs1
REMARK SMILES IDX 21 1 20 2 19 3 17 4 18 5 16 7 12 8 13 9 93 10 14 11 15 12
REMARK SMILES IDX 9 15 10 16 11 17 8 18 5 19 6 20 94 21 7 22 4 23 1 24 2 25
REMARK SMILES IDX 3 26 96 27 95 28 22 29 23 30 24 31 25 32 26 34 27 35 28 36
REMARK SMILES IDX 92 37 29 38 91 39 30 40 31 41 32 42 85 43 33 44 90 45 84 46
REMARK SMILES IDX 86 47 34 48 89 49 83 50 82 51 35 53 69 54 48 55 68 56 49 57
REMARK SMILES IDX 52 58 67 59 87 60 50 61 51 62 66 64 88 65 53 66 36 67 37 68
REMARK SMILES IDX 46 69 38 70 39 71 45 72 47 73 40 74 41 75 42 76 43 77 44 78
REMARK SMILES IDX 70 79 71 80 80 81 72 82 73 83 79 84 81 85 74 86 75 87 76 88
REMARK SMILES IDX 77 89 78 90 54 91 55 92 64 93 56 94 57 95 63 96 65 97 58 98
REMARK SMILES IDX 59 99 60 100 61 101 62 102
REMARK H PARENT 19 6 15 13 15 14 24 33 86 52 52 63
REMARK Flexibility Score: inf
ROOT
ATOM      1  C   UNL A   1      40.283  21.732  26.349  1.00  0.00     0.023 C 
ENDROOT
BRANCH   1   2
ATOM      2  C   UNL A   1      38.808  22.051  26.087  1.00  0.00     0.116 C 
BRANCH   2   3
ATOM      3  N   UNL A   1      38.232  20.999  25.278  1.00  0.00    -0.351 N 
ATOM      4  C   UNL A   1      36.934  20.620  25.136  1.00  0.00     0.279 C 
ATOM      5  O   UNL A   1      36.754  19.438  24.816  1.00  0.00    -0.268 OA
ATOM      6  H   UNL A   1      38.879  20.479  24.749  1.00  0.00     0.163 HD
BRANCH   4   7
ATOM      7  C   UNL A   1      35.742  21.619  25.203  1.00  0.00     0.287 C 
ATOM      8  N   UNL A   1      34.650  23.794  24.827  1.00  0.00    -0.185 NA
ATOM      9  C   UNL A   1      34.200  23.951  26.220  1.00  0.00     0.164 C 
ATOM     10  C   UNL A   1      35.943  23.065  24.757  1.00  0.00     0.178 C 
ATOM     11  C   UNL A   1      34.225  22.618  26.987  1.00  0.00     0.278 C 
ATOM     12  N   UNL A   1      35.176  21.568  26.593  1.00  0.00    -0.334 N 
ATOM     13  H   UNL A   1      34.699  20.672  26.693  1.00  0.00     0.347 HD
ATOM     14  H   UNL A   1      35.981  21.709  27.204  1.00  0.00     0.347 HD
BRANCH   8  15
ATOM     15  S   UNL A   1      33.526  23.635  23.566  1.00  0.00     0.253 S 
ATOM     16  O   UNL A   1      32.442  22.817  24.079  1.00  0.00    -0.206 OA
ATOM     17  O   UNL A   1      34.265  23.251  22.384  1.00  0.00    -0.206 OA
BRANCH  15  18
ATOM     18  C   UNL A   1      32.739  25.177  23.096  1.00  0.00     0.135 A 
ATOM     19  C   UNL A   1      30.968  26.907  22.910  1.00  0.00     0.055 A 
ATOM     20  C   UNL A   1      32.046  27.179  22.105  1.00  0.00     0.023 A 
ATOM     21  S   UNL A   1      31.213  25.507  23.849  1.00  0.00    -0.121 S 
ATOM     22  C   UNL A   1      33.059  26.205  22.231  1.00  0.00     0.034 A 
BRANCH  19  23
ATOM     23  C   UNL A   1      29.763  27.784  22.853  1.00  0.00     0.091 A 
ATOM     24  C   UNL A   1      28.407  30.795  21.318  1.00  0.00     0.079 C 
ATOM     25  C   UNL A   1      28.676  29.566  22.111  1.00  0.00     0.090 A 
ATOM     26  N   UNL A   1      29.838  28.956  22.118  1.00  0.00    -0.241 NA
ATOM     27  S   UNL A   1      27.467  28.838  23.088  1.00  0.00    -0.127 S 
ATOM     28  C   UNL A   1      28.550  27.553  23.464  1.00  0.00     0.096 A 
ENDBRANCH  19  23
ENDBRANCH  15  18
ENDBRANCH   8  15
ENDBRANCH   4   7
ENDBRANCH   2   3
ENDBRANCH   1   2
BRANCH   1  29
ATOM     29  C   UNL A   1      40.834  22.410  27.612  1.00  0.00     0.023 C 
BRANCH  29  30
ATOM     30  C   UNL A   1      42.057  23.285  27.366  1.00  0.00     0.116 C 
BRANCH  30  31
ATOM     31  N   UNL A   1      41.927  24.101  26.170  1.00  0.00    -0.352 N 
ATOM     32  C   UNL A   1      41.588  25.427  26.079  1.00  0.00     0.251 C 
ATOM     33  H   UNL A   1      42.106  23.644  25.316  1.00  0.00     0.163 HD
ATOM     34  O   UNL A   1      41.393  25.941  24.982  1.00  0.00    -0.269 OA
BRANCH  32  35
ATOM     35  C   UNL A   1      41.417  26.209  27.318  1.00  0.00     0.039 A 
ATOM     36  C   UNL A   1      42.374  27.174  27.635  1.00  0.00     0.014 A 
ATOM     37  C   UNL A   1      40.303  26.015  28.139  1.00  0.00     0.014 A 
ATOM     38  C   UNL A   1      42.185  27.982  28.756  1.00  0.00     0.010 A 
ATOM     39  C   UNL A   1      40.082  26.868  29.214  1.00  0.00     0.010 A 
ATOM     40  C   UNL A   1      41.024  27.856  29.537  1.00  0.00    -0.014 A 
BRANCH  40  41
ATOM     41  C   UNL A   1      40.789  28.756  30.691  1.00  0.00     0.031 A 
ATOM     42  C   UNL A   1      41.621  28.623  31.937  1.00  0.00     0.074 A 
ATOM     43  C   UNL A   1      39.797  29.666  30.628  1.00  0.00     0.049 A 
ATOM     44  N   UNL A   1      41.567  29.321  33.041  1.00  0.00    -0.248 NA
ATOM     45  C   UNL A   1      42.625  27.547  31.956  1.00  0.00     0.031 C 
ATOM     46  C   UNL A   1      38.878  29.838  29.499  1.00  0.00     0.029 A 
ATOM     47  N   UNL A   1      39.395  30.616  31.530  1.00  0.00    -0.354 N 
ATOM     48  C   UNL A   1      42.520  28.765  33.887  1.00  0.00     0.074 A 
ATOM     49  C   UNL A   1      43.095  27.636  33.191  1.00  0.00     0.031 C 
ATOM     50  C   UNL A   1      38.043  30.856  29.764  1.00  0.00     0.029 A 
ATOM     51  C   UNL A   1      38.350  31.391  31.086  1.00  0.00     0.049 A 
ATOM     52  H   UNL A   1      39.815  30.733  32.413  1.00  0.00     0.167 HD
ATOM     53  C   UNL A   1      42.901  29.178  35.120  1.00  0.00     0.037 A 
ATOM     54  C   UNL A   1      37.719  32.426  31.674  1.00  0.00     0.037 A 
ATOM     55  C   UNL A   1      42.341  30.320  35.794  1.00  0.00     0.049 A 
ATOM     56  C   UNL A   1      38.191  32.895  33.024  1.00  0.00     0.074 A 
ATOM     57  C   UNL A   1      42.692  30.856  37.021  1.00  0.00     0.029 A 
ATOM     58  N   UNL A   1      41.315  31.109  35.292  1.00  0.00    -0.354 N 
ATOM     59  N   UNL A   1      39.142  32.402  33.780  1.00  0.00    -0.248 NA
ATOM     60  C   UNL A   1      37.517  34.070  33.589  1.00  0.00     0.031 C 
ATOM     61  C   UNL A   1      41.856  31.949  37.275  1.00  0.00     0.029 A 
ATOM     62  C   UNL A   1      41.014  32.121  36.188  1.00  0.00     0.049 A 
ATOM     63  H   UNL A   1      40.865  30.969  34.428  1.00  0.00     0.167 HD
ATOM     64  C   UNL A   1      39.203  33.226  34.898  1.00  0.00     0.074 A 
ATOM     65  C   UNL A   1      38.199  34.255  34.712  1.00  0.00     0.031 C 
ATOM     66  C   UNL A   1      40.018  33.141  35.980  1.00  0.00     0.037 A 
BRANCH  53  67
ATOM     67  C   UNL A   1      43.981  28.393  35.811  1.00  0.00     0.058 A 
ATOM     68  C   UNL A   1      45.342  28.685  35.614  1.00  0.00     0.135 A 
ATOM     69  C   UNL A   1      43.658  27.353  36.696  1.00  0.00     0.135 A 
ATOM     70  F   UNL A   1      45.708  29.658  34.764  1.00  0.00    -0.206 F 
ATOM     71  C   UNL A   1      46.343  27.954  36.245  1.00  0.00     0.059 A 
ATOM     72  C   UNL A   1      44.643  26.627  37.362  1.00  0.00     0.059 A 
ATOM     73  F   UNL A   1      42.375  27.031  36.922  1.00  0.00    -0.206 F 
ATOM     74  C   UNL A   1      45.983  26.924  37.116  1.00  0.00     0.060 A 
BRANCH  74  75
ATOM     75  S   UNL A   1      47.293  25.985  37.929  1.00  0.00     0.124 S 
ATOM     76  O   UNL A   1      48.352  26.985  38.022  1.00  0.00    -0.237 OA
ATOM     77  O   UNL A   1      46.668  25.605  39.192  1.00  0.00    -0.237 OA
ATOM     78  O   UNL A   1      47.547  24.886  37.003  1.00  0.00    -0.744 OA
ENDBRANCH  74  75
ENDBRANCH  53  67
BRANCH  54  79
ATOM     79  C   UNL A   1      36.614  33.121  30.965  1.00  0.00     0.058 A 
ATOM     80  C   UNL A   1      35.279  32.947  31.363  1.00  0.00     0.135 A 
ATOM     81  C   UNL A   1      36.867  33.985  29.888  1.00  0.00     0.135 A 
ATOM     82  F   UNL A   1      34.987  32.130  32.387  1.00  0.00    -0.206 F 
ATOM     83  C   UNL A   1      34.233  33.589  30.709  1.00  0.00     0.059 A 
ATOM     84  C   UNL A   1      35.840  34.656  29.233  1.00  0.00     0.059 A 
ATOM     85  F   UNL A   1      38.127  34.202  29.482  1.00  0.00    -0.206 F 
ATOM     86  C   UNL A   1      34.524  34.444  29.644  1.00  0.00     0.060 A 
BRANCH  86  87
ATOM     87  S   UNL A   1      33.164  35.310  28.832  1.00  0.00     0.124 S 
ATOM     88  O   UNL A   1      32.585  34.250  28.015  1.00  0.00    -0.237 OA
ATOM     89  O   UNL A   1      32.360  35.753  29.967  1.00  0.00    -0.237 OA
ATOM     90  O   UNL A   1      33.839  36.377  28.099  1.00  0.00    -0.744 OA
ENDBRANCH  86  87
ENDBRANCH  54  79
BRANCH  66  91
ATOM     91  C   UNL A   1      39.886  34.216  37.023  1.00  0.00     0.058 A 
ATOM     92  C   UNL A   1      40.512  35.464  36.881  1.00  0.00     0.135 A 
ATOM     93  C   UNL A   1      39.101  34.000  38.166  1.00  0.00     0.135 A 
ATOM     94  F   UNL A   1      41.277  35.719  35.809  1.00  0.00    -0.206 F 
ATOM     95  C   UNL A   1      40.393  36.449  37.857  1.00  0.00     0.059 A 
ATOM     96  C   UNL A   1      38.946  34.980  39.140  1.00  0.00     0.059 A 
ATOM     97  F   UNL A   1      38.470  32.828  38.342  1.00  0.00    -0.206 F 
ATOM     98  C   UNL A   1      39.611  36.195  38.985  1.00  0.00     0.060 A 
BRANCH  98  99
ATOM     99  S   UNL A   1      39.456  37.483  40.241  1.00  0.00     0.124 S 
ATOM    100  O   UNL A   1      38.638  38.472  39.547  1.00  0.00    -0.237 OA
ATOM    101  O   UNL A   1      38.803  36.777  41.338  1.00  0.00    -0.237 OA
ATOM    102  O   UNL A   1      40.839  37.877  40.494  1.00  0.00    -0.744 OA
ENDBRANCH  98  99
ENDBRANCH  66  91
ENDBRANCH  40  41
ENDBRANCH  32  35
ENDBRANCH  30  31
ENDBRANCH  29  30
ENDBRANCH   1  29
TORSDOF 17
ENDMDL
MODEL 2
REMARK VINA RESULT:     -12.3      2.370      8.618
REMARK SMILES Cc1nc(-c2ccc(S(=O)(=O)N3CC[NH2+][C@H](C(=O)NCCCCNC(=O)c4ccc(-c5c6nc(c(-c7c(F)cc(S(=O)(=O)[O-])cc7F)c7ccc([nH]7)c(-c7c(F)cc(S(=O)(=O)[O-])cc7F)c7nc(c(-c8c(F)cc(S(=O)(=O)[O-])cc8F)c8ccc5[nH]8)C=C7)C=C6)cc4)C3)s2)cs1
REMARK SMILES IDX 21 1 20 2 19 3 17 4 18 5 16 7 12 8 13 9 93 10 14 11 15 12
REMARK SMILES IDX 9 15 10 16 11 17 8 18 5 19 6 20 94 21 7 22 4 23 1 24 2 25
REMARK SMILES IDX 3 26 96 27 95 28 22 29 23 30 24 31 25 32 26 34 27 35 28 36
REMARK SMILES IDX 92 37 29 38 91 39 30 40 31 41 32 42 85 43 33 44 90 45 84 46
REMARK SMILES IDX 86 47 34 48 89 49 83 50 82 51 35 53 69 54 48 55 68 56 49 57
REMARK SMILES IDX 52 58 67 59 87 60 50 61 51 62 66 64 88 65 53 66 36 67 37 68
REMARK SMILES IDX 46 69 38 70 39 71 45 72 47 73 40 74 41 75 42 76 43 77 44 78
REMARK SMILES IDX 70 79 71 80 80 81 72 82 73 83 79 84 81 85 74 86 75 87 76 88
REMARK SMILES IDX 77 89 78 90 54 91 55 92 64 93 56 94 57 95 63 96 65 97 58 98
REMARK SMILES IDX 59 99 60 100 61 101 62 102
REMARK H PARENT 19 6 15 13 15 14 24 33 86 52 52 63
REMARK Flexibility Score: inf
ROOT
ATOM      1  C   UNL A   1      32.232  30.816  25.942  1.00  0.00     0.023 C 
ENDROOT
BRANCH   1   2
ATOM      2  C   UNL A   1      33.183  29.792  26.571  1.00  0.00     0.116 C 
BRANCH   2   3
ATOM      3  N   UNL A   1      32.436  28.939  27.469  1.00  0.00    -0.351 N 
ATOM      4  C   UNL A   1      31.759  27.788  27.216  1.00  0.00     0.279 C 
ATOM      5  O   UNL A   1      30.824  27.537  27.988  1.00  0.00    -0.268 OA
ATOM      6  H   UNL A   1      32.416  29.238  28.407  1.00  0.00     0.163 HD
BRANCH   4   7
ATOM      7  C   UNL A   1      32.205  26.755  26.141  1.00  0.00     0.287 C 
ATOM      8  N   UNL A   1      32.109  24.588  24.975  1.00  0.00    -0.185 NA
ATOM      9  C   UNL A   1      33.549  24.310  25.107  1.00  0.00     0.164 C 
ATOM     10  C   UNL A   1      31.599  25.355  26.142  1.00  0.00     0.178 C 
ATOM     11  C   UNL A   1      34.352  25.580  25.440  1.00  0.00     0.278 C 
ATOM     12  N   UNL A   1      33.705  26.683  26.166  1.00  0.00    -0.334 N 
ATOM     13  H   UNL A   1      34.057  27.555  25.773  1.00  0.00     0.347 HD
ATOM     14  H   UNL A   1      33.937  26.516  27.146  1.00  0.00     0.347 HD
BRANCH   8  15
ATOM     15  S   UNL A   1      31.407  24.815  23.447  1.00  0.00     0.253 S 
ATOM     16  O   UNL A   1      30.605  23.636  23.181  1.00  0.00    -0.206 OA
ATOM     17  O   UNL A   1      32.465  25.226  22.551  1.00  0.00    -0.206 OA
BRANCH  15  18
ATOM     18  C   UNL A   1      30.239  26.176  23.381  1.00  0.00     0.135 A 
ATOM     19  C   UNL A   1      29.374  28.461  22.941  1.00  0.00     0.055 A 
ATOM     20  C   UNL A   1      28.492  27.703  23.670  1.00  0.00     0.023 A 
ATOM     21  S   UNL A   1      30.758  27.573  22.495  1.00  0.00    -0.121 S 
ATOM     22  C   UNL A   1      28.978  26.398  23.898  1.00  0.00     0.034 A 
BRANCH  19  23
ATOM     23  C   UNL A   1      29.067  29.896  22.670  1.00  0.00     0.091 A 
ATOM     24  C   UNL A   1      27.934  32.207  20.095  1.00  0.00     0.079 C 
ATOM     25  C   UNL A   1      28.430  31.538  21.326  1.00  0.00     0.090 A 
ATOM     26  N   UNL A   1      28.743  30.264  21.374  1.00  0.00    -0.241 NA
ATOM     27  S   UNL A   1      28.632  32.392  22.802  1.00  0.00    -0.127 S 
ATOM     28  C   UNL A   1      29.069  30.923  23.587  1.00  0.00     0.096 A 
ENDBRANCH  19  23
ENDBRANCH  15  18
ENDBRANCH   8  15
ENDBRANCH   4   7
ENDBRANCH   2   3
ENDBRANCH   1   2
BRANCH   1  29
ATOM     29  C   UNL A   1      31.826  31.938  26.909  1.00  0.00     0.023 C 
BRANCH  29  30
ATOM     30  C   UNL A   1      33.004  32.674  27.538  1.00  0.00     0.116 C 
BRANCH  30  31
ATOM     31  N   UNL A   1      32.696  34.062  27.841  1.00  0.00    -0.352 N 
ATOM     32  C   UNL A   1      33.281  34.877  28.777  1.00  0.00     0.251 C 
ATOM     33  H   UNL A   1      31.976  34.470  27.307  1.00  0.00     0.163 HD
ATOM     34  O   UNL A   1      32.818  35.990  29.003  1.00  0.00    -0.269 OA
BRANCH  32  35
ATOM     35  C   UNL A   1      34.442  34.376  29.537  1.00  0.00     0.039 A 
ATOM     36  C   UNL A   1      34.216  33.746  30.762  1.00  0.00     0.014 A 
ATOM     37  C   UNL A   1      35.738  34.496  29.027  1.00  0.00     0.014 A 
ATOM     38  C   UNL A   1      35.291  33.189  31.453  1.00  0.00     0.010 A 
ATOM     39  C   UNL A   1      36.797  33.879  29.683  1.00  0.00     0.010 A 
ATOM     40  C   UNL A   1      36.585  33.225  30.906  1.00  0.00    -0.014 A 
BRANCH  40  41
ATOM     41  C   UNL A   1      37.720  32.579  31.607  1.00  0.00     0.031 A 
ATOM     42  C   UNL A   1      38.188  33.105  32.936  1.00  0.00     0.074 A 
ATOM     43  C   UNL A   1      38.353  31.542  31.024  1.00  0.00     0.049 A 
ATOM     44  N   UNL A   1      39.155  32.669  33.700  1.00  0.00    -0.248 NA
ATOM     45  C   UNL A   1      37.498  34.293  33.462  1.00  0.00     0.031 C 
ATOM     46  C   UNL A   1      38.033  30.992  29.704  1.00  0.00     0.029 A 
ATOM     47  N   UNL A   1      39.394  30.767  31.463  1.00  0.00    -0.354 N 
ATOM     48  C   UNL A   1      39.196  33.532  34.790  1.00  0.00     0.074 A 
ATOM     49  C   UNL A   1      38.196  34.550  34.558  1.00  0.00     0.031 C 
ATOM     50  C   UNL A   1      38.840  29.947  29.457  1.00  0.00     0.029 A 
ATOM     51  C   UNL A   1      39.746  29.768  30.586  1.00  0.00     0.049 A 
ATOM     52  H   UNL A   1      39.848  30.911  32.325  1.00  0.00     0.167 HD
ATOM     53  C   UNL A   1      39.976  33.463  35.895  1.00  0.00     0.037 A 
ATOM     54  C   UNL A   1      40.686  28.808  30.689  1.00  0.00     0.037 A 
ATOM     55  C   UNL A   1      40.950  32.429  36.128  1.00  0.00     0.049 A 
ATOM     56  C   UNL A   1      41.508  28.724  31.946  1.00  0.00     0.074 A 
ATOM     57  C   UNL A   1      41.755  32.236  37.238  1.00  0.00     0.029 A 
ATOM     58  N   UNL A   1      41.246  31.407  35.237  1.00  0.00    -0.354 N 
ATOM     59  N   UNL A   1      41.484  29.507  32.999  1.00  0.00    -0.248 NA
ATOM     60  C   UNL A   1      42.469  27.618  32.037  1.00  0.00     0.031 C 
ATOM     61  C   UNL A   1      42.560  31.116  37.003  1.00  0.00     0.029 A 
ATOM     62  C   UNL A   1      42.227  30.586  35.768  1.00  0.00     0.049 A 
ATOM     63  H   UNL A   1      40.824  31.285  34.356  1.00  0.00     0.167 HD
ATOM     64  C   UNL A   1      42.405  28.969  33.892  1.00  0.00     0.074 A 
ATOM     65  C   UNL A   1      42.958  27.789  33.258  1.00  0.00     0.031 C 
ATOM     66  C   UNL A   1      42.758  29.410  35.125  1.00  0.00     0.037 A 
BRANCH  53  67
ATOM     67  C   UNL A   1      39.796  34.531  36.938  1.00  0.00     0.058 A 
ATOM     68  C   UNL A   1      40.491  35.751  36.867  1.00  0.00     0.135 A 
ATOM     69  C   UNL A   1      38.906  34.348  38.007  1.00  0.00     0.135 A 
ATOM     70  F   UNL A   1      41.369  35.972  35.876  1.00  0.00    -0.206 F 
ATOM     71  C   UNL A   1      40.333  36.736  37.836  1.00  0.00     0.059 A 
ATOM     72  C   UNL A   1      38.710  35.332  38.972  1.00  0.00     0.059 A 
ATOM     73  F   UNL A   1      38.216  33.202  38.124  1.00  0.00    -0.206 F 
ATOM     74  C   UNL A   1      39.442  36.516  38.888  1.00  0.00     0.060 A 
BRANCH  74  75
ATOM     75  S   UNL A   1      39.246  37.804  40.137  1.00  0.00     0.124 S 
ATOM     76  O   UNL A   1      38.954  37.011  41.328  1.00  0.00    -0.237 OA
ATOM     77  O   UNL A   1      40.549  38.461  40.116  1.00  0.00    -0.237 OA
ATOM     78  O   UNL A   1      38.137  38.604  39.629  1.00  0.00    -0.744 OA
ENDBRANCH  74  75
ENDBRANCH  53  67
BRANCH  54  79
ATOM     79  C   UNL A   1      40.858  27.819  29.593  1.00  0.00     0.058 A 
ATOM     80  C   UNL A   1      39.934  26.779  29.409  1.00  0.00     0.135 A 
ATOM     81  C   UNL A   1      41.935  27.902  28.698  1.00  0.00     0.135 A 
ATOM     82  F   UNL A   1      38.888  26.658  30.240  1.00  0.00    -0.206 F 
ATOM     83  C   UNL A   1      40.081  25.845  28.389  1.00  0.00     0.059 A 
ATOM     84  C   UNL A   1      42.091  26.994  27.656  1.00  0.00     0.059 A 
ATOM     85  F   UNL A   1      42.835  28.891  28.818  1.00  0.00    -0.206 F 
ATOM     86  C   UNL A   1      41.164  25.962  27.516  1.00  0.00     0.060 A 
BRANCH  86  87
ATOM     87  S   UNL A   1      41.320  24.773  26.166  1.00  0.00     0.124 S 
ATOM     88  O   UNL A   1      41.352  25.651  25.002  1.00  0.00    -0.237 OA
ATOM     89  O   UNL A   1      42.573  24.099  26.491  1.00  0.00    -0.237 OA
ATOM     90  O   UNL A   1      40.122  23.950  26.306  1.00  0.00    -0.744 OA
ENDBRANCH  86  87
ENDBRANCH  54  79
BRANCH  66  91
ATOM     91  C   UNL A   1      43.758  28.586  35.887  1.00  0.00     0.058 A 
ATOM     92  C   UNL A   1      45.135  28.846  35.820  1.00  0.00     0.135 A 
ATOM     93  C   UNL A   1      43.326  27.537  36.715  1.00  0.00     0.135 A 
ATOM     94  F   UNL A   1      45.599  29.835  35.040  1.00  0.00    -0.206 F 
ATOM     95  C   UNL A   1      46.054  28.071  36.520  1.00  0.00     0.059 A 
ATOM     96  C   UNL A   1      44.225  26.767  37.445  1.00  0.00     0.059 A 
ATOM     97  F   UNL A   1      42.018  27.255  36.824  1.00  0.00    -0.206 F 
ATOM     98  C   UNL A   1      45.589  27.031  37.327  1.00  0.00     0.060 A 
BRANCH  98  99
ATOM     99  S   UNL A   1      46.789  26.036  38.239  1.00  0.00     0.124 S 
ATOM    100  O   UNL A   1      46.616  24.728  37.616  1.00  0.00    -0.237 OA
ATOM    101  O   UNL A   1      48.047  26.715  37.949  1.00  0.00    -0.237 OA
ATOM    102  O   UNL A   1      46.333  26.139  39.622  1.00  0.00    -0.744 OA
ENDBRANCH  98  99
ENDBRANCH  66  91
ENDBRANCH  40  41
ENDBRANCH  32  35
ENDBRANCH  30  31
ENDBRANCH  29  30
ENDBRANCH   1  29
TORSDOF 17
ENDMDL
MODEL 3
REMARK VINA RESULT:     -12.1      1.718      2.475
REMARK SMILES Cc1nc(-c2ccc(S(=O)(=O)N3CC[NH2+][C@H](C(=O)NCCCCNC(=O)c4ccc(-c5c6nc(c(-c7c(F)cc(S(=O)(=O)[O-])cc7F)c7ccc([nH]7)c(-c7c(F)cc(S(=O)(=O)[O-])cc7F)c7nc(c(-c8c(F)cc(S(=O)(=O)[O-])cc8F)c8ccc5[nH]8)C=C7)C=C6)cc4)C3)s2)cs1
REMARK SMILES IDX 21 1 20 2 19 3 17 4 18 5 16 7 12 8 13 9 93 10 14 11 15 12
REMARK SMILES IDX 9 15 10 16 11 17 8 18 5 19 6 20 94 21 7 22 4 23 1 24 2 25
REMARK SMILES IDX 3 26 96 27 95 28 22 29 23 30 24 31 25 32 26 34 27 35 28 36
REMARK SMILES IDX 92 37 29 38 91 39 30 40 31 41 32 42 85 43 33 44 90 45 84 46
REMARK SMILES IDX 86 47 34 48 89 49 83 50 82 51 35 53 69 54 48 55 68 56 49 57
REMARK SMILES IDX 52 58 67 59 87 60 50 61 51 62 66 64 88 65 53 66 36 67 37 68
REMARK SMILES IDX 46 69 38 70 39 71 45 72 47 73 40 74 41 75 42 76 43 77 44 78
REMARK SMILES IDX 70 79 71 80 80 81 72 82 73 83 79 84 81 85 74 86 75 87 76 88
REMARK SMILES IDX 77 89 78 90 54 91 55 92 64 93 56 94 57 95 63 96 65 97 58 98
REMARK SMILES IDX 59 99 60 100 61 101 62 102
REMARK H PARENT 19 6 15 13 15 14 24 33 86 52 52 63
REMARK Flexibility Score: inf
ROOT
ATOM      1  C   UNL A   1      40.328  21.504  26.348  1.00  0.00     0.023 C 
ENDROOT
BRANCH   1   2
ATOM      2  C   UNL A   1      38.888  21.861  25.963  1.00  0.00     0.116 C 
BRANCH   2   3
ATOM      3  N   UNL A   1      38.314  20.769  25.209  1.00  0.00    -0.351 N 
ATOM      4  C   UNL A   1      37.010  20.448  24.994  1.00  0.00     0.279 C 
ATOM      5  O   UNL A   1      36.783  19.252  24.770  1.00  0.00    -0.268 OA
ATOM      6  H   UNL A   1      38.967  20.165  24.786  1.00  0.00     0.163 HD
BRANCH   4   7
ATOM      7  C   UNL A   1      35.881  21.511  24.869  1.00  0.00     0.287 C 
ATOM      8  N   UNL A   1      33.553  22.244  24.535  1.00  0.00    -0.185 NA
ATOM      9  C   UNL A   1      33.876  23.200  23.463  1.00  0.00     0.164 C 
ATOM     10  C   UNL A   1      34.467  21.071  24.503  1.00  0.00     0.178 C 
ATOM     11  C   UNL A   1      35.372  23.555  23.439  1.00  0.00     0.278 C 
ATOM     12  N   UNL A   1      36.360  22.585  23.935  1.00  0.00    -0.334 N 
ATOM     13  H   UNL A   1      37.085  23.111  24.424  1.00  0.00     0.347 HD
ATOM     14  H   UNL A   1      36.666  22.082  23.102  1.00  0.00     0.347 HD
BRANCH   8  15
ATOM     15  S   UNL A   1      32.927  22.781  26.017  1.00  0.00     0.253 S 
ATOM     16  O   UNL A   1      34.043  22.836  26.943  1.00  0.00    -0.206 OA
ATOM     17  O   UNL A   1      31.754  21.982  26.297  1.00  0.00    -0.206 OA
BRANCH  15  18
ATOM     18  C   UNL A   1      32.298  24.461  25.973  1.00  0.00     0.135 A 
ATOM     19  C   UNL A   1      32.296  26.935  26.176  1.00  0.00     0.055 A 
ATOM     20  C   UNL A   1      31.034  26.428  25.992  1.00  0.00     0.023 A 
ATOM     21  S   UNL A   1      33.484  25.715  26.129  1.00  0.00    -0.121 S 
ATOM     22  C   UNL A   1      31.042  25.024  25.855  1.00  0.00     0.034 A 
BRANCH  19  23
ATOM     23  C   UNL A   1      32.478  28.395  26.421  1.00  0.00     0.091 A 
ATOM     24  C   UNL A   1      34.725  30.858  27.886  1.00  0.00     0.079 C 
ATOM     25  C   UNL A   1      33.614  30.114  27.235  1.00  0.00     0.090 A 
ATOM     26  N   UNL A   1      33.562  28.804  27.181  1.00  0.00    -0.241 NA
ATOM     27  S   UNL A   1      32.297  30.926  26.489  1.00  0.00    -0.127 S 
ATOM     28  C   UNL A   1      31.667  29.411  25.964  1.00  0.00     0.096 A 
ENDBRANCH  19  23
ENDBRANCH  15  18
ENDBRANCH   8  15
ENDBRANCH   4   7
ENDBRANCH   2   3
ENDBRANCH   1   2
BRANCH   1  29
ATOM     29  C   UNL A   1      40.805  22.208  27.626  1.00  0.00     0.023 C 
BRANCH  29  30
ATOM     30  C   UNL A   1      41.959  23.179  27.408  1.00  0.00     0.116 C 
BRANCH  30  31
ATOM     31  N   UNL A   1      41.796  23.977  26.203  1.00  0.00    -0.352 N 
ATOM     32  C   UNL A   1      41.436  25.297  26.102  1.00  0.00     0.251 C 
ATOM     33  H   UNL A   1      41.967  23.512  25.353  1.00  0.00     0.163 HD
ATOM     34  O   UNL A   1      41.213  25.793  25.002  1.00  0.00    -0.269 OA
BRANCH  32  35
ATOM     35  C   UNL A   1      41.275  26.093  27.333  1.00  0.00     0.039 A 
ATOM     36  C   UNL A   1      42.201  27.101  27.602  1.00  0.00     0.014 A 
ATOM     37  C   UNL A   1      40.199  25.867  28.197  1.00  0.00     0.014 A 
ATOM     38  C   UNL A   1      42.018  27.920  28.715  1.00  0.00     0.010 A 
ATOM     39  C   UNL A   1      39.980  26.729  29.265  1.00  0.00     0.010 A 
ATOM     40  C   UNL A   1      40.890  27.760  29.538  1.00  0.00    -0.014 A 
BRANCH  40  41
ATOM     41  C   UNL A   1      40.659  28.669  30.686  1.00  0.00     0.031 A 
ATOM     42  C   UNL A   1      41.488  28.541  31.935  1.00  0.00     0.074 A 
ATOM     43  C   UNL A   1      39.672  29.584  30.615  1.00  0.00     0.049 A 
ATOM     44  N   UNL A   1      41.435  29.247  33.034  1.00  0.00    -0.248 NA
ATOM     45  C   UNL A   1      42.486  27.460  31.963  1.00  0.00     0.031 C 
ATOM     46  C   UNL A   1      38.756  29.753  29.483  1.00  0.00     0.029 A 
ATOM     47  N   UNL A   1      39.273  30.543  31.509  1.00  0.00    -0.354 N 
ATOM     48  C   UNL A   1      42.385  28.692  33.885  1.00  0.00     0.074 A 
ATOM     49  C   UNL A   1      42.955  27.555  33.198  1.00  0.00     0.031 C 
ATOM     50  C   UNL A   1      37.926  30.777  29.739  1.00  0.00     0.029 A 
ATOM     51  C   UNL A   1      38.233  31.320  31.058  1.00  0.00     0.049 A 
ATOM     52  H   UNL A   1      39.692  30.664  32.392  1.00  0.00     0.167 HD
ATOM     53  C   UNL A   1      42.765  29.112  35.115  1.00  0.00     0.037 A 
ATOM     54  C   UNL A   1      37.607  32.363  31.638  1.00  0.00     0.037 A 
ATOM     55  C   UNL A   1      42.210  30.261  35.780  1.00  0.00     0.049 A 
ATOM     56  C   UNL A   1      38.078  32.838  32.985  1.00  0.00     0.074 A 
ATOM     57  C   UNL A   1      42.561  30.804  37.004  1.00  0.00     0.029 A 
ATOM     58  N   UNL A   1      41.189  31.052  35.272  1.00  0.00    -0.354 N 
ATOM     59  N   UNL A   1      39.026  32.345  33.746  1.00  0.00    -0.248 NA
ATOM     60  C   UNL A   1      37.410  34.021  33.541  1.00  0.00     0.031 C 
ATOM     61  C   UNL A   1      41.731  31.903  37.249  1.00  0.00     0.029 A 
ATOM     62  C   UNL A   1      40.892  32.072  36.160  1.00  0.00     0.049 A 
ATOM     63  H   UNL A   1      40.740  30.908  34.407  1.00  0.00     0.167 HD
ATOM     64  C   UNL A   1      39.089  33.177  34.859  1.00  0.00     0.074 A 
ATOM     65  C   UNL A   1      38.091  34.210  34.663  1.00  0.00     0.031 C 
ATOM     66  C   UNL A   1      39.901  33.096  35.942  1.00  0.00     0.037 A 
BRANCH  53  67
ATOM     67  C   UNL A   1      43.840  28.326  35.814  1.00  0.00     0.058 A 
ATOM     68  C   UNL A   1      43.529  27.257  36.672  1.00  0.00     0.135 A 
ATOM     69  C   UNL A   1      45.196  28.625  35.608  1.00  0.00     0.135 A 
ATOM     70  F   UNL A   1      42.249  26.939  36.919  1.00  0.00    -0.206 F 
ATOM     71  C   UNL A   1      44.523  26.536  37.327  1.00  0.00     0.059 A 
ATOM     72  C   UNL A   1      46.208  27.898  36.230  1.00  0.00     0.059 A 
ATOM     73  F   UNL A   1      45.551  29.635  34.799  1.00  0.00    -0.206 F 
ATOM     74  C   UNL A   1      45.860  26.866  37.101  1.00  0.00     0.060 A 
BRANCH  74  75
ATOM     75  S   UNL A   1      47.138  25.920  37.955  1.00  0.00     0.124 S 
ATOM     76  O   UNL A   1      47.128  26.545  39.275  1.00  0.00    -0.237 OA
ATOM     77  O   UNL A   1      46.613  24.559  37.896  1.00  0.00    -0.237 OA
ATOM     78  O   UNL A   1      48.333  26.163  37.154  1.00  0.00    -0.744 OA
ENDBRANCH  74  75
ENDBRANCH  53  67
BRANCH  54  79
ATOM     79  C   UNL A   1      36.506  33.058  30.921  1.00  0.00     0.058 A 
ATOM     80  C   UNL A   1      35.175  32.932  31.348  1.00  0.00     0.135 A 
ATOM     81  C   UNL A   1      36.761  33.876  29.810  1.00  0.00     0.135 A 
ATOM     82  F   UNL A   1      34.881  32.160  32.405  1.00  0.00    -0.206 F 
ATOM     83  C   UNL A   1      34.133  33.575  30.688  1.00  0.00     0.059 A 
ATOM     84  C   UNL A   1      35.739  34.548  29.148  1.00  0.00     0.059 A 
ATOM     85  F   UNL A   1      38.019  34.047  29.376  1.00  0.00    -0.206 F 
ATOM     86  C   UNL A   1      34.427  34.383  29.588  1.00  0.00     0.060 A 
BRANCH  86  87
ATOM     87  S   UNL A   1      33.074  35.252  28.767  1.00  0.00     0.124 S 
ATOM     88  O   UNL A   1      32.229  35.618  29.898  1.00  0.00    -0.237 OA
ATOM     89  O   UNL A   1      33.769  36.353  28.107  1.00  0.00    -0.237 OA
ATOM     90  O   UNL A   1      32.525  34.242  27.867  1.00  0.00    -0.744 OA
ENDBRANCH  86  87
ENDBRANCH  54  79
BRANCH  66  91
ATOM     91  C   UNL A   1      39.773  34.179  36.977  1.00  0.00     0.058 A 
ATOM     92  C   UNL A   1      39.050  33.985  38.164  1.00  0.00     0.135 A 
ATOM     93  C   UNL A   1      40.406  35.417  36.788  1.00  0.00     0.135 A 
ATOM     94  F   UNL A   1      38.423  32.820  38.391  1.00  0.00    -0.206 F 
ATOM     95  C   UNL A   1      38.928  34.997  39.111  1.00  0.00     0.059 A 
ATOM     96  C   UNL A   1      40.320  36.432  37.734  1.00  0.00     0.059 A 
ATOM     97  F   UNL A   1      41.121  35.649  35.675  1.00  0.00    -0.206 F 
ATOM     98  C   UNL A   1      39.564  36.219  38.885  1.00  0.00     0.060 A 
BRANCH  98  99
ATOM     99  S   UNL A   1      39.407  37.522  40.124  1.00  0.00     0.124 S 
ATOM    100  O   UNL A   1      38.901  36.775  41.271  1.00  0.00    -0.237 OA
ATOM    101  O   UNL A   1      40.776  38.014  40.241  1.00  0.00    -0.237 OA
ATOM    102  O   UNL A   1      38.462  38.455  39.516  1.00  0.00    -0.744 OA
ENDBRANCH  98  99
ENDBRANCH  66  91
ENDBRANCH  40  41
ENDBRANCH  32  35
ENDBRANCH  30  31
ENDBRANCH  29  30
ENDBRANCH   1  29
TORSDOF 17
ENDMDL
