MODEL 1
REMARK VINA RESULT:     -11.0      0.000      0.000
REMARK SMILES CC(=C\c1ccco1)/C=C1/SC(=S)N(CC(=O)NCCCCNC(=O)c2ccc(-c3c4nc(c(-c5c(F)cc(S(=O)(=O)[O-])cc5F)c5ccc([nH]5)c(-c5c(F)cc(S(=O)(=O)[O-])cc5F)c5nc(c(-c6c(F)cc(S(=O)(=O)[O-])cc6F)c6ccc3[nH]6)C=C5)C=C4)cc2)C1=O
REMARK SMILES IDX 20 1 19 2 18 3 16 4 17 5 15 7 14 8 9 9 10 10 11 11 92 12
REMARK SMILES IDX 12 13 93 14 13 15 2 16 1 17 3 18 4 19 5 20 8 21 6 22 7 23
REMARK SMILES IDX 21 24 22 25 23 26 24 27 25 29 26 30 27 31 91 32 28 33 90 34
REMARK SMILES IDX 29 35 30 36 31 37 84 38 32 39 89 40 83 41 85 42 33 43 88 44
REMARK SMILES IDX 82 45 81 46 34 48 68 49 47 50 67 51 48 52 51 53 66 54 86 55
REMARK SMILES IDX 49 56 50 57 65 59 87 60 52 61 35 62 36 63 45 64 37 65 38 66
REMARK SMILES IDX 44 67 46 68 39 69 40 70 41 71 42 72 43 73 69 74 70 75 79 76
REMARK SMILES IDX 71 77 72 78 78 79 80 80 73 81 74 82 75 83 76 84 77 85 53 86
REMARK SMILES IDX 54 87 63 88 55 89 56 90 62 91 64 92 57 93 58 94 59 95 60 96
REMARK SMILES IDX 61 97
REMARK H PARENT 18 6 23 28 85 47 51 58
REMARK Flexibility Score: inf
ROOT
ATOM      1  C   UNL A   1      38.554  23.706  26.770  1.00  0.00     0.023 C 
ENDROOT
BRANCH   1   2
ATOM      2  C   UNL A   1      37.488  23.559  25.689  1.00  0.00     0.116 C 
BRANCH   2   3
ATOM      3  N   UNL A   1      36.442  22.636  26.072  1.00  0.00    -0.355 N 
ATOM      4  C   UNL A   1      35.370  22.191  25.354  1.00  0.00     0.240 C 
ATOM      5  O   UNL A   1      34.780  21.193  25.777  1.00  0.00    -0.273 OA
ATOM      6  H   UNL A   1      36.514  22.276  26.986  1.00  0.00     0.163 HD
BRANCH   4   7
ATOM      7  C   UNL A   1      34.996  22.814  24.000  1.00  0.00     0.227 C 
BRANCH   7   8
ATOM      8  N   UNL A   1      33.673  23.440  24.013  1.00  0.00    -0.283 N 
ATOM      9  C   UNL A   1      31.867  26.525  24.592  1.00  0.00     0.024 C 
ATOM     10  C   UNL A   1      32.219  25.241  24.425  1.00  0.00     0.080 C 
ATOM     11  S   UNL A   1      31.175  24.033  23.779  1.00  0.00    -0.054 SA
ATOM     12  C   UNL A   1      33.560  24.650  24.670  1.00  0.00     0.266 C 
ATOM     13  C   UNL A   1      32.492  22.872  23.596  1.00  0.00     0.148 C 
ATOM     14  O   UNL A   1      34.420  25.147  25.384  1.00  0.00    -0.268 OA
ATOM     15  S   UNL A   1      32.226  21.331  23.015  1.00  0.00    -0.052 S 
BRANCH   9  16
ATOM     16  C   UNL A   1      32.762  27.603  25.002  1.00  0.00    -0.046 C 
ATOM     17  C   UNL A   1      33.588  28.213  23.894  1.00  0.00     0.044 C 
ATOM     18  C   UNL A   1      32.832  27.924  26.310  1.00  0.00     0.050 C 
BRANCH  18  19
ATOM     19  C   UNL A   1      33.694  28.919  26.847  1.00  0.00     0.126 A 
ATOM     20  C   UNL A   1      33.463  30.247  27.189  1.00  0.00     0.050 A 
ATOM     21  O   UNL A   1      35.014  28.648  27.147  1.00  0.00    -0.465 OA
ATOM     22  C   UNL A   1      34.687  30.810  27.620  1.00  0.00     0.042 A 
ATOM     23  C   UNL A   1      35.600  29.791  27.575  1.00  0.00     0.195 A 
ENDBRANCH  18  19
ENDBRANCH   9  16
ENDBRANCH   7   8
ENDBRANCH   4   7
ENDBRANCH   2   3
ENDBRANCH   1   2
BRANCH   1  24
ATOM     24  C   UNL A   1      39.740  22.748  26.624  1.00  0.00     0.023 C 
BRANCH  24  25
ATOM     25  C   UNL A   1      41.116  23.369  26.847  1.00  0.00     0.116 C 
BRANCH  25  26
ATOM     26  N   UNL A   1      41.499  24.303  25.798  1.00  0.00    -0.352 N 
ATOM     27  C   UNL A   1      41.682  25.665  25.884  1.00  0.00     0.251 C 
ATOM     28  H   UNL A   1      41.648  23.908  24.908  1.00  0.00     0.163 HD
ATOM     29  O   UNL A   1      41.878  26.324  24.867  1.00  0.00    -0.269 OA
BRANCH  27  30
ATOM     30  C   UNL A   1      41.603  26.328  27.202  1.00  0.00     0.039 A 
ATOM     31  C   UNL A   1      42.499  27.358  27.498  1.00  0.00     0.014 A 
ATOM     32  C   UNL A   1      40.619  25.963  28.125  1.00  0.00     0.014 A 
ATOM     33  C   UNL A   1      42.354  28.078  28.685  1.00  0.00     0.010 A 
ATOM     34  C   UNL A   1      40.431  26.730  29.270  1.00  0.00     0.010 A 
ATOM     35  C   UNL A   1      41.290  27.801  29.560  1.00  0.00    -0.014 A 
BRANCH  35  36
ATOM     36  C   UNL A   1      41.043  28.630  30.768  1.00  0.00     0.031 A 
ATOM     37  C   UNL A   1      39.958  29.672  30.761  1.00  0.00     0.074 A 
ATOM     38  C   UNL A   1      41.846  28.498  31.844  1.00  0.00     0.049 A 
ATOM     39  N   UNL A   1      39.651  30.550  31.680  1.00  0.00    -0.248 NA
ATOM     40  C   UNL A   1      39.123  29.753  29.551  1.00  0.00     0.031 C 
ATOM     41  C   UNL A   1      42.960  27.553  31.957  1.00  0.00     0.029 A 
ATOM     42  N   UNL A   1      41.860  29.168  33.043  1.00  0.00    -0.354 N 
ATOM     43  C   UNL A   1      38.600  31.294  31.158  1.00  0.00     0.074 A 
ATOM     44  C   UNL A   1      38.357  30.800  29.820  1.00  0.00     0.031 C 
ATOM     45  C   UNL A   1      43.534  27.691  33.163  1.00  0.00     0.029 A 
ATOM     46  C   UNL A   1      42.865  28.763  33.892  1.00  0.00     0.049 A 
ATOM     47  H   UNL A   1      41.213  29.873  33.274  1.00  0.00     0.167 HD
ATOM     48  C   UNL A   1      37.886  32.283  31.748  1.00  0.00     0.037 A 
ATOM     49  C   UNL A   1      43.219  29.216  35.111  1.00  0.00     0.037 A 
ATOM     50  C   UNL A   1      38.124  32.758  33.087  1.00  0.00     0.049 A 
ATOM     51  C   UNL A   1      42.431  30.337  35.735  1.00  0.00     0.074 A 
ATOM     52  C   UNL A   1      37.421  33.716  33.795  1.00  0.00     0.029 A 
ATOM     53  N   UNL A   1      39.145  32.318  33.916  1.00  0.00    -0.354 N 
ATOM     54  N   UNL A   1      41.394  30.982  35.252  1.00  0.00    -0.248 NA
ATOM     55  C   UNL A   1      42.855  30.791  37.066  1.00  0.00     0.031 C 
ATOM     56  C   UNL A   1      38.051  33.897  35.030  1.00  0.00     0.029 A 
ATOM     57  C   UNL A   1      39.110  33.007  35.118  1.00  0.00     0.049 A 
ATOM     58  H   UNL A   1      39.799  31.618  33.686  1.00  0.00     0.167 HD
ATOM     59  C   UNL A   1      41.027  31.898  36.232  1.00  0.00     0.074 A 
ATOM     60  C   UNL A   1      41.943  31.715  37.339  1.00  0.00     0.031 C 
ATOM     61  C   UNL A   1      40.023  32.809  36.216  1.00  0.00     0.037 A 
BRANCH  48  62
ATOM     62  C   UNL A   1      36.779  32.920  30.951  1.00  0.00     0.058 A 
ATOM     63  C   UNL A   1      35.435  32.561  31.138  1.00  0.00     0.135 A 
ATOM     64  C   UNL A   1      37.061  33.934  30.022  1.00  0.00     0.135 A 
ATOM     65  F   UNL A   1      35.107  31.588  32.003  1.00  0.00    -0.206 F 
ATOM     66  C   UNL A   1      34.412  33.161  30.410  1.00  0.00     0.059 A 
ATOM     67  C   UNL A   1      36.052  34.571  29.305  1.00  0.00     0.059 A 
ATOM     68  F   UNL A   1      38.328  34.318  29.803  1.00  0.00    -0.206 F 
ATOM     69  C   UNL A   1      34.732  34.168  29.496  1.00  0.00     0.060 A 
BRANCH  69  70
ATOM     70  S   UNL A   1      33.391  34.940  28.567  1.00  0.00     0.124 S 
ATOM     71  O   UNL A   1      34.127  35.867  27.712  1.00  0.00    -0.237 OA
ATOM     72  O   UNL A   1      32.784  33.800  27.889  1.00  0.00    -0.237 OA
ATOM     73  O   UNL A   1      32.571  35.561  29.603  1.00  0.00    -0.744 OA
ENDBRANCH  69  70
ENDBRANCH  48  62
BRANCH  49  74
ATOM     74  C   UNL A   1      44.372  28.603  35.828  1.00  0.00     0.058 A 
ATOM     75  C   UNL A   1      45.666  29.124  35.693  1.00  0.00     0.135 A 
ATOM     76  C   UNL A   1      44.202  27.489  36.665  1.00  0.00     0.135 A 
ATOM     77  F   UNL A   1      45.883  30.183  34.897  1.00  0.00    -0.206 F 
ATOM     78  C   UNL A   1      46.755  28.556  36.347  1.00  0.00     0.059 A 
ATOM     79  C   UNL A   1      45.269  26.920  37.354  1.00  0.00     0.059 A 
ATOM     80  F   UNL A   1      42.981  26.960  36.842  1.00  0.00    -0.206 F 
ATOM     81  C   UNL A   1      46.544  27.456  37.180  1.00  0.00     0.060 A 
BRANCH  81  82
ATOM     82  S   UNL A   1      47.957  26.754  38.061  1.00  0.00     0.124 S 
ATOM     83  O   UNL A   1      48.089  27.674  39.184  1.00  0.00    -0.237 OA
ATOM     84  O   UNL A   1      47.478  25.413  38.384  1.00  0.00    -0.237 OA
ATOM     85  O   UNL A   1      49.028  26.806  37.070  1.00  0.00    -0.744 OA
ENDBRANCH  81  82
ENDBRANCH  49  74
BRANCH  61  86
ATOM     86  C   UNL A   1      39.831  33.660  37.443  1.00  0.00     0.058 A 
ATOM     87  C   UNL A   1      40.506  34.878  37.611  1.00  0.00     0.135 A 
ATOM     88  C   UNL A   1      38.901  33.285  38.427  1.00  0.00     0.135 A 
ATOM     89  F   UNL A   1      41.413  35.278  36.705  1.00  0.00    -0.206 F 
ATOM     90  C   UNL A   1      40.278  35.689  38.717  1.00  0.00     0.059 A 
ATOM     91  C   UNL A   1      38.634  34.095  39.527  1.00  0.00     0.059 A 
ATOM     92  F   UNL A   1      38.221  32.133  38.313  1.00  0.00    -0.206 F 
ATOM     93  C   UNL A   1      39.333  35.293  39.665  1.00  0.00     0.060 A 
BRANCH  93  94
ATOM     94  S   UNL A   1      39.006  36.384  41.066  1.00  0.00     0.124 S 
ATOM     95  O   UNL A   1      40.302  36.399  41.737  1.00  0.00    -0.237 OA
ATOM     96  O   UNL A   1      38.618  37.627  40.408  1.00  0.00    -0.237 OA
ATOM     97  O   UNL A   1      37.935  35.702  41.787  1.00  0.00    -0.744 OA
ENDBRANCH  93  94
ENDBRANCH  61  86
ENDBRANCH  35  36
ENDBRANCH  27  30
ENDBRANCH  25  26
ENDBRANCH  24  25
ENDBRANCH   1  24
TORSDOF 17
ENDMDL
MODEL 2
REMARK VINA RESULT:     -10.8      2.904      8.778
REMARK SMILES CC(=C\c1ccco1)/C=C1/SC(=S)N(CC(=O)NCCCCNC(=O)c2ccc(-c3c4nc(c(-c5c(F)cc(S(=O)(=O)[O-])cc5F)c5ccc([nH]5)c(-c5c(F)cc(S(=O)(=O)[O-])cc5F)c5nc(c(-c6c(F)cc(S(=O)(=O)[O-])cc6F)c6ccc3[nH]6)C=C5)C=C4)cc2)C1=O
REMARK SMILES IDX 20 1 19 2 18 3 16 4 17 5 15 7 14 8 9 9 10 10 11 11 92 12
REMARK SMILES IDX 12 13 93 14 13 15 2 16 1 17 3 18 4 19 5 20 8 21 6 22 7 23
REMARK SMILES IDX 21 24 22 25 23 26 24 27 25 29 26 30 27 31 91 32 28 33 90 34
REMARK SMILES IDX 29 35 30 36 31 37 84 38 32 39 89 40 83 41 85 42 33 43 88 44
REMARK SMILES IDX 82 45 81 46 34 48 68 49 47 50 67 51 48 52 51 53 66 54 86 55
REMARK SMILES IDX 49 56 50 57 65 59 87 60 52 61 35 62 36 63 45 64 37 65 38 66
REMARK SMILES IDX 44 67 46 68 39 69 40 70 41 71 42 72 43 73 69 74 70 75 79 76
REMARK SMILES IDX 71 77 72 78 78 79 80 80 73 81 74 82 75 83 76 84 77 85 53 86
REMARK SMILES IDX 54 87 63 88 55 89 56 90 62 91 64 92 57 93 58 94 59 95 60 96
REMARK SMILES IDX 61 97
REMARK H PARENT 18 6 23 28 85 47 51 58
REMARK Flexibility Score: inf
ROOT
ATOM      1  C   UNL A   1      35.031  23.004  27.006  1.00  0.00     0.023 C 
ENDROOT
BRANCH   1   2
ATOM      2  C   UNL A   1      33.533  22.785  27.195  1.00  0.00     0.116 C 
BRANCH   2   3
ATOM      3  N   UNL A   1      33.106  21.483  26.731  1.00  0.00    -0.355 N 
ATOM      4  C   UNL A   1      32.188  21.160  25.773  1.00  0.00     0.240 C 
ATOM      5  O   UNL A   1      32.201  20.003  25.345  1.00  0.00    -0.273 OA
ATOM      6  H   UNL A   1      33.541  20.717  27.170  1.00  0.00     0.163 HD
BRANCH   4   7
ATOM      7  C   UNL A   1      31.272  22.223  25.149  1.00  0.00     0.227 C 
BRANCH   7   8
ATOM      8  N   UNL A   1      31.934  22.990  24.092  1.00  0.00    -0.283 N 
ATOM      9  C   UNL A   1      33.530  26.137  23.279  1.00  0.00     0.024 C 
ATOM     10  C   UNL A   1      32.911  24.948  23.232  1.00  0.00     0.080 C 
ATOM     11  S   UNL A   1      33.089  23.821  21.943  1.00  0.00    -0.054 SA
ATOM     12  C   UNL A   1      32.053  24.352  24.288  1.00  0.00     0.266 C 
ATOM     13  C   UNL A   1      32.292  22.532  22.845  1.00  0.00     0.148 C 
ATOM     14  O   UNL A   1      31.500  24.986  25.177  1.00  0.00    -0.268 OA
ATOM     15  S   UNL A   1      32.040  21.022  22.180  1.00  0.00    -0.052 S 
BRANCH   9  16
ATOM     16  C   UNL A   1      33.516  27.056  24.414  1.00  0.00    -0.046 C 
ATOM     17  C   UNL A   1      34.207  26.553  25.660  1.00  0.00     0.044 C 
ATOM     18  C   UNL A   1      32.854  28.224  24.293  1.00  0.00     0.050 C 
BRANCH  18  19
ATOM     19  C   UNL A   1      32.723  29.184  25.335  1.00  0.00     0.126 A 
ATOM     20  C   UNL A   1      31.633  29.937  25.757  1.00  0.00     0.050 A 
ATOM     21  O   UNL A   1      33.782  29.506  26.159  1.00  0.00    -0.465 OA
ATOM     22  C   UNL A   1      32.066  30.792  26.798  1.00  0.00     0.042 A 
ATOM     23  C   UNL A   1      33.385  30.488  27.003  1.00  0.00     0.195 A 
ENDBRANCH  18  19
ENDBRANCH   9  16
ENDBRANCH   7   8
ENDBRANCH   4   7
ENDBRANCH   2   3
ENDBRANCH   1   2
BRANCH   1  24
ATOM     24  C   UNL A   1      35.504  22.927  25.552  1.00  0.00     0.023 C 
BRANCH  24  25
ATOM     25  C   UNL A   1      36.845  23.597  25.262  1.00  0.00     0.116 C 
BRANCH  25  26
ATOM     26  N   UNL A   1      37.980  22.701  25.424  1.00  0.00    -0.352 N 
ATOM     27  C   UNL A   1      39.189  22.947  26.035  1.00  0.00     0.251 C 
ATOM     28  H   UNL A   1      37.869  21.799  25.047  1.00  0.00     0.163 HD
ATOM     29  O   UNL A   1      40.092  22.118  25.968  1.00  0.00    -0.269 OA
BRANCH  27  30
ATOM     30  C   UNL A   1      39.401  24.229  26.740  1.00  0.00     0.039 A 
ATOM     31  C   UNL A   1      38.877  24.392  28.024  1.00  0.00     0.014 A 
ATOM     32  C   UNL A   1      40.154  25.248  26.150  1.00  0.00     0.014 A 
ATOM     33  C   UNL A   1      39.178  25.546  28.749  1.00  0.00     0.010 A 
ATOM     34  C   UNL A   1      40.515  26.361  26.903  1.00  0.00     0.010 A 
ATOM     35  C   UNL A   1      40.038  26.520  28.213  1.00  0.00    -0.014 A 
BRANCH  35  36
ATOM     36  C   UNL A   1      40.471  27.697  29.011  1.00  0.00     0.031 A 
ATOM     37  C   UNL A   1      41.780  27.669  29.752  1.00  0.00     0.074 A 
ATOM     38  C   UNL A   1      39.650  28.760  29.130  1.00  0.00     0.049 A 
ATOM     39  N   UNL A   1      42.285  28.556  30.569  1.00  0.00    -0.248 NA
ATOM     40  C   UNL A   1      42.620  26.474  29.569  1.00  0.00     0.031 C 
ATOM     41  C   UNL A   1      38.335  28.890  28.495  1.00  0.00     0.029 A 
ATOM     42  N   UNL A   1      39.790  29.929  29.837  1.00  0.00    -0.354 N 
ATOM     43  C   UNL A   1      43.493  28.025  31.006  1.00  0.00     0.074 A 
ATOM     44  C   UNL A   1      43.619  26.714  30.407  1.00  0.00     0.031 C 
ATOM     45  C   UNL A   1      37.802  30.077  28.825  1.00  0.00     0.029 A 
ATOM     46  C   UNL A   1      38.708  30.773  29.732  1.00  0.00     0.049 A 
ATOM     47  H   UNL A   1      40.589  30.144  30.370  1.00  0.00     0.167 HD
ATOM     48  C   UNL A   1      44.423  28.587  31.814  1.00  0.00     0.037 A 
ATOM     49  C   UNL A   1      38.465  31.965  30.314  1.00  0.00     0.037 A 
ATOM     50  C   UNL A   1      44.296  29.899  32.394  1.00  0.00     0.049 A 
ATOM     51  C   UNL A   1      39.500  32.557  31.233  1.00  0.00     0.074 A 
ATOM     52  C   UNL A   1      45.208  30.581  33.181  1.00  0.00     0.029 A 
ATOM     53  N   UNL A   1      43.190  30.725  32.258  1.00  0.00    -0.354 N 
ATOM     54  N   UNL A   1      40.668  32.069  31.580  1.00  0.00    -0.248 NA
ATOM     55  C   UNL A   1      39.188  33.859  31.838  1.00  0.00     0.031 C 
ATOM     56  C   UNL A   1      44.630  31.794  33.568  1.00  0.00     0.029 A 
ATOM     57  C   UNL A   1      43.383  31.897  32.972  1.00  0.00     0.049 A 
ATOM     58  H   UNL A   1      42.386  30.511  31.731  1.00  0.00     0.167 HD
ATOM     59  C   UNL A   1      41.241  33.018  32.422  1.00  0.00     0.074 A 
ATOM     60  C   UNL A   1      40.297  34.111  32.521  1.00  0.00     0.031 C 
ATOM     61  C   UNL A   1      42.439  32.984  33.055  1.00  0.00     0.037 A 
BRANCH  48  62
ATOM     62  C   UNL A   1      45.661  27.787  32.122  1.00  0.00     0.058 A 
ATOM     63  C   UNL A   1      45.721  26.915  33.220  1.00  0.00     0.135 A 
ATOM     64  C   UNL A   1      46.784  27.860  31.283  1.00  0.00     0.135 A 
ATOM     65  F   UNL A   1      44.681  26.816  34.065  1.00  0.00    -0.206 F 
ATOM     66  C   UNL A   1      46.861  26.167  33.495  1.00  0.00     0.059 A 
ATOM     67  C   UNL A   1      47.924  27.097  31.520  1.00  0.00     0.059 A 
ATOM     68  F   UNL A   1      46.783  28.677  30.218  1.00  0.00    -0.206 F 
ATOM     69  C   UNL A   1      47.958  26.264  32.636  1.00  0.00     0.060 A 
BRANCH  69  70
ATOM     70  S   UNL A   1      49.425  25.279  33.004  1.00  0.00     0.124 S 
ATOM     71  O   UNL A   1      49.891  24.940  31.662  1.00  0.00    -0.237 OA
ATOM     72  O   UNL A   1      50.257  26.223  33.743  1.00  0.00    -0.237 OA
ATOM     73  O   UNL A   1      48.901  24.163  33.784  1.00  0.00    -0.744 OA
ENDBRANCH  69  70
ENDBRANCH  48  62
BRANCH  49  74
ATOM     74  C   UNL A   1      37.190  32.683  30.037  1.00  0.00     0.058 A 
ATOM     75  C   UNL A   1      37.124  33.690  29.064  1.00  0.00     0.135 A 
ATOM     76  C   UNL A   1      36.012  32.373  30.736  1.00  0.00     0.135 A 
ATOM     77  F   UNL A   1      38.224  34.029  28.375  1.00  0.00    -0.206 F 
ATOM     78  C   UNL A   1      35.942  34.377  28.802  1.00  0.00     0.059 A 
ATOM     79  C   UNL A   1      34.811  33.025  30.472  1.00  0.00     0.059 A 
ATOM     80  F   UNL A   1      36.015  31.407  31.667  1.00  0.00    -0.206 F 
ATOM     81  C   UNL A   1      34.790  34.033  29.510  1.00  0.00     0.060 A 
BRANCH  81  82
ATOM     82  S   UNL A   1      33.250  34.900  29.130  1.00  0.00     0.124 S 
ATOM     83  O   UNL A   1      32.652  34.016  28.138  1.00  0.00    -0.237 OA
ATOM     84  O   UNL A   1      32.593  34.937  30.433  1.00  0.00    -0.237 OA
ATOM     85  O   UNL A   1      33.709  36.194  28.631  1.00  0.00    -0.744 OA
ENDBRANCH  81  82
ENDBRANCH  49  74
BRANCH  61  86
ATOM     86  C   UNL A   1      42.823  34.177  33.888  1.00  0.00     0.058 A 
ATOM     87  C   UNL A   1      42.536  34.245  35.259  1.00  0.00     0.135 A 
ATOM     88  C   UNL A   1      43.555  35.233  33.319  1.00  0.00     0.135 A 
ATOM     89  F   UNL A   1      41.830  33.268  35.851  1.00  0.00    -0.206 F 
ATOM     90  C   UNL A   1      42.948  35.323  36.036  1.00  0.00     0.059 A 
ATOM     91  C   UNL A   1      44.004  36.306  34.082  1.00  0.00     0.059 A 
ATOM     92  F   UNL A   1      43.865  35.215  32.013  1.00  0.00    -0.206 F 
ATOM     93  C   UNL A   1      43.690  36.344  35.440  1.00  0.00     0.060 A 
BRANCH  93  94
ATOM     94  S   UNL A   1      44.267  37.708  36.473  1.00  0.00     0.124 S 
ATOM     95  O   UNL A   1      43.296  37.685  37.561  1.00  0.00    -0.237 OA
ATOM     96  O   UNL A   1      45.619  37.284  36.820  1.00  0.00    -0.237 OA
ATOM     97  O   UNL A   1      44.187  38.865  35.586  1.00  0.00    -0.744 OA
ENDBRANCH  93  94
ENDBRANCH  61  86
ENDBRANCH  35  36
ENDBRANCH  27  30
ENDBRANCH  25  26
ENDBRANCH  24  25
ENDBRANCH   1  24
TORSDOF 17
ENDMDL
MODEL 3
REMARK VINA RESULT:     -10.8      0.960      8.265
REMARK SMILES CC(=C\c1ccco1)/C=C1/SC(=S)N(CC(=O)NCCCCNC(=O)c2ccc(-c3c4nc(c(-c5c(F)cc(S(=O)(=O)[O-])cc5F)c5ccc([nH]5)c(-c5c(F)cc(S(=O)(=O)[O-])cc5F)c5nc(c(-c6c(F)cc(S(=O)(=O)[O-])cc6F)c6ccc3[nH]6)C=C5)C=C4)cc2)C1=O
REMARK SMILES IDX 20 1 19 2 18 3 16 4 17 5 15 7 14 8 9 9 10 10 11 11 92 12
REMARK SMILES IDX 12 13 93 14 13 15 2 16 1 17 3 18 4 19 5 20 8 21 6 22 7 23
REMARK SMILES IDX 21 24 22 25 23 26 24 27 25 29 26 30 27 31 91 32 28 33 90 34
REMARK SMILES IDX 29 35 30 36 31 37 84 38 32 39 89 40 83 41 85 42 33 43 88 44
REMARK SMILES IDX 82 45 81 46 34 48 68 49 47 50 67 51 48 52 51 53 66 54 86 55
REMARK SMILES IDX 49 56 50 57 65 59 87 60 52 61 35 62 36 63 45 64 37 65 38 66
REMARK SMILES IDX 44 67 46 68 39 69 40 70 41 71 42 72 43 73 69 74 70 75 79 76
REMARK SMILES IDX 71 77 72 78 78 79 80 80 73 81 74 82 75 83 76 84 77 85 53 86
REMARK SMILES IDX 54 87 63 88 55 89 56 90 62 91 64 92 57 93 58 94 59 95 60 96
REMARK SMILES IDX 61 97
REMARK H PARENT 18 6 23 28 85 47 51 58
REMARK Flexibility Score: inf
ROOT
ATOM      1  C   UNL A   1      37.259  22.387  26.004  1.00  0.00     0.023 C 
ENDROOT
BRANCH   1   2
ATOM      2  C   UNL A   1      37.003  21.651  24.692  1.00  0.00     0.116 C 
BRANCH   2   3
ATOM      3  N   UNL A   1      36.461  22.521  23.671  1.00  0.00    -0.355 N 
ATOM      4  C   UNL A   1      35.262  23.172  23.632  1.00  0.00     0.240 C 
ATOM      5  O   UNL A   1      35.139  24.081  22.807  1.00  0.00    -0.273 OA
ATOM      6  H   UNL A   1      37.043  22.665  22.890  1.00  0.00     0.163 HD
BRANCH   4   7
ATOM      7  C   UNL A   1      34.159  22.886  24.662  1.00  0.00     0.227 C 
BRANCH   7   8
ATOM      8  N   UNL A   1      32.929  23.634  24.397  1.00  0.00    -0.283 N 
ATOM      9  C   UNL A   1      31.117  26.690  25.097  1.00  0.00     0.024 C 
ATOM     10  C   UNL A   1      31.470  25.445  24.743  1.00  0.00     0.080 C 
ATOM     11  S   UNL A   1      30.680  24.532  23.515  1.00  0.00    -0.054 SA
ATOM     12  C   UNL A   1      32.630  24.672  25.258  1.00  0.00     0.266 C 
ATOM     13  C   UNL A   1      31.947  23.305  23.491  1.00  0.00     0.148 C 
ATOM     14  O   UNL A   1      33.207  24.900  26.312  1.00  0.00    -0.268 OA
ATOM     15  S   UNL A   1      31.857  21.970  22.494  1.00  0.00    -0.052 S 
BRANCH   9  16
ATOM     16  C   UNL A   1      31.846  27.545  26.029  1.00  0.00    -0.046 C 
ATOM     17  C   UNL A   1      31.348  27.516  27.456  1.00  0.00     0.044 C 
ATOM     18  C   UNL A   1      32.839  28.323  25.554  1.00  0.00     0.050 C 
BRANCH  18  19
ATOM     19  C   UNL A   1      33.593  29.234  26.344  1.00  0.00     0.126 A 
ATOM     20  C   UNL A   1      34.878  29.146  26.870  1.00  0.00     0.050 A 
ATOM     21  O   UNL A   1      33.089  30.465  26.708  1.00  0.00    -0.465 OA
ATOM     22  C   UNL A   1      35.118  30.309  27.639  1.00  0.00     0.042 A 
ATOM     23  C   UNL A   1      33.995  31.080  27.506  1.00  0.00     0.195 A 
ENDBRANCH  18  19
ENDBRANCH   9  16
ENDBRANCH   7   8
ENDBRANCH   4   7
ENDBRANCH   2   3
ENDBRANCH   1   2
BRANCH   1  24
ATOM     24  C   UNL A   1      38.269  23.533  25.901  1.00  0.00     0.023 C 
BRANCH  24  25
ATOM     25  C   UNL A   1      39.475  23.430  26.831  1.00  0.00     0.116 C 
BRANCH  25  26
ATOM     26  N   UNL A   1      40.742  23.659  26.154  1.00  0.00    -0.352 N 
ATOM     27  C   UNL A   1      41.580  24.747  26.242  1.00  0.00     0.251 C 
ATOM     28  H   UNL A   1      41.041  22.939  25.552  1.00  0.00     0.163 HD
ATOM     29  O   UNL A   1      42.552  24.837  25.498  1.00  0.00    -0.269 OA
BRANCH  27  30
ATOM     30  C   UNL A   1      41.279  25.821  27.212  1.00  0.00     0.039 A 
ATOM     31  C   UNL A   1      40.336  25.584  28.215  1.00  0.00     0.014 A 
ATOM     32  C   UNL A   1      41.959  27.041  27.157  1.00  0.00     0.014 A 
ATOM     33  C   UNL A   1      40.136  26.540  29.213  1.00  0.00     0.010 A 
ATOM     34  C   UNL A   1      41.812  27.958  28.193  1.00  0.00     0.010 A 
ATOM     35  C   UNL A   1      40.906  27.715  29.237  1.00  0.00    -0.014 A 
BRANCH  35  36
ATOM     36  C   UNL A   1      40.798  28.691  30.353  1.00  0.00     0.031 A 
ATOM     37  C   UNL A   1      41.680  28.554  31.564  1.00  0.00     0.074 A 
ATOM     38  C   UNL A   1      39.854  29.653  30.309  1.00  0.00     0.049 A 
ATOM     39  N   UNL A   1      41.672  29.248  32.673  1.00  0.00    -0.248 NA
ATOM     40  C   UNL A   1      42.686  27.480  31.535  1.00  0.00     0.031 C 
ATOM     41  C   UNL A   1      38.910  29.863  29.208  1.00  0.00     0.029 A 
ATOM     42  N   UNL A   1      39.521  30.627  31.218  1.00  0.00    -0.354 N 
ATOM     43  C   UNL A   1      42.659  28.690  33.476  1.00  0.00     0.074 A 
ATOM     44  C   UNL A   1      43.209  27.566  32.750  1.00  0.00     0.031 C 
ATOM     45  C   UNL A   1      38.121  30.910  29.497  1.00  0.00     0.029 A 
ATOM     46  C   UNL A   1      38.466  31.417  30.821  1.00  0.00     0.049 A 
ATOM     47  H   UNL A   1      39.992  30.750  32.073  1.00  0.00     0.167 HD
ATOM     48  C   UNL A   1      43.085  29.092  34.698  1.00  0.00     0.037 A 
ATOM     49  C   UNL A   1      37.835  32.424  31.458  1.00  0.00     0.037 A 
ATOM     50  C   UNL A   1      42.542  30.221  35.407  1.00  0.00     0.049 A 
ATOM     51  C   UNL A   1      38.306  32.833  32.829  1.00  0.00     0.074 A 
ATOM     52  C   UNL A   1      42.943  30.743  36.625  1.00  0.00     0.029 A 
ATOM     53  N   UNL A   1      41.481  30.999  34.970  1.00  0.00    -0.354 N 
ATOM     54  N   UNL A   1      39.288  32.336  33.544  1.00  0.00    -0.248 NA
ATOM     55  C   UNL A   1      37.588  33.938  33.478  1.00  0.00     0.031 C 
ATOM     56  C   UNL A   1      42.087  31.799  36.951  1.00  0.00     0.029 A 
ATOM     57  C   UNL A   1      41.192  31.978  35.908  1.00  0.00     0.049 A 
ATOM     58  H   UNL A   1      41.002  30.876  34.118  1.00  0.00     0.167 HD
ATOM     59  C   UNL A   1      39.322  33.087  34.715  1.00  0.00     0.074 A 
ATOM     60  C   UNL A   1      38.271  34.077  34.606  1.00  0.00     0.031 C 
ATOM     61  C   UNL A   1      40.148  32.965  35.783  1.00  0.00     0.037 A 
BRANCH  48  62
ATOM     62  C   UNL A   1      44.192  28.305  35.349  1.00  0.00     0.058 A 
ATOM     63  C   UNL A   1      45.543  28.612  35.127  1.00  0.00     0.135 A 
ATOM     64  C   UNL A   1      43.897  27.261  36.240  1.00  0.00     0.135 A 
ATOM     65  F   UNL A   1      45.885  29.591  34.274  1.00  0.00    -0.206 F 
ATOM     66  C   UNL A   1      46.564  27.892  35.740  1.00  0.00     0.059 A 
ATOM     67  C   UNL A   1      44.900  26.547  36.889  1.00  0.00     0.059 A 
ATOM     68  F   UNL A   1      42.621  26.924  36.490  1.00  0.00    -0.206 F 
ATOM     69  C   UNL A   1      46.231  26.862  36.622  1.00  0.00     0.060 A 
BRANCH  69  70
ATOM     70  S   UNL A   1      47.569  25.945  37.414  1.00  0.00     0.124 S 
ATOM     71  O   UNL A   1      46.853  24.788  37.945  1.00  0.00    -0.237 OA
ATOM     72  O   UNL A   1      48.467  25.675  36.296  1.00  0.00    -0.237 OA
ATOM     73  O   UNL A   1      48.077  26.879  38.414  1.00  0.00    -0.744 OA
ENDBRANCH  69  70
ENDBRANCH  48  62
BRANCH  49  74
ATOM     74  C   UNL A   1      36.694  33.121  30.804  1.00  0.00     0.058 A 
ATOM     75  C   UNL A   1      36.900  33.975  29.711  1.00  0.00     0.135 A 
ATOM     76  C   UNL A   1      35.376  32.944  31.253  1.00  0.00     0.135 A 
ATOM     77  F   UNL A   1      38.143  34.185  29.249  1.00  0.00    -0.206 F 
ATOM     78  C   UNL A   1      35.846  34.643  29.096  1.00  0.00     0.059 A 
ATOM     79  C   UNL A   1      34.300  33.577  30.636  1.00  0.00     0.059 A 
ATOM     80  F   UNL A   1      35.120  32.126  32.285  1.00  0.00    -0.206 F 
ATOM     81  C   UNL A   1      34.548  34.433  29.564  1.00  0.00     0.060 A 
BRANCH  81  82
ATOM     82  S   UNL A   1      33.180  35.268  28.729  1.00  0.00     0.124 S 
ATOM     83  O   UNL A   1      32.613  34.184  27.937  1.00  0.00    -0.237 OA
ATOM     84  O   UNL A   1      32.373  35.729  29.855  1.00  0.00    -0.237 OA
ATOM     85  O   UNL A   1      33.846  36.324  27.972  1.00  0.00    -0.744 OA
ENDBRANCH  81  82
ENDBRANCH  49  74
BRANCH  61  86
ATOM     86  C   UNL A   1      39.980  33.945  36.913  1.00  0.00     0.058 A 
ATOM     87  C   UNL A   1      40.614  35.196  36.906  1.00  0.00     0.135 A 
ATOM     88  C   UNL A   1      39.112  33.657  37.979  1.00  0.00     0.135 A 
ATOM     89  F   UNL A   1      41.462  35.519  35.916  1.00  0.00    -0.206 F 
ATOM     90  C   UNL A   1      40.406  36.122  37.923  1.00  0.00     0.059 A 
ATOM     91  C   UNL A   1      38.865  34.579  38.991  1.00  0.00     0.059 A 
ATOM     92  F   UNL A   1      38.472  32.477  38.031  1.00  0.00    -0.206 F 
ATOM     93  C   UNL A   1      39.522  35.808  38.957  1.00  0.00     0.060 A 
BRANCH  93  94
ATOM     94  S   UNL A   1      39.218  37.042  40.238  1.00  0.00     0.124 S 
ATOM     95  O   UNL A   1      38.482  36.264  41.229  1.00  0.00    -0.237 OA
ATOM     96  O   UNL A   1      40.571  37.435  40.619  1.00  0.00    -0.237 OA
ATOM     97  O   UNL A   1      38.446  38.070  39.547  1.00  0.00    -0.744 OA
ENDBRANCH  93  94
ENDBRANCH  61  86
ENDBRANCH  35  36
ENDBRANCH  27  30
ENDBRANCH  25  26
ENDBRANCH  24  25
ENDBRANCH   1  24
TORSDOF 17
ENDMDL
