MODEL 1
REMARK VINA RESULT:     -10.5      0.000      0.000
REMARK SMILES O=C(CC1CC1)NCc1ccc(C(=O)NCCCCNC(=O)c2ccc(-c3c4nc(c(-c5c(F)cc(S(=O)(=O)[O-])cc5F)c5ccc([nH]5)c(-c5c(F)cc(S(=O)(=O)[O-])cc5F)c5nc(c(-c6c(F)cc(S(=O)(=O)[O-])cc6F)c6ccc3[nH]6)C=C5)C=C4)cc2)o1
REMARK SMILES IDX 17 1 16 2 15 3 13 4 14 5 12 7 9 8 10 9 89 10 11 11 8 12 7 13
REMARK SMILES IDX 1 14 2 15 3 17 4 18 5 19 6 20 18 21 19 22 20 23 21 24 22 26
REMARK SMILES IDX 23 27 24 28 88 29 25 30 87 31 26 32 27 33 28 34 81 35 29 36
REMARK SMILES IDX 86 37 80 38 82 39 30 40 85 41 79 42 78 43 31 45 65 46 44 47
REMARK SMILES IDX 64 48 45 49 48 50 63 51 83 52 46 53 47 54 62 56 84 57 49 58
REMARK SMILES IDX 32 59 33 60 42 61 34 62 35 63 41 64 43 65 36 66 37 67 38 68
REMARK SMILES IDX 39 69 40 70 66 71 67 72 76 73 68 74 69 75 75 76 77 77 70 78
REMARK SMILES IDX 71 79 72 80 73 81 74 82 50 83 51 84 60 85 52 86 53 87 59 88
REMARK SMILES IDX 61 89 54 90 55 91 56 92 57 93 58 94
REMARK H PARENT 15 6 7 16 20 25 82 44 48 55
REMARK Flexibility Score: inf
ROOT
ATOM      1  C   UNL A   1      32.862  29.678  24.998  1.00  0.00     0.023 C 
ENDROOT
BRANCH   1   2
ATOM      2  C   UNL A   1      31.385  29.295  25.079  1.00  0.00     0.116 C 
BRANCH   2   3
ATOM      3  N   UNL A   1      30.734  29.462  23.798  1.00  0.00    -0.349 N 
ATOM      4  C   UNL A   1      30.701  28.651  22.687  1.00  0.00     0.286 C 
ATOM      5  O   UNL A   1      29.995  29.041  21.755  1.00  0.00    -0.266 OA
ATOM      6  H   UNL A   1      30.228  30.302  23.704  1.00  0.00     0.163 HD
BRANCH   4   7
ATOM      7  C   UNL A   1      31.441  27.401  22.643  1.00  0.00     0.191 A 
ATOM      8  C   UNL A   1      31.613  25.215  22.954  1.00  0.00     0.124 A 
ATOM      9  C   UNL A   1      32.850  25.644  22.526  1.00  0.00     0.048 A 
ATOM     10  O   UNL A   1      30.761  26.270  23.037  1.00  0.00    -0.454 OA
ATOM     11  C   UNL A   1      32.717  27.025  22.261  1.00  0.00     0.056 A 
BRANCH   8  12
ATOM     12  C   UNL A   1      31.057  23.871  23.256  1.00  0.00     0.191 C 
BRANCH  12  13
ATOM     13  N   UNL A   1      32.195  23.007  23.473  1.00  0.00    -0.349 N 
ATOM     14  O   UNL A   1      32.145  22.988  25.768  1.00  0.00    -0.275 OA
ATOM     15  C   UNL A   1      32.705  22.717  24.713  1.00  0.00     0.220 C 
ATOM     16  H   UNL A   1      32.629  22.605  22.686  1.00  0.00     0.163 HD
BRANCH  15  17
ATOM     17  C   UNL A   1      34.088  22.096  24.652  1.00  0.00     0.103 C 
BRANCH  17  18
ATOM     18  C   UNL A   1      35.206  23.090  24.543  1.00  0.00    -0.002 C 
ATOM     19  C   UNL A   1      36.666  22.706  24.584  1.00  0.00     0.004 C 
ATOM     20  C   UNL A   1      36.042  23.125  23.286  1.00  0.00     0.004 C 
ENDBRANCH  17  18
ENDBRANCH  15  17
ENDBRANCH  12  13
ENDBRANCH   8  12
ENDBRANCH   4   7
ENDBRANCH   2   3
ENDBRANCH   1   2
BRANCH   1  21
ATOM     21  C   UNL A   1      33.778  28.734  25.783  1.00  0.00     0.023 C 
BRANCH  21  22
ATOM     22  C   UNL A   1      33.587  28.764  27.298  1.00  0.00     0.116 C 
BRANCH  22  23
ATOM     23  N   UNL A   1      33.569  30.111  27.849  1.00  0.00    -0.352 N 
ATOM     24  C   UNL A   1      34.581  30.778  28.501  1.00  0.00     0.251 C 
ATOM     25  H   UNL A   1      32.726  30.609  27.743  1.00  0.00     0.163 HD
ATOM     26  O   UNL A   1      34.376  31.872  29.015  1.00  0.00    -0.269 OA
BRANCH  24  27
ATOM     27  C   UNL A   1      35.903  30.131  28.605  1.00  0.00     0.039 A 
ATOM     28  C   UNL A   1      36.779  30.204  27.520  1.00  0.00     0.014 A 
ATOM     29  C   UNL A   1      36.301  29.538  29.805  1.00  0.00     0.014 A 
ATOM     30  C   UNL A   1      38.093  29.759  27.671  1.00  0.00     0.010 A 
ATOM     31  C   UNL A   1      37.629  29.160  29.974  1.00  0.00     0.010 A 
ATOM     32  C   UNL A   1      38.542  29.284  28.915  1.00  0.00    -0.014 A 
BRANCH  32  33
ATOM     33  C   UNL A   1      39.971  28.958  29.150  1.00  0.00     0.031 A 
ATOM     34  C   UNL A   1      40.914  30.019  29.647  1.00  0.00     0.074 A 
ATOM     35  C   UNL A   1      40.434  27.733  28.829  1.00  0.00     0.049 A 
ATOM     36  N   UNL A   1      42.211  29.961  29.801  1.00  0.00    -0.248 NA
ATOM     37  C   UNL A   1      40.324  31.322  29.991  1.00  0.00     0.031 C 
ATOM     38  C   UNL A   1      39.621  26.634  28.301  1.00  0.00     0.029 A 
ATOM     39  N   UNL A   1      41.702  27.211  28.878  1.00  0.00    -0.354 N 
ATOM     40  C   UNL A   1      42.595  31.219  30.249  1.00  0.00     0.074 A 
ATOM     41  C   UNL A   1      41.400  32.034  30.295  1.00  0.00     0.031 C 
ATOM     42  C   UNL A   1      40.407  25.567  28.090  1.00  0.00     0.029 A 
ATOM     43  C   UNL A   1      41.786  25.918  28.415  1.00  0.00     0.049 A 
ATOM     44  H   UNL A   1      42.479  27.714  29.213  1.00  0.00     0.167 HD
ATOM     45  C   UNL A   1      43.828  31.647  30.610  1.00  0.00     0.037 A 
ATOM     46  C   UNL A   1      42.854  25.114  28.248  1.00  0.00     0.037 A 
ATOM     47  C   UNL A   1      45.008  30.823  30.572  1.00  0.00     0.049 A 
ATOM     48  C   UNL A   1      44.220  25.628  28.614  1.00  0.00     0.074 A 
ATOM     49  C   UNL A   1      46.293  31.145  30.974  1.00  0.00     0.029 A 
ATOM     50  N   UNL A   1      45.053  29.520  30.098  1.00  0.00    -0.354 N 
ATOM     51  N   UNL A   1      44.556  26.797  29.107  1.00  0.00    -0.248 NA
ATOM     52  C   UNL A   1      45.355  24.720  28.398  1.00  0.00     0.031 C 
ATOM     53  C   UNL A   1      47.125  30.058  30.687  1.00  0.00     0.029 A 
ATOM     54  C   UNL A   1      46.350  29.037  30.161  1.00  0.00     0.049 A 
ATOM     55  H   UNL A   1      44.277  29.013  29.766  1.00  0.00     0.167 HD
ATOM     56  C   UNL A   1      45.936  26.757  29.276  1.00  0.00     0.074 A 
ATOM     57  C   UNL A   1      46.370  25.442  28.852  1.00  0.00     0.031 C 
ATOM     58  C   UNL A   1      46.768  27.724  29.734  1.00  0.00     0.037 A 
BRANCH  45  59
ATOM     59  C   UNL A   1      43.967  33.071  31.075  1.00  0.00     0.058 A 
ATOM     60  C   UNL A   1      43.837  33.421  32.428  1.00  0.00     0.135 A 
ATOM     61  C   UNL A   1      44.283  34.092  30.163  1.00  0.00     0.135 A 
ATOM     62  F   UNL A   1      43.521  32.489  33.341  1.00  0.00    -0.206 F 
ATOM     63  C   UNL A   1      43.989  34.735  32.857  1.00  0.00     0.059 A 
ATOM     64  C   UNL A   1      44.469  35.409  30.574  1.00  0.00     0.059 A 
ATOM     65  F   UNL A   1      44.416  33.814  28.856  1.00  0.00    -0.206 F 
ATOM     66  C   UNL A   1      44.307  35.722  31.923  1.00  0.00     0.060 A 
BRANCH  66  67
ATOM     67  S   UNL A   1      44.513  37.420  32.501  1.00  0.00     0.124 S 
ATOM     68  O   UNL A   1      45.896  37.401  32.968  1.00  0.00    -0.237 OA
ATOM     69  O   UNL A   1      44.263  38.193  31.289  1.00  0.00    -0.237 OA
ATOM     70  O   UNL A   1      43.502  37.549  33.546  1.00  0.00    -0.744 OA
ENDBRANCH  66  67
ENDBRANCH  45  59
BRANCH  46  71
ATOM     71  C   UNL A   1      42.678  23.741  27.702  1.00  0.00     0.058 A 
ATOM     72  C   UNL A   1      42.546  22.635  28.555  1.00  0.00     0.135 A 
ATOM     73  C   UNL A   1      42.630  23.505  26.318  1.00  0.00     0.135 A 
ATOM     74  F   UNL A   1      42.593  22.805  29.885  1.00  0.00    -0.206 F 
ATOM     75  C   UNL A   1      42.391  21.345  28.059  1.00  0.00     0.059 A 
ATOM     76  C   UNL A   1      42.447  22.228  25.797  1.00  0.00     0.059 A 
ATOM     77  F   UNL A   1      42.736  24.529  25.457  1.00  0.00    -0.206 F 
ATOM     78  C   UNL A   1      42.339  21.152  26.678  1.00  0.00     0.060 A 
BRANCH  78  79
ATOM     79  S   UNL A   1      42.090  19.478  26.047  1.00  0.00     0.124 S 
ATOM     80  O   UNL A   1      43.001  19.454  24.909  1.00  0.00    -0.237 OA
ATOM     81  O   UNL A   1      42.476  18.660  27.192  1.00  0.00    -0.237 OA
ATOM     82  O   UNL A   1      40.668  19.451  25.718  1.00  0.00    -0.744 OA
ENDBRANCH  78  79
ENDBRANCH  46  71
BRANCH  58  83
ATOM     83  C   UNL A   1      48.235  27.399  29.814  1.00  0.00     0.058 A 
ATOM     84  C   UNL A   1      49.105  27.669  28.748  1.00  0.00     0.135 A 
ATOM     85  C   UNL A   1      48.788  26.881  30.997  1.00  0.00     0.135 A 
ATOM     86  F   UNL A   1      48.626  28.155  27.591  1.00  0.00    -0.206 F 
ATOM     87  C   UNL A   1      50.471  27.426  28.844  1.00  0.00     0.059 A 
ATOM     88  C   UNL A   1      50.156  26.658  31.127  1.00  0.00     0.059 A 
ATOM     89  F   UNL A   1      48.001  26.611  32.050  1.00  0.00    -0.206 F 
ATOM     90  C   UNL A   1      50.988  26.928  30.042  1.00  0.00     0.060 A 
BRANCH  90  91
ATOM     91  S   UNL A   1      52.771  26.676  30.172  1.00  0.00     0.124 S 
ATOM     92  O   UNL A   1      52.841  25.537  31.081  1.00  0.00    -0.237 OA
ATOM     93  O   UNL A   1      53.148  26.408  28.789  1.00  0.00    -0.237 OA
ATOM     94  O   UNL A   1      53.256  27.942  30.715  1.00  0.00    -0.744 OA
ENDBRANCH  90  91
ENDBRANCH  58  83
ENDBRANCH  32  33
ENDBRANCH  24  27
ENDBRANCH  22  23
ENDBRANCH  21  22
ENDBRANCH   1  21
TORSDOF 18
ENDMDL
MODEL 2
REMARK VINA RESULT:     -10.4      3.662      5.833
REMARK SMILES O=C(CC1CC1)NCc1ccc(C(=O)NCCCCNC(=O)c2ccc(-c3c4nc(c(-c5c(F)cc(S(=O)(=O)[O-])cc5F)c5ccc([nH]5)c(-c5c(F)cc(S(=O)(=O)[O-])cc5F)c5nc(c(-c6c(F)cc(S(=O)(=O)[O-])cc6F)c6ccc3[nH]6)C=C5)C=C4)cc2)o1
REMARK SMILES IDX 17 1 16 2 15 3 13 4 14 5 12 7 9 8 10 9 89 10 11 11 8 12 7 13
REMARK SMILES IDX 1 14 2 15 3 17 4 18 5 19 6 20 18 21 19 22 20 23 21 24 22 26
REMARK SMILES IDX 23 27 24 28 88 29 25 30 87 31 26 32 27 33 28 34 81 35 29 36
REMARK SMILES IDX 86 37 80 38 82 39 30 40 85 41 79 42 78 43 31 45 65 46 44 47
REMARK SMILES IDX 64 48 45 49 48 50 63 51 83 52 46 53 47 54 62 56 84 57 49 58
REMARK SMILES IDX 32 59 33 60 42 61 34 62 35 63 41 64 43 65 36 66 37 67 38 68
REMARK SMILES IDX 39 69 40 70 66 71 67 72 76 73 68 74 69 75 75 76 77 77 70 78
REMARK SMILES IDX 71 79 72 80 73 81 74 82 50 83 51 84 60 85 52 86 53 87 59 88
REMARK SMILES IDX 61 89 54 90 55 91 56 92 57 93 58 94
REMARK H PARENT 15 6 7 16 20 25 82 44 48 55
REMARK Flexibility Score: inf
ROOT
ATOM      1  C   UNL A   1      37.535  34.048  32.742  1.00  0.00     0.023 C 
ENDROOT
BRANCH   1   2
ATOM      2  C   UNL A   1      36.378  34.950  33.168  1.00  0.00     0.116 C 
BRANCH   2   3
ATOM      3  N   UNL A   1      35.210  34.169  33.515  1.00  0.00    -0.349 N 
ATOM      4  C   UNL A   1      34.042  33.934  32.826  1.00  0.00     0.286 C 
ATOM      5  O   UNL A   1      33.247  33.160  33.362  1.00  0.00    -0.266 OA
ATOM      6  H   UNL A   1      35.259  33.732  34.396  1.00  0.00     0.163 HD
BRANCH   4   7
ATOM      7  C   UNL A   1      33.790  34.551  31.535  1.00  0.00     0.191 A 
ATOM      8  C   UNL A   1      33.887  34.572  29.323  1.00  0.00     0.124 A 
ATOM      9  C   UNL A   1      33.330  35.774  29.697  1.00  0.00     0.048 A 
ATOM     10  O   UNL A   1      34.176  33.833  30.425  1.00  0.00    -0.454 OA
ATOM     11  C   UNL A   1      33.204  35.728  31.103  1.00  0.00     0.056 A 
BRANCH   8  12
ATOM     12  C   UNL A   1      34.147  33.946  28.000  1.00  0.00     0.191 C 
BRANCH  12  13
ATOM     13  N   UNL A   1      33.198  32.864  27.877  1.00  0.00    -0.349 N 
ATOM     14  O   UNL A   1      34.695  31.178  27.442  1.00  0.00    -0.275 OA
ATOM     15  C   UNL A   1      33.541  31.587  27.510  1.00  0.00     0.220 C 
ATOM     16  H   UNL A   1      32.250  33.053  28.066  1.00  0.00     0.163 HD
BRANCH  15  17
ATOM     17  C   UNL A   1      32.345  30.745  27.108  1.00  0.00     0.103 C 
BRANCH  17  18
ATOM     18  C   UNL A   1      32.639  29.280  26.976  1.00  0.00    -0.002 C 
ATOM     19  C   UNL A   1      31.703  28.198  27.462  1.00  0.00     0.004 C 
ATOM     20  C   UNL A   1      31.846  28.455  25.991  1.00  0.00     0.004 C 
ENDBRANCH  17  18
ENDBRANCH  15  17
ENDBRANCH  12  13
ENDBRANCH   8  12
ENDBRANCH   4   7
ENDBRANCH   2   3
ENDBRANCH   1   2
BRANCH   1  21
ATOM     21  C   UNL A   1      38.148  34.440  31.394  1.00  0.00     0.023 C 
BRANCH  21  22
ATOM     22  C   UNL A   1      37.848  33.478  30.247  1.00  0.00     0.116 C 
BRANCH  22  23
ATOM     23  N   UNL A   1      36.709  32.609  30.507  1.00  0.00    -0.352 N 
ATOM     24  C   UNL A   1      36.628  31.244  30.357  1.00  0.00     0.251 C 
ATOM     25  H   UNL A   1      35.894  33.054  30.832  1.00  0.00     0.163 HD
ATOM     26  O   UNL A   1      35.558  30.663  30.505  1.00  0.00    -0.269 OA
BRANCH  24  27
ATOM     27  C   UNL A   1      37.844  30.500  29.973  1.00  0.00     0.039 A 
ATOM     28  C   UNL A   1      38.110  30.292  28.618  1.00  0.00     0.014 A 
ATOM     29  C   UNL A   1      38.756  30.093  30.950  1.00  0.00     0.014 A 
ATOM     30  C   UNL A   1      39.339  29.754  28.237  1.00  0.00     0.010 A 
ATOM     31  C   UNL A   1      40.007  29.624  30.565  1.00  0.00     0.010 A 
ATOM     32  C   UNL A   1      40.318  29.467  29.204  1.00  0.00    -0.014 A 
BRANCH  32  33
ATOM     33  C   UNL A   1      41.689  29.050  28.820  1.00  0.00     0.031 A 
ATOM     34  C   UNL A   1      42.788  30.072  28.718  1.00  0.00     0.074 A 
ATOM     35  C   UNL A   1      41.920  27.768  28.474  1.00  0.00     0.049 A 
ATOM     36  N   UNL A   1      44.013  29.925  28.288  1.00  0.00    -0.248 NA
ATOM     37  C   UNL A   1      42.455  31.445  29.132  1.00  0.00     0.031 C 
ATOM     38  C   UNL A   1      40.923  26.694  28.494  1.00  0.00     0.029 A 
ATOM     39  N   UNL A   1      43.059  27.151  28.018  1.00  0.00    -0.354 N 
ATOM     40  C   UNL A   1      44.596  31.183  28.369  1.00  0.00     0.074 A 
ATOM     41  C   UNL A   1      43.575  32.093  28.842  1.00  0.00     0.031 C 
ATOM     42  C   UNL A   1      41.497  25.552  28.083  1.00  0.00     0.029 A 
ATOM     43  C   UNL A   1      42.885  25.819  27.721  1.00  0.00     0.049 A 
ATOM     44  H   UNL A   1      43.918  27.619  27.912  1.00  0.00     0.167 HD
ATOM     45  C   UNL A   1      45.873  31.542  28.093  1.00  0.00     0.037 A 
ATOM     46  C   UNL A   1      43.739  24.919  27.195  1.00  0.00     0.037 A 
ATOM     47  C   UNL A   1      46.884  30.624  27.634  1.00  0.00     0.049 A 
ATOM     48  C   UNL A   1      45.140  25.353  26.855  1.00  0.00     0.074 A 
ATOM     49  C   UNL A   1      48.222  30.877  27.385  1.00  0.00     0.029 A 
ATOM     50  N   UNL A   1      46.671  29.284  27.347  1.00  0.00    -0.354 N 
ATOM     51  N   UNL A   1      45.697  26.531  27.007  1.00  0.00    -0.248 NA
ATOM     52  C   UNL A   1      46.028  24.340  26.268  1.00  0.00     0.031 C 
ATOM     53  C   UNL A   1      48.803  29.706  26.890  1.00  0.00     0.029 A 
ATOM     54  C   UNL A   1      47.842  28.706  26.885  1.00  0.00     0.049 A 
ATOM     55  H   UNL A   1      45.813  28.813  27.454  1.00  0.00     0.167 HD
ATOM     56  C   UNL A   1      47.004  26.396  26.551  1.00  0.00     0.074 A 
ATOM     57  C   UNL A   1      47.161  25.016  26.137  1.00  0.00     0.031 C 
ATOM     58  C   UNL A   1      47.983  27.331  26.476  1.00  0.00     0.037 A 
BRANCH  45  59
ATOM     59  C   UNL A   1      46.250  32.986  28.277  1.00  0.00     0.058 A 
ATOM     60  C   UNL A   1      46.698  33.480  29.512  1.00  0.00     0.135 A 
ATOM     61  C   UNL A   1      46.210  33.878  27.192  1.00  0.00     0.135 A 
ATOM     62  F   UNL A   1      46.743  32.676  30.586  1.00  0.00    -0.206 F 
ATOM     63  C   UNL A   1      47.068  34.811  29.672  1.00  0.00     0.059 A 
ATOM     64  C   UNL A   1      46.604  35.206  27.322  1.00  0.00     0.059 A 
ATOM     65  F   UNL A   1      45.787  33.460  25.988  1.00  0.00    -0.206 F 
ATOM     66  C   UNL A   1      47.019  35.666  28.570  1.00  0.00     0.060 A 
BRANCH  66  67
ATOM     67  S   UNL A   1      47.516  37.387  28.796  1.00  0.00     0.124 S 
ATOM     68  O   UNL A   1      47.235  37.587  30.215  1.00  0.00    -0.237 OA
ATOM     69  O   UNL A   1      48.928  37.353  28.428  1.00  0.00    -0.237 OA
ATOM     70  O   UNL A   1      46.647  38.116  27.878  1.00  0.00    -0.744 OA
ENDBRANCH  66  67
ENDBRANCH  45  59
BRANCH  46  71
ATOM     71  C   UNL A   1      43.293  23.521  26.949  1.00  0.00     0.058 A 
ATOM     72  C   UNL A   1      43.046  23.059  25.648  1.00  0.00     0.135 A 
ATOM     73  C   UNL A   1      43.113  22.614  28.006  1.00  0.00     0.135 A 
ATOM     74  F   UNL A   1      43.195  23.888  24.603  1.00  0.00    -0.206 F 
ATOM     75  C   UNL A   1      42.619  21.758  25.403  1.00  0.00     0.059 A 
ATOM     76  C   UNL A   1      42.715  21.299  27.786  1.00  0.00     0.059 A 
ATOM     77  F   UNL A   1      43.350  22.999  29.271  1.00  0.00    -0.206 F 
ATOM     78  C   UNL A   1      42.460  20.884  26.480  1.00  0.00     0.060 A 
BRANCH  78  79
ATOM     79  S   UNL A   1      41.952  19.184  26.146  1.00  0.00     0.124 S 
ATOM     80  O   UNL A   1      40.529  19.351  25.871  1.00  0.00    -0.237 OA
ATOM     81  O   UNL A   1      42.787  18.835  25.001  1.00  0.00    -0.237 OA
ATOM     82  O   UNL A   1      42.278  18.486  27.386  1.00  0.00    -0.744 OA
ENDBRANCH  78  79
ENDBRANCH  46  71
BRANCH  58  83
ATOM     83  C   UNL A   1      49.319  26.897  25.936  1.00  0.00     0.058 A 
ATOM     84  C   UNL A   1      49.644  27.042  24.579  1.00  0.00     0.135 A 
ATOM     85  C   UNL A   1      50.310  26.400  26.799  1.00  0.00     0.135 A 
ATOM     86  F   UNL A   1      48.729  27.502  23.710  1.00  0.00    -0.206 F 
ATOM     87  C   UNL A   1      50.900  26.699  24.091  1.00  0.00     0.059 A 
ATOM     88  C   UNL A   1      51.584  26.078  26.338  1.00  0.00     0.059 A 
ATOM     89  F   UNL A   1      50.054  26.248  28.107  1.00  0.00    -0.206 F 
ATOM     90  C   UNL A   1      51.867  26.225  24.981  1.00  0.00     0.060 A 
BRANCH  90  91
ATOM     91  S   UNL A   1      53.511  25.842  24.343  1.00  0.00     0.124 S 
ATOM     92  O   UNL A   1      53.614  24.416  24.631  1.00  0.00    -0.237 OA
ATOM     93  O   UNL A   1      53.388  26.198  22.934  1.00  0.00    -0.237 OA
ATOM     94  O   UNL A   1      54.391  26.705  25.127  1.00  0.00    -0.744 OA
ENDBRANCH  90  91
ENDBRANCH  58  83
ENDBRANCH  32  33
ENDBRANCH  24  27
ENDBRANCH  22  23
ENDBRANCH  21  22
ENDBRANCH   1  21
TORSDOF 18
ENDMDL
MODEL 3
REMARK VINA RESULT:     -10.2      1.218      2.918
REMARK SMILES O=C(CC1CC1)NCc1ccc(C(=O)NCCCCNC(=O)c2ccc(-c3c4nc(c(-c5c(F)cc(S(=O)(=O)[O-])cc5F)c5ccc([nH]5)c(-c5c(F)cc(S(=O)(=O)[O-])cc5F)c5nc(c(-c6c(F)cc(S(=O)(=O)[O-])cc6F)c6ccc3[nH]6)C=C5)C=C4)cc2)o1
REMARK SMILES IDX 17 1 16 2 15 3 13 4 14 5 12 7 9 8 10 9 89 10 11 11 8 12 7 13
REMARK SMILES IDX 1 14 2 15 3 17 4 18 5 19 6 20 18 21 19 22 20 23 21 24 22 26
REMARK SMILES IDX 23 27 24 28 88 29 25 30 87 31 26 32 27 33 28 34 81 35 29 36
REMARK SMILES IDX 86 37 80 38 82 39 30 40 85 41 79 42 78 43 31 45 65 46 44 47
REMARK SMILES IDX 64 48 45 49 48 50 63 51 83 52 46 53 47 54 62 56 84 57 49 58
REMARK SMILES IDX 32 59 33 60 42 61 34 62 35 63 41 64 43 65 36 66 37 67 38 68
REMARK SMILES IDX 39 69 40 70 66 71 67 72 76 73 68 74 69 75 75 76 77 77 70 78
REMARK SMILES IDX 71 79 72 80 73 81 74 82 50 83 51 84 60 85 52 86 53 87 59 88
REMARK SMILES IDX 61 89 54 90 55 91 56 92 57 93 58 94
REMARK H PARENT 15 6 7 16 20 25 82 44 48 55
REMARK Flexibility Score: inf
ROOT
ATOM      1  C   UNL A   1      32.175  26.580  26.656  1.00  0.00     0.023 C 
ENDROOT
BRANCH   1   2
ATOM      2  C   UNL A   1      30.938  26.109  25.893  1.00  0.00     0.116 C 
BRANCH   2   3
ATOM      3  N   UNL A   1      30.221  25.097  26.638  1.00  0.00    -0.349 N 
ATOM      4  C   UNL A   1      30.315  23.725  26.620  1.00  0.00     0.286 C 
ATOM      5  O   UNL A   1      29.605  23.125  27.430  1.00  0.00    -0.266 OA
ATOM      6  H   UNL A   1      29.550  25.452  27.265  1.00  0.00     0.163 HD
BRANCH   4   7
ATOM      7  C   UNL A   1      31.218  23.041  25.709  1.00  0.00     0.191 A 
ATOM      8  C   UNL A   1      32.455  22.958  23.874  1.00  0.00     0.124 A 
ATOM      9  C   UNL A   1      32.547  21.715  24.460  1.00  0.00     0.048 A 
ATOM     10  O   UNL A   1      31.648  23.761  24.616  1.00  0.00    -0.454 OA
ATOM     11  C   UNL A   1      31.815  21.793  25.665  1.00  0.00     0.056 A 
BRANCH   8  12
ATOM     12  C   UNL A   1      33.102  23.565  22.682  1.00  0.00     0.191 C 
BRANCH  12  13
ATOM     13  N   UNL A   1      32.869  24.988  22.782  1.00  0.00    -0.349 N 
ATOM     14  O   UNL A   1      33.128  25.506  20.560  1.00  0.00    -0.275 OA
ATOM     15  C   UNL A   1      32.999  25.856  21.728  1.00  0.00     0.220 C 
ATOM     16  H   UNL A   1      32.603  25.355  23.656  1.00  0.00     0.163 HD
BRANCH  15  17
ATOM     17  C   UNL A   1      33.054  27.308  22.162  1.00  0.00     0.103 C 
BRANCH  17  18
ATOM     18  C   UNL A   1      31.972  27.707  23.121  1.00  0.00    -0.002 C 
ATOM     19  C   UNL A   1      31.429  29.113  23.223  1.00  0.00     0.004 C 
ATOM     20  C   UNL A   1      30.599  28.038  22.587  1.00  0.00     0.004 C 
ENDBRANCH  17  18
ENDBRANCH  15  17
ENDBRANCH  12  13
ENDBRANCH   8  12
ENDBRANCH   4   7
ENDBRANCH   2   3
ENDBRANCH   1   2
BRANCH   1  21
ATOM     21  C   UNL A   1      32.181  28.087  26.933  1.00  0.00     0.023 C 
BRANCH  21  22
ATOM     22  C   UNL A   1      33.565  28.695  27.150  1.00  0.00     0.116 C 
BRANCH  22  23
ATOM     23  N   UNL A   1      33.520  30.063  27.648  1.00  0.00    -0.352 N 
ATOM     24  C   UNL A   1      34.504  30.761  28.308  1.00  0.00     0.251 C 
ATOM     25  H   UNL A   1      32.679  30.550  27.492  1.00  0.00     0.163 HD
ATOM     26  O   UNL A   1      34.275  31.873  28.772  1.00  0.00    -0.269 OA
BRANCH  24  27
ATOM     27  C   UNL A   1      35.826  30.128  28.484  1.00  0.00     0.039 A 
ATOM     28  C   UNL A   1      36.733  30.148  27.424  1.00  0.00     0.014 A 
ATOM     29  C   UNL A   1      36.191  29.600  29.725  1.00  0.00     0.014 A 
ATOM     30  C   UNL A   1      38.043  29.719  27.635  1.00  0.00     0.010 A 
ATOM     31  C   UNL A   1      37.514  29.239  29.953  1.00  0.00     0.010 A 
ATOM     32  C   UNL A   1      38.458  29.313  28.916  1.00  0.00    -0.014 A 
BRANCH  32  33
ATOM     33  C   UNL A   1      39.880  29.007  29.209  1.00  0.00     0.031 A 
ATOM     34  C   UNL A   1      40.779  30.072  29.773  1.00  0.00     0.074 A 
ATOM     35  C   UNL A   1      40.381  27.799  28.881  1.00  0.00     0.049 A 
ATOM     36  N   UNL A   1      42.068  30.035  29.986  1.00  0.00    -0.248 NA
ATOM     37  C   UNL A   1      40.149  31.356  30.120  1.00  0.00     0.031 C 
ATOM     38  C   UNL A   1      39.615  26.698  28.291  1.00  0.00     0.029 A 
ATOM     39  N   UNL A   1      41.656  27.299  28.977  1.00  0.00    -0.354 N 
ATOM     40  C   UNL A   1      42.407  31.288  30.481  1.00  0.00     0.074 A 
ATOM     41  C   UNL A   1      41.195  32.080  30.490  1.00  0.00     0.031 C 
ATOM     42  C   UNL A   1      40.430  25.651  28.091  1.00  0.00     0.029 A 
ATOM     43  C   UNL A   1      41.785  26.019  28.488  1.00  0.00     0.049 A 
ATOM     44  H   UNL A   1      42.406  27.808  29.359  1.00  0.00     0.167 HD
ATOM     45  C   UNL A   1      43.614  31.730  30.908  1.00  0.00     0.037 A 
ATOM     46  C   UNL A   1      42.875  25.238  28.352  1.00  0.00     0.037 A 
ATOM     47  C   UNL A   1      44.810  30.928  30.906  1.00  0.00     0.049 A 
ATOM     48  C   UNL A   1      44.213  25.769  28.793  1.00  0.00     0.074 A 
ATOM     49  C   UNL A   1      46.069  31.264  31.373  1.00  0.00     0.029 A 
ATOM     50  N   UNL A   1      44.901  29.638  30.404  1.00  0.00    -0.354 N 
ATOM     51  N   UNL A   1      44.503  26.931  29.328  1.00  0.00    -0.248 NA
ATOM     52  C   UNL A   1      45.374  24.887  28.609  1.00  0.00     0.031 C 
ATOM     53  C   UNL A   1      46.934  30.200  31.101  1.00  0.00     0.029 A 
ATOM     54  C   UNL A   1      46.204  29.178  30.515  1.00  0.00     0.049 A 
ATOM     55  H   UNL A   1      44.152  29.125  30.025  1.00  0.00     0.167 HD
ATOM     56  C   UNL A   1      45.874  26.913  29.560  1.00  0.00     0.074 A 
ATOM     57  C   UNL A   1      46.353  25.616  29.126  1.00  0.00     0.031 C 
ATOM     58  C   UNL A   1      46.666  27.883  30.078  1.00  0.00     0.037 A 
BRANCH  45  59
ATOM     59  C   UNL A   1      43.704  33.144  31.411  1.00  0.00     0.058 A 
ATOM     60  C   UNL A   1      43.878  34.229  30.538  1.00  0.00     0.135 A 
ATOM     61  C   UNL A   1      43.567  33.424  32.782  1.00  0.00     0.135 A 
ATOM     62  F   UNL A   1      44.029  34.019  29.220  1.00  0.00    -0.206 F 
ATOM     63  C   UNL A   1      43.938  35.537  31.005  1.00  0.00     0.059 A 
ATOM     64  C   UNL A   1      43.594  34.728  33.268  1.00  0.00     0.059 A 
ATOM     65  F   UNL A   1      43.402  32.425  33.663  1.00  0.00    -0.206 F 
ATOM     66  C   UNL A   1      43.793  35.777  32.372  1.00  0.00     0.060 A 
BRANCH  66  67
ATOM     67  S   UNL A   1      43.861  37.484  32.958  1.00  0.00     0.124 S 
ATOM     68  O   UNL A   1      42.738  37.516  33.889  1.00  0.00    -0.237 OA
ATOM     69  O   UNL A   1      45.188  37.551  33.563  1.00  0.00    -0.237 OA
ATOM     70  O   UNL A   1      43.688  38.269  31.740  1.00  0.00    -0.744 OA
ENDBRANCH  66  67
ENDBRANCH  45  59
BRANCH  46  71
ATOM     71  C   UNL A   1      42.751  23.876  27.767  1.00  0.00     0.058 A 
ATOM     72  C   UNL A   1      42.782  23.681  26.378  1.00  0.00     0.135 A 
ATOM     73  C   UNL A   1      42.605  22.741  28.580  1.00  0.00     0.135 A 
ATOM     74  F   UNL A   1      42.910  24.734  25.556  1.00  0.00    -0.206 F 
ATOM     75  C   UNL A   1      42.656  22.415  25.816  1.00  0.00     0.059 A 
ATOM     76  C   UNL A   1      42.507  21.461  28.044  1.00  0.00     0.059 A 
ATOM     77  F   UNL A   1      42.584  22.869  29.917  1.00  0.00    -0.206 F 
ATOM     78  C   UNL A   1      42.523  21.310  26.658  1.00  0.00     0.060 A 
BRANCH  78  79
ATOM     79  S   UNL A   1      42.409  19.666  25.918  1.00  0.00     0.124 S 
ATOM     80  O   UNL A   1      43.439  19.736  24.889  1.00  0.00    -0.237 OA
ATOM     81  O   UNL A   1      42.698  18.799  27.055  1.00  0.00    -0.237 OA
ATOM     82  O   UNL A   1      41.033  19.613  25.431  1.00  0.00    -0.744 OA
ENDBRANCH  78  79
ENDBRANCH  46  71
BRANCH  58  83
ATOM     83  C   UNL A   1      48.133  27.583  30.218  1.00  0.00     0.058 A 
ATOM     84  C   UNL A   1      48.650  26.969  31.369  1.00  0.00     0.135 A 
ATOM     85  C   UNL A   1      49.020  27.846  29.160  1.00  0.00     0.135 A 
ATOM     86  F   UNL A   1      47.848  26.706  32.413  1.00  0.00    -0.206 F 
ATOM     87  C   UNL A   1      49.996  26.635  31.473  1.00  0.00     0.059 A 
ATOM     88  C   UNL A   1      50.365  27.494  29.230  1.00  0.00     0.059 A 
ATOM     89  F   UNL A   1      48.577  28.426  28.034  1.00  0.00    -0.206 F 
ATOM     90  C   UNL A   1      50.844  26.894  30.394  1.00  0.00     0.060 A 
BRANCH  90  91
ATOM     91  S   UNL A   1      52.576  26.400  30.521  1.00  0.00     0.124 S 
ATOM     92  O   UNL A   1      52.487  25.241  31.403  1.00  0.00    -0.237 OA
ATOM     93  O   UNL A   1      52.921  26.116  29.133  1.00  0.00    -0.237 OA
ATOM     94  O   UNL A   1      53.225  27.576  31.095  1.00  0.00    -0.744 OA
ENDBRANCH  90  91
ENDBRANCH  58  83
ENDBRANCH  32  33
ENDBRANCH  24  27
ENDBRANCH  22  23
ENDBRANCH  21  22
ENDBRANCH   1  21
TORSDOF 18
ENDMDL
