MODEL 1
REMARK VINA RESULT:     -11.7      0.000      0.000
REMARK SMILES CCN(C)C(=O)Cn1ccc2c(C(=O)NCCCCNC(=O)c3ccc(-c4c5nc(c(-c6c(F)cc(S(=O)(=O)[O-])cc6F)c6ccc([nH]6)c(-c6c(F)cc(S(=O)(=O)[O-])cc6F)c6nc(c(-c7c(F)cc(S(=O)(=O)[O-])cc7F)c7ccc4[nH]7)C=C6)C=C5)cc3)cccc21
REMARK SMILES IDX 17 1 16 2 15 3 13 4 14 5 12 7 8 8 9 9 92 10 10 11 11 12
REMARK SMILES IDX 91 13 90 14 89 15 7 16 5 17 6 18 3 19 4 20 2 21 1 22 18 23
REMARK SMILES IDX 19 24 20 25 21 26 22 28 23 29 24 30 88 31 25 32 87 33 26 34
REMARK SMILES IDX 27 35 28 36 81 37 29 38 86 39 80 40 82 41 30 42 85 43 79 44
REMARK SMILES IDX 78 45 31 47 65 48 44 49 64 50 45 51 48 52 63 53 83 54 46 55
REMARK SMILES IDX 47 56 62 58 84 59 49 60 32 61 33 62 42 63 34 64 35 65 41 66
REMARK SMILES IDX 43 67 36 68 37 69 38 70 39 71 40 72 66 73 67 74 76 75 68 76
REMARK SMILES IDX 69 77 75 78 77 79 70 80 71 81 72 82 73 83 74 84 50 85 51 86
REMARK SMILES IDX 60 87 52 88 53 89 59 90 61 91 54 92 55 93 56 94 57 95 58 96
REMARK H PARENT 15 6 20 27 82 46 48 57
REMARK Flexibility Score: inf
ROOT
ATOM      1  C   UNL A   1      40.218  21.452  26.579  1.00  0.00     0.023 C 
ENDROOT
BRANCH   1   2
ATOM      2  C   UNL A   1      38.873  21.854  25.967  1.00  0.00     0.116 C 
BRANCH   2   3
ATOM      3  N   UNL A   1      38.141  20.679  25.541  1.00  0.00    -0.352 N 
ATOM      4  C   UNL A   1      36.914  20.480  24.964  1.00  0.00     0.251 C 
ATOM      5  O   UNL A   1      36.622  19.305  24.731  1.00  0.00    -0.269 OA
ATOM      6  H   UNL A   1      38.632  19.841  25.701  1.00  0.00     0.163 HD
BRANCH   4   7
ATOM      7  C   UNL A   1      35.983  21.582  24.570  1.00  0.00     0.049 A 
ATOM      8  N   UNL A   1      32.495  22.222  25.127  1.00  0.00    -0.338 N 
ATOM      9  C   UNL A   1      32.556  21.033  25.806  1.00  0.00     0.087 A 
ATOM     10  C   UNL A   1      33.714  22.490  24.533  1.00  0.00     0.049 A 
ATOM     11  C   UNL A   1      33.841  20.559  25.708  1.00  0.00     0.029 A 
ATOM     12  C   UNL A   1      34.611  21.490  24.945  1.00  0.00     0.012 A 
ATOM     13  C   UNL A   1      34.112  23.545  23.701  1.00  0.00     0.027 A 
ATOM     14  C   UNL A   1      35.467  23.679  23.424  1.00  0.00     0.003 A 
ATOM     15  C   UNL A   1      36.387  22.748  23.899  1.00  0.00     0.014 A 
BRANCH   8  16
ATOM     16  C   UNL A   1      31.303  23.065  25.102  1.00  0.00     0.222 C 
BRANCH  16  17
ATOM     17  C   UNL A   1      31.246  24.154  26.161  1.00  0.00     0.242 C 
ATOM     18  O   UNL A   1      31.353  23.835  27.351  1.00  0.00    -0.273 OA
BRANCH  17  19
ATOM     19  N   UNL A   1      31.112  25.485  25.778  1.00  0.00    -0.344 N 
ATOM     20  C   UNL A   1      30.030  25.994  24.945  1.00  0.00     0.146 C 
BRANCH  19  21
ATOM     21  C   UNL A   1      32.009  26.472  26.382  1.00  0.00     0.115 C 
ATOM     22  C   UNL A   1      33.445  26.334  25.895  1.00  0.00     0.027 C 
ENDBRANCH  19  21
ENDBRANCH  17  19
ENDBRANCH  16  17
ENDBRANCH   8  16
ENDBRANCH   4   7
ENDBRANCH   2   3
ENDBRANCH   1   2
BRANCH   1  23
ATOM     23  C   UNL A   1      40.679  20.036  26.191  1.00  0.00     0.023 C 
BRANCH  23  24
ATOM     24  C   UNL A   1      42.124  19.727  26.586  1.00  0.00     0.116 C 
BRANCH  24  25
ATOM     25  N   UNL A   1      43.058  19.831  25.479  1.00  0.00    -0.352 N 
ATOM     26  C   UNL A   1      43.904  20.802  25.019  1.00  0.00     0.251 C 
ATOM     27  H   UNL A   1      43.090  19.012  24.934  1.00  0.00     0.163 HD
ATOM     28  O   UNL A   1      44.611  20.491  24.057  1.00  0.00    -0.269 OA
BRANCH  26  29
ATOM     29  C   UNL A   1      43.967  22.188  25.546  1.00  0.00     0.039 A 
ATOM     30  C   UNL A   1      44.784  22.608  26.595  1.00  0.00     0.014 A 
ATOM     31  C   UNL A   1      43.076  23.113  24.973  1.00  0.00     0.014 A 
ATOM     32  C   UNL A   1      44.616  23.860  27.159  1.00  0.00     0.010 A 
ATOM     33  C   UNL A   1      42.929  24.386  25.509  1.00  0.00     0.010 A 
ATOM     34  C   UNL A   1      43.651  24.723  26.650  1.00  0.00    -0.014 A 
BRANCH  34  35
ATOM     35  C   UNL A   1      43.455  25.977  27.363  1.00  0.00     0.031 A 
ATOM     36  C   UNL A   1      44.519  27.006  27.171  1.00  0.00     0.074 A 
ATOM     37  C   UNL A   1      42.356  26.195  28.108  1.00  0.00     0.049 A 
ATOM     38  N   UNL A   1      45.256  27.590  28.061  1.00  0.00    -0.248 NA
ATOM     39  C   UNL A   1      44.879  27.343  25.783  1.00  0.00     0.031 C 
ATOM     40  C   UNL A   1      41.147  25.375  28.212  1.00  0.00     0.029 A 
ATOM     41  N   UNL A   1      42.054  27.281  28.864  1.00  0.00    -0.354 N 
ATOM     42  C   UNL A   1      46.063  28.490  27.366  1.00  0.00     0.074 A 
ATOM     43  C   UNL A   1      45.875  28.210  25.965  1.00  0.00     0.031 C 
ATOM     44  C   UNL A   1      40.164  26.106  28.782  1.00  0.00     0.029 A 
ATOM     45  C   UNL A   1      40.712  27.386  29.192  1.00  0.00     0.049 A 
ATOM     46  H   UNL A   1      42.730  27.936  29.154  1.00  0.00     0.167 HD
ATOM     47  C   UNL A   1      46.725  29.518  27.968  1.00  0.00     0.037 A 
ATOM     48  C   UNL A   1      40.093  28.492  29.670  1.00  0.00     0.037 A 
ATOM     49  C   UNL A   1      46.859  29.324  29.385  1.00  0.00     0.049 A 
ATOM     50  C   UNL A   1      41.144  29.365  30.260  1.00  0.00     0.074 A 
ATOM     51  C   UNL A   1      47.524  28.402  30.170  1.00  0.00     0.029 A 
ATOM     52  N   UNL A   1      45.964  29.942  30.223  1.00  0.00    -0.354 N 
ATOM     53  N   UNL A   1      41.828  29.054  31.328  1.00  0.00    -0.248 NA
ATOM     54  C   UNL A   1      41.759  30.371  29.405  1.00  0.00     0.031 C 
ATOM     55  C   UNL A   1      46.669  28.175  31.287  1.00  0.00     0.029 A 
ATOM     56  C   UNL A   1      45.553  29.000  31.135  1.00  0.00     0.049 A 
ATOM     57  H   UNL A   1      45.673  30.882  30.178  1.00  0.00     0.167 HD
ATOM     58  C   UNL A   1      43.118  29.503  31.078  1.00  0.00     0.074 A 
ATOM     59  C   UNL A   1      42.992  30.383  29.919  1.00  0.00     0.031 C 
ATOM     60  C   UNL A   1      44.206  28.908  31.655  1.00  0.00     0.037 A 
BRANCH  47  61
ATOM     61  C   UNL A   1      47.033  30.821  27.278  1.00  0.00     0.058 A 
ATOM     62  C   UNL A   1      48.351  31.306  27.202  1.00  0.00     0.135 A 
ATOM     63  C   UNL A   1      46.022  31.729  26.890  1.00  0.00     0.135 A 
ATOM     64  F   UNL A   1      49.387  30.538  27.575  1.00  0.00    -0.206 F 
ATOM     65  C   UNL A   1      48.641  32.613  26.794  1.00  0.00     0.059 A 
ATOM     66  C   UNL A   1      46.289  33.012  26.430  1.00  0.00     0.059 A 
ATOM     67  F   UNL A   1      44.722  31.433  27.026  1.00  0.00    -0.206 F 
ATOM     68  C   UNL A   1      47.600  33.460  26.420  1.00  0.00     0.060 A 
BRANCH  68  69
ATOM     69  S   UNL A   1      47.957  35.175  25.992  1.00  0.00     0.124 S 
ATOM     70  O   UNL A   1      48.778  35.012  24.797  1.00  0.00    -0.237 OA
ATOM     71  O   UNL A   1      46.621  35.721  25.781  1.00  0.00    -0.237 OA
ATOM     72  O   UNL A   1      48.655  35.679  27.172  1.00  0.00    -0.744 OA
ENDBRANCH  68  69
ENDBRANCH  47  61
BRANCH  48  73
ATOM     73  C   UNL A   1      38.738  28.975  29.294  1.00  0.00     0.058 A 
ATOM     74  C   UNL A   1      37.756  29.225  30.268  1.00  0.00     0.135 A 
ATOM     75  C   UNL A   1      38.454  29.445  27.994  1.00  0.00     0.135 A 
ATOM     76  F   UNL A   1      37.953  28.842  31.538  1.00  0.00    -0.206 F 
ATOM     77  C   UNL A   1      36.583  29.933  29.978  1.00  0.00     0.059 A 
ATOM     78  C   UNL A   1      37.288  30.135  27.677  1.00  0.00     0.059 A 
ATOM     79  F   UNL A   1      39.348  29.332  27.000  1.00  0.00    -0.206 F 
ATOM     80  C   UNL A   1      36.368  30.400  28.681  1.00  0.00     0.060 A 
BRANCH  80  81
ATOM     81  S   UNL A   1      34.945  31.460  28.340  1.00  0.00     0.124 S 
ATOM     82  O   UNL A   1      35.522  32.464  27.452  1.00  0.00    -0.237 OA
ATOM     83  O   UNL A   1      34.009  30.525  27.725  1.00  0.00    -0.237 OA
ATOM     84  O   UNL A   1      34.557  31.945  29.662  1.00  0.00    -0.744 OA
ENDBRANCH  80  81
ENDBRANCH  48  73
BRANCH  60  85
ATOM     85  C   UNL A   1      43.950  27.883  32.736  1.00  0.00     0.058 A 
ATOM     86  C   UNL A   1      43.641  28.221  34.067  1.00  0.00     0.135 A 
ATOM     87  C   UNL A   1      43.884  26.525  32.397  1.00  0.00     0.135 A 
ATOM     88  F   UNL A   1      43.549  29.501  34.446  1.00  0.00    -0.206 F 
ATOM     89  C   UNL A   1      43.353  27.256  35.031  1.00  0.00     0.059 A 
ATOM     90  C   UNL A   1      43.563  25.542  33.337  1.00  0.00     0.059 A 
ATOM     91  F   UNL A   1      44.088  26.138  31.128  1.00  0.00    -0.206 F 
ATOM     92  C   UNL A   1      43.321  25.915  34.658  1.00  0.00     0.060 A 
BRANCH  92  93
ATOM     93  S   UNL A   1      42.893  24.671  35.895  1.00  0.00     0.124 S 
ATOM     94  O   UNL A   1      44.197  24.085  36.204  1.00  0.00    -0.237 OA
ATOM     95  O   UNL A   1      42.300  25.478  36.965  1.00  0.00    -0.237 OA
ATOM     96  O   UNL A   1      41.964  23.797  35.199  1.00  0.00    -0.744 OA
ENDBRANCH  92  93
ENDBRANCH  60  85
ENDBRANCH  34  35
ENDBRANCH  26  29
ENDBRANCH  24  25
ENDBRANCH  23  24
ENDBRANCH   1  23
TORSDOF 18
ENDMDL
MODEL 2
REMARK VINA RESULT:     -11.6      1.946      2.765
REMARK SMILES CCN(C)C(=O)Cn1ccc2c(C(=O)NCCCCNC(=O)c3ccc(-c4c5nc(c(-c6c(F)cc(S(=O)(=O)[O-])cc6F)c6ccc([nH]6)c(-c6c(F)cc(S(=O)(=O)[O-])cc6F)c6nc(c(-c7c(F)cc(S(=O)(=O)[O-])cc7F)c7ccc4[nH]7)C=C6)C=C5)cc3)cccc21
REMARK SMILES IDX 17 1 16 2 15 3 13 4 14 5 12 7 8 8 9 9 92 10 10 11 11 12
REMARK SMILES IDX 91 13 90 14 89 15 7 16 5 17 6 18 3 19 4 20 2 21 1 22 18 23
REMARK SMILES IDX 19 24 20 25 21 26 22 28 23 29 24 30 88 31 25 32 87 33 26 34
REMARK SMILES IDX 27 35 28 36 81 37 29 38 86 39 80 40 82 41 30 42 85 43 79 44
REMARK SMILES IDX 78 45 31 47 65 48 44 49 64 50 45 51 48 52 63 53 83 54 46 55
REMARK SMILES IDX 47 56 62 58 84 59 49 60 32 61 33 62 42 63 34 64 35 65 41 66
REMARK SMILES IDX 43 67 36 68 37 69 38 70 39 71 40 72 66 73 67 74 76 75 68 76
REMARK SMILES IDX 69 77 75 78 77 79 70 80 71 81 72 82 73 83 74 84 50 85 51 86
REMARK SMILES IDX 60 87 52 88 53 89 59 90 61 91 54 92 55 93 56 94 57 95 58 96
REMARK H PARENT 15 6 20 27 82 46 48 57
REMARK Flexibility Score: inf
ROOT
ATOM      1  C   UNL A   1      38.935  23.415  26.533  1.00  0.00     0.023 C 
ENDROOT
BRANCH   1   2
ATOM      2  C   UNL A   1      37.617  23.959  25.977  1.00  0.00     0.116 C 
BRANCH   2   3
ATOM      3  N   UNL A   1      36.493  23.274  26.581  1.00  0.00    -0.352 N 
ATOM      4  C   UNL A   1      35.189  23.072  26.209  1.00  0.00     0.251 C 
ATOM      5  O   UNL A   1      34.508  22.415  26.998  1.00  0.00    -0.269 OA
ATOM      6  H   UNL A   1      36.713  22.864  27.448  1.00  0.00     0.163 HD
BRANCH   4   7
ATOM      7  C   UNL A   1      34.602  23.545  24.917  1.00  0.00     0.049 A 
ATOM      8  N   UNL A   1      33.215  26.661  23.797  1.00  0.00    -0.338 N 
ATOM      9  C   UNL A   1      33.516  27.062  25.073  1.00  0.00     0.087 A 
ATOM     10  C   UNL A   1      33.496  25.316  23.647  1.00  0.00     0.049 A 
ATOM     11  C   UNL A   1      34.057  25.987  25.734  1.00  0.00     0.029 A 
ATOM     12  C   UNL A   1      34.101  24.877  24.836  1.00  0.00     0.012 A 
ATOM     13  C   UNL A   1      33.304  24.459  22.553  1.00  0.00     0.027 A 
ATOM     14  C   UNL A   1      33.882  23.197  22.607  1.00  0.00     0.003 A 
ATOM     15  C   UNL A   1      34.566  22.774  23.744  1.00  0.00     0.014 A 
BRANCH   8  16
ATOM     16  C   UNL A   1      32.714  27.573  22.772  1.00  0.00     0.222 C 
BRANCH  16  17
ATOM     17  C   UNL A   1      31.258  27.383  22.380  1.00  0.00     0.242 C 
ATOM     18  O   UNL A   1      30.993  26.708  21.379  1.00  0.00    -0.273 OA
BRANCH  17  19
ATOM     19  N   UNL A   1      30.251  27.936  23.167  1.00  0.00    -0.344 N 
ATOM     20  C   UNL A   1      30.018  29.367  23.313  1.00  0.00     0.146 C 
BRANCH  19  21
ATOM     21  C   UNL A   1      29.257  27.034  23.751  1.00  0.00     0.115 C 
ATOM     22  C   UNL A   1      29.873  26.020  24.704  1.00  0.00     0.027 C 
ENDBRANCH  19  21
ENDBRANCH  17  19
ENDBRANCH  16  17
ENDBRANCH   8  16
ENDBRANCH   4   7
ENDBRANCH   2   3
ENDBRANCH   1   2
BRANCH   1  23
ATOM     23  C   UNL A   1      39.171  21.926  26.225  1.00  0.00     0.023 C 
BRANCH  23  24
ATOM     24  C   UNL A   1      40.410  21.343  26.909  1.00  0.00     0.116 C 
BRANCH  24  25
ATOM     25  N   UNL A   1      41.585  21.331  26.057  1.00  0.00    -0.352 N 
ATOM     26  C   UNL A   1      42.653  22.166  25.875  1.00  0.00     0.251 C 
ATOM     27  H   UNL A   1      41.623  20.538  25.475  1.00  0.00     0.163 HD
ATOM     28  O   UNL A   1      43.514  21.778  25.081  1.00  0.00    -0.269 OA
BRANCH  26  29
ATOM     29  C   UNL A   1      42.798  23.504  26.503  1.00  0.00     0.039 A 
ATOM     30  C   UNL A   1      43.264  23.734  27.796  1.00  0.00     0.014 A 
ATOM     31  C   UNL A   1      42.359  24.600  25.737  1.00  0.00     0.014 A 
ATOM     32  C   UNL A   1      43.157  24.989  28.368  1.00  0.00     0.010 A 
ATOM     33  C   UNL A   1      42.286  25.871  26.293  1.00  0.00     0.010 A 
ATOM     34  C   UNL A   1      42.617  26.040  27.634  1.00  0.00    -0.014 A 
BRANCH  34  35
ATOM     35  C   UNL A   1      42.434  27.301  28.337  1.00  0.00     0.031 A 
ATOM     36  C   UNL A   1      43.553  28.281  28.215  1.00  0.00     0.074 A 
ATOM     37  C   UNL A   1      41.301  27.569  29.012  1.00  0.00     0.049 A 
ATOM     38  N   UNL A   1      44.258  28.831  29.152  1.00  0.00    -0.248 NA
ATOM     39  C   UNL A   1      44.014  28.601  26.854  1.00  0.00     0.031 C 
ATOM     40  C   UNL A   1      40.051  26.803  29.038  1.00  0.00     0.029 A 
ATOM     41  N   UNL A   1      41.001  28.666  29.751  1.00  0.00    -0.354 N 
ATOM     42  C   UNL A   1      45.146  29.694  28.511  1.00  0.00     0.074 A 
ATOM     43  C   UNL A   1      45.035  29.423  27.101  1.00  0.00     0.031 C 
ATOM     44  C   UNL A   1      39.069  27.578  29.547  1.00  0.00     0.029 A 
ATOM     45  C   UNL A   1      39.647  28.832  29.994  1.00  0.00     0.049 A 
ATOM     46  H   UNL A   1      41.686  29.290  30.085  1.00  0.00     0.167 HD
ATOM     47  C   UNL A   1      45.815  30.691  29.157  1.00  0.00     0.037 A 
ATOM     48  C   UNL A   1      39.049  29.965  30.436  1.00  0.00     0.037 A 
ATOM     49  C   UNL A   1      45.850  30.490  30.579  1.00  0.00     0.049 A 
ATOM     50  C   UNL A   1      40.099  30.790  31.093  1.00  0.00     0.074 A 
ATOM     51  C   UNL A   1      46.423  29.540  31.402  1.00  0.00     0.029 A 
ATOM     52  N   UNL A   1      44.933  31.148  31.361  1.00  0.00    -0.354 N 
ATOM     53  N   UNL A   1      40.700  30.448  32.201  1.00  0.00    -0.248 NA
ATOM     54  C   UNL A   1      40.811  31.766  30.281  1.00  0.00     0.031 C 
ATOM     55  C   UNL A   1      45.489  29.351  32.462  1.00  0.00     0.029 A 
ATOM     56  C   UNL A   1      44.423  30.226  32.243  1.00  0.00     0.049 A 
ATOM     57  H   UNL A   1      44.688  32.100  31.301  1.00  0.00     0.167 HD
ATOM     58  C   UNL A   1      42.022  30.838  32.034  1.00  0.00     0.074 A 
ATOM     59  C   UNL A   1      42.009  31.723  30.872  1.00  0.00     0.031 C 
ATOM     60  C   UNL A   1      43.043  30.195  32.677  1.00  0.00     0.037 A 
BRANCH  47  61
ATOM     61  C   UNL A   1      46.224  31.978  28.492  1.00  0.00     0.058 A 
ATOM     62  C   UNL A   1      47.577  32.354  28.411  1.00  0.00     0.135 A 
ATOM     63  C   UNL A   1      45.288  32.976  28.134  1.00  0.00     0.135 A 
ATOM     64  F   UNL A   1      48.548  31.494  28.756  1.00  0.00    -0.206 F 
ATOM     65  C   UNL A   1      47.971  33.641  28.028  1.00  0.00     0.059 A 
ATOM     66  C   UNL A   1      45.658  34.242  27.700  1.00  0.00     0.059 A 
ATOM     67  F   UNL A   1      43.970  32.787  28.279  1.00  0.00    -0.206 F 
ATOM     68  C   UNL A   1      47.001  34.580  27.684  1.00  0.00     0.060 A 
BRANCH  68  69
ATOM     69  S   UNL A   1      47.496  36.268  27.289  1.00  0.00     0.124 S 
ATOM     70  O   UNL A   1      46.982  36.413  25.931  1.00  0.00    -0.237 OA
ATOM     71  O   UNL A   1      46.807  37.037  28.320  1.00  0.00    -0.237 OA
ATOM     72  O   UNL A   1      48.952  36.230  27.411  1.00  0.00    -0.744 OA
ENDBRANCH  68  69
ENDBRANCH  47  61
BRANCH  48  73
ATOM     73  C   UNL A   1      37.743  30.508  29.977  1.00  0.00     0.058 A 
ATOM     74  C   UNL A   1      36.848  31.115  30.875  1.00  0.00     0.135 A 
ATOM     75  C   UNL A   1      37.452  30.674  28.605  1.00  0.00     0.135 A 
ATOM     76  F   UNL A   1      37.063  31.035  32.197  1.00  0.00    -0.206 F 
ATOM     77  C   UNL A   1      35.755  31.872  30.439  1.00  0.00     0.059 A 
ATOM     78  C   UNL A   1      36.361  31.407  28.148  1.00  0.00     0.059 A 
ATOM     79  F   UNL A   1      38.275  30.206  27.655  1.00  0.00    -0.206 F 
ATOM     80  C   UNL A   1      35.531  32.027  29.070  1.00  0.00     0.060 A 
BRANCH  80  81
ATOM     81  S   UNL A   1      34.228  33.142  28.501  1.00  0.00     0.124 S 
ATOM     82  O   UNL A   1      34.959  34.025  27.597  1.00  0.00    -0.237 OA
ATOM     83  O   UNL A   1      33.289  32.219  27.873  1.00  0.00    -0.237 OA
ATOM     84  O   UNL A   1      33.752  33.767  29.732  1.00  0.00    -0.744 OA
ENDBRANCH  80  81
ENDBRANCH  48  73
BRANCH  60  85
ATOM     85  C   UNL A   1      42.674  29.182  33.736  1.00  0.00     0.058 A 
ATOM     86  C   UNL A   1      42.364  27.839  33.449  1.00  0.00     0.135 A 
ATOM     87  C   UNL A   1      42.760  29.535  35.089  1.00  0.00     0.135 A 
ATOM     88  F   UNL A   1      42.390  27.383  32.192  1.00  0.00    -0.206 F 
ATOM     89  C   UNL A   1      42.081  26.911  34.450  1.00  0.00     0.059 A 
ATOM     90  C   UNL A   1      42.516  28.615  36.111  1.00  0.00     0.059 A 
ATOM     91  F   UNL A   1      43.130  30.778  35.437  1.00  0.00    -0.206 F 
ATOM     92  C   UNL A   1      42.155  27.309  35.782  1.00  0.00     0.060 A 
BRANCH  92  93
ATOM     93  S   UNL A   1      41.844  26.092  37.079  1.00  0.00     0.124 S 
ATOM     94  O   UNL A   1      40.454  26.372  37.435  1.00  0.00    -0.237 OA
ATOM     95  O   UNL A   1      42.070  24.822  36.384  1.00  0.00    -0.237 OA
ATOM     96  O   UNL A   1      42.827  26.415  38.099  1.00  0.00    -0.744 OA
ENDBRANCH  92  93
ENDBRANCH  60  85
ENDBRANCH  34  35
ENDBRANCH  26  29
ENDBRANCH  24  25
ENDBRANCH  23  24
ENDBRANCH   1  23
TORSDOF 18
ENDMDL
MODEL 3
REMARK VINA RESULT:     -11.5      2.784      9.407
REMARK SMILES CCN(C)C(=O)Cn1ccc2c(C(=O)NCCCCNC(=O)c3ccc(-c4c5nc(c(-c6c(F)cc(S(=O)(=O)[O-])cc6F)c6ccc([nH]6)c(-c6c(F)cc(S(=O)(=O)[O-])cc6F)c6nc(c(-c7c(F)cc(S(=O)(=O)[O-])cc7F)c7ccc4[nH]7)C=C6)C=C5)cc3)cccc21
REMARK SMILES IDX 17 1 16 2 15 3 13 4 14 5 12 7 8 8 9 9 92 10 10 11 11 12
REMARK SMILES IDX 91 13 90 14 89 15 7 16 5 17 6 18 3 19 4 20 2 21 1 22 18 23
REMARK SMILES IDX 19 24 20 25 21 26 22 28 23 29 24 30 88 31 25 32 87 33 26 34
REMARK SMILES IDX 27 35 28 36 81 37 29 38 86 39 80 40 82 41 30 42 85 43 79 44
REMARK SMILES IDX 78 45 31 47 65 48 44 49 64 50 45 51 48 52 63 53 83 54 46 55
REMARK SMILES IDX 47 56 62 58 84 59 49 60 32 61 33 62 42 63 34 64 35 65 41 66
REMARK SMILES IDX 43 67 36 68 37 69 38 70 39 71 40 72 66 73 67 74 76 75 68 76
REMARK SMILES IDX 69 77 75 78 77 79 70 80 71 81 72 82 73 83 74 84 50 85 51 86
REMARK SMILES IDX 60 87 52 88 53 89 59 90 61 91 54 92 55 93 56 94 57 95 58 96
REMARK H PARENT 15 6 20 27 82 46 48 57
REMARK Flexibility Score: inf
ROOT
ATOM      1  C   UNL A   1      31.601  29.899  25.888  1.00  0.00     0.023 C 
ENDROOT
BRANCH   1   2
ATOM      2  C   UNL A   1      32.247  29.476  24.567  1.00  0.00     0.116 C 
BRANCH   2   3
ATOM      3  N   UNL A   1      31.257  29.434  23.511  1.00  0.00    -0.352 N 
ATOM      4  C   UNL A   1      30.789  28.446  22.683  1.00  0.00     0.251 C 
ATOM      5  O   UNL A   1      29.912  28.792  21.889  1.00  0.00    -0.269 OA
ATOM      6  H   UNL A   1      30.826  30.305  23.353  1.00  0.00     0.163 HD
BRANCH   4   7
ATOM      7  C   UNL A   1      31.236  27.020  22.741  1.00  0.00     0.049 A 
ATOM      8  N   UNL A   1      30.850  24.378  25.140  1.00  0.00    -0.338 N 
ATOM      9  C   UNL A   1      30.159  25.336  25.835  1.00  0.00     0.087 A 
ATOM     10  C   UNL A   1      31.389  24.925  23.991  1.00  0.00     0.049 A 
ATOM     11  C   UNL A   1      30.192  26.494  25.100  1.00  0.00     0.029 A 
ATOM     12  C   UNL A   1      30.926  26.248  23.899  1.00  0.00     0.012 A 
ATOM     13  C   UNL A   1      32.210  24.358  23.007  1.00  0.00     0.027 A 
ATOM     14  C   UNL A   1      32.424  25.083  21.841  1.00  0.00     0.003 A 
ATOM     15  C   UNL A   1      31.898  26.363  21.691  1.00  0.00     0.014 A 
BRANCH   8  16
ATOM     16  C   UNL A   1      30.939  22.986  25.574  1.00  0.00     0.222 C 
BRANCH  16  17
ATOM     17  C   UNL A   1      32.056  22.675  26.557  1.00  0.00     0.242 C 
ATOM     18  O   UNL A   1      31.847  22.830  27.766  1.00  0.00    -0.273 OA
BRANCH  17  19
ATOM     19  N   UNL A   1      33.274  22.189  26.089  1.00  0.00    -0.344 N 
ATOM     20  C   UNL A   1      34.397  23.031  25.699  1.00  0.00     0.146 C 
BRANCH  19  21
ATOM     21  C   UNL A   1      33.512  20.746  26.150  1.00  0.00     0.115 C 
ATOM     22  C   UNL A   1      33.713  20.125  24.775  1.00  0.00     0.027 C 
ENDBRANCH  19  21
ENDBRANCH  17  19
ENDBRANCH  16  17
ENDBRANCH   8  16
ENDBRANCH   4   7
ENDBRANCH   2   3
ENDBRANCH   1   2
BRANCH   1  23
ATOM     23  C   UNL A   1      32.537  29.781  27.103  1.00  0.00     0.023 C 
BRANCH  23  24
ATOM     24  C   UNL A   1      33.654  30.827  27.128  1.00  0.00     0.116 C 
BRANCH  24  25
ATOM     25  N   UNL A   1      33.806  31.476  28.417  1.00  0.00    -0.352 N 
ATOM     26  C   UNL A   1      34.848  31.680  29.278  1.00  0.00     0.251 C 
ATOM     27  H   UNL A   1      32.962  31.860  28.748  1.00  0.00     0.163 HD
ATOM     28  O   UNL A   1      34.599  32.353  30.280  1.00  0.00    -0.269 OA
BRANCH  26  29
ATOM     29  C   UNL A   1      36.204  31.094  29.119  1.00  0.00     0.039 A 
ATOM     30  C   UNL A   1      36.482  29.731  29.042  1.00  0.00     0.014 A 
ATOM     31  C   UNL A   1      37.277  32.004  29.118  1.00  0.00     0.014 A 
ATOM     32  C   UNL A   1      37.785  29.274  29.115  1.00  0.00     0.010 A 
ATOM     33  C   UNL A   1      38.590  31.553  29.152  1.00  0.00     0.010 A 
ATOM     34  C   UNL A   1      38.831  30.184  29.226  1.00  0.00    -0.014 A 
BRANCH  34  35
ATOM     35  C   UNL A   1      40.164  29.628  29.411  1.00  0.00     0.031 A 
ATOM     36  C   UNL A   1      40.637  29.533  30.824  1.00  0.00     0.074 A 
ATOM     37  C   UNL A   1      40.891  29.189  28.368  1.00  0.00     0.049 A 
ATOM     38  N   UNL A   1      41.696  30.049  31.363  1.00  0.00    -0.248 NA
ATOM     39  C   UNL A   1      39.745  28.862  31.783  1.00  0.00     0.031 C 
ATOM     40  C   UNL A   1      40.476  29.022  26.972  1.00  0.00     0.029 A 
ATOM     41  N   UNL A   1      42.155  28.696  28.371  1.00  0.00    -0.354 N 
ATOM     42  C   UNL A   1      41.693  29.633  32.694  1.00  0.00     0.074 A 
ATOM     43  C   UNL A   1      40.415  29.010  32.925  1.00  0.00     0.031 C 
ATOM     44  C   UNL A   1      41.379  28.247  26.333  1.00  0.00     0.029 A 
ATOM     45  C   UNL A   1      42.485  27.977  27.234  1.00  0.00     0.049 A 
ATOM     46  H   UNL A   1      42.782  28.836  29.117  1.00  0.00     0.167 HD
ATOM     47  C   UNL A   1      42.796  29.684  33.493  1.00  0.00     0.037 A 
ATOM     48  C   UNL A   1      43.543  27.141  27.097  1.00  0.00     0.037 A 
ATOM     49  C   UNL A   1      43.796  30.580  32.985  1.00  0.00     0.049 A 
ATOM     50  C   UNL A   1      44.539  27.519  28.136  1.00  0.00     0.074 A 
ATOM     51  C   UNL A   1      43.850  31.946  32.781  1.00  0.00     0.029 A 
ATOM     52  N   UNL A   1      44.841  30.060  32.261  1.00  0.00    -0.354 N 
ATOM     53  N   UNL A   1      45.190  28.651  28.137  1.00  0.00    -0.248 NA
ATOM     54  C   UNL A   1      44.475  26.843  29.424  1.00  0.00     0.031 C 
ATOM     55  C   UNL A   1      44.598  32.116  31.580  1.00  0.00     0.029 A 
ATOM     56  C   UNL A   1      44.988  30.848  31.145  1.00  0.00     0.049 A 
ATOM     57  H   UNL A   1      45.383  29.273  32.499  1.00  0.00     0.167 HD
ATOM     58  C   UNL A   1      45.261  29.029  29.472  1.00  0.00     0.074 A 
ATOM     59  C   UNL A   1      44.884  27.834  30.222  1.00  0.00     0.031 C 
ATOM     60  C   UNL A   1      45.349  30.343  29.838  1.00  0.00     0.037 A 
BRANCH  47  61
ATOM     61  C   UNL A   1      43.047  28.716  34.619  1.00  0.00     0.058 A 
ATOM     62  C   UNL A   1      43.162  29.164  35.948  1.00  0.00     0.135 A 
ATOM     63  C   UNL A   1      43.414  27.370  34.393  1.00  0.00     0.135 A 
ATOM     64  F   UNL A   1      42.868  30.434  36.270  1.00  0.00    -0.206 F 
ATOM     65  C   UNL A   1      43.635  28.339  36.974  1.00  0.00     0.059 A 
ATOM     66  C   UNL A   1      43.835  26.517  35.404  1.00  0.00     0.059 A 
ATOM     67  F   UNL A   1      43.462  26.854  33.157  1.00  0.00    -0.206 F 
ATOM     68  C   UNL A   1      43.978  27.019  36.688  1.00  0.00     0.060 A 
BRANCH  68  69
ATOM     69  S   UNL A   1      44.684  25.982  37.982  1.00  0.00     0.124 S 
ATOM     70  O   UNL A   1      44.082  26.559  39.179  1.00  0.00    -0.237 OA
ATOM     71  O   UNL A   1      44.209  24.656  37.602  1.00  0.00    -0.237 OA
ATOM     72  O   UNL A   1      46.123  26.192  37.836  1.00  0.00    -0.744 OA
ENDBRANCH  68  69
ENDBRANCH  47  61
BRANCH  48  73
ATOM     73  C   UNL A   1      43.547  25.834  26.390  1.00  0.00     0.058 A 
ATOM     74  C   UNL A   1      44.447  25.573  25.343  1.00  0.00     0.135 A 
ATOM     75  C   UNL A   1      42.841  24.719  26.892  1.00  0.00     0.135 A 
ATOM     76  F   UNL A   1      45.184  26.567  24.824  1.00  0.00    -0.206 F 
ATOM     77  C   UNL A   1      44.663  24.280  24.851  1.00  0.00     0.059 A 
ATOM     78  C   UNL A   1      43.025  23.427  26.408  1.00  0.00     0.059 A 
ATOM     79  F   UNL A   1      42.012  24.831  27.940  1.00  0.00    -0.206 F 
ATOM     80  C   UNL A   1      43.958  23.210  25.404  1.00  0.00     0.060 A 
BRANCH  80  81
ATOM     81  S   UNL A   1      44.356  21.522  24.897  1.00  0.00     0.124 S 
ATOM     82  O   UNL A   1      43.220  20.772  25.422  1.00  0.00    -0.237 OA
ATOM     83  O   UNL A   1      44.423  21.648  23.445  1.00  0.00    -0.237 OA
ATOM     84  O   UNL A   1      45.634  21.261  25.555  1.00  0.00    -0.744 OA
ENDBRANCH  80  81
ENDBRANCH  48  73
BRANCH  60  85
ATOM     85  C   UNL A   1      45.576  31.360  28.743  1.00  0.00     0.058 A 
ATOM     86  C   UNL A   1      44.532  31.958  28.012  1.00  0.00     0.135 A 
ATOM     87  C   UNL A   1      46.870  31.845  28.508  1.00  0.00     0.135 A 
ATOM     88  F   UNL A   1      43.255  31.653  28.266  1.00  0.00    -0.206 F 
ATOM     89  C   UNL A   1      44.766  32.936  27.046  1.00  0.00     0.059 A 
ATOM     90  C   UNL A   1      47.126  32.848  27.571  1.00  0.00     0.059 A 
ATOM     91  F   UNL A   1      47.904  31.377  29.226  1.00  0.00    -0.206 F 
ATOM     92  C   UNL A   1      46.070  33.372  26.827  1.00  0.00     0.060 A 
BRANCH  92  93
ATOM     93  S   UNL A   1      46.365  34.678  25.615  1.00  0.00     0.124 S 
ATOM     94  O   UNL A   1      47.777  34.481  25.291  1.00  0.00    -0.237 OA
ATOM     95  O   UNL A   1      45.424  34.337  24.545  1.00  0.00    -0.237 OA
ATOM     96  O   UNL A   1      46.054  35.899  26.339  1.00  0.00    -0.744 OA
ENDBRANCH  92  93
ENDBRANCH  60  85
ENDBRANCH  34  35
ENDBRANCH  26  29
ENDBRANCH  24  25
ENDBRANCH  23  24
ENDBRANCH   1  23
TORSDOF 18
ENDMDL
