MODEL 1
REMARK VINA RESULT:     -12.2      0.000      0.000
REMARK SMILES C[C@H](NC(=O)CCN1C(=O)/C(=C/c2ccc([N+](=O)[O-])cc2)SC1=S)C(=O)NCCCCNC(=O)c1ccc(-c2c3nc(c(-c4c(F)cc(S(=O)(=O)[O-])cc4F)c4ccc([nH]4)c(-c4c(F)cc(S(=O)(=O)[O-])cc4F)c4nc(c(-c5c(F)cc(S(=O)(=O)[O-])cc5F)c5ccc2[nH]5)C=C4)C=C3)cc1
REMARK SMILES IDX 28 1 27 2 25 3 26 4 2 6 1 7 3 8 4 9 5 11 6 12 7 13 8 14 9 15
REMARK SMILES IDX 23 16 10 17 11 18 22 19 24 20 12 21 13 22 14 23 21 24 15 25
REMARK SMILES IDX 20 26 16 27 17 28 18 29 19 30 29 31 30 32 31 33 32 34 33 35
REMARK SMILES IDX 34 37 35 38 36 39 100 40 37 41 99 42 38 43 39 44 40 45 93 46
REMARK SMILES IDX 41 47 98 48 92 49 94 50 42 51 97 52 91 53 90 54 43 56 77 57
REMARK SMILES IDX 56 58 76 59 57 60 60 61 75 62 95 63 58 64 59 65 74 67 96 68
REMARK SMILES IDX 61 69 44 70 45 71 54 72 46 73 47 74 53 75 55 76 48 77 49 78
REMARK SMILES IDX 50 79 51 80 52 81 78 82 79 83 88 84 80 85 81 86 87 87 89 88
REMARK SMILES IDX 82 89 83 90 84 91 85 92 86 93 62 94 63 95 72 96 64 97 65 98
REMARK SMILES IDX 71 99 73 100 66 101 67 102 68 103 69 104 70 105
REMARK H PARENT 27 5 3 10 32 36 94 55 60 66
REMARK Flexibility Score: inf
ROOT
ATOM      1  C   UNL A   1      34.019  32.862  28.075  1.00  0.00     0.116 C 
ENDROOT
BRANCH   1   2
ATOM      2  N   UNL A   1      34.462  31.481  28.143  1.00  0.00    -0.354 N 
ATOM      3  C   UNL A   1      34.215  30.434  27.298  1.00  0.00     0.242 C 
ATOM      4  O   UNL A   1      34.874  29.404  27.485  1.00  0.00    -0.273 OA
ATOM      5  H   UNL A   1      35.029  31.264  28.918  1.00  0.00     0.163 HD
BRANCH   3   6
ATOM      6  C   UNL A   1      33.066  30.431  26.245  1.00  0.00     0.168 C 
ATOM      7  C   UNL A   1      31.710  30.077  26.851  1.00  0.00     0.041 C 
BRANCH   6   8
ATOM      8  N   UNL A   1      33.321  29.833  24.937  1.00  0.00    -0.345 N 
ATOM      9  C   UNL A   1      33.629  28.597  24.481  1.00  0.00     0.222 C 
ATOM     10  H   UNL A   1      33.252  30.492  24.208  1.00  0.00     0.164 HD
ATOM     11  O   UNL A   1      34.113  28.540  23.346  1.00  0.00    -0.275 OA
BRANCH   9  12
ATOM     12  C   UNL A   1      33.357  27.326  25.247  1.00  0.00     0.122 C 
BRANCH  12  13
ATOM     13  C   UNL A   1      32.261  26.413  24.688  1.00  0.00     0.137 C 
BRANCH  13  14
ATOM     14  N   UNL A   1      32.735  25.080  24.279  1.00  0.00    -0.292 N 
ATOM     15  C   UNL A   1      33.163  24.183  25.236  1.00  0.00     0.266 C 
ATOM     16  C   UNL A   1      32.913  24.669  22.972  1.00  0.00     0.148 C 
ATOM     17  O   UNL A   1      33.333  24.422  26.425  1.00  0.00    -0.268 OA
ATOM     18  C   UNL A   1      33.404  22.848  24.640  1.00  0.00     0.081 C 
ATOM     19  S   UNL A   1      33.336  22.957  22.933  1.00  0.00    -0.054 SA
ATOM     20  S   UNL A   1      32.749  25.568  21.575  1.00  0.00    -0.052 S 
ATOM     21  C   UNL A   1      33.522  21.767  25.423  1.00  0.00     0.029 C 
BRANCH  21  22
ATOM     22  C   UNL A   1      33.552  20.369  24.988  1.00  0.00    -0.024 A 
ATOM     23  C   UNL A   1      34.801  19.745  24.843  1.00  0.00     0.015 A 
ATOM     24  C   UNL A   1      32.386  19.655  24.696  1.00  0.00     0.015 A 
ATOM     25  C   UNL A   1      34.888  18.410  24.445  1.00  0.00     0.086 A 
ATOM     26  C   UNL A   1      32.461  18.316  24.300  1.00  0.00     0.086 A 
ATOM     27  C   UNL A   1      33.713  17.696  24.183  1.00  0.00     0.269 A 
BRANCH  27  28
ATOM     28  N   UNL A   1      33.794  16.282  23.799  1.00  0.00     0.062 N 
ATOM     29  O   UNL A   1      33.241  15.450  24.532  1.00  0.00    -0.258 OA
ATOM     30  O   UNL A   1      34.397  16.002  22.752  1.00  0.00    -0.258 OA
ENDBRANCH  27  28
ENDBRANCH  21  22
ENDBRANCH  13  14
ENDBRANCH  12  13
ENDBRANCH   9  12
ENDBRANCH   6   8
ENDBRANCH   3   6
ENDBRANCH   1   2
BRANCH   1  31
ATOM     31  C   UNL A   1      35.063  33.907  28.454  1.00  0.00     0.023 C 
BRANCH  31  32
ATOM     32  C   UNL A   1      36.520  33.455  28.543  1.00  0.00     0.023 C 
BRANCH  32  33
ATOM     33  C   UNL A   1      37.106  33.214  29.932  1.00  0.00     0.116 C 
BRANCH  33  34
ATOM     34  N   UNL A   1      36.368  32.286  30.772  1.00  0.00    -0.352 N 
ATOM     35  C   UNL A   1      36.706  31.027  31.217  1.00  0.00     0.251 C 
ATOM     36  H   UNL A   1      35.486  32.607  31.069  1.00  0.00     0.163 HD
ATOM     37  O   UNL A   1      35.947  30.429  31.975  1.00  0.00    -0.269 OA
BRANCH  35  38
ATOM     38  C   UNL A   1      37.939  30.357  30.740  1.00  0.00     0.039 A 
ATOM     39  C   UNL A   1      38.120  30.226  29.359  1.00  0.00     0.014 A 
ATOM     40  C   UNL A   1      38.918  29.884  31.615  1.00  0.00     0.014 A 
ATOM     41  C   UNL A   1      39.324  29.727  28.857  1.00  0.00     0.010 A 
ATOM     42  C   UNL A   1      40.148  29.449  31.113  1.00  0.00     0.010 A 
ATOM     43  C   UNL A   1      40.372  29.389  29.728  1.00  0.00    -0.014 A 
BRANCH  43  44
ATOM     44  C   UNL A   1      41.716  29.032  29.199  1.00  0.00     0.031 A 
ATOM     45  C   UNL A   1      42.810  30.061  29.107  1.00  0.00     0.074 A 
ATOM     46  C   UNL A   1      41.937  27.781  28.743  1.00  0.00     0.049 A 
ATOM     47  N   UNL A   1      44.026  29.933  28.638  1.00  0.00    -0.248 NA
ATOM     48  C   UNL A   1      42.491  31.414  29.586  1.00  0.00     0.031 C 
ATOM     49  C   UNL A   1      40.946  26.700  28.725  1.00  0.00     0.029 A 
ATOM     50  N   UNL A   1      43.059  27.205  28.198  1.00  0.00    -0.354 N 
ATOM     51  C   UNL A   1      44.612  31.188  28.750  1.00  0.00     0.074 A 
ATOM     52  C   UNL A   1      43.604  32.074  29.294  1.00  0.00     0.031 C 
ATOM     53  C   UNL A   1      41.512  25.591  28.224  1.00  0.00     0.029 A 
ATOM     54  C   UNL A   1      42.892  25.885  27.850  1.00  0.00     0.049 A 
ATOM     55  H   UNL A   1      43.905  27.692  28.070  1.00  0.00     0.167 HD
ATOM     56  C   UNL A   1      45.878  31.563  28.447  1.00  0.00     0.037 A 
ATOM     57  C   UNL A   1      43.749  25.008  27.290  1.00  0.00     0.037 A 
ATOM     58  C   UNL A   1      46.888  30.675  27.932  1.00  0.00     0.049 A 
ATOM     59  C   UNL A   1      45.151  25.448  26.969  1.00  0.00     0.074 A 
ATOM     60  C   UNL A   1      48.217  30.951  27.659  1.00  0.00     0.029 A 
ATOM     61  N   UNL A   1      46.684  29.342  27.607  1.00  0.00    -0.354 N 
ATOM     62  N   UNL A   1      45.706  26.622  27.148  1.00  0.00    -0.248 NA
ATOM     63  C   UNL A   1      46.043  24.444  26.374  1.00  0.00     0.031 C 
ATOM     64  C   UNL A   1      48.807  29.795  27.135  1.00  0.00     0.029 A 
ATOM     65  C   UNL A   1      47.856  28.789  27.118  1.00  0.00     0.049 A 
ATOM     66  H   UNL A   1      45.831  28.861  27.710  1.00  0.00     0.167 HD
ATOM     67  C   UNL A   1      47.021  26.490  26.713  1.00  0.00     0.074 A 
ATOM     68  C   UNL A   1      47.179  25.120  26.270  1.00  0.00     0.031 C 
ATOM     69  C   UNL A   1      48.006  27.421  26.686  1.00  0.00     0.037 A 
BRANCH  56  70
ATOM     70  C   UNL A   1      46.246  33.005  28.668  1.00  0.00     0.058 A 
ATOM     71  C   UNL A   1      46.095  33.965  27.656  1.00  0.00     0.135 A 
ATOM     72  C   UNL A   1      46.720  33.437  29.917  1.00  0.00     0.135 A 
ATOM     73  F   UNL A   1      45.657  33.604  26.440  1.00  0.00    -0.206 F 
ATOM     74  C   UNL A   1      46.431  35.299  27.864  1.00  0.00     0.059 A 
ATOM     75  C   UNL A   1      47.039  34.771  30.156  1.00  0.00     0.059 A 
ATOM     76  F   UNL A   1      46.881  32.559  30.920  1.00  0.00    -0.206 F 
ATOM     77  C   UNL A   1      46.906  35.691  29.117  1.00  0.00     0.060 A 
BRANCH  77  78
ATOM     78  S   UNL A   1      47.343  37.425  29.370  1.00  0.00     0.124 S 
ATOM     79  O   UNL A   1      47.620  37.856  28.004  1.00  0.00    -0.237 OA
ATOM     80  O   UNL A   1      46.131  37.970  29.974  1.00  0.00    -0.237 OA
ATOM     81  O   UNL A   1      48.503  37.357  30.254  1.00  0.00    -0.744 OA
ENDBRANCH  77  78
ENDBRANCH  56  70
BRANCH  57  82
ATOM     82  C   UNL A   1      43.313  23.612  27.021  1.00  0.00     0.058 A 
ATOM     83  C   UNL A   1      43.014  23.191  25.717  1.00  0.00     0.135 A 
ATOM     84  C   UNL A   1      43.197  22.671  28.055  1.00  0.00     0.135 A 
ATOM     85  F   UNL A   1      43.102  24.057  24.696  1.00  0.00    -0.206 F 
ATOM     86  C   UNL A   1      42.602  21.890  25.447  1.00  0.00     0.059 A 
ATOM     87  C   UNL A   1      42.809  21.358  27.808  1.00  0.00     0.059 A 
ATOM     88  F   UNL A   1      43.487  23.021  29.318  1.00  0.00    -0.206 F 
ATOM     89  C   UNL A   1      42.504  20.980  26.501  1.00  0.00     0.060 A 
BRANCH  89  90
ATOM     90  S   UNL A   1      42.019  19.279  26.134  1.00  0.00     0.124 S 
ATOM     91  O   UNL A   1      42.402  18.593  27.362  1.00  0.00    -0.237 OA
ATOM     92  O   UNL A   1      40.585  19.411  25.897  1.00  0.00    -0.237 OA
ATOM     93  O   UNL A   1      42.812  18.954  24.952  1.00  0.00    -0.744 OA
ENDBRANCH  89  90
ENDBRANCH  57  82
BRANCH  69  94
ATOM     94  C   UNL A   1      49.356  26.986  26.190  1.00  0.00     0.058 A 
ATOM     95  C   UNL A   1      50.298  26.392  27.043  1.00  0.00     0.135 A 
ATOM     96  C   UNL A   1      49.692  27.119  24.832  1.00  0.00     0.135 A 
ATOM     97  F   UNL A   1      50.030  26.248  28.351  1.00  0.00    -0.206 F 
ATOM     98  C   UNL A   1      51.535  25.962  26.572  1.00  0.00     0.059 A 
ATOM     99  C   UNL A   1      50.913  26.674  24.336  1.00  0.00     0.059 A 
ATOM    100  F   UNL A   1      48.823  27.672  23.972  1.00  0.00    -0.206 F 
ATOM    101  C   UNL A   1      51.833  26.107  25.216  1.00  0.00     0.060 A 
BRANCH 101 102
ATOM    102  S   UNL A   1      53.426  25.513  24.608  1.00  0.00     0.124 S 
ATOM    103  O   UNL A   1      53.276  25.690  23.167  1.00  0.00    -0.237 OA
ATOM    104  O   UNL A   1      54.369  26.415  25.262  1.00  0.00    -0.237 OA
ATOM    105  O   UNL A   1      53.471  24.129  25.070  1.00  0.00    -0.744 OA
ENDBRANCH 101 102
ENDBRANCH  69  94
ENDBRANCH  43  44
ENDBRANCH  35  38
ENDBRANCH  33  34
ENDBRANCH  32  33
ENDBRANCH  31  32
ENDBRANCH   1  31
TORSDOF 20
ENDMDL
MODEL 2
REMARK VINA RESULT:     -11.4      5.779      8.156
REMARK SMILES C[C@H](NC(=O)CCN1C(=O)/C(=C/c2ccc([N+](=O)[O-])cc2)SC1=S)C(=O)NCCCCNC(=O)c1ccc(-c2c3nc(c(-c4c(F)cc(S(=O)(=O)[O-])cc4F)c4ccc([nH]4)c(-c4c(F)cc(S(=O)(=O)[O-])cc4F)c4nc(c(-c5c(F)cc(S(=O)(=O)[O-])cc5F)c5ccc2[nH]5)C=C4)C=C3)cc1
REMARK SMILES IDX 28 1 27 2 25 3 26 4 2 6 1 7 3 8 4 9 5 11 6 12 7 13 8 14 9 15
REMARK SMILES IDX 23 16 10 17 11 18 22 19 24 20 12 21 13 22 14 23 21 24 15 25
REMARK SMILES IDX 20 26 16 27 17 28 18 29 19 30 29 31 30 32 31 33 32 34 33 35
REMARK SMILES IDX 34 37 35 38 36 39 100 40 37 41 99 42 38 43 39 44 40 45 93 46
REMARK SMILES IDX 41 47 98 48 92 49 94 50 42 51 97 52 91 53 90 54 43 56 77 57
REMARK SMILES IDX 56 58 76 59 57 60 60 61 75 62 95 63 58 64 59 65 74 67 96 68
REMARK SMILES IDX 61 69 44 70 45 71 54 72 46 73 47 74 53 75 55 76 48 77 49 78
REMARK SMILES IDX 50 79 51 80 52 81 78 82 79 83 88 84 80 85 81 86 87 87 89 88
REMARK SMILES IDX 82 89 83 90 84 91 85 92 86 93 62 94 63 95 72 96 64 97 65 98
REMARK SMILES IDX 71 99 73 100 66 101 67 102 68 103 69 104 70 105
REMARK H PARENT 27 5 3 10 32 36 94 55 60 66
REMARK Flexibility Score: inf
ROOT
ATOM      1  C   UNL A   1      33.896  29.757  27.177  1.00  0.00     0.116 C 
ENDROOT
BRANCH   1   2
ATOM      2  N   UNL A   1      34.038  29.542  25.748  1.00  0.00    -0.354 N 
ATOM      3  C   UNL A   1      33.092  29.265  24.801  1.00  0.00     0.242 C 
ATOM      4  O   UNL A   1      33.458  29.318  23.621  1.00  0.00    -0.273 OA
ATOM      5  H   UNL A   1      34.960  29.606  25.409  1.00  0.00     0.163 HD
BRANCH   3   6
ATOM      6  C   UNL A   1      31.661  28.747  25.140  1.00  0.00     0.168 C 
ATOM      7  C   UNL A   1      31.667  27.637  26.188  1.00  0.00     0.041 C 
BRANCH   6   8
ATOM      8  N   UNL A   1      30.717  28.543  24.044  1.00  0.00    -0.345 N 
ATOM      9  C   UNL A   1      30.716  27.848  22.884  1.00  0.00     0.222 C 
ATOM     10  H   UNL A   1      29.873  29.031  24.186  1.00  0.00     0.164 HD
ATOM     11  O   UNL A   1      29.877  28.189  22.044  1.00  0.00    -0.275 OA
BRANCH   9  12
ATOM     12  C   UNL A   1      31.623  26.674  22.606  1.00  0.00     0.122 C 
BRANCH  12  13
ATOM     13  C   UNL A   1      31.122  25.300  23.065  1.00  0.00     0.137 C 
BRANCH  13  14
ATOM     14  N   UNL A   1      32.135  24.489  23.760  1.00  0.00    -0.292 N 
ATOM     15  C   UNL A   1      33.251  24.054  23.075  1.00  0.00     0.266 C 
ATOM     16  C   UNL A   1      32.013  24.001  25.048  1.00  0.00     0.148 C 
ATOM     17  O   UNL A   1      33.439  24.149  21.868  1.00  0.00    -0.268 OA
ATOM     18  C   UNL A   1      34.229  23.433  23.997  1.00  0.00     0.081 C 
ATOM     19  S   UNL A   1      33.517  23.222  25.539  1.00  0.00    -0.054 SA
ATOM     20  S   UNL A   1      30.699  24.106  26.072  1.00  0.00    -0.052 S 
ATOM     21  C   UNL A   1      35.494  23.225  23.605  1.00  0.00     0.029 C 
BRANCH  21  22
ATOM     22  C   UNL A   1      36.619  22.822  24.450  1.00  0.00    -0.024 A 
ATOM     23  C   UNL A   1      37.071  21.496  24.368  1.00  0.00     0.015 A 
ATOM     24  C   UNL A   1      37.235  23.705  25.343  1.00  0.00     0.015 A 
ATOM     25  C   UNL A   1      38.149  21.060  25.141  1.00  0.00     0.086 A 
ATOM     26  C   UNL A   1      38.317  23.281  26.120  1.00  0.00     0.086 A 
ATOM     27  C   UNL A   1      38.775  21.961  26.010  1.00  0.00     0.269 A 
BRANCH  27  28
ATOM     28  N   UNL A   1      39.931  21.521  26.800  1.00  0.00     0.062 N 
ATOM     29  O   UNL A   1      40.411  22.319  27.617  1.00  0.00    -0.258 OA
ATOM     30  O   UNL A   1      40.350  20.369  26.616  1.00  0.00    -0.258 OA
ENDBRANCH  27  28
ENDBRANCH  21  22
ENDBRANCH  13  14
ENDBRANCH  12  13
ENDBRANCH   9  12
ENDBRANCH   6   8
ENDBRANCH   3   6
ENDBRANCH   1   2
BRANCH   1  31
ATOM     31  C   UNL A   1      34.108  31.192  27.651  1.00  0.00     0.023 C 
BRANCH  31  32
ATOM     32  C   UNL A   1      32.901  32.129  27.635  1.00  0.00     0.023 C 
BRANCH  32  33
ATOM     33  C   UNL A   1      33.138  33.587  27.246  1.00  0.00     0.116 C 
BRANCH  33  34
ATOM     34  N   UNL A   1      32.812  34.569  28.267  1.00  0.00    -0.352 N 
ATOM     35  C   UNL A   1      33.443  34.858  29.456  1.00  0.00     0.251 C 
ATOM     36  H   UNL A   1      32.013  35.112  28.079  1.00  0.00     0.163 HD
ATOM     37  O   UNL A   1      33.026  35.779  30.154  1.00  0.00    -0.269 OA
BRANCH  35  38
ATOM     38  C   UNL A   1      34.574  34.031  29.939  1.00  0.00     0.039 A 
ATOM     39  C   UNL A   1      35.858  34.350  29.487  1.00  0.00     0.014 A 
ATOM     40  C   UNL A   1      34.397  32.975  30.835  1.00  0.00     0.014 A 
ATOM     41  C   UNL A   1      36.969  33.690  30.017  1.00  0.00     0.010 A 
ATOM     42  C   UNL A   1      35.511  32.362  31.415  1.00  0.00     0.010 A 
ATOM     43  C   UNL A   1      36.810  32.731  31.030  1.00  0.00    -0.014 A 
BRANCH  43  44
ATOM     44  C   UNL A   1      37.993  32.156  31.727  1.00  0.00     0.031 A 
ATOM     45  C   UNL A   1      38.389  32.632  33.098  1.00  0.00     0.074 A 
ATOM     46  C   UNL A   1      38.751  31.236  31.095  1.00  0.00     0.049 A 
ATOM     47  N   UNL A   1      39.409  32.270  33.834  1.00  0.00    -0.248 NA
ATOM     48  C   UNL A   1      37.541  33.664  33.714  1.00  0.00     0.031 C 
ATOM     49  C   UNL A   1      38.509  30.725  29.742  1.00  0.00     0.029 A 
ATOM     50  N   UNL A   1      39.884  30.571  31.498  1.00  0.00    -0.354 N 
ATOM     51  C   UNL A   1      39.336  33.035  34.991  1.00  0.00     0.074 A 
ATOM     52  C   UNL A   1      38.194  33.913  34.841  1.00  0.00     0.031 C 
ATOM     53  C   UNL A   1      39.445  29.811  29.441  1.00  0.00     0.029 A 
ATOM     54  C   UNL A   1      40.376  29.694  30.559  1.00  0.00     0.049 A 
ATOM     55  H   UNL A   1      40.304  30.709  32.377  1.00  0.00     0.167 HD
ATOM     56  C   UNL A   1      40.134  32.998  36.086  1.00  0.00     0.037 A 
ATOM     57  C   UNL A   1      41.455  28.887  30.590  1.00  0.00     0.037 A 
ATOM     58  C   UNL A   1      41.253  32.106  36.246  1.00  0.00     0.049 A 
ATOM     59  C   UNL A   1      42.321  28.860  31.820  1.00  0.00     0.074 A 
ATOM     60  C   UNL A   1      42.078  31.949  37.347  1.00  0.00     0.029 A 
ATOM     61  N   UNL A   1      41.710  31.221  35.279  1.00  0.00    -0.354 N 
ATOM     62  N   UNL A   1      42.194  29.542  32.932  1.00  0.00    -0.248 NA
ATOM     63  C   UNL A   1      43.475  27.950  31.800  1.00  0.00     0.031 C 
ATOM     64  C   UNL A   1      43.055  30.998  37.033  1.00  0.00     0.029 A 
ATOM     65  C   UNL A   1      42.815  30.533  35.751  1.00  0.00     0.049 A 
ATOM     66  H   UNL A   1      41.307  31.102  34.389  1.00  0.00     0.167 HD
ATOM     67  C   UNL A   1      43.234  29.125  33.755  1.00  0.00     0.074 A 
ATOM     68  C   UNL A   1      43.977  28.125  33.016  1.00  0.00     0.031 C 
ATOM     69  C   UNL A   1      43.544  29.534  35.010  1.00  0.00     0.037 A 
BRANCH  56  70
ATOM     70  C   UNL A   1      39.822  33.954  37.205  1.00  0.00     0.058 A 
ATOM     71  C   UNL A   1      39.045  33.566  38.307  1.00  0.00     0.135 A 
ATOM     72  C   UNL A   1      40.338  35.259  37.193  1.00  0.00     0.135 A 
ATOM     73  F   UNL A   1      38.518  32.332  38.363  1.00  0.00    -0.206 F 
ATOM     74  C   UNL A   1      38.762  34.449  39.343  1.00  0.00     0.059 A 
ATOM     75  C   UNL A   1      40.088  36.153  38.232  1.00  0.00     0.059 A 
ATOM     76  F   UNL A   1      41.090  35.681  36.164  1.00  0.00    -0.206 F 
ATOM     77  C   UNL A   1      39.284  35.742  39.294  1.00  0.00     0.060 A 
BRANCH  77  78
ATOM     78  S   UNL A   1      38.904  36.879  40.644  1.00  0.00     0.124 S 
ATOM     79  O   UNL A   1      38.239  37.965  39.930  1.00  0.00    -0.237 OA
ATOM     80  O   UNL A   1      38.048  36.069  41.506  1.00  0.00    -0.237 OA
ATOM     81  O   UNL A   1      40.217  37.202  41.197  1.00  0.00    -0.744 OA
ENDBRANCH  77  78
ENDBRANCH  56  70
BRANCH  57  82
ATOM     82  C   UNL A   1      41.764  28.015  29.426  1.00  0.00     0.058 A 
ATOM     83  C   UNL A   1      42.863  28.285  28.598  1.00  0.00     0.135 A 
ATOM     84  C   UNL A   1      40.978  26.893  29.125  1.00  0.00     0.135 A 
ATOM     85  F   UNL A   1      43.640  29.351  28.841  1.00  0.00    -0.206 F 
ATOM     86  C   UNL A   1      43.166  27.481  27.503  1.00  0.00     0.059 A 
ATOM     87  C   UNL A   1      41.273  26.061  28.050  1.00  0.00     0.059 A 
ATOM     88  F   UNL A   1      39.925  26.584  29.898  1.00  0.00    -0.206 F 
ATOM     89  C   UNL A   1      42.364  26.370  27.238  1.00  0.00     0.060 A 
BRANCH  89  90
ATOM     90  S   UNL A   1      42.795  25.303  25.846  1.00  0.00     0.124 S 
ATOM     91  O   UNL A   1      43.005  24.023  26.512  1.00  0.00    -0.237 OA
ATOM     92  O   UNL A   1      41.606  25.398  25.005  1.00  0.00    -0.237 OA
ATOM     93  O   UNL A   1      43.991  25.936  25.298  1.00  0.00    -0.744 OA
ENDBRANCH  89  90
ENDBRANCH  57  82
BRANCH  69  94
ATOM     94  C   UNL A   1      44.718  28.878  35.681  1.00  0.00     0.058 A 
ATOM     95  C   UNL A   1      44.574  27.706  36.439  1.00  0.00     0.135 A 
ATOM     96  C   UNL A   1      46.012  29.403  35.524  1.00  0.00     0.135 A 
ATOM     97  F   UNL A   1      43.358  27.168  36.627  1.00  0.00    -0.206 F 
ATOM     98  C   UNL A   1      45.669  27.086  37.032  1.00  0.00     0.059 A 
ATOM     99  C   UNL A   1      47.123  28.786  36.089  1.00  0.00     0.059 A 
ATOM    100  F   UNL A   1      46.205  30.518  34.802  1.00  0.00    -0.206 F 
ATOM    101  C   UNL A   1      46.940  27.634  36.851  1.00  0.00     0.060 A 
BRANCH 101 102
ATOM    102  S   UNL A   1      48.359  26.801  37.595  1.00  0.00     0.124 S 
ATOM    103  O   UNL A   1      48.284  25.482  36.975  1.00  0.00    -0.237 OA
ATOM    104  O   UNL A   1      49.475  27.639  37.168  1.00  0.00    -0.237 OA
ATOM    105  O   UNL A   1      48.065  26.842  39.024  1.00  0.00    -0.744 OA
ENDBRANCH 101 102
ENDBRANCH  69  94
ENDBRANCH  43  44
ENDBRANCH  35  38
ENDBRANCH  33  34
ENDBRANCH  32  33
ENDBRANCH  31  32
ENDBRANCH   1  31
TORSDOF 20
ENDMDL
MODEL 3
REMARK VINA RESULT:     -11.2      6.026      8.364
REMARK SMILES C[C@H](NC(=O)CCN1C(=O)/C(=C/c2ccc([N+](=O)[O-])cc2)SC1=S)C(=O)NCCCCNC(=O)c1ccc(-c2c3nc(c(-c4c(F)cc(S(=O)(=O)[O-])cc4F)c4ccc([nH]4)c(-c4c(F)cc(S(=O)(=O)[O-])cc4F)c4nc(c(-c5c(F)cc(S(=O)(=O)[O-])cc5F)c5ccc2[nH]5)C=C4)C=C3)cc1
REMARK SMILES IDX 28 1 27 2 25 3 26 4 2 6 1 7 3 8 4 9 5 11 6 12 7 13 8 14 9 15
REMARK SMILES IDX 23 16 10 17 11 18 22 19 24 20 12 21 13 22 14 23 21 24 15 25
REMARK SMILES IDX 20 26 16 27 17 28 18 29 19 30 29 31 30 32 31 33 32 34 33 35
REMARK SMILES IDX 34 37 35 38 36 39 100 40 37 41 99 42 38 43 39 44 40 45 93 46
REMARK SMILES IDX 41 47 98 48 92 49 94 50 42 51 97 52 91 53 90 54 43 56 77 57
REMARK SMILES IDX 56 58 76 59 57 60 60 61 75 62 95 63 58 64 59 65 74 67 96 68
REMARK SMILES IDX 61 69 44 70 45 71 54 72 46 73 47 74 53 75 55 76 48 77 49 78
REMARK SMILES IDX 50 79 51 80 52 81 78 82 79 83 88 84 80 85 81 86 87 87 89 88
REMARK SMILES IDX 82 89 83 90 84 91 85 92 86 93 62 94 63 95 72 96 64 97 65 98
REMARK SMILES IDX 71 99 73 100 66 101 67 102 68 103 69 104 70 105
REMARK H PARENT 27 5 3 10 32 36 94 55 60 66
REMARK Flexibility Score: inf
ROOT
ATOM      1  C   UNL A   1      34.297  32.306  29.128  1.00  0.00     0.116 C 
ENDROOT
BRANCH   1   2
ATOM      2  N   UNL A   1      35.207  31.292  28.623  1.00  0.00    -0.354 N 
ATOM      3  C   UNL A   1      35.052  30.403  27.596  1.00  0.00     0.242 C 
ATOM      4  O   UNL A   1      36.059  29.776  27.250  1.00  0.00    -0.273 OA
ATOM      5  H   UNL A   1      36.069  31.236  29.094  1.00  0.00     0.163 HD
BRANCH   3   6
ATOM      6  C   UNL A   1      33.670  30.045  26.969  1.00  0.00     0.168 C 
ATOM      7  C   UNL A   1      32.842  31.280  26.619  1.00  0.00     0.041 C 
BRANCH   6   8
ATOM      8  N   UNL A   1      32.904  28.946  27.552  1.00  0.00    -0.345 N 
ATOM      9  C   UNL A   1      32.109  27.961  27.076  1.00  0.00     0.222 C 
ATOM     10  H   UNL A   1      32.987  28.916  28.533  1.00  0.00     0.164 HD
ATOM     11  O   UNL A   1      31.353  27.427  27.894  1.00  0.00    -0.275 OA
BRANCH   9  12
ATOM     12  C   UNL A   1      32.150  27.460  25.654  1.00  0.00     0.122 C 
BRANCH  12  13
ATOM     13  C   UNL A   1      31.182  26.325  25.301  1.00  0.00     0.137 C 
BRANCH  13  14
ATOM     14  N   UNL A   1      31.839  25.099  24.817  1.00  0.00    -0.292 N 
ATOM     15  C   UNL A   1      32.323  24.178  25.724  1.00  0.00     0.266 C 
ATOM     16  C   UNL A   1      32.137  24.829  23.495  1.00  0.00     0.148 C 
ATOM     17  O   UNL A   1      32.398  24.331  26.937  1.00  0.00    -0.268 OA
ATOM     18  C   UNL A   1      32.759  22.940  25.039  1.00  0.00     0.081 C 
ATOM     19  S   UNL A   1      32.771  23.190  23.345  1.00  0.00    -0.054 SA
ATOM     20  S   UNL A   1      31.938  25.821  22.167  1.00  0.00    -0.052 S 
ATOM     21  C   UNL A   1      32.968  21.815  25.738  1.00  0.00     0.029 C 
BRANCH  21  22
ATOM     22  C   UNL A   1      33.194  20.475  25.195  1.00  0.00    -0.024 A 
ATOM     23  C   UNL A   1      34.518  20.044  25.019  1.00  0.00     0.015 A 
ATOM     24  C   UNL A   1      32.141  19.631  24.830  1.00  0.00     0.015 A 
ATOM     25  C   UNL A   1      34.793  18.770  24.519  1.00  0.00     0.086 A 
ATOM     26  C   UNL A   1      32.404  18.352  24.331  1.00  0.00     0.086 A 
ATOM     27  C   UNL A   1      33.730  17.923  24.184  1.00  0.00     0.269 A 
BRANCH  27  28
ATOM     28  N   UNL A   1      34.009  16.570  23.690  1.00  0.00     0.062 N 
ATOM     29  O   UNL A   1      34.281  16.436  22.489  1.00  0.00    -0.258 OA
ATOM     30  O   UNL A   1      33.976  15.639  24.509  1.00  0.00    -0.258 OA
ENDBRANCH  27  28
ENDBRANCH  21  22
ENDBRANCH  13  14
ENDBRANCH  12  13
ENDBRANCH   9  12
ENDBRANCH   6   8
ENDBRANCH   3   6
ENDBRANCH   1   2
BRANCH   1  31
ATOM     31  C   UNL A   1      34.469  33.699  28.530  1.00  0.00     0.023 C 
BRANCH  31  32
ATOM     32  C   UNL A   1      33.237  34.602  28.471  1.00  0.00     0.023 C 
BRANCH  32  33
ATOM     33  C   UNL A   1      33.256  35.886  29.296  1.00  0.00     0.116 C 
BRANCH  33  34
ATOM     34  N   UNL A   1      32.503  35.843  30.539  1.00  0.00    -0.352 N 
ATOM     35  C   UNL A   1      32.845  35.325  31.768  1.00  0.00     0.251 C 
ATOM     36  H   UNL A   1      31.607  36.248  30.495  1.00  0.00     0.163 HD
ATOM     37  O   UNL A   1      32.069  35.447  32.712  1.00  0.00    -0.269 OA
BRANCH  35  38
ATOM     38  C   UNL A   1      34.102  34.563  31.950  1.00  0.00     0.039 A 
ATOM     39  C   UNL A   1      35.309  35.218  31.688  1.00  0.00     0.014 A 
ATOM     40  C   UNL A   1      34.115  33.238  32.391  1.00  0.00     0.014 A 
ATOM     41  C   UNL A   1      36.523  34.589  31.974  1.00  0.00     0.010 A 
ATOM     42  C   UNL A   1      35.326  32.634  32.742  1.00  0.00     0.010 A 
ATOM     43  C   UNL A   1      36.541  33.313  32.560  1.00  0.00    -0.014 A 
BRANCH  43  44
ATOM     44  C   UNL A   1      37.817  32.712  33.035  1.00  0.00     0.031 A 
ATOM     45  C   UNL A   1      38.328  32.981  34.424  1.00  0.00     0.074 A 
ATOM     46  C   UNL A   1      38.551  31.962  32.187  1.00  0.00     0.049 A 
ATOM     47  N   UNL A   1      39.436  32.571  34.990  1.00  0.00    -0.248 NA
ATOM     48  C   UNL A   1      37.497  33.838  35.284  1.00  0.00     0.031 C 
ATOM     49  C   UNL A   1      38.197  31.666  30.796  1.00  0.00     0.029 A 
ATOM     50  N   UNL A   1      39.752  31.317  32.364  1.00  0.00    -0.354 N 
ATOM     51  C   UNL A   1      39.444  33.129  36.262  1.00  0.00     0.074 A 
ATOM     52  C   UNL A   1      38.250  33.942  36.371  1.00  0.00     0.031 C 
ATOM     53  C   UNL A   1      39.142  30.879  30.258  1.00  0.00     0.029 A 
ATOM     54  C   UNL A   1      40.188  30.641  31.247  1.00  0.00     0.049 A 
ATOM     55  H   UNL A   1      40.253  31.336  33.211  1.00  0.00     0.167 HD
ATOM     56  C   UNL A   1      40.352  32.966  37.255  1.00  0.00     0.037 A 
ATOM     57  C   UNL A   1      41.304  29.915  31.040  1.00  0.00     0.037 A 
ATOM     58  C   UNL A   1      41.525  32.137  37.155  1.00  0.00     0.049 A 
ATOM     59  C   UNL A   1      42.293  29.743  32.160  1.00  0.00     0.074 A 
ATOM     60  C   UNL A   1      42.465  31.856  38.132  1.00  0.00     0.029 A 
ATOM     61  N   UNL A   1      41.923  31.456  36.014  1.00  0.00    -0.354 N 
ATOM     62  N   UNL A   1      42.247  30.223  33.379  1.00  0.00    -0.248 NA
ATOM     63  C   UNL A   1      43.483  28.929  31.878  1.00  0.00     0.031 C 
ATOM     64  C   UNL A   1      43.452  31.038  37.571  1.00  0.00     0.029 A 
ATOM     65  C   UNL A   1      43.104  30.775  36.256  1.00  0.00     0.049 A 
ATOM     66  H   UNL A   1      41.437  31.458  35.158  1.00  0.00     0.167 HD
ATOM     67  C   UNL A   1      43.386  29.747  34.018  1.00  0.00     0.074 A 
ATOM     68  C   UNL A   1      44.098  28.934  33.053  1.00  0.00     0.031 C 
ATOM     69  C   UNL A   1      43.802  29.963  35.290  1.00  0.00     0.037 A 
BRANCH  56  70
ATOM     70  C   UNL A   1      40.109  33.701  38.545  1.00  0.00     0.058 A 
ATOM     71  C   UNL A   1      39.218  33.212  39.513  1.00  0.00     0.135 A 
ATOM     72  C   UNL A   1      40.803  34.887  38.832  1.00  0.00     0.135 A 
ATOM     73  F   UNL A   1      38.520  32.089  39.284  1.00  0.00    -0.206 F 
ATOM     74  C   UNL A   1      38.999  33.890  40.707  1.00  0.00     0.059 A 
ATOM     75  C   UNL A   1      40.618  35.569  40.031  1.00  0.00     0.059 A 
ATOM     76  F   UNL A   1      41.669  35.397  37.942  1.00  0.00    -0.206 F 
ATOM     77  C   UNL A   1      39.701  35.071  40.955  1.00  0.00     0.060 A 
BRANCH  77  78
ATOM     78  S   UNL A   1      39.402  35.943  42.508  1.00  0.00     0.124 S 
ATOM     79  O   UNL A   1      38.011  35.588  42.776  1.00  0.00    -0.237 OA
ATOM     80  O   UNL A   1      40.392  35.346  43.400  1.00  0.00    -0.237 OA
ATOM     81  O   UNL A   1      39.637  37.342  42.163  1.00  0.00    -0.744 OA
ENDBRANCH  77  78
ENDBRANCH  56  70
BRANCH  57  82
ATOM     82  C   UNL A   1      41.535  29.270  29.720  1.00  0.00     0.058 A 
ATOM     83  C   UNL A   1      42.397  29.849  28.778  1.00  0.00     0.135 A 
ATOM     84  C   UNL A   1      40.911  28.060  29.380  1.00  0.00     0.135 A 
ATOM     85  F   UNL A   1      43.011  31.009  29.054  1.00  0.00    -0.206 F 
ATOM     86  C   UNL A   1      42.623  29.260  27.537  1.00  0.00     0.059 A 
ATOM     87  C   UNL A   1      41.138  27.440  28.155  1.00  0.00     0.059 A 
ATOM     88  F   UNL A   1      40.090  27.458  30.254  1.00  0.00    -0.206 F 
ATOM     89  C   UNL A   1      41.988  28.054  27.236  1.00  0.00     0.060 A 
BRANCH  89  90
ATOM     90  S   UNL A   1      42.328  27.270  25.645  1.00  0.00     0.124 S 
ATOM     91  O   UNL A   1      41.221  26.327  25.540  1.00  0.00    -0.237 OA
ATOM     92  O   UNL A   1      42.290  28.404  24.727  1.00  0.00    -0.237 OA
ATOM     93  O   UNL A   1      43.648  26.678  25.840  1.00  0.00    -0.744 OA
ENDBRANCH  89  90
ENDBRANCH  57  82
BRANCH  69  94
ATOM     94  C   UNL A   1      45.071  29.286  35.728  1.00  0.00     0.058 A 
ATOM     95  C   UNL A   1      46.319  29.917  35.614  1.00  0.00     0.135 A 
ATOM     96  C   UNL A   1      45.031  28.010  36.313  1.00  0.00     0.135 A 
ATOM     97  F   UNL A   1      46.414  31.134  35.055  1.00  0.00    -0.206 F 
ATOM     98  C   UNL A   1      47.488  29.299  36.049  1.00  0.00     0.059 A 
ATOM     99  C   UNL A   1      46.184  27.384  36.776  1.00  0.00     0.059 A 
ATOM    100  F   UNL A   1      43.862  27.367  36.453  1.00  0.00    -0.206 F 
ATOM    101  C   UNL A   1      47.409  28.031  36.630  1.00  0.00     0.060 A 
BRANCH 101 102
ATOM    102  S   UNL A   1      48.926  27.253  37.224  1.00  0.00     0.124 S 
ATOM    103  O   UNL A   1      49.869  27.597  36.164  1.00  0.00    -0.237 OA
ATOM    104  O   UNL A   1      49.142  27.921  38.504  1.00  0.00    -0.237 OA
ATOM    105  O   UNL A   1      48.570  25.840  37.314  1.00  0.00    -0.744 OA
ENDBRANCH 101 102
ENDBRANCH  69  94
ENDBRANCH  43  44
ENDBRANCH  35  38
ENDBRANCH  33  34
ENDBRANCH  32  33
ENDBRANCH  31  32
ENDBRANCH   1  31
TORSDOF 20
ENDMDL
