MODEL 1
REMARK VINA RESULT:     -13.4      0.000      0.000
REMARK SMILES Cc1ccc(OCC(=O)NNC(=O)[C@H]2CCCC[C@@H]2C(=O)NCCCCNC(=O)c2ccc(-c3c4nc(c(-c5c(F)cc(S(=O)(=O)[O-])cc5F)c5ccc([nH]5)c(-c5c(F)cc(S(=O)(=O)[O-])cc5F)c5nc(c(-c6c(F)cc(S(=O)(=O)[O-])cc6F)c6ccc3[nH]6)C=C5)C=C4)cc2)cc1
REMARK SMILES IDX 23 1 22 2 20 3 21 4 19 6 14 7 15 8 16 9 18 10 17 11 12 12
REMARK SMILES IDX 11 13 13 15 10 16 8 17 9 18 7 20 6 21 5 22 1 23 2 24 3 25
REMARK SMILES IDX 97 26 4 27 96 28 24 29 25 30 26 31 27 32 28 33 29 35 30 36
REMARK SMILES IDX 31 37 95 38 32 39 94 40 33 41 34 42 35 43 88 44 36 45 93 46
REMARK SMILES IDX 87 47 89 48 37 49 92 50 86 51 85 52 38 54 72 55 51 56 71 57
REMARK SMILES IDX 52 58 55 59 70 60 90 61 53 62 54 63 69 65 91 66 56 67 39 68
REMARK SMILES IDX 40 69 49 70 41 71 42 72 48 73 50 74 43 75 44 76 45 77 46 78
REMARK SMILES IDX 47 79 73 80 74 81 83 82 75 83 76 84 82 85 84 86 77 87 78 88
REMARK SMILES IDX 79 89 80 90 81 91 57 92 58 93 67 94 59 95 60 96 66 97 68 98
REMARK SMILES IDX 61 99 62 100 63 101 64 102 65 103
REMARK H PARENT 22 5 11 14 10 19 27 34 89 53 55 64
REMARK Flexibility Score: inf
ROOT
ATOM      1  C   UNL A   1      31.183  31.226  26.450  1.00  0.00     0.116 C 
ENDROOT
BRANCH   1   2
ATOM      2  N   UNL A   1      30.655  32.066  25.379  1.00  0.00    -0.356 N 
ATOM      3  C   UNL A   1      29.746  31.913  24.389  1.00  0.00     0.223 C 
ATOM      4  O   UNL A   1      29.543  32.931  23.707  1.00  0.00    -0.275 OA
ATOM      5  H   UNL A   1      31.060  32.963  25.376  1.00  0.00     0.163 HD
BRANCH   3   6
ATOM      6  C   UNL A   1      29.028  30.613  23.977  1.00  0.00     0.091 C 
ATOM      7  C   UNL A   1      29.925  29.858  22.949  1.00  0.00     0.092 C 
ATOM      8  C   UNL A   1      29.776  30.476  21.541  1.00  0.00     0.014 C 
ATOM      9  C   UNL A   1      28.326  30.588  21.068  1.00  0.00     0.001 C 
ATOM     10  C   UNL A   1      27.587  30.616  23.480  1.00  0.00     0.014 C 
ATOM     11  C   UNL A   1      27.430  31.254  22.103  1.00  0.00     0.001 C 
BRANCH   7  12
ATOM     12  C   UNL A   1      29.647  28.351  22.929  1.00  0.00     0.242 C 
ATOM     13  N   UNL A   1      30.661  27.472  22.661  1.00  0.00    -0.267 N 
ATOM     14  H   UNL A   1      30.454  26.512  22.740  1.00  0.00     0.191 HD
ATOM     15  O   UNL A   1      28.528  27.872  23.127  1.00  0.00    -0.273 OA
BRANCH  13  16
ATOM     16  N   UNL A   1      31.954  27.810  22.287  1.00  0.00    -0.265 N 
ATOM     17  C   UNL A   1      32.903  26.876  21.939  1.00  0.00     0.276 C 
ATOM     18  O   UNL A   1      34.008  27.237  21.525  1.00  0.00    -0.269 OA
ATOM     19  H   UNL A   1      32.203  28.762  22.271  1.00  0.00     0.191 HD
BRANCH  17  20
ATOM     20  C   UNL A   1      32.532  25.388  22.014  1.00  0.00     0.331 C 
BRANCH  20  21
ATOM     21  O   UNL A   1      33.604  24.487  22.232  1.00  0.00    -0.484 OA
BRANCH  21  22
ATOM     22  C   UNL A   1      33.795  24.017  23.504  1.00  0.00     0.120 A 
ATOM     23  C   UNL A   1      34.130  22.188  27.401  1.00  0.00     0.044 C 
ATOM     24  C   UNL A   1      34.023  22.823  26.047  1.00  0.00    -0.051 A 
ATOM     25  C   UNL A   1      33.405  22.139  24.996  1.00  0.00     0.007 A 
ATOM     26  C   UNL A   1      34.535  24.102  25.811  1.00  0.00     0.007 A 
ATOM     27  C   UNL A   1      33.291  22.734  23.736  1.00  0.00     0.047 A 
ATOM     28  C   UNL A   1      34.423  24.695  24.548  1.00  0.00     0.047 A 
ENDBRANCH  21  22
ENDBRANCH  20  21
ENDBRANCH  17  20
ENDBRANCH  13  16
ENDBRANCH   7  12
ENDBRANCH   3   6
ENDBRANCH   1   2
BRANCH   1  29
ATOM     29  C   UNL A   1      32.692  31.391  26.652  1.00  0.00     0.023 C 
BRANCH  29  30
ATOM     30  C   UNL A   1      33.500  30.100  26.561  1.00  0.00     0.023 C 
BRANCH  30  31
ATOM     31  C   UNL A   1      34.326  29.777  27.803  1.00  0.00     0.116 C 
BRANCH  31  32
ATOM     32  N   UNL A   1      35.046  30.906  28.376  1.00  0.00    -0.352 N 
ATOM     33  C   UNL A   1      36.319  30.904  28.940  1.00  0.00     0.251 C 
ATOM     34  H   UNL A   1      34.578  31.772  28.362  1.00  0.00     0.163 HD
ATOM     35  O   UNL A   1      36.779  31.857  29.536  1.00  0.00    -0.269 OA
BRANCH  33  36
ATOM     36  C   UNL A   1      37.170  29.724  28.662  1.00  0.00     0.039 A 
ATOM     37  C   UNL A   1      37.416  28.857  29.731  1.00  0.00     0.014 A 
ATOM     38  C   UNL A   1      37.947  29.682  27.509  1.00  0.00     0.014 A 
ATOM     39  C   UNL A   1      38.586  28.108  29.736  1.00  0.00     0.010 A 
ATOM     40  C   UNL A   1      39.166  29.034  27.567  1.00  0.00     0.010 A 
ATOM     41  C   UNL A   1      39.508  28.293  28.704  1.00  0.00    -0.014 A 
BRANCH  41  42
ATOM     42  C   UNL A   1      40.883  27.811  28.792  1.00  0.00     0.031 A 
ATOM     43  C   UNL A   1      41.210  26.450  28.319  1.00  0.00     0.074 A 
ATOM     44  C   UNL A   1      41.848  28.588  29.335  1.00  0.00     0.049 A 
ATOM     45  N   UNL A   1      42.137  25.709  28.827  1.00  0.00    -0.248 NA
ATOM     46  C   UNL A   1      40.466  25.792  27.251  1.00  0.00     0.031 C 
ATOM     47  C   UNL A   1      43.282  28.319  29.358  1.00  0.00     0.029 A 
ATOM     48  N   UNL A   1      41.683  29.688  30.185  1.00  0.00    -0.354 N 
ATOM     49  C   UNL A   1      42.282  24.607  28.016  1.00  0.00     0.074 A 
ATOM     50  C   UNL A   1      41.182  24.677  27.083  1.00  0.00     0.031 C 
ATOM     51  C   UNL A   1      43.834  29.017  30.362  1.00  0.00     0.029 A 
ATOM     52  C   UNL A   1      42.761  29.674  31.088  1.00  0.00     0.049 A 
ATOM     53  H   UNL A   1      40.951  30.346  30.157  1.00  0.00     0.167 HD
ATOM     54  C   UNL A   1      43.391  23.821  28.128  1.00  0.00     0.037 A 
ATOM     55  C   UNL A   1      42.557  29.572  32.433  1.00  0.00     0.037 A 
ATOM     56  C   UNL A   1      44.272  24.301  29.189  1.00  0.00     0.049 A 
ATOM     57  C   UNL A   1      43.138  28.321  33.048  1.00  0.00     0.074 A 
ATOM     58  C   UNL A   1      45.378  25.135  29.168  1.00  0.00     0.029 A 
ATOM     59  N   UNL A   1      43.871  24.214  30.519  1.00  0.00    -0.354 N 
ATOM     60  N   UNL A   1      43.523  27.279  32.362  1.00  0.00    -0.248 NA
ATOM     61  C   UNL A   1      43.338  28.140  34.484  1.00  0.00     0.031 C 
ATOM     62  C   UNL A   1      45.604  25.604  30.485  1.00  0.00     0.029 A 
ATOM     63  C   UNL A   1      44.654  25.032  31.314  1.00  0.00     0.049 A 
ATOM     64  H   UNL A   1      43.135  23.650  30.847  1.00  0.00     0.167 HD
ATOM     65  C   UNL A   1      43.998  26.310  33.212  1.00  0.00     0.074 A 
ATOM     66  C   UNL A   1      43.881  26.910  34.528  1.00  0.00     0.031 C 
ATOM     67  C   UNL A   1      44.451  25.101  32.754  1.00  0.00     0.037 A 
BRANCH  54  68
ATOM     68  C   UNL A   1      43.801  22.856  27.035  1.00  0.00     0.058 A 
ATOM     69  C   UNL A   1      43.020  21.721  26.734  1.00  0.00     0.135 A 
ATOM     70  C   UNL A   1      45.006  22.952  26.310  1.00  0.00     0.135 A 
ATOM     71  F   UNL A   1      41.796  21.552  27.254  1.00  0.00    -0.206 F 
ATOM     72  C   UNL A   1      43.466  20.692  25.902  1.00  0.00     0.059 A 
ATOM     73  C   UNL A   1      45.502  21.911  25.519  1.00  0.00     0.059 A 
ATOM     74  F   UNL A   1      45.736  24.077  26.335  1.00  0.00    -0.206 F 
ATOM     75  C   UNL A   1      44.730  20.772  25.335  1.00  0.00     0.060 A 
BRANCH  75  76
ATOM     76  S   UNL A   1      45.345  19.370  24.384  1.00  0.00     0.124 S 
ATOM     77  O   UNL A   1      44.552  19.453  23.161  1.00  0.00    -0.237 OA
ATOM     78  O   UNL A   1      46.760  19.695  24.247  1.00  0.00    -0.237 OA
ATOM     79  O   UNL A   1      45.043  18.223  25.236  1.00  0.00    -0.744 OA
ENDBRANCH  75  76
ENDBRANCH  54  68
BRANCH  55  80
ATOM     80  C   UNL A   1      41.382  30.346  32.916  1.00  0.00     0.058 A 
ATOM     81  C   UNL A   1      40.191  29.632  33.153  1.00  0.00     0.135 A 
ATOM     82  C   UNL A   1      41.508  31.603  33.520  1.00  0.00     0.135 A 
ATOM     83  F   UNL A   1      40.007  28.428  32.585  1.00  0.00    -0.206 F 
ATOM     84  C   UNL A   1      39.234  30.073  34.061  1.00  0.00     0.059 A 
ATOM     85  C   UNL A   1      40.560  32.066  34.440  1.00  0.00     0.059 A 
ATOM     86  F   UNL A   1      42.611  32.340  33.320  1.00  0.00    -0.206 F 
ATOM     87  C   UNL A   1      39.464  31.259  34.752  1.00  0.00     0.060 A 
BRANCH  87  88
ATOM     88  S   UNL A   1      38.365  31.673  36.128  1.00  0.00     0.124 S 
ATOM     89  O   UNL A   1      39.182  32.589  36.919  1.00  0.00    -0.237 OA
ATOM     90  O   UNL A   1      37.240  32.289  35.427  1.00  0.00    -0.237 OA
ATOM     91  O   UNL A   1      38.103  30.379  36.744  1.00  0.00    -0.744 OA
ENDBRANCH  87  88
ENDBRANCH  55  80
BRANCH  67  92
ATOM     92  C   UNL A   1      44.849  23.896  33.587  1.00  0.00     0.058 A 
ATOM     93  C   UNL A   1      43.977  22.861  33.963  1.00  0.00     0.135 A 
ATOM     94  C   UNL A   1      46.214  23.682  33.919  1.00  0.00     0.135 A 
ATOM     95  F   UNL A   1      42.681  22.883  33.626  1.00  0.00    -0.206 F 
ATOM     96  C   UNL A   1      44.411  21.727  34.657  1.00  0.00     0.059 A 
ATOM     97  C   UNL A   1      46.676  22.534  34.555  1.00  0.00     0.059 A 
ATOM     98  F   UNL A   1      47.161  24.584  33.617  1.00  0.00    -0.206 F 
ATOM     99  C   UNL A   1      45.765  21.567  34.943  1.00  0.00     0.060 A 
BRANCH  99 100
ATOM    100  S   UNL A   1      46.353  20.064  35.745  1.00  0.00     0.124 S 
ATOM    101  O   UNL A   1      47.707  19.959  35.211  1.00  0.00    -0.237 OA
ATOM    102  O   UNL A   1      46.260  20.395  37.165  1.00  0.00    -0.237 OA
ATOM    103  O   UNL A   1      45.408  19.052  35.284  1.00  0.00    -0.744 OA
ENDBRANCH  99 100
ENDBRANCH  67  92
ENDBRANCH  41  42
ENDBRANCH  33  36
ENDBRANCH  31  32
ENDBRANCH  30  31
ENDBRANCH  29  30
ENDBRANCH   1  29
TORSDOF 19
ENDMDL
MODEL 2
REMARK VINA RESULT:     -13.3      1.855      2.851
REMARK SMILES Cc1ccc(OCC(=O)NNC(=O)[C@H]2CCCC[C@@H]2C(=O)NCCCCNC(=O)c2ccc(-c3c4nc(c(-c5c(F)cc(S(=O)(=O)[O-])cc5F)c5ccc([nH]5)c(-c5c(F)cc(S(=O)(=O)[O-])cc5F)c5nc(c(-c6c(F)cc(S(=O)(=O)[O-])cc6F)c6ccc3[nH]6)C=C5)C=C4)cc2)cc1
REMARK SMILES IDX 23 1 22 2 20 3 21 4 19 6 14 7 15 8 16 9 18 10 17 11 12 12
REMARK SMILES IDX 11 13 13 15 10 16 8 17 9 18 7 20 6 21 5 22 1 23 2 24 3 25
REMARK SMILES IDX 97 26 4 27 96 28 24 29 25 30 26 31 27 32 28 33 29 35 30 36
REMARK SMILES IDX 31 37 95 38 32 39 94 40 33 41 34 42 35 43 88 44 36 45 93 46
REMARK SMILES IDX 87 47 89 48 37 49 92 50 86 51 85 52 38 54 72 55 51 56 71 57
REMARK SMILES IDX 52 58 55 59 70 60 90 61 53 62 54 63 69 65 91 66 56 67 39 68
REMARK SMILES IDX 40 69 49 70 41 71 42 72 48 73 50 74 43 75 44 76 45 77 46 78
REMARK SMILES IDX 47 79 73 80 74 81 83 82 75 83 76 84 82 85 84 86 77 87 78 88
REMARK SMILES IDX 79 89 80 90 81 91 57 92 58 93 67 94 59 95 60 96 66 97 68 98
REMARK SMILES IDX 61 99 62 100 63 101 64 102 65 103
REMARK H PARENT 22 5 11 14 10 19 27 34 89 53 55 64
REMARK Flexibility Score: inf
ROOT
ATOM      1  C   UNL A   1      31.781  29.622  26.291  1.00  0.00     0.116 C 
ENDROOT
BRANCH   1   2
ATOM      2  N   UNL A   1      31.941  29.625  24.840  1.00  0.00    -0.356 N 
ATOM      3  C   UNL A   1      31.696  28.748  23.839  1.00  0.00     0.223 C 
ATOM      4  O   UNL A   1      31.931  29.182  22.699  1.00  0.00    -0.275 OA
ATOM      5  H   UNL A   1      32.321  30.470  24.509  1.00  0.00     0.163 HD
BRANCH   3   6
ATOM      6  C   UNL A   1      31.258  27.277  23.976  1.00  0.00     0.091 C 
ATOM      7  C   UNL A   1      32.456  26.456  24.543  1.00  0.00     0.092 C 
ATOM      8  C   UNL A   1      33.469  26.129  23.424  1.00  0.00     0.014 C 
ATOM      9  C   UNL A   1      32.842  25.461  22.200  1.00  0.00     0.001 C 
ATOM     10  C   UNL A   1      30.633  26.517  22.812  1.00  0.00     0.014 C 
ATOM     11  C   UNL A   1      31.623  26.218  21.691  1.00  0.00     0.001 C 
BRANCH   7  12
ATOM     12  C   UNL A   1      32.000  25.186  25.270  1.00  0.00     0.242 C 
ATOM     13  N   UNL A   1      32.916  24.236  25.629  1.00  0.00    -0.267 N 
ATOM     14  H   UNL A   1      32.590  23.478  26.166  1.00  0.00     0.191 HD
ATOM     15  O   UNL A   1      30.819  24.956  25.543  1.00  0.00    -0.273 OA
BRANCH  13  16
ATOM     16  N   UNL A   1      34.266  24.242  25.303  1.00  0.00    -0.265 N 
ATOM     17  C   UNL A   1      34.944  23.119  24.892  1.00  0.00     0.276 C 
ATOM     18  O   UNL A   1      36.119  23.200  24.526  1.00  0.00    -0.269 OA
ATOM     19  H   UNL A   1      34.760  25.092  25.371  1.00  0.00     0.191 HD
BRANCH  17  20
ATOM     20  C   UNL A   1      34.188  21.783  24.836  1.00  0.00     0.331 C 
BRANCH  20  21
ATOM     21  O   UNL A   1      34.987  20.615  24.748  1.00  0.00    -0.484 OA
BRANCH  21  22
ATOM     22  C   UNL A   1      34.371  19.405  24.914  1.00  0.00     0.120 A 
ATOM     23  C   UNL A   1      32.769  15.405  25.208  1.00  0.00     0.044 C 
ATOM     24  C   UNL A   1      33.324  16.795  25.115  1.00  0.00    -0.051 A 
ATOM     25  C   UNL A   1      34.612  17.006  24.614  1.00  0.00     0.007 A 
ATOM     26  C   UNL A   1      32.572  17.899  25.526  1.00  0.00     0.007 A 
ATOM     27  C   UNL A   1      35.127  18.301  24.512  1.00  0.00     0.047 A 
ATOM     28  C   UNL A   1      33.091  19.195  25.427  1.00  0.00     0.047 A 
ENDBRANCH  21  22
ENDBRANCH  20  21
ENDBRANCH  17  20
ENDBRANCH  13  16
ENDBRANCH   7  12
ENDBRANCH   3   6
ENDBRANCH   1   2
BRANCH   1  29
ATOM     29  C   UNL A   1      32.249  30.924  26.948  1.00  0.00     0.023 C 
BRANCH  29  30
ATOM     30  C   UNL A   1      33.757  31.154  26.919  1.00  0.00     0.023 C 
BRANCH  30  31
ATOM     31  C   UNL A   1      34.541  30.373  27.969  1.00  0.00     0.116 C 
BRANCH  31  32
ATOM     32  N   UNL A   1      35.179  31.185  28.995  1.00  0.00    -0.352 N 
ATOM     33  C   UNL A   1      36.316  30.879  29.737  1.00  0.00     0.251 C 
ATOM     34  H   UNL A   1      34.757  32.054  29.186  1.00  0.00     0.163 HD
ATOM     35  O   UNL A   1      36.688  31.544  30.682  1.00  0.00    -0.269 OA
BRANCH  33  36
ATOM     36  C   UNL A   1      37.159  29.767  29.237  1.00  0.00     0.039 A 
ATOM     37  C   UNL A   1      37.408  28.716  30.125  1.00  0.00     0.014 A 
ATOM     38  C   UNL A   1      37.927  29.936  28.090  1.00  0.00     0.014 A 
ATOM     39  C   UNL A   1      38.574  27.974  29.982  1.00  0.00     0.010 A 
ATOM     40  C   UNL A   1      39.142  29.283  28.017  1.00  0.00     0.010 A 
ATOM     41  C   UNL A   1      39.489  28.343  28.994  1.00  0.00    -0.014 A 
BRANCH  41  42
ATOM     42  C   UNL A   1      40.861  27.848  28.980  1.00  0.00     0.031 A 
ATOM     43  C   UNL A   1      41.140  26.488  28.474  1.00  0.00     0.074 A 
ATOM     44  C   UNL A   1      41.871  28.612  29.457  1.00  0.00     0.049 A 
ATOM     45  N   UNL A   1      42.093  25.734  28.909  1.00  0.00    -0.248 NA
ATOM     46  C   UNL A   1      40.315  25.845  27.459  1.00  0.00     0.031 C 
ATOM     47  C   UNL A   1      43.300  28.329  29.374  1.00  0.00     0.029 A 
ATOM     48  N   UNL A   1      41.778  29.706  30.324  1.00  0.00    -0.354 N 
ATOM     49  C   UNL A   1      42.169  24.636  28.083  1.00  0.00     0.074 A 
ATOM     50  C   UNL A   1      41.005  24.724  27.231  1.00  0.00     0.031 C 
ATOM     51  C   UNL A   1      43.930  29.013  30.341  1.00  0.00     0.029 A 
ATOM     52  C   UNL A   1      42.919  29.675  31.147  1.00  0.00     0.049 A 
ATOM     53  H   UNL A   1      41.053  30.371  30.354  1.00  0.00     0.167 HD
ATOM     54  C   UNL A   1      43.275  23.839  28.108  1.00  0.00     0.037 A 
ATOM     55  C   UNL A   1      42.811  29.565  32.502  1.00  0.00     0.037 A 
ATOM     56  C   UNL A   1      44.235  24.303  29.106  1.00  0.00     0.049 A 
ATOM     57  C   UNL A   1      43.423  28.304  33.066  1.00  0.00     0.074 A 
ATOM     58  C   UNL A   1      45.345  25.126  29.012  1.00  0.00     0.029 A 
ATOM     59  N   UNL A   1      43.930  24.209  30.461  1.00  0.00    -0.354 N 
ATOM     60  N   UNL A   1      43.746  27.263  32.346  1.00  0.00    -0.248 NA
ATOM     61  C   UNL A   1      43.723  28.109  34.482  1.00  0.00     0.031 C 
ATOM     62  C   UNL A   1      45.670  25.583  30.312  1.00  0.00     0.029 A 
ATOM     63  C   UNL A   1      44.777  25.013  31.203  1.00  0.00     0.049 A 
ATOM     64  H   UNL A   1      43.214  23.649  30.838  1.00  0.00     0.167 HD
ATOM     65  C   UNL A   1      44.271  26.283  33.153  1.00  0.00     0.074 A 
ATOM     66  C   UNL A   1      44.256  26.874  34.478  1.00  0.00     0.031 C 
ATOM     67  C   UNL A   1      44.678  25.073  32.655  1.00  0.00     0.037 A 
BRANCH  54  68
ATOM     68  C   UNL A   1      43.596  22.878  26.982  1.00  0.00     0.058 A 
ATOM     69  C   UNL A   1      42.875  21.677  26.821  1.00  0.00     0.135 A 
ATOM     70  C   UNL A   1      44.667  23.049  26.082  1.00  0.00     0.135 A 
ATOM     71  F   UNL A   1      41.761  21.427  27.523  1.00  0.00    -0.206 F 
ATOM     72  C   UNL A   1      43.275  20.664  25.948  1.00  0.00     0.059 A 
ATOM     73  C   UNL A   1      45.124  22.029  25.242  1.00  0.00     0.059 A 
ATOM     74  F   UNL A   1      45.297  24.229  25.978  1.00  0.00    -0.206 F 
ATOM     75  C   UNL A   1      44.429  20.827  25.196  1.00  0.00     0.060 A 
BRANCH  75  76
ATOM     76  S   UNL A   1      45.009  19.451  24.186  1.00  0.00     0.124 S 
ATOM     77  O   UNL A   1      44.527  19.816  22.857  1.00  0.00    -0.237 OA
ATOM     78  O   UNL A   1      46.453  19.521  24.379  1.00  0.00    -0.237 OA
ATOM     79  O   UNL A   1      44.351  18.292  24.781  1.00  0.00    -0.744 OA
ENDBRANCH  75  76
ENDBRANCH  54  68
BRANCH  55  80
ATOM     80  C   UNL A   1      41.682  30.346  33.074  1.00  0.00     0.058 A 
ATOM     81  C   UNL A   1      40.452  29.679  33.239  1.00  0.00     0.135 A 
ATOM     82  C   UNL A   1      41.878  31.521  33.811  1.00  0.00     0.135 A 
ATOM     83  F   UNL A   1      40.201  28.557  32.543  1.00  0.00    -0.206 F 
ATOM     84  C   UNL A   1      39.521  30.070  34.195  1.00  0.00     0.059 A 
ATOM     85  C   UNL A   1      40.959  31.933  34.782  1.00  0.00     0.059 A 
ATOM     86  F   UNL A   1      43.021  32.212  33.686  1.00  0.00    -0.206 F 
ATOM     87  C   UNL A   1      39.818  31.159  35.010  1.00  0.00     0.060 A 
BRANCH  87  88
ATOM     88  S   UNL A   1      38.744  31.481  36.430  1.00  0.00     0.124 S 
ATOM     89  O   UNL A   1      37.663  32.263  35.837  1.00  0.00    -0.237 OA
ATOM     90  O   UNL A   1      38.382  30.124  36.835  1.00  0.00    -0.237 OA
ATOM     91  O   UNL A   1      39.613  32.210  37.345  1.00  0.00    -0.744 OA
ENDBRANCH  87  88
ENDBRANCH  55  80
BRANCH  67  92
ATOM     92  C   UNL A   1      45.123  23.859  33.449  1.00  0.00     0.058 A 
ATOM     93  C   UNL A   1      46.407  23.687  33.993  1.00  0.00     0.135 A 
ATOM     94  C   UNL A   1      44.179  22.862  33.812  1.00  0.00     0.135 A 
ATOM     95  F   UNL A   1      47.369  24.602  33.817  1.00  0.00    -0.206 F 
ATOM     96  C   UNL A   1      46.744  22.589  34.791  1.00  0.00     0.059 A 
ATOM     97  C   UNL A   1      44.477  21.795  34.654  1.00  0.00     0.059 A 
ATOM     98  F   UNL A   1      42.912  22.899  33.370  1.00  0.00    -0.206 F 
ATOM     99  C   UNL A   1      45.771  21.651  35.124  1.00  0.00     0.060 A 
BRANCH  99 100
ATOM    100  S   UNL A   1      46.164  20.288  36.235  1.00  0.00     0.124 S 
ATOM    101  O   UNL A   1      45.353  19.211  35.675  1.00  0.00    -0.237 OA
ATOM    102  O   UNL A   1      47.608  20.139  36.071  1.00  0.00    -0.237 OA
ATOM    103  O   UNL A   1      45.740  20.790  37.538  1.00  0.00    -0.744 OA
ENDBRANCH  99 100
ENDBRANCH  67  92
ENDBRANCH  41  42
ENDBRANCH  33  36
ENDBRANCH  31  32
ENDBRANCH  30  31
ENDBRANCH  29  30
ENDBRANCH   1  29
TORSDOF 19
ENDMDL
MODEL 3
REMARK VINA RESULT:     -12.1      2.076      2.989
REMARK SMILES Cc1ccc(OCC(=O)NNC(=O)[C@H]2CCCC[C@@H]2C(=O)NCCCCNC(=O)c2ccc(-c3c4nc(c(-c5c(F)cc(S(=O)(=O)[O-])cc5F)c5ccc([nH]5)c(-c5c(F)cc(S(=O)(=O)[O-])cc5F)c5nc(c(-c6c(F)cc(S(=O)(=O)[O-])cc6F)c6ccc3[nH]6)C=C5)C=C4)cc2)cc1
REMARK SMILES IDX 23 1 22 2 20 3 21 4 19 6 14 7 15 8 16 9 18 10 17 11 12 12
REMARK SMILES IDX 11 13 13 15 10 16 8 17 9 18 7 20 6 21 5 22 1 23 2 24 3 25
REMARK SMILES IDX 97 26 4 27 96 28 24 29 25 30 26 31 27 32 28 33 29 35 30 36
REMARK SMILES IDX 31 37 95 38 32 39 94 40 33 41 34 42 35 43 88 44 36 45 93 46
REMARK SMILES IDX 87 47 89 48 37 49 92 50 86 51 85 52 38 54 72 55 51 56 71 57
REMARK SMILES IDX 52 58 55 59 70 60 90 61 53 62 54 63 69 65 91 66 56 67 39 68
REMARK SMILES IDX 40 69 49 70 41 71 42 72 48 73 50 74 43 75 44 76 45 77 46 78
REMARK SMILES IDX 47 79 73 80 74 81 83 82 75 83 76 84 82 85 84 86 77 87 78 88
REMARK SMILES IDX 79 89 80 90 81 91 57 92 58 93 67 94 59 95 60 96 66 97 68 98
REMARK SMILES IDX 61 99 62 100 63 101 64 102 65 103
REMARK H PARENT 22 5 11 14 10 19 27 34 89 53 55 64
REMARK Flexibility Score: inf
ROOT
ATOM      1  C   UNL A   1      32.714  30.559  27.194  1.00  0.00     0.116 C 
ENDROOT
BRANCH   1   2
ATOM      2  N   UNL A   1      33.356  29.698  26.205  1.00  0.00    -0.356 N 
ATOM      3  C   UNL A   1      32.931  28.818  25.269  1.00  0.00     0.223 C 
ATOM      4  O   UNL A   1      33.833  28.323  24.573  1.00  0.00    -0.275 OA
ATOM      5  H   UNL A   1      34.337  29.776  26.224  1.00  0.00     0.163 HD
BRANCH   3   6
ATOM      6  C   UNL A   1      31.492  28.312  25.051  1.00  0.00     0.091 C 
ATOM      7  C   UNL A   1      31.538  26.769  24.832  1.00  0.00     0.092 C 
ATOM      8  C   UNL A   1      31.955  26.438  23.383  1.00  0.00     0.014 C 
ATOM      9  C   UNL A   1      31.110  27.145  22.322  1.00  0.00     0.001 C 
ATOM     10  C   UNL A   1      30.572  28.941  24.011  1.00  0.00     0.014 C 
ATOM     11  C   UNL A   1      30.997  28.641  22.577  1.00  0.00     0.001 C 
BRANCH   7  12
ATOM     12  C   UNL A   1      30.216  26.088  25.202  1.00  0.00     0.242 C 
ATOM     13  N   UNL A   1      30.176  25.180  26.225  1.00  0.00    -0.267 N 
ATOM     14  H   UNL A   1      29.292  24.831  26.480  1.00  0.00     0.191 HD
ATOM     15  O   UNL A   1      29.160  26.302  24.602  1.00  0.00    -0.273 OA
BRANCH  13  16
ATOM     16  N   UNL A   1      31.270  24.707  26.936  1.00  0.00    -0.265 N 
ATOM     17  C   UNL A   1      31.896  23.517  26.645  1.00  0.00     0.276 C 
ATOM     18  O   UNL A   1      32.921  23.189  27.249  1.00  0.00    -0.269 OA
ATOM     19  H   UNL A   1      31.613  25.248  27.684  1.00  0.00     0.191 HD
BRANCH  17  20
ATOM     20  C   UNL A   1      31.332  22.647  25.513  1.00  0.00     0.331 C 
BRANCH  20  21
ATOM     21  O   UNL A   1      32.224  22.340  24.455  1.00  0.00    -0.484 OA
BRANCH  21  22
ATOM     22  C   UNL A   1      32.433  21.021  24.158  1.00  0.00     0.120 A 
ATOM     23  C   UNL A   1      33.322  16.830  23.607  1.00  0.00     0.044 C 
ATOM     24  C   UNL A   1      33.004  18.284  23.797  1.00  0.00    -0.051 A 
ATOM     25  C   UNL A   1      33.300  18.916  25.008  1.00  0.00     0.007 A 
ATOM     26  C   UNL A   1      32.410  19.029  22.775  1.00  0.00     0.007 A 
ATOM     27  C   UNL A   1      33.019  20.274  25.184  1.00  0.00     0.047 A 
ATOM     28  C   UNL A   1      32.125  20.388  22.954  1.00  0.00     0.047 A 
ENDBRANCH  21  22
ENDBRANCH  20  21
ENDBRANCH  17  20
ENDBRANCH  13  16
ENDBRANCH   7  12
ENDBRANCH   3   6
ENDBRANCH   1   2
BRANCH   1  29
ATOM     29  C   UNL A   1      33.342  31.954  27.271  1.00  0.00     0.023 C 
BRANCH  29  30
ATOM     30  C   UNL A   1      34.710  32.009  27.946  1.00  0.00     0.023 C 
BRANCH  30  31
ATOM     31  C   UNL A   1      34.681  31.812  29.458  1.00  0.00     0.116 C 
BRANCH  31  32
ATOM     32  N   UNL A   1      35.490  32.754  30.220  1.00  0.00    -0.352 N 
ATOM     33  C   UNL A   1      36.737  32.532  30.797  1.00  0.00     0.251 C 
ATOM     34  H   UNL A   1      35.111  33.655  30.339  1.00  0.00     0.163 HD
ATOM     35  O   UNL A   1      37.269  33.324  31.547  1.00  0.00    -0.269 OA
BRANCH  33  36
ATOM     36  C   UNL A   1      37.476  31.330  30.344  1.00  0.00     0.039 A 
ATOM     37  C   UNL A   1      37.682  30.322  31.292  1.00  0.00     0.014 A 
ATOM     38  C   UNL A   1      38.209  31.366  29.163  1.00  0.00     0.014 A 
ATOM     39  C   UNL A   1      38.785  29.487  31.158  1.00  0.00     0.010 A 
ATOM     40  C   UNL A   1      39.370  30.621  29.092  1.00  0.00     0.010 A 
ATOM     41  C   UNL A   1      39.685  29.722  30.117  1.00  0.00    -0.014 A 
BRANCH  41  42
ATOM     42  C   UNL A   1      41.016  29.125  30.089  1.00  0.00     0.031 A 
ATOM     43  C   UNL A   1      41.216  27.819  29.428  1.00  0.00     0.074 A 
ATOM     44  C   UNL A   1      42.057  29.742  30.693  1.00  0.00     0.049 A 
ATOM     45  N   UNL A   1      42.090  26.944  29.799  1.00  0.00    -0.248 NA
ATOM     46  C   UNL A   1      40.391  27.372  28.312  1.00  0.00     0.031 C 
ATOM     47  C   UNL A   1      43.464  29.359  30.626  1.00  0.00     0.029 A 
ATOM     48  N   UNL A   1      42.008  30.727  31.687  1.00  0.00    -0.354 N 
ATOM     49  C   UNL A   1      42.120  25.953  28.845  1.00  0.00     0.074 A 
ATOM     50  C   UNL A   1      41.006  26.236  27.971  1.00  0.00     0.031 C 
ATOM     51  C   UNL A   1      44.100  29.869  31.692  1.00  0.00     0.029 A 
ATOM     52  C   UNL A   1      43.105  30.505  32.539  1.00  0.00     0.049 A 
ATOM     53  H   UNL A   1      41.334  31.439  31.774  1.00  0.00     0.167 HD
ATOM     54  C   UNL A   1      43.162  25.073  28.810  1.00  0.00     0.037 A 
ATOM     55  C   UNL A   1      42.929  30.241  33.865  1.00  0.00     0.037 A 
ATOM     56  C   UNL A   1      44.108  25.335  29.891  1.00  0.00     0.049 A 
ATOM     57  C   UNL A   1      43.420  28.875  34.288  1.00  0.00     0.074 A 
ATOM     58  C   UNL A   1      45.279  26.073  29.939  1.00  0.00     0.029 A 
ATOM     59  N   UNL A   1      43.737  25.101  31.212  1.00  0.00    -0.354 N 
ATOM     60  N   UNL A   1      43.696  27.908  33.456  1.00  0.00    -0.248 NA
ATOM     61  C   UNL A   1      43.641  28.487  35.678  1.00  0.00     0.031 C 
ATOM     62  C   UNL A   1      45.579  26.341  31.297  1.00  0.00     0.029 A 
ATOM     63  C   UNL A   1      44.607  25.740  32.078  1.00  0.00     0.049 A 
ATOM     64  H   UNL A   1      42.965  24.558  31.490  1.00  0.00     0.167 HD
ATOM     65  C   UNL A   1      44.111  26.799  34.151  1.00  0.00     0.074 A 
ATOM     66  C   UNL A   1      44.081  27.223  35.539  1.00  0.00     0.031 C 
ATOM     67  C   UNL A   1      44.449  25.630  33.522  1.00  0.00     0.037 A 
BRANCH  54  68
ATOM     68  C   UNL A   1      43.460  24.235  27.584  1.00  0.00     0.058 A 
ATOM     69  C   UNL A   1      42.893  22.953  27.423  1.00  0.00     0.135 A 
ATOM     70  C   UNL A   1      44.372  24.609  26.577  1.00  0.00     0.135 A 
ATOM     71  F   UNL A   1      41.925  22.507  28.233  1.00  0.00    -0.206 F 
ATOM     72  C   UNL A   1      43.310  22.060  26.434  1.00  0.00     0.059 A 
ATOM     73  C   UNL A   1      44.849  23.714  25.614  1.00  0.00     0.059 A 
ATOM     74  F   UNL A   1      44.818  25.871  26.486  1.00  0.00    -0.206 F 
ATOM     75  C   UNL A   1      44.324  22.430  25.562  1.00  0.00     0.060 A 
BRANCH  75  76
ATOM     76  S   UNL A   1      44.948  21.211  24.389  1.00  0.00     0.124 S 
ATOM     77  O   UNL A   1      44.618  21.820  23.104  1.00  0.00    -0.237 OA
ATOM     78  O   UNL A   1      46.367  21.167  24.725  1.00  0.00    -0.237 OA
ATOM     79  O   UNL A   1      44.187  20.008  24.713  1.00  0.00    -0.744 OA
ENDBRANCH  75  76
ENDBRANCH  54  68
BRANCH  55  80
ATOM     80  C   UNL A   1      41.837  31.033  34.490  1.00  0.00     0.058 A 
ATOM     81  C   UNL A   1      42.153  32.332  34.935  1.00  0.00     0.135 A 
ATOM     82  C   UNL A   1      40.483  30.736  34.288  1.00  0.00     0.135 A 
ATOM     83  F   UNL A   1      43.434  32.668  35.162  1.00  0.00    -0.206 F 
ATOM     84  C   UNL A   1      41.193  33.334  35.033  1.00  0.00     0.059 A 
ATOM     85  C   UNL A   1      39.500  31.727  34.378  1.00  0.00     0.059 A 
ATOM     86  F   UNL A   1      40.115  29.512  33.882  1.00  0.00    -0.206 F 
ATOM     87  C   UNL A   1      39.879  33.037  34.683  1.00  0.00     0.060 A 
BRANCH  87  88
ATOM     88  S   UNL A   1      38.704  34.405  34.537  1.00  0.00     0.124 S 
ATOM     89  O   UNL A   1      37.428  33.755  34.824  1.00  0.00    -0.237 OA
ATOM     90  O   UNL A   1      39.186  35.315  35.574  1.00  0.00    -0.237 OA
ATOM     91  O   UNL A   1      38.884  34.850  33.162  1.00  0.00    -0.744 OA
ENDBRANCH  87  88
ENDBRANCH  55  80
BRANCH  67  92
ATOM     92  C   UNL A   1      44.767  24.296  34.172  1.00  0.00     0.058 A 
ATOM     93  C   UNL A   1      43.807  23.346  34.556  1.00  0.00     0.135 A 
ATOM     94  C   UNL A   1      46.116  23.872  34.300  1.00  0.00     0.135 A 
ATOM     95  F   UNL A   1      42.496  23.572  34.395  1.00  0.00    -0.206 F 
ATOM     96  C   UNL A   1      44.154  22.093  35.072  1.00  0.00     0.059 A 
ATOM     97  C   UNL A   1      46.482  22.609  34.754  1.00  0.00     0.059 A 
ATOM     98  F   UNL A   1      47.140  24.674  33.967  1.00  0.00    -0.206 F 
ATOM     99  C   UNL A   1      45.494  21.728  35.160  1.00  0.00     0.060 A 
BRANCH  99 100
ATOM    100  S   UNL A   1      45.953  20.080  35.727  1.00  0.00     0.124 S 
ATOM    101  O   UNL A   1      45.782  20.209  37.170  1.00  0.00    -0.237 OA
ATOM    102  O   UNL A   1      44.984  19.221  35.052  1.00  0.00    -0.237 OA
ATOM    103  O   UNL A   1      47.329  19.942  35.262  1.00  0.00    -0.744 OA
ENDBRANCH  99 100
ENDBRANCH  67  92
ENDBRANCH  41  42
ENDBRANCH  33  36
ENDBRANCH  31  32
ENDBRANCH  30  31
ENDBRANCH  29  30
ENDBRANCH   1  29
TORSDOF 19
ENDMDL
