MODEL 1
REMARK VINA RESULT:     -11.0      0.000      0.000
REMARK SMILES CC(C)c1cc(=O)[nH]c(SCC(=O)NCCCCNC(=O)c2ccc(-c3c4nc(c(-c5c(F)cc(S(=O)(=O)[O-])cc5F)c5ccc([nH]5)c(-c5c(F)cc(S(=O)(=O)[O-])cc5F)c5nc(c(-c6c(F)cc(S(=O)(=O)[O-])cc6F)c6ccc3[nH]6)C=C5)C=C4)cc2)n1
REMARK SMILES IDX 16 1 15 2 14 3 12 4 13 5 11 7 10 8 9 9 4 10 5 11 88 12 6 13
REMARK SMILES IDX 7 14 8 15 2 17 1 18 3 19 17 20 18 21 19 22 20 23 21 25 22 26
REMARK SMILES IDX 23 27 87 28 24 29 86 30 25 31 26 32 27 33 80 34 28 35 85 36
REMARK SMILES IDX 79 37 81 38 29 39 84 40 78 41 77 42 30 44 64 45 43 46 63 47
REMARK SMILES IDX 44 48 47 49 62 50 82 51 45 52 46 53 61 55 83 56 48 57 31 58
REMARK SMILES IDX 32 59 41 60 33 61 34 62 40 63 42 64 35 65 36 66 37 67 38 68
REMARK SMILES IDX 39 69 65 70 66 71 75 72 67 73 68 74 74 75 76 76 69 77 70 78
REMARK SMILES IDX 71 79 72 80 73 81 49 82 50 83 59 84 51 85 52 86 58 87 60 88
REMARK SMILES IDX 53 89 54 90 55 91 56 92 57 93
REMARK H PARENT 14 6 8 16 19 24 81 43 47 54
REMARK Flexibility Score: inf
ROOT
ATOM      1  C   UNL A   1      32.952  29.359  24.881  1.00  0.00     0.023 C 
ENDROOT
BRANCH   1   2
ATOM      2  C   UNL A   1      31.427  29.413  24.975  1.00  0.00     0.116 C 
BRANCH   2   3
ATOM      3  N   UNL A   1      30.828  29.716  23.691  1.00  0.00    -0.355 N 
ATOM      4  C   UNL A   1      30.462  28.886  22.672  1.00  0.00     0.230 C 
ATOM      5  O   UNL A   1      29.920  29.400  21.689  1.00  0.00    -0.274 OA
ATOM      6  H   UNL A   1      30.658  30.672  23.528  1.00  0.00     0.163 HD
BRANCH   4   7
ATOM      7  C   UNL A   1      30.586  27.378  22.803  1.00  0.00     0.178 C 
BRANCH   7   8
ATOM      8  S   UNL A   1      29.401  26.602  23.930  1.00  0.00    -0.078 SA
BRANCH   8   9
ATOM      9  C   UNL A   1      30.400  25.481  24.791  1.00  0.00     0.168 A 
ATOM     10  C   UNL A   1      32.297  24.295  25.239  1.00  0.00     0.051 A 
ATOM     11  C   UNL A   1      31.719  23.651  26.267  1.00  0.00     0.095 A 
ATOM     12  N   UNL A   1      31.619  25.224  24.474  1.00  0.00    -0.229 NA
ATOM     13  C   UNL A   1      30.315  23.948  26.590  1.00  0.00     0.251 A 
ATOM     14  O   UNL A   1      29.724  23.363  27.490  1.00  0.00    -0.269 OA
ATOM     15  N   UNL A   1      29.730  24.894  25.812  1.00  0.00    -0.301 N 
ATOM     16  H   UNL A   1      28.800  25.159  25.994  1.00  0.00     0.172 HD
BRANCH  10  17
ATOM     17  C   UNL A   1      33.754  24.079  24.818  1.00  0.00     0.032 C 
ATOM     18  C   UNL A   1      34.090  22.665  24.323  1.00  0.00     0.014 C 
ATOM     19  C   UNL A   1      34.170  25.090  23.739  1.00  0.00     0.014 C 
ENDBRANCH  10  17
ENDBRANCH   8   9
ENDBRANCH   7   8
ENDBRANCH   4   7
ENDBRANCH   2   3
ENDBRANCH   1   2
BRANCH   1  20
ATOM     20  C   UNL A   1      33.601  28.249  25.716  1.00  0.00     0.023 C 
BRANCH  20  21
ATOM     21  C   UNL A   1      33.561  28.461  27.226  1.00  0.00     0.116 C 
BRANCH  21  22
ATOM     22  N   UNL A   1      33.490  29.866  27.597  1.00  0.00    -0.352 N 
ATOM     23  C   UNL A   1      34.446  30.657  28.189  1.00  0.00     0.251 C 
ATOM     24  H   UNL A   1      32.636  30.314  27.395  1.00  0.00     0.163 HD
ATOM     25  O   UNL A   1      34.155  31.788  28.565  1.00  0.00    -0.269 OA
BRANCH  23  26
ATOM     26  C   UNL A   1      35.812  30.129  28.400  1.00  0.00     0.039 A 
ATOM     27  C   UNL A   1      36.712  30.135  27.331  1.00  0.00     0.014 A 
ATOM     28  C   UNL A   1      36.210  29.643  29.649  1.00  0.00     0.014 A 
ATOM     29  C   UNL A   1      38.032  29.722  27.534  1.00  0.00     0.010 A 
ATOM     30  C   UNL A   1      37.544  29.304  29.867  1.00  0.00     0.010 A 
ATOM     31  C   UNL A   1      38.471  29.341  28.814  1.00  0.00    -0.014 A 
BRANCH  31  32
ATOM     32  C   UNL A   1      39.893  28.994  29.072  1.00  0.00     0.031 A 
ATOM     33  C   UNL A   1      40.835  30.024  29.635  1.00  0.00     0.074 A 
ATOM     34  C   UNL A   1      40.353  27.771  28.735  1.00  0.00     0.049 A 
ATOM     35  N   UNL A   1      42.120  29.931  29.863  1.00  0.00    -0.248 NA
ATOM     36  C   UNL A   1      40.262  31.340  29.964  1.00  0.00     0.031 C 
ATOM     37  C   UNL A   1      39.551  26.700  28.139  1.00  0.00     0.029 A 
ATOM     38  N   UNL A   1      41.609  27.225  28.833  1.00  0.00    -0.354 N 
ATOM     39  C   UNL A   1      42.512  31.176  30.342  1.00  0.00     0.074 A 
ATOM     40  C   UNL A   1      41.340  32.022  30.327  1.00  0.00     0.031 C 
ATOM     41  C   UNL A   1      40.328  25.621  27.949  1.00  0.00     0.029 A 
ATOM     42  C   UNL A   1      41.691  25.935  28.364  1.00  0.00     0.049 A 
ATOM     43  H   UNL A   1      42.379  27.713  29.204  1.00  0.00     0.167 HD
ATOM     44  C   UNL A   1      43.735  31.572  30.772  1.00  0.00     0.037 A 
ATOM     45  C   UNL A   1      42.745  25.101  28.267  1.00  0.00     0.037 A 
ATOM     46  C   UNL A   1      44.892  30.715  30.808  1.00  0.00     0.049 A 
ATOM     47  C   UNL A   1      44.096  25.569  28.741  1.00  0.00     0.074 A 
ATOM     48  C   UNL A   1      46.156  31.001  31.293  1.00  0.00     0.029 A 
ATOM     49  N   UNL A   1      44.931  29.411  30.336  1.00  0.00    -0.354 N 
ATOM     50  N   UNL A   1      44.432  26.726  29.262  1.00  0.00    -0.248 NA
ATOM     51  C   UNL A   1      45.210  24.620  28.619  1.00  0.00     0.031 C 
ATOM     52  C   UNL A   1      46.975  29.890  31.061  1.00  0.00     0.029 A 
ATOM     53  C   UNL A   1      46.207  28.889  30.489  1.00  0.00     0.049 A 
ATOM     54  H   UNL A   1      44.167  28.926  29.949  1.00  0.00     0.167 HD
ATOM     55  C   UNL A   1      45.787  26.629  29.560  1.00  0.00     0.074 A 
ATOM     56  C   UNL A   1      46.206  25.299  29.171  1.00  0.00     0.031 C 
ATOM     57  C   UNL A   1      46.609  27.558  30.109  1.00  0.00     0.037 A 
BRANCH  44  58
ATOM     58  C   UNL A   1      43.891  32.994  31.238  1.00  0.00     0.058 A 
ATOM     59  C   UNL A   1      43.633  33.372  32.565  1.00  0.00     0.135 A 
ATOM     60  C   UNL A   1      44.358  33.984  30.357  1.00  0.00     0.135 A 
ATOM     61  F   UNL A   1      43.173  32.473  33.448  1.00  0.00    -0.206 F 
ATOM     62  C   UNL A   1      43.806  34.684  32.995  1.00  0.00     0.059 A 
ATOM     63  C   UNL A   1      44.568  35.295  30.772  1.00  0.00     0.059 A 
ATOM     64  F   UNL A   1      44.621  33.678  29.076  1.00  0.00    -0.206 F 
ATOM     65  C   UNL A   1      44.277  35.639  32.091  1.00  0.00     0.060 A 
BRANCH  65  66
ATOM     66  S   UNL A   1      44.509  37.332  32.671  1.00  0.00     0.124 S 
ATOM     67  O   UNL A   1      43.861  37.283  33.978  1.00  0.00    -0.237 OA
ATOM     68  O   UNL A   1      45.963  37.458  32.690  1.00  0.00    -0.237 OA
ATOM     69  O   UNL A   1      43.826  38.135  31.662  1.00  0.00    -0.744 OA
ENDBRANCH  65  66
ENDBRANCH  44  58
BRANCH  45  70
ATOM     70  C   UNL A   1      42.568  23.730  27.714  1.00  0.00     0.058 A 
ATOM     71  C   UNL A   1      42.468  22.616  28.561  1.00  0.00     0.135 A 
ATOM     72  C   UNL A   1      42.503  23.503  26.330  1.00  0.00     0.135 A 
ATOM     73  F   UNL A   1      42.533  22.780  29.892  1.00  0.00    -0.206 F 
ATOM     74  C   UNL A   1      42.334  21.326  28.060  1.00  0.00     0.059 A 
ATOM     75  C   UNL A   1      42.338  22.226  25.804  1.00  0.00     0.059 A 
ATOM     76  F   UNL A   1      42.577  24.535  25.474  1.00  0.00    -0.206 F 
ATOM     77  C   UNL A   1      42.269  21.140  26.678  1.00  0.00     0.060 A 
BRANCH  77  78
ATOM     78  S   UNL A   1      42.062  19.464  26.039  1.00  0.00     0.124 S 
ATOM     79  O   UNL A   1      42.491  18.661  27.177  1.00  0.00    -0.237 OA
ATOM     80  O   UNL A   1      40.635  19.429  25.732  1.00  0.00    -0.237 OA
ATOM     81  O   UNL A   1      42.946  19.437  24.877  1.00  0.00    -0.744 OA
ENDBRANCH  77  78
ENDBRANCH  45  70
BRANCH  57  82
ATOM     82  C   UNL A   1      48.037  27.160  30.366  1.00  0.00     0.058 A 
ATOM     83  C   UNL A   1      49.064  27.447  29.454  1.00  0.00     0.135 A 
ATOM     84  C   UNL A   1      48.391  26.532  31.573  1.00  0.00     0.135 A 
ATOM     85  F   UNL A   1      48.782  28.039  28.282  1.00  0.00    -0.206 F 
ATOM     86  C   UNL A   1      50.387  27.106  29.717  1.00  0.00     0.059 A 
ATOM     87  C   UNL A   1      49.711  26.211  31.871  1.00  0.00     0.059 A 
ATOM     88  F   UNL A   1      47.449  26.244  32.486  1.00  0.00    -0.206 F 
ATOM     89  C   UNL A   1      50.701  26.492  30.931  1.00  0.00     0.060 A 
BRANCH  89  90
ATOM     90  S   UNL A   1      52.427  26.092  31.278  1.00  0.00     0.124 S 
ATOM     91  O   UNL A   1      53.004  26.090  29.937  1.00  0.00    -0.237 OA
ATOM     92  O   UNL A   1      52.834  27.195  32.142  1.00  0.00    -0.237 OA
ATOM     93  O   UNL A   1      52.351  24.788  31.929  1.00  0.00    -0.744 OA
ENDBRANCH  89  90
ENDBRANCH  57  82
ENDBRANCH  31  32
ENDBRANCH  23  26
ENDBRANCH  21  22
ENDBRANCH  20  21
ENDBRANCH   1  20
TORSDOF 17
ENDMDL
MODEL 2
REMARK VINA RESULT:     -10.7      4.982     10.637
REMARK SMILES CC(C)c1cc(=O)[nH]c(SCC(=O)NCCCCNC(=O)c2ccc(-c3c4nc(c(-c5c(F)cc(S(=O)(=O)[O-])cc5F)c5ccc([nH]5)c(-c5c(F)cc(S(=O)(=O)[O-])cc5F)c5nc(c(-c6c(F)cc(S(=O)(=O)[O-])cc6F)c6ccc3[nH]6)C=C5)C=C4)cc2)n1
REMARK SMILES IDX 16 1 15 2 14 3 12 4 13 5 11 7 10 8 9 9 4 10 5 11 88 12 6 13
REMARK SMILES IDX 7 14 8 15 2 17 1 18 3 19 17 20 18 21 19 22 20 23 21 25 22 26
REMARK SMILES IDX 23 27 87 28 24 29 86 30 25 31 26 32 27 33 80 34 28 35 85 36
REMARK SMILES IDX 79 37 81 38 29 39 84 40 78 41 77 42 30 44 64 45 43 46 63 47
REMARK SMILES IDX 44 48 47 49 62 50 82 51 45 52 46 53 61 55 83 56 48 57 31 58
REMARK SMILES IDX 32 59 41 60 33 61 34 62 40 63 42 64 35 65 36 66 37 67 38 68
REMARK SMILES IDX 39 69 65 70 66 71 75 72 67 73 68 74 74 75 76 76 69 77 70 78
REMARK SMILES IDX 71 79 72 80 73 81 49 82 50 83 59 84 51 85 52 86 58 87 60 88
REMARK SMILES IDX 53 89 54 90 55 91 56 92 57 93
REMARK H PARENT 14 6 8 16 19 24 81 43 47 54
REMARK Flexibility Score: inf
ROOT
ATOM      1  C   UNL A   1      36.016  24.068  25.408  1.00  0.00     0.023 C 
ENDROOT
BRANCH   1   2
ATOM      2  C   UNL A   1      35.120  23.251  26.339  1.00  0.00     0.116 C 
BRANCH   2   3
ATOM      3  N   UNL A   1      34.668  22.030  25.703  1.00  0.00    -0.355 N 
ATOM      4  C   UNL A   1      33.413  21.511  25.586  1.00  0.00     0.230 C 
ATOM      5  O   UNL A   1      33.289  20.463  24.945  1.00  0.00    -0.274 OA
ATOM      6  H   UNL A   1      35.380  21.490  25.290  1.00  0.00     0.163 HD
BRANCH   4   7
ATOM      7  C   UNL A   1      32.199  22.264  26.102  1.00  0.00     0.178 C 
BRANCH   7   8
ATOM      8  S   UNL A   1      31.266  23.175  24.847  1.00  0.00    -0.078 SA
BRANCH   8   9
ATOM      9  C   UNL A   1      32.210  24.613  24.664  1.00  0.00     0.168 A 
ATOM     10  C   UNL A   1      33.134  26.598  25.307  1.00  0.00     0.051 A 
ATOM     11  C   UNL A   1      33.692  26.794  24.099  1.00  0.00     0.095 A 
ATOM     12  N   UNL A   1      32.365  25.487  25.593  1.00  0.00    -0.229 NA
ATOM     13  C   UNL A   1      33.476  25.788  23.048  1.00  0.00     0.251 A 
ATOM     14  O   UNL A   1      33.925  25.933  21.917  1.00  0.00    -0.269 OA
ATOM     15  N   UNL A   1      32.736  24.713  23.419  1.00  0.00    -0.301 N 
ATOM     16  H   UNL A   1      32.579  23.990  22.769  1.00  0.00     0.172 HD
BRANCH  10  17
ATOM     17  C   UNL A   1      33.299  27.567  26.481  1.00  0.00     0.032 C 
ATOM     18  C   UNL A   1      34.120  28.829  26.179  1.00  0.00     0.014 C 
ATOM     19  C   UNL A   1      31.933  27.991  27.040  1.00  0.00     0.014 C 
ENDBRANCH  10  17
ENDBRANCH   8   9
ENDBRANCH   7   8
ENDBRANCH   4   7
ENDBRANCH   2   3
ENDBRANCH   1   2
BRANCH   1  20
ATOM     20  C   UNL A   1      37.471  23.593  25.348  1.00  0.00     0.023 C 
BRANCH  20  21
ATOM     21  C   UNL A   1      38.370  24.101  26.471  1.00  0.00     0.116 C 
BRANCH  21  22
ATOM     22  N   UNL A   1      39.784  23.901  26.196  1.00  0.00    -0.352 N 
ATOM     23  C   UNL A   1      40.863  24.642  26.615  1.00  0.00     0.251 C 
ATOM     24  H   UNL A   1      39.999  23.124  25.630  1.00  0.00     0.163 HD
ATOM     25  O   UNL A   1      41.978  24.408  26.159  1.00  0.00    -0.269 OA
BRANCH  23  26
ATOM     26  C   UNL A   1      40.670  25.741  27.588  1.00  0.00     0.039 A 
ATOM     27  C   UNL A   1      39.669  25.620  28.555  1.00  0.00     0.014 A 
ATOM     28  C   UNL A   1      41.482  26.879  27.556  1.00  0.00     0.014 A 
ATOM     29  C   UNL A   1      39.529  26.606  29.535  1.00  0.00     0.010 A 
ATOM     30  C   UNL A   1      41.390  27.822  28.578  1.00  0.00     0.010 A 
ATOM     31  C   UNL A   1      40.415  27.697  29.579  1.00  0.00    -0.014 A 
BRANCH  31  32
ATOM     32  C   UNL A   1      40.347  28.704  30.671  1.00  0.00     0.031 A 
ATOM     33  C   UNL A   1      41.233  28.572  31.880  1.00  0.00     0.074 A 
ATOM     34  C   UNL A   1      39.439  29.700  30.604  1.00  0.00     0.049 A 
ATOM     35  N   UNL A   1      41.268  29.308  32.961  1.00  0.00    -0.248 NA
ATOM     36  C   UNL A   1      42.187  27.452  31.888  1.00  0.00     0.031 C 
ATOM     37  C   UNL A   1      38.492  29.909  29.506  1.00  0.00     0.029 A 
ATOM     38  N   UNL A   1      39.153  30.715  31.482  1.00  0.00    -0.354 N 
ATOM     39  C   UNL A   1      42.231  28.732  33.782  1.00  0.00     0.074 A 
ATOM     40  C   UNL A   1      42.722  27.558  33.096  1.00  0.00     0.031 C 
ATOM     41  C   UNL A   1      37.750  30.998  29.765  1.00  0.00     0.029 A 
ATOM     42  C   UNL A   1      38.133  31.539  31.065  1.00  0.00     0.049 A 
ATOM     43  H   UNL A   1      39.634  30.842  32.332  1.00  0.00     0.167 HD
ATOM     44  C   UNL A   1      42.678  29.154  34.990  1.00  0.00     0.037 A 
ATOM     45  C   UNL A   1      37.561  32.600  31.666  1.00  0.00     0.037 A 
ATOM     46  C   UNL A   1      42.203  30.340  35.655  1.00  0.00     0.049 A 
ATOM     47  C   UNL A   1      38.068  33.042  33.013  1.00  0.00     0.074 A 
ATOM     48  C   UNL A   1      42.643  30.891  36.846  1.00  0.00     0.029 A 
ATOM     49  N   UNL A   1      41.178  31.153  35.195  1.00  0.00    -0.354 N 
ATOM     50  N   UNL A   1      39.032  32.529  33.740  1.00  0.00    -0.248 NA
ATOM     51  C   UNL A   1      37.414  34.209  33.621  1.00  0.00     0.031 C 
ATOM     52  C   UNL A   1      41.846  32.003  37.135  1.00  0.00     0.029 A 
ATOM     53  C   UNL A   1      40.950  32.184  36.094  1.00  0.00     0.049 A 
ATOM     54  H   UNL A   1      40.684  31.020  34.354  1.00  0.00     0.167 HD
ATOM     55  C   UNL A   1      39.122  33.330  34.873  1.00  0.00     0.074 A 
ATOM     56  C   UNL A   1      38.122  34.368  34.730  1.00  0.00     0.031 C 
ATOM     57  C   UNL A   1      39.959  33.219  35.935  1.00  0.00     0.037 A 
BRANCH  44  58
ATOM     58  C   UNL A   1      43.735  28.331  35.677  1.00  0.00     0.058 A 
ATOM     59  C   UNL A   1      45.104  28.568  35.479  1.00  0.00     0.135 A 
ATOM     60  C   UNL A   1      43.372  27.325  36.588  1.00  0.00     0.135 A 
ATOM     61  F   UNL A   1      45.510  29.507  34.611  1.00  0.00    -0.206 F 
ATOM     62  C   UNL A   1      46.075  27.821  36.139  1.00  0.00     0.059 A 
ATOM     63  C   UNL A   1      44.325  26.586  37.282  1.00  0.00     0.059 A 
ATOM     64  F   UNL A   1      42.076  27.055  36.816  1.00  0.00    -0.206 F 
ATOM     65  C   UNL A   1      45.675  26.833  37.041  1.00  0.00     0.060 A 
BRANCH  65  66
ATOM     66  S   UNL A   1      46.948  25.884  37.899  1.00  0.00     0.124 S 
ATOM     67  O   UNL A   1      46.374  24.542  37.878  1.00  0.00    -0.237 OA
ATOM     68  O   UNL A   1      48.115  26.086  37.046  1.00  0.00    -0.237 OA
ATOM     69  O   UNL A   1      47.018  26.515  39.213  1.00  0.00    -0.744 OA
ENDBRANCH  65  66
ENDBRANCH  44  58
BRANCH  45  70
ATOM     70  C   UNL A   1      36.453  33.335  30.994  1.00  0.00     0.058 A 
ATOM     71  C   UNL A   1      35.132  33.231  31.456  1.00  0.00     0.135 A 
ATOM     72  C   UNL A   1      36.689  34.148  29.874  1.00  0.00     0.135 A 
ATOM     73  F   UNL A   1      34.853  32.459  32.518  1.00  0.00    -0.206 F 
ATOM     74  C   UNL A   1      34.082  33.885  30.820  1.00  0.00     0.059 A 
ATOM     75  C   UNL A   1      35.661  34.837  29.240  1.00  0.00     0.059 A 
ATOM     76  F   UNL A   1      37.937  34.297  29.401  1.00  0.00    -0.206 F 
ATOM     77  C   UNL A   1      34.357  34.688  29.712  1.00  0.00     0.060 A 
BRANCH  77  78
ATOM     78  S   UNL A   1      32.990  35.559  28.915  1.00  0.00     0.124 S 
ATOM     79  O   UNL A   1      32.242  36.048  30.067  1.00  0.00    -0.237 OA
ATOM     80  O   UNL A   1      33.691  36.572  28.131  1.00  0.00    -0.237 OA
ATOM     81  O   UNL A   1      32.336  34.514  28.134  1.00  0.00    -0.744 OA
ENDBRANCH  77  78
ENDBRANCH  45  70
BRANCH  57  82
ATOM     82  C   UNL A   1      39.865  34.267  37.010  1.00  0.00     0.058 A 
ATOM     83  C   UNL A   1      40.462  35.530  36.870  1.00  0.00     0.135 A 
ATOM     84  C   UNL A   1      39.116  34.024  38.173  1.00  0.00     0.135 A 
ATOM     85  F   UNL A   1      41.196  35.814  35.782  1.00  0.00    -0.206 F 
ATOM     86  C   UNL A   1      40.340  36.505  37.855  1.00  0.00     0.059 A 
ATOM     87  C   UNL A   1      38.953  34.995  39.156  1.00  0.00     0.059 A 
ATOM     88  F   UNL A   1      38.515  32.836  38.354  1.00  0.00    -0.206 F 
ATOM     89  C   UNL A   1      39.579  36.229  38.992  1.00  0.00     0.060 A 
BRANCH  89  90
ATOM     90  S   UNL A   1      39.394  37.518  40.243  1.00  0.00     0.124 S 
ATOM     91  O   UNL A   1      38.734  36.789  41.322  1.00  0.00    -0.237 OA
ATOM     92  O   UNL A   1      40.778  37.907  40.495  1.00  0.00    -0.237 OA
ATOM     93  O   UNL A   1      38.577  38.527  39.576  1.00  0.00    -0.744 OA
ENDBRANCH  89  90
ENDBRANCH  57  82
ENDBRANCH  31  32
ENDBRANCH  23  26
ENDBRANCH  21  22
ENDBRANCH  20  21
ENDBRANCH   1  20
TORSDOF 17
ENDMDL
MODEL 3
REMARK VINA RESULT:     -10.5      1.387      2.737
REMARK SMILES CC(C)c1cc(=O)[nH]c(SCC(=O)NCCCCNC(=O)c2ccc(-c3c4nc(c(-c5c(F)cc(S(=O)(=O)[O-])cc5F)c5ccc([nH]5)c(-c5c(F)cc(S(=O)(=O)[O-])cc5F)c5nc(c(-c6c(F)cc(S(=O)(=O)[O-])cc6F)c6ccc3[nH]6)C=C5)C=C4)cc2)n1
REMARK SMILES IDX 16 1 15 2 14 3 12 4 13 5 11 7 10 8 9 9 4 10 5 11 88 12 6 13
REMARK SMILES IDX 7 14 8 15 2 17 1 18 3 19 17 20 18 21 19 22 20 23 21 25 22 26
REMARK SMILES IDX 23 27 87 28 24 29 86 30 25 31 26 32 27 33 80 34 28 35 85 36
REMARK SMILES IDX 79 37 81 38 29 39 84 40 78 41 77 42 30 44 64 45 43 46 63 47
REMARK SMILES IDX 44 48 47 49 62 50 82 51 45 52 46 53 61 55 83 56 48 57 31 58
REMARK SMILES IDX 32 59 41 60 33 61 34 62 40 63 42 64 35 65 36 66 37 67 38 68
REMARK SMILES IDX 39 69 65 70 66 71 75 72 67 73 68 74 74 75 76 76 69 77 70 78
REMARK SMILES IDX 71 79 72 80 73 81 49 82 50 83 59 84 51 85 52 86 58 87 60 88
REMARK SMILES IDX 53 89 54 90 55 91 56 92 57 93
REMARK H PARENT 14 6 8 16 19 24 81 43 47 54
REMARK Flexibility Score: inf
ROOT
ATOM      1  C   UNL A   1      33.658  26.495  25.284  1.00  0.00     0.023 C 
ENDROOT
BRANCH   1   2
ATOM      2  C   UNL A   1      34.395  25.365  26.004  1.00  0.00     0.116 C 
BRANCH   2   3
ATOM      3  N   UNL A   1      35.025  24.459  25.063  1.00  0.00    -0.355 N 
ATOM      4  C   UNL A   1      34.600  23.258  24.579  1.00  0.00     0.230 C 
ATOM      5  O   UNL A   1      35.312  22.701  23.738  1.00  0.00    -0.274 OA
ATOM      6  H   UNL A   1      35.898  24.759  24.720  1.00  0.00     0.163 HD
BRANCH   4   7
ATOM      7  C   UNL A   1      33.238  22.697  24.951  1.00  0.00     0.178 C 
BRANCH   7   8
ATOM      8  S   UNL A   1      32.096  22.462  23.566  1.00  0.00    -0.078 SA
BRANCH   8   9
ATOM      9  C   UNL A   1      31.855  24.084  23.015  1.00  0.00     0.168 A 
ATOM     10  C   UNL A   1      31.017  26.206  23.075  1.00  0.00     0.051 A 
ATOM     11  C   UNL A   1      31.602  26.530  21.909  1.00  0.00     0.095 A 
ATOM     12  N   UNL A   1      31.137  24.949  23.636  1.00  0.00    -0.229 NA
ATOM     13  C   UNL A   1      32.398  25.512  21.208  1.00  0.00     0.251 A 
ATOM     14  O   UNL A   1      32.920  25.737  20.123  1.00  0.00    -0.269 OA
ATOM     15  N   UNL A   1      32.492  24.315  21.840  1.00  0.00    -0.301 N 
ATOM     16  H   UNL A   1      33.034  23.598  21.437  1.00  0.00     0.172 HD
BRANCH  10  17
ATOM     17  C   UNL A   1      30.177  27.184  23.901  1.00  0.00     0.032 C 
ATOM     18  C   UNL A   1      30.624  28.652  23.832  1.00  0.00     0.014 C 
ATOM     19  C   UNL A   1      28.694  27.103  23.507  1.00  0.00     0.014 C 
ENDBRANCH  10  17
ENDBRANCH   8   9
ENDBRANCH   7   8
ENDBRANCH   4   7
ENDBRANCH   2   3
ENDBRANCH   1   2
BRANCH   1  20
ATOM     20  C   UNL A   1      33.986  27.898  25.804  1.00  0.00     0.023 C 
BRANCH  20  21
ATOM     21  C   UNL A   1      33.547  28.182  27.237  1.00  0.00     0.116 C 
BRANCH  21  22
ATOM     22  N   UNL A   1      33.458  29.604  27.528  1.00  0.00    -0.352 N 
ATOM     23  C   UNL A   1      34.408  30.443  28.059  1.00  0.00     0.251 C 
ATOM     24  H   UNL A   1      32.593  30.026  27.315  1.00  0.00     0.163 HD
ATOM     25  O   UNL A   1      34.103  31.589  28.375  1.00  0.00    -0.269 OA
BRANCH  23  26
ATOM     26  C   UNL A   1      35.787  29.951  28.279  1.00  0.00     0.039 A 
ATOM     27  C   UNL A   1      36.705  30.021  27.227  1.00  0.00     0.014 A 
ATOM     28  C   UNL A   1      36.177  29.436  29.518  1.00  0.00     0.014 A 
ATOM     29  C   UNL A   1      38.033  29.642  27.441  1.00  0.00     0.010 A 
ATOM     30  C   UNL A   1      37.517  29.131  29.749  1.00  0.00     0.010 A 
ATOM     31  C   UNL A   1      38.460  29.232  28.716  1.00  0.00    -0.014 A 
BRANCH  31  32
ATOM     32  C   UNL A   1      39.888  28.920  28.989  1.00  0.00     0.031 A 
ATOM     33  C   UNL A   1      40.798  29.973  29.564  1.00  0.00     0.074 A 
ATOM     34  C   UNL A   1      40.382  27.710  28.655  1.00  0.00     0.049 A 
ATOM     35  N   UNL A   1      42.082  29.912  29.805  1.00  0.00    -0.248 NA
ATOM     36  C   UNL A   1      40.189  31.273  29.888  1.00  0.00     0.031 C 
ATOM     37  C   UNL A   1      39.614  26.620  28.049  1.00  0.00     0.029 A 
ATOM     38  N   UNL A   1      41.651  27.195  28.766  1.00  0.00    -0.354 N 
ATOM     39  C   UNL A   1      42.438  31.165  30.290  1.00  0.00     0.074 A 
ATOM     40  C   UNL A   1      41.244  31.982  30.264  1.00  0.00     0.031 C 
ATOM     41  C   UNL A   1      40.420  25.562  27.866  1.00  0.00     0.029 A 
ATOM     42  C   UNL A   1      41.770  25.908  28.297  1.00  0.00     0.049 A 
ATOM     43  H   UNL A   1      42.404  27.702  29.147  1.00  0.00     0.167 HD
ATOM     44  C   UNL A   1      43.645  31.591  30.734  1.00  0.00     0.037 A 
ATOM     45  C   UNL A   1      42.846  25.102  28.210  1.00  0.00     0.037 A 
ATOM     46  C   UNL A   1      44.824  30.763  30.782  1.00  0.00     0.049 A 
ATOM     47  C   UNL A   1      44.180  25.603  28.699  1.00  0.00     0.074 A 
ATOM     48  C   UNL A   1      46.075  31.080  31.281  1.00  0.00     0.029 A 
ATOM     49  N   UNL A   1      44.900  29.462  30.308  1.00  0.00    -0.354 N 
ATOM     50  N   UNL A   1      44.480  26.767  29.225  1.00  0.00    -0.248 NA
ATOM     51  C   UNL A   1      45.319  24.682  28.588  1.00  0.00     0.031 C 
ATOM     52  C   UNL A   1      46.924  29.991  31.056  1.00  0.00     0.029 A 
ATOM     53  C   UNL A   1      46.187  28.972  30.474  1.00  0.00     0.049 A 
ATOM     54  H   UNL A   1      44.153  28.959  29.912  1.00  0.00     0.167 HD
ATOM     55  C   UNL A   1      45.834  26.704  29.538  1.00  0.00     0.074 A 
ATOM     56  C   UNL A   1      46.290  25.385  29.152  1.00  0.00     0.031 C 
ATOM     57  C   UNL A   1      46.627  27.652  30.097  1.00  0.00     0.037 A 
BRANCH  44  58
ATOM     58  C   UNL A   1      43.761  33.016  31.204  1.00  0.00     0.058 A 
ATOM     59  C   UNL A   1      43.534  33.377  32.542  1.00  0.00     0.135 A 
ATOM     60  C   UNL A   1      44.156  34.028  30.313  1.00  0.00     0.135 A 
ATOM     61  F   UNL A   1      43.141  32.455  33.434  1.00  0.00    -0.206 F 
ATOM     62  C   UNL A   1      43.670  34.693  32.974  1.00  0.00     0.059 A 
ATOM     63  C   UNL A   1      44.328  35.345  30.730  1.00  0.00     0.059 A 
ATOM     64  F   UNL A   1      44.386  33.741  29.022  1.00  0.00    -0.206 F 
ATOM     65  C   UNL A   1      44.070  35.670  32.060  1.00  0.00     0.060 A 
BRANCH  65  66
ATOM     66  S   UNL A   1      44.254  37.368  32.643  1.00  0.00     0.124 S 
ATOM     67  O   UNL A   1      43.186  37.453  33.635  1.00  0.00    -0.237 OA
ATOM     68  O   UNL A   1      45.613  37.369  33.175  1.00  0.00    -0.237 OA
ATOM     69  O   UNL A   1      44.054  38.166  31.437  1.00  0.00    -0.744 OA
ENDBRANCH  65  66
ENDBRANCH  44  58
BRANCH  45  70
ATOM     70  C   UNL A   1      42.710  23.728  27.653  1.00  0.00     0.058 A 
ATOM     71  C   UNL A   1      42.870  23.485  26.280  1.00  0.00     0.135 A 
ATOM     72  C   UNL A   1      42.410  22.631  28.477  1.00  0.00     0.135 A 
ATOM     73  F   UNL A   1      43.150  24.502  25.449  1.00  0.00    -0.206 F 
ATOM     74  C   UNL A   1      42.715  22.213  25.740  1.00  0.00     0.059 A 
ATOM     75  C   UNL A   1      42.280  21.344  27.965  1.00  0.00     0.059 A 
ATOM     76  F   UNL A   1      42.263  22.804  29.800  1.00  0.00    -0.206 F 
ATOM     77  C   UNL A   1      42.421  21.147  26.591  1.00  0.00     0.060 A 
BRANCH  77  78
ATOM     78  S   UNL A   1      42.254  19.494  25.883  1.00  0.00     0.124 S 
ATOM     79  O   UNL A   1      40.830  19.449  25.576  1.00  0.00    -0.237 OA
ATOM     80  O   UNL A   1      43.155  19.562  24.736  1.00  0.00    -0.237 OA
ATOM     81  O   UNL A   1      42.695  18.620  26.966  1.00  0.00    -0.744 OA
ENDBRANCH  77  78
ENDBRANCH  45  70
BRANCH  57  82
ATOM     82  C   UNL A   1      48.061  27.290  30.369  1.00  0.00     0.058 A 
ATOM     83  C   UNL A   1      49.082  27.550  29.442  1.00  0.00     0.135 A 
ATOM     84  C   UNL A   1      48.428  26.725  31.603  1.00  0.00     0.135 A 
ATOM     85  F   UNL A   1      48.788  28.082  28.245  1.00  0.00    -0.206 F 
ATOM     86  C   UNL A   1      50.411  27.243  29.718  1.00  0.00     0.059 A 
ATOM     87  C   UNL A   1      49.753  26.440  31.913  1.00  0.00     0.059 A 
ATOM     88  F   UNL A   1      47.492  26.464  32.531  1.00  0.00    -0.206 F 
ATOM     89  C   UNL A   1      50.737  26.693  30.959  1.00  0.00     0.060 A 
BRANCH  89  90
ATOM     90  S   UNL A   1      52.470  26.337  31.320  1.00  0.00     0.124 S 
ATOM     91  O   UNL A   1      52.376  25.027  31.956  1.00  0.00    -0.237 OA
ATOM     92  O   UNL A   1      53.074  26.355  29.991  1.00  0.00    -0.237 OA
ATOM     93  O   UNL A   1      52.867  27.434  32.197  1.00  0.00    -0.744 OA
ENDBRANCH  89  90
ENDBRANCH  57  82
ENDBRANCH  31  32
ENDBRANCH  23  26
ENDBRANCH  21  22
ENDBRANCH  20  21
ENDBRANCH   1  20
TORSDOF 17
ENDMDL
