MODEL 1
REMARK VINA RESULT:     -11.7      0.000      0.000
REMARK SMILES COc1ncccc1CC1(C(=O)NCCCCNC(=O)c2ccc(-c3c4nc(c(-c5c(F)cc(S(=O)(=O)[O-])cc5F)c5ccc([nH]5)c(-c5c(F)cc(S(=O)(=O)[O-])cc5F)c5nc(c(-c6c(F)cc(S(=O)(=O)[O-])cc6F)c6ccc3[nH]6)C=C5)C=C4)cc2)CCC(C)(C)CC1
REMARK SMILES IDX 15 1 14 2 13 3 11 4 12 5 10 7 87 8 93 9 88 10 92 11 89 12
REMARK SMILES IDX 90 13 91 14 9 15 8 16 3 17 4 18 5 19 7 20 6 21 2 22 1 23
REMARK SMILES IDX 16 24 17 25 18 26 19 27 20 29 21 30 22 31 86 32 23 33 85 34
REMARK SMILES IDX 24 35 25 36 26 37 79 38 27 39 84 40 78 41 80 42 28 43 83 44
REMARK SMILES IDX 77 45 76 46 29 48 63 49 42 50 62 51 43 52 46 53 61 54 81 55
REMARK SMILES IDX 44 56 45 57 60 59 82 60 47 61 30 62 31 63 40 64 32 65 33 66
REMARK SMILES IDX 39 67 41 68 34 69 35 70 36 71 37 72 38 73 64 74 65 75 74 76
REMARK SMILES IDX 66 77 67 78 73 79 75 80 68 81 69 82 70 83 71 84 72 85 48 86
REMARK SMILES IDX 49 87 58 88 50 89 51 90 57 91 59 92 52 93 53 94 54 95 55 96
REMARK SMILES IDX 56 97
REMARK H PARENT 13 6 18 28 80 47 46 58
REMARK Flexibility Score: inf
ROOT
ATOM      1  C   UNL A   1      32.472  28.906  24.798  1.00  0.00     0.023 C 
ENDROOT
BRANCH   1   2
ATOM      2  C   UNL A   1      31.770  28.077  23.720  1.00  0.00     0.116 C 
BRANCH   2   3
ATOM      3  N   UNL A   1      32.711  27.530  22.769  1.00  0.00    -0.356 N 
ATOM      4  C   UNL A   1      33.249  26.294  22.604  1.00  0.00     0.226 C 
ATOM      5  O   UNL A   1      34.045  26.215  21.660  1.00  0.00    -0.274 OA
ATOM      6  H   UNL A   1      33.027  28.186  22.108  1.00  0.00     0.163 HD
BRANCH   4   7
ATOM      7  C   UNL A   1      32.877  25.029  23.461  1.00  0.00     0.053 C 
ATOM      8  C   UNL A   1      31.398  24.676  23.166  1.00  0.00     0.018 C 
ATOM      9  C   UNL A   1      33.079  25.293  24.967  1.00  0.00     0.018 C 
ATOM     10  C   UNL A   1      30.667  23.779  24.178  1.00  0.00     0.007 C 
ATOM     11  C   UNL A   1      32.451  24.280  25.920  1.00  0.00     0.007 C 
ATOM     12  C   UNL A   1      30.954  24.032  25.672  1.00  0.00    -0.035 C 
ATOM     13  C   UNL A   1      30.535  22.785  26.481  1.00  0.00     0.011 C 
ATOM     14  C   UNL A   1      30.109  25.210  26.189  1.00  0.00     0.011 C 
BRANCH   7  15
ATOM     15  C   UNL A   1      33.887  23.926  22.920  1.00  0.00     0.058 C 
BRANCH  15  16
ATOM     16  C   UNL A   1      34.745  23.138  23.872  1.00  0.00     0.015 A 
ATOM     17  C   UNL A   1      34.440  21.829  24.253  1.00  0.00     0.216 A 
ATOM     18  N   UNL A   1      35.246  21.046  25.005  1.00  0.00    -0.222 NA
ATOM     19  C   UNL A   1      36.394  21.609  25.441  1.00  0.00     0.115 A 
ATOM     20  C   UNL A   1      35.892  23.704  24.432  1.00  0.00     0.011 A 
ATOM     21  C   UNL A   1      36.743  22.929  25.211  1.00  0.00     0.021 A 
BRANCH  17  22
ATOM     22  O   UNL A   1      33.170  21.357  24.035  1.00  0.00    -0.481 OA
ATOM     23  C   UNL A   1      32.806  20.341  24.957  1.00  0.00     0.280 C 
ENDBRANCH  17  22
ENDBRANCH  15  16
ENDBRANCH   7  15
ENDBRANCH   4   7
ENDBRANCH   2   3
ENDBRANCH   1   2
BRANCH   1  24
ATOM     24  C   UNL A   1      32.473  28.284  26.191  1.00  0.00     0.023 C 
BRANCH  24  25
ATOM     25  C   UNL A   1      33.644  28.690  27.072  1.00  0.00     0.116 C 
BRANCH  25  26
ATOM     26  N   UNL A   1      33.508  30.016  27.657  1.00  0.00    -0.352 N 
ATOM     27  C   UNL A   1      34.465  30.726  28.348  1.00  0.00     0.251 C 
ATOM     28  H   UNL A   1      32.633  30.454  27.547  1.00  0.00     0.163 HD
ATOM     29  O   UNL A   1      34.200  31.802  28.863  1.00  0.00    -0.269 OA
BRANCH  27  30
ATOM     30  C   UNL A   1      35.805  30.123  28.487  1.00  0.00     0.039 A 
ATOM     31  C   UNL A   1      36.674  30.148  27.395  1.00  0.00     0.014 A 
ATOM     32  C   UNL A   1      36.225  29.639  29.728  1.00  0.00     0.014 A 
ATOM     33  C   UNL A   1      38.000  29.751  27.570  1.00  0.00     0.010 A 
ATOM     34  C   UNL A   1      37.562  29.316  29.916  1.00  0.00     0.010 A 
ATOM     35  C   UNL A   1      38.463  29.372  28.841  1.00  0.00    -0.014 A 
BRANCH  35  36
ATOM     36  C   UNL A   1      39.881  29.012  29.077  1.00  0.00     0.031 A 
ATOM     37  C   UNL A   1      40.825  30.048  29.622  1.00  0.00     0.074 A 
ATOM     38  C   UNL A   1      40.335  27.792  28.726  1.00  0.00     0.049 A 
ATOM     39  N   UNL A   1      42.121  29.987  29.774  1.00  0.00    -0.248 NA
ATOM     40  C   UNL A   1      40.232  31.338  30.015  1.00  0.00     0.031 C 
ATOM     41  C   UNL A   1      39.522  26.718  28.150  1.00  0.00     0.029 A 
ATOM     42  N   UNL A   1      41.596  27.256  28.786  1.00  0.00    -0.354 N 
ATOM     43  C   UNL A   1      42.501  31.231  30.265  1.00  0.00     0.074 A 
ATOM     44  C   UNL A   1      41.307  32.044  30.330  1.00  0.00     0.031 C 
ATOM     45  C   UNL A   1      40.302  25.646  27.929  1.00  0.00     0.029 A 
ATOM     46  C   UNL A   1      41.675  25.969  28.309  1.00  0.00     0.049 A 
ATOM     47  H   UNL A   1      42.373  27.747  29.140  1.00  0.00     0.167 HD
ATOM     48  C   UNL A   1      43.730  31.648  30.649  1.00  0.00     0.037 A 
ATOM     49  C   UNL A   1      42.735  25.148  28.184  1.00  0.00     0.037 A 
ATOM     50  C   UNL A   1      44.906  30.823  30.611  1.00  0.00     0.049 A 
ATOM     51  C   UNL A   1      44.091  25.635  28.620  1.00  0.00     0.074 A 
ATOM     52  C   UNL A   1      46.193  31.138  31.011  1.00  0.00     0.029 A 
ATOM     53  N   UNL A   1      44.937  29.513  30.157  1.00  0.00    -0.354 N 
ATOM     54  N   UNL A   1      44.428  26.804  29.113  1.00  0.00    -0.248 NA
ATOM     55  C   UNL A   1      45.213  24.694  28.485  1.00  0.00     0.031 C 
ATOM     56  C   UNL A   1      47.007  30.026  30.774  1.00  0.00     0.029 A 
ATOM     57  C   UNL A   1      46.220  29.006  30.262  1.00  0.00     0.049 A 
ATOM     58  H   UNL A   1      44.160  29.017  29.810  1.00  0.00     0.167 HD
ATOM     59  C   UNL A   1      45.790  26.725  29.381  1.00  0.00     0.074 A 
ATOM     60  C   UNL A   1      46.215  25.395  28.996  1.00  0.00     0.031 C 
ATOM     61  C   UNL A   1      46.614  27.668  29.898  1.00  0.00     0.037 A 
BRANCH  48  62
ATOM     62  C   UNL A   1      43.852  33.056  31.159  1.00  0.00     0.058 A 
ATOM     63  C   UNL A   1      44.010  34.141  30.281  1.00  0.00     0.135 A 
ATOM     64  C   UNL A   1      43.794  33.330  32.535  1.00  0.00     0.135 A 
ATOM     65  F   UNL A   1      44.091  33.934  28.957  1.00  0.00    -0.206 F 
ATOM     66  C   UNL A   1      44.141  35.444  30.750  1.00  0.00     0.059 A 
ATOM     67  C   UNL A   1      43.895  34.628  33.025  1.00  0.00     0.059 A 
ATOM     68  F   UNL A   1      43.647  32.330  33.417  1.00  0.00    -0.206 F 
ATOM     69  C   UNL A   1      44.085  35.677  32.125  1.00  0.00     0.060 A 
BRANCH  69  70
ATOM     70  S   UNL A   1      44.260  37.373  32.718  1.00  0.00     0.124 S 
ATOM     71  O   UNL A   1      43.140  37.470  33.649  1.00  0.00    -0.237 OA
ATOM     72  O   UNL A   1      45.587  37.358  33.324  1.00  0.00    -0.237 OA
ATOM     73  O   UNL A   1      44.137  38.171  31.503  1.00  0.00    -0.744 OA
ENDBRANCH  69  70
ENDBRANCH  48  62
BRANCH  49  74
ATOM     74  C   UNL A   1      42.560  23.773  27.648  1.00  0.00     0.058 A 
ATOM     75  C   UNL A   1      42.421  22.678  28.513  1.00  0.00     0.135 A 
ATOM     76  C   UNL A   1      42.532  23.522  26.267  1.00  0.00     0.135 A 
ATOM     77  F   UNL A   1      42.445  22.866  29.841  1.00  0.00    -0.206 F 
ATOM     78  C   UNL A   1      42.285  21.380  28.032  1.00  0.00     0.059 A 
ATOM     79  C   UNL A   1      42.375  22.235  25.761  1.00  0.00     0.059 A 
ATOM     80  F   UNL A   1      42.643  24.537  25.396  1.00  0.00    -0.206 F 
ATOM     81  C   UNL A   1      42.265  21.168  26.652  1.00  0.00     0.060 A 
BRANCH  81  82
ATOM     82  S   UNL A   1      42.057  19.483  26.037  1.00  0.00     0.124 S 
ATOM     83  O   UNL A   1      42.566  18.699  27.156  1.00  0.00    -0.237 OA
ATOM     84  O   UNL A   1      40.618  19.413  25.809  1.00  0.00    -0.237 OA
ATOM     85  O   UNL A   1      42.876  19.466  24.828  1.00  0.00    -0.744 OA
ENDBRANCH  81  82
ENDBRANCH  49  74
BRANCH  61  86
ATOM     86  C   UNL A   1      48.048  27.285  30.130  1.00  0.00     0.058 A 
ATOM     87  C   UNL A   1      49.062  27.635  29.227  1.00  0.00     0.135 A 
ATOM     88  C   UNL A   1      48.417  26.621  31.312  1.00  0.00     0.135 A 
ATOM     89  F   UNL A   1      48.756  28.263  28.081  1.00  0.00    -0.206 F 
ATOM     90  C   UNL A   1      50.394  27.331  29.481  1.00  0.00     0.059 A 
ATOM     91  C   UNL A   1      49.746  26.328  31.597  1.00  0.00     0.059 A 
ATOM     92  F   UNL A   1      47.484  26.272  32.213  1.00  0.00    -0.206 F 
ATOM     93  C   UNL A   1      50.727  26.681  30.671  1.00  0.00     0.060 A 
BRANCH  93  94
ATOM     94  S   UNL A   1      52.467  26.341  31.016  1.00  0.00     0.124 S 
ATOM     95  O   UNL A   1      52.371  25.178  31.892  1.00  0.00    -0.237 OA
ATOM     96  O   UNL A   1      53.007  26.088  29.683  1.00  0.00    -0.237 OA
ATOM     97  O   UNL A   1      52.933  27.570  31.651  1.00  0.00    -0.744 OA
ENDBRANCH  93  94
ENDBRANCH  61  86
ENDBRANCH  35  36
ENDBRANCH  27  30
ENDBRANCH  25  26
ENDBRANCH  24  25
ENDBRANCH   1  24
TORSDOF 17
ENDMDL
MODEL 2
REMARK VINA RESULT:     -11.3      2.790      3.474
REMARK SMILES COc1ncccc1CC1(C(=O)NCCCCNC(=O)c2ccc(-c3c4nc(c(-c5c(F)cc(S(=O)(=O)[O-])cc5F)c5ccc([nH]5)c(-c5c(F)cc(S(=O)(=O)[O-])cc5F)c5nc(c(-c6c(F)cc(S(=O)(=O)[O-])cc6F)c6ccc3[nH]6)C=C5)C=C4)cc2)CCC(C)(C)CC1
REMARK SMILES IDX 15 1 14 2 13 3 11 4 12 5 10 7 87 8 93 9 88 10 92 11 89 12
REMARK SMILES IDX 90 13 91 14 9 15 8 16 3 17 4 18 5 19 7 20 6 21 2 22 1 23
REMARK SMILES IDX 16 24 17 25 18 26 19 27 20 29 21 30 22 31 86 32 23 33 85 34
REMARK SMILES IDX 24 35 25 36 26 37 79 38 27 39 84 40 78 41 80 42 28 43 83 44
REMARK SMILES IDX 77 45 76 46 29 48 63 49 42 50 62 51 43 52 46 53 61 54 81 55
REMARK SMILES IDX 44 56 45 57 60 59 82 60 47 61 30 62 31 63 40 64 32 65 33 66
REMARK SMILES IDX 39 67 41 68 34 69 35 70 36 71 37 72 38 73 64 74 65 75 74 76
REMARK SMILES IDX 66 77 67 78 73 79 75 80 68 81 69 82 70 83 71 84 72 85 48 86
REMARK SMILES IDX 49 87 58 88 50 89 51 90 57 91 59 92 52 93 53 94 54 95 55 96
REMARK SMILES IDX 56 97
REMARK H PARENT 13 6 18 28 80 47 46 58
REMARK Flexibility Score: inf
ROOT
ATOM      1  C   UNL A   1      32.684  29.152  23.969  1.00  0.00     0.023 C 
ENDROOT
BRANCH   1   2
ATOM      2  C   UNL A   1      31.783  28.201  23.178  1.00  0.00     0.116 C 
BRANCH   2   3
ATOM      3  N   UNL A   1      32.521  27.488  22.161  1.00  0.00    -0.356 N 
ATOM      4  C   UNL A   1      32.922  26.196  22.040  1.00  0.00     0.226 C 
ATOM      5  O   UNL A   1      33.557  25.961  21.005  1.00  0.00    -0.274 OA
ATOM      6  H   UNL A   1      32.788  28.053  21.402  1.00  0.00     0.163 HD
BRANCH   4   7
ATOM      7  C   UNL A   1      32.577  25.048  23.059  1.00  0.00     0.053 C 
ATOM      8  C   UNL A   1      31.034  24.930  23.134  1.00  0.00     0.018 C 
ATOM      9  C   UNL A   1      33.164  25.342  24.454  1.00  0.00     0.018 C 
ATOM     10  C   UNL A   1      30.437  24.211  24.354  1.00  0.00     0.007 C 
ATOM     11  C   UNL A   1      32.634  24.489  25.603  1.00  0.00     0.007 C 
ATOM     12  C   UNL A   1      31.100  24.480  25.720  1.00  0.00    -0.035 C 
ATOM     13  C   UNL A   1      30.702  23.355  26.700  1.00  0.00     0.011 C 
ATOM     14  C   UNL A   1      30.587  25.802  26.315  1.00  0.00     0.011 C 
BRANCH   7  15
ATOM     15  C   UNL A   1      33.255  23.772  22.396  1.00  0.00     0.058 C 
BRANCH  15  16
ATOM     16  C   UNL A   1      33.586  22.560  23.225  1.00  0.00     0.015 A 
ATOM     17  C   UNL A   1      34.836  22.372  23.817  1.00  0.00     0.216 A 
ATOM     18  N   UNL A   1      35.134  21.364  24.668  1.00  0.00    -0.222 NA
ATOM     19  C   UNL A   1      34.151  20.468  24.905  1.00  0.00     0.115 A 
ATOM     20  C   UNL A   1      32.639  21.553  23.423  1.00  0.00     0.011 A 
ATOM     21  C   UNL A   1      32.911  20.501  24.289  1.00  0.00     0.021 A 
BRANCH  17  22
ATOM     22  O   UNL A   1      35.897  23.120  23.372  1.00  0.00    -0.481 OA
ATOM     23  C   UNL A   1      36.898  23.284  24.365  1.00  0.00     0.280 C 
ENDBRANCH  17  22
ENDBRANCH  15  16
ENDBRANCH   7  15
ENDBRANCH   4   7
ENDBRANCH   2   3
ENDBRANCH   1   2
BRANCH   1  24
ATOM     24  C   UNL A   1      33.875  28.489  24.654  1.00  0.00     0.023 C 
BRANCH  24  25
ATOM     25  C   UNL A   1      33.952  28.707  26.157  1.00  0.00     0.116 C 
BRANCH  25  26
ATOM     26  N   UNL A   1      33.731  30.087  26.564  1.00  0.00    -0.352 N 
ATOM     27  C   UNL A   1      34.499  30.837  27.428  1.00  0.00     0.251 C 
ATOM     28  H   UNL A   1      32.943  30.535  26.178  1.00  0.00     0.163 HD
ATOM     29  O   UNL A   1      34.160  31.964  27.754  1.00  0.00    -0.269 OA
BRANCH  27  30
ATOM     30  C   UNL A   1      35.716  30.214  27.985  1.00  0.00     0.039 A 
ATOM     31  C   UNL A   1      36.919  30.344  27.290  1.00  0.00     0.014 A 
ATOM     32  C   UNL A   1      35.675  29.606  29.242  1.00  0.00     0.014 A 
ATOM     33  C   UNL A   1      38.104  29.924  27.894  1.00  0.00     0.010 A 
ATOM     34  C   UNL A   1      36.863  29.258  29.869  1.00  0.00     0.010 A 
ATOM     35  C   UNL A   1      38.089  29.417  29.204  1.00  0.00    -0.014 A 
BRANCH  35  36
ATOM     36  C   UNL A   1      39.337  29.027  29.902  1.00  0.00     0.031 A 
ATOM     37  C   UNL A   1      39.768  29.789  31.125  1.00  0.00     0.074 A 
ATOM     38  C   UNL A   1      40.118  28.053  29.394  1.00  0.00     0.049 A 
ATOM     39  N   UNL A   1      40.882  29.704  31.801  1.00  0.00    -0.248 NA
ATOM     40  C   UNL A   1      38.832  30.808  31.630  1.00  0.00     0.031 C 
ATOM     41  C   UNL A   1      39.824  27.270  28.191  1.00  0.00     0.029 A 
ATOM     42  N   UNL A   1      41.328  27.566  29.817  1.00  0.00    -0.354 N 
ATOM     43  C   UNL A   1      40.789  30.665  32.801  1.00  0.00     0.074 A 
ATOM     44  C   UNL A   1      39.535  31.359  32.607  1.00  0.00     0.031 C 
ATOM     45  C   UNL A   1      40.818  26.389  27.985  1.00  0.00     0.029 A 
ATOM     46  C   UNL A   1      41.836  26.570  29.015  1.00  0.00     0.049 A 
ATOM     47  H   UNL A   1      41.791  27.897  30.620  1.00  0.00     0.167 HD
ATOM     48  C   UNL A   1      41.658  30.928  33.805  1.00  0.00     0.037 A 
ATOM     49  C   UNL A   1      42.995  25.889  29.099  1.00  0.00     0.037 A 
ATOM     50  C   UNL A   1      42.888  30.211  34.010  1.00  0.00     0.049 A 
ATOM     51  C   UNL A   1      43.945  26.198  30.225  1.00  0.00     0.074 A 
ATOM     52  C   UNL A   1      43.823  30.375  35.016  1.00  0.00     0.029 A 
ATOM     53  N   UNL A   1      43.348  29.184  33.199  1.00  0.00    -0.354 N 
ATOM     54  N   UNL A   1      43.826  27.088  31.182  1.00  0.00    -0.248 NA
ATOM     55  C   UNL A   1      45.185  25.412  30.286  1.00  0.00     0.031 C 
ATOM     56  C   UNL A   1      44.861  29.463  34.799  1.00  0.00     0.029 A 
ATOM     57  C   UNL A   1      44.555  28.707  33.678  1.00  0.00     0.049 A 
ATOM     58  H   UNL A   1      42.883  28.845  32.399  1.00  0.00     0.167 HD
ATOM     59  C   UNL A   1      44.957  26.943  31.978  1.00  0.00     0.074 A 
ATOM     60  C   UNL A   1      45.747  25.880  31.392  1.00  0.00     0.031 C 
ATOM     61  C   UNL A   1      45.310  27.628  33.093  1.00  0.00     0.037 A 
BRANCH  48  62
ATOM     62  C   UNL A   1      41.295  32.026  34.763  1.00  0.00     0.058 A 
ATOM     63  C   UNL A   1      40.477  31.784  35.878  1.00  0.00     0.135 A 
ATOM     64  C   UNL A   1      41.780  33.331  34.578  1.00  0.00     0.135 A 
ATOM     65  F   UNL A   1      39.971  30.559  36.091  1.00  0.00    -0.206 F 
ATOM     66  C   UNL A   1      40.124  32.801  36.758  1.00  0.00     0.059 A 
ATOM     67  C   UNL A   1      41.463  34.359  35.460  1.00  0.00     0.059 A 
ATOM     68  F   UNL A   1      42.564  33.617  33.527  1.00  0.00    -0.206 F 
ATOM     69  C   UNL A   1      40.621  34.087  36.538  1.00  0.00     0.060 A 
BRANCH  69  70
ATOM     70  S   UNL A   1      40.151  35.399  37.686  1.00  0.00     0.124 S 
ATOM     71  O   UNL A   1      39.836  36.488  36.767  1.00  0.00    -0.237 OA
ATOM     72  O   UNL A   1      39.013  34.811  38.386  1.00  0.00    -0.237 OA
ATOM     73  O   UNL A   1      41.352  35.587  38.495  1.00  0.00    -0.744 OA
ENDBRANCH  69  70
ENDBRANCH  48  62
BRANCH  49  74
ATOM     74  C   UNL A   1      43.315  24.830  28.106  1.00  0.00     0.058 A 
ATOM     75  C   UNL A   1      42.977  23.491  28.352  1.00  0.00     0.135 A 
ATOM     76  C   UNL A   1      43.967  25.128  26.899  1.00  0.00     0.135 A 
ATOM     77  F   UNL A   1      42.356  23.155  29.493  1.00  0.00    -0.206 F 
ATOM     78  C   UNL A   1      43.293  22.481  27.450  1.00  0.00     0.059 A 
ATOM     79  C   UNL A   1      44.274  24.138  25.971  1.00  0.00     0.059 A 
ATOM     80  F   UNL A   1      44.296  26.396  26.608  1.00  0.00    -0.206 F 
ATOM     81  C   UNL A   1      43.945  22.814  26.261  1.00  0.00     0.060 A 
BRANCH  81  82
ATOM     82  S   UNL A   1      44.324  21.500  25.082  1.00  0.00     0.124 S 
ATOM     83  O   UNL A   1      43.252  20.548  25.351  1.00  0.00    -0.237 OA
ATOM     84  O   UNL A   1      44.250  22.201  23.805  1.00  0.00    -0.237 OA
ATOM     85  O   UNL A   1      45.663  21.074  25.477  1.00  0.00    -0.744 OA
ENDBRANCH  81  82
ENDBRANCH  49  74
BRANCH  61  86
ATOM     86  C   UNL A   1      46.577  27.218  33.787  1.00  0.00     0.058 A 
ATOM     87  C   UNL A   1      47.807  27.828  33.500  1.00  0.00     0.135 A 
ATOM     88  C   UNL A   1      46.542  26.251  34.805  1.00  0.00     0.135 A 
ATOM     89  F   UNL A   1      47.891  28.752  32.530  1.00  0.00    -0.206 F 
ATOM     90  C   UNL A   1      48.964  27.487  34.191  1.00  0.00     0.059 A 
ATOM     91  C   UNL A   1      47.682  25.911  35.525  1.00  0.00     0.059 A 
ATOM     92  F   UNL A   1      45.388  25.644  35.124  1.00  0.00    -0.206 F 
ATOM     93  C   UNL A   1      48.890  26.530  35.206  1.00  0.00     0.060 A 
BRANCH  93  94
ATOM     94  S   UNL A   1      50.388  26.135  36.135  1.00  0.00     0.124 S 
ATOM     95  O   UNL A   1      50.186  26.905  37.358  1.00  0.00    -0.237 OA
ATOM     96  O   UNL A   1      50.296  24.685  36.276  1.00  0.00    -0.237 OA
ATOM     97  O   UNL A   1      51.461  26.607  35.265  1.00  0.00    -0.744 OA
ENDBRANCH  93  94
ENDBRANCH  61  86
ENDBRANCH  35  36
ENDBRANCH  27  30
ENDBRANCH  25  26
ENDBRANCH  24  25
ENDBRANCH   1  24
TORSDOF 17
ENDMDL
MODEL 3
REMARK VINA RESULT:     -10.7      4.907      9.583
REMARK SMILES COc1ncccc1CC1(C(=O)NCCCCNC(=O)c2ccc(-c3c4nc(c(-c5c(F)cc(S(=O)(=O)[O-])cc5F)c5ccc([nH]5)c(-c5c(F)cc(S(=O)(=O)[O-])cc5F)c5nc(c(-c6c(F)cc(S(=O)(=O)[O-])cc6F)c6ccc3[nH]6)C=C5)C=C4)cc2)CCC(C)(C)CC1
REMARK SMILES IDX 15 1 14 2 13 3 11 4 12 5 10 7 87 8 93 9 88 10 92 11 89 12
REMARK SMILES IDX 90 13 91 14 9 15 8 16 3 17 4 18 5 19 7 20 6 21 2 22 1 23
REMARK SMILES IDX 16 24 17 25 18 26 19 27 20 29 21 30 22 31 86 32 23 33 85 34
REMARK SMILES IDX 24 35 25 36 26 37 79 38 27 39 84 40 78 41 80 42 28 43 83 44
REMARK SMILES IDX 77 45 76 46 29 48 63 49 42 50 62 51 43 52 46 53 61 54 81 55
REMARK SMILES IDX 44 56 45 57 60 59 82 60 47 61 30 62 31 63 40 64 32 65 33 66
REMARK SMILES IDX 39 67 41 68 34 69 35 70 36 71 37 72 38 73 64 74 65 75 74 76
REMARK SMILES IDX 66 77 67 78 73 79 75 80 68 81 69 82 70 83 71 84 72 85 48 86
REMARK SMILES IDX 49 87 58 88 50 89 51 90 57 91 59 92 52 93 53 94 54 95 55 96
REMARK SMILES IDX 56 97
REMARK H PARENT 13 6 18 28 80 47 46 58
REMARK Flexibility Score: inf
ROOT
ATOM      1  C   UNL A   1      39.214  21.761  25.915  1.00  0.00     0.023 C 
ENDROOT
BRANCH   1   2
ATOM      2  C   UNL A   1      37.869  22.473  25.754  1.00  0.00     0.116 C 
BRANCH   2   3
ATOM      3  N   UNL A   1      37.461  22.538  24.369  1.00  0.00    -0.356 N 
ATOM      4  C   UNL A   1      36.315  22.934  23.757  1.00  0.00     0.226 C 
ATOM      5  O   UNL A   1      36.343  22.833  22.524  1.00  0.00    -0.274 OA
ATOM      6  H   UNL A   1      38.155  22.233  23.741  1.00  0.00     0.163 HD
BRANCH   4   7
ATOM      7  C   UNL A   1      35.065  23.539  24.494  1.00  0.00     0.053 C 
ATOM      8  C   UNL A   1      33.912  23.643  23.464  1.00  0.00     0.018 C 
ATOM      9  C   UNL A   1      35.383  24.925  25.091  1.00  0.00     0.018 C 
ATOM     10  C   UNL A   1      32.748  24.589  23.796  1.00  0.00     0.007 C 
ATOM     11  C   UNL A   1      34.185  25.758  25.539  1.00  0.00     0.007 C 
ATOM     12  C   UNL A   1      33.107  25.936  24.457  1.00  0.00    -0.035 C 
ATOM     13  C   UNL A   1      31.843  26.515  25.131  1.00  0.00     0.011 C 
ATOM     14  C   UNL A   1      33.558  26.952  23.393  1.00  0.00     0.011 C 
BRANCH   7  15
ATOM     15  C   UNL A   1      34.772  22.467  25.632  1.00  0.00     0.058 C 
BRANCH  15  16
ATOM     16  C   UNL A   1      34.006  21.208  25.323  1.00  0.00     0.015 A 
ATOM     17  C   UNL A   1      32.633  21.089  25.549  1.00  0.00     0.216 A 
ATOM     18  N   UNL A   1      31.888  20.025  25.173  1.00  0.00    -0.222 NA
ATOM     19  C   UNL A   1      32.550  19.006  24.584  1.00  0.00     0.115 A 
ATOM     20  C   UNL A   1      34.658  20.088  24.804  1.00  0.00     0.011 A 
ATOM     21  C   UNL A   1      33.923  18.976  24.408  1.00  0.00     0.021 A 
BRANCH  17  22
ATOM     22  O   UNL A   1      32.018  21.996  26.375  1.00  0.00    -0.481 OA
ATOM     23  C   UNL A   1      30.791  22.468  25.841  1.00  0.00     0.280 C 
ENDBRANCH  17  22
ENDBRANCH  15  16
ENDBRANCH   7  15
ENDBRANCH   4   7
ENDBRANCH   2   3
ENDBRANCH   1   2
BRANCH   1  24
ATOM     24  C   UNL A   1      40.021  22.178  27.141  1.00  0.00     0.023 C 
BRANCH  24  25
ATOM     25  C   UNL A   1      40.230  23.677  27.290  1.00  0.00     0.116 C 
BRANCH  25  26
ATOM     26  N   UNL A   1      40.921  24.289  26.164  1.00  0.00    -0.352 N 
ATOM     27  C   UNL A   1      41.258  25.615  26.011  1.00  0.00     0.251 C 
ATOM     28  H   UNL A   1      41.176  23.686  25.428  1.00  0.00     0.163 HD
ATOM     29  O   UNL A   1      41.767  26.021  24.977  1.00  0.00    -0.269 OA
BRANCH  27  30
ATOM     30  C   UNL A   1      40.938  26.539  27.117  1.00  0.00     0.039 A 
ATOM     31  C   UNL A   1      40.001  26.147  28.074  1.00  0.00     0.014 A 
ATOM     32  C   UNL A   1      41.649  27.733  27.256  1.00  0.00     0.014 A 
ATOM     33  C   UNL A   1      39.828  26.926  29.219  1.00  0.00     0.010 A 
ATOM     34  C   UNL A   1      41.529  28.466  28.429  1.00  0.00     0.010 A 
ATOM     35  C   UNL A   1      40.621  28.068  29.423  1.00  0.00    -0.014 A 
BRANCH  35  36
ATOM     36  C   UNL A   1      40.513  28.879  30.659  1.00  0.00     0.031 A 
ATOM     37  C   UNL A   1      39.490  29.978  30.734  1.00  0.00     0.074 A 
ATOM     38  C   UNL A   1      41.381  28.684  31.671  1.00  0.00     0.049 A 
ATOM     39  N   UNL A   1      39.318  30.885  31.657  1.00  0.00    -0.248 NA
ATOM     40  C   UNL A   1      38.558  30.089  29.598  1.00  0.00     0.031 C 
ATOM     41  C   UNL A   1      42.443  27.675  31.697  1.00  0.00     0.029 A 
ATOM     42  N   UNL A   1      41.520  29.339  32.869  1.00  0.00    -0.354 N 
ATOM     43  C   UNL A   1      38.272  31.684  31.209  1.00  0.00     0.074 A 
ATOM     44  C   UNL A   1      37.887  31.188  29.906  1.00  0.00     0.031 C 
ATOM     45  C   UNL A   1      43.110  27.767  32.860  1.00  0.00     0.029 A 
ATOM     46  C   UNL A   1      42.551  28.864  33.645  1.00  0.00     0.049 A 
ATOM     47  H   UNL A   1      40.934  30.080  33.147  1.00  0.00     0.167 HD
ATOM     48  C   UNL A   1      37.671  32.721  31.838  1.00  0.00     0.037 A 
ATOM     49  C   UNL A   1      42.998  29.274  34.847  1.00  0.00     0.037 A 
ATOM     50  C   UNL A   1      38.038  33.187  33.147  1.00  0.00     0.049 A 
ATOM     51  C   UNL A   1      42.312  30.428  35.528  1.00  0.00     0.074 A 
ATOM     52  C   UNL A   1      37.470  34.208  33.889  1.00  0.00     0.029 A 
ATOM     53  N   UNL A   1      39.063  32.656  33.916  1.00  0.00    -0.354 N 
ATOM     54  N   UNL A   1      41.302  31.152  35.104  1.00  0.00    -0.248 NA
ATOM     55  C   UNL A   1      42.823  30.823  36.848  1.00  0.00     0.031 C 
ATOM     56  C   UNL A   1      38.168  34.310  35.097  1.00  0.00     0.029 A 
ATOM     57  C   UNL A   1      39.146  33.328  35.123  1.00  0.00     0.049 A 
ATOM     58  H   UNL A   1      39.644  31.909  33.643  1.00  0.00     0.167 HD
ATOM     59  C   UNL A   1      41.034  32.062  36.121  1.00  0.00     0.074 A 
ATOM     60  C   UNL A   1      41.987  31.797  37.180  1.00  0.00     0.031 C 
ATOM     61  C   UNL A   1      40.086  33.028  36.174  1.00  0.00     0.037 A 
BRANCH  48  62
ATOM     62  C   UNL A   1      36.543  33.405  31.118  1.00  0.00     0.058 A 
ATOM     63  C   UNL A   1      36.772  34.187  29.975  1.00  0.00     0.135 A 
ATOM     64  C   UNL A   1      35.218  33.265  31.562  1.00  0.00     0.135 A 
ATOM     65  F   UNL A   1      38.021  34.370  29.520  1.00  0.00    -0.206 F 
ATOM     66  C   UNL A   1      35.733  34.836  29.316  1.00  0.00     0.059 A 
ATOM     67  C   UNL A   1      34.160  33.882  30.903  1.00  0.00     0.059 A 
ATOM     68  F   UNL A   1      34.944  32.530  32.651  1.00  0.00    -0.206 F 
ATOM     69  C   UNL A   1      34.429  34.679  29.790  1.00  0.00     0.060 A 
BRANCH  69  70
ATOM     70  S   UNL A   1      33.092  35.529  28.927  1.00  0.00     0.124 S 
ATOM     71  O   UNL A   1      33.828  36.551  28.188  1.00  0.00    -0.237 OA
ATOM     72  O   UNL A   1      32.509  34.461  28.121  1.00  0.00    -0.237 OA
ATOM     73  O   UNL A   1      32.249  36.024  30.011  1.00  0.00    -0.744 OA
ENDBRANCH  69  70
ENDBRANCH  48  62
BRANCH  49  74
ATOM     74  C   UNL A   1      44.137  28.577  35.501  1.00  0.00     0.058 A 
ATOM     75  C   UNL A   1      45.460  28.955  35.230  1.00  0.00     0.135 A 
ATOM     76  C   UNL A   1      43.930  27.520  36.402  1.00  0.00     0.135 A 
ATOM     77  F   UNL A   1      45.708  29.956  34.373  1.00  0.00    -0.206 F 
ATOM     78  C   UNL A   1      46.540  28.296  35.809  1.00  0.00     0.059 A 
ATOM     79  C   UNL A   1      44.994  26.861  37.011  1.00  0.00     0.059 A 
ATOM     80  F   UNL A   1      42.682  27.132  36.709  1.00  0.00    -0.206 F 
ATOM     81  C   UNL A   1      46.296  27.248  36.698  1.00  0.00     0.060 A 
BRANCH  81  82
ATOM     82  S   UNL A   1      47.704  26.419  37.468  1.00  0.00     0.124 S 
ATOM     83  O   UNL A   1      47.788  27.115  38.747  1.00  0.00    -0.237 OA
ATOM     84  O   UNL A   1      47.254  25.033  37.524  1.00  0.00    -0.237 OA
ATOM     85  O   UNL A   1      48.795  26.678  36.534  1.00  0.00    -0.744 OA
ENDBRANCH  81  82
ENDBRANCH  49  74
BRANCH  61  86
ATOM     86  C   UNL A   1      39.991  33.839  37.435  1.00  0.00     0.058 A 
ATOM     87  C   UNL A   1      39.148  33.465  38.491  1.00  0.00     0.135 A 
ATOM     88  C   UNL A   1      40.812  34.965  37.612  1.00  0.00     0.135 A 
ATOM     89  F   UNL A   1      38.340  32.401  38.365  1.00  0.00    -0.206 F 
ATOM     90  C   UNL A   1      39.113  34.186  39.680  1.00  0.00     0.059 A 
ATOM     91  C   UNL A   1      40.810  35.687  38.801  1.00  0.00     0.059 A 
ATOM     92  F   UNL A   1      41.643  35.359  36.634  1.00  0.00    -0.206 F 
ATOM     93  C   UNL A   1      39.952  35.293  39.827  1.00  0.00     0.060 A 
BRANCH  93  94
ATOM     94  S   UNL A   1      39.938  36.188  41.395  1.00  0.00     0.124 S 
ATOM     95  O   UNL A   1      40.317  37.531  40.970  1.00  0.00    -0.237 OA
ATOM     96  O   UNL A   1      38.556  36.029  41.835  1.00  0.00    -0.237 OA
ATOM     97  O   UNL A   1      40.930  35.479  42.198  1.00  0.00    -0.744 OA
ENDBRANCH  93  94
ENDBRANCH  61  86
ENDBRANCH  35  36
ENDBRANCH  27  30
ENDBRANCH  25  26
ENDBRANCH  24  25
ENDBRANCH   1  24
TORSDOF 17
ENDMDL
