MODEL 1
REMARK VINA RESULT:     -14.5      0.000      0.000
REMARK SMILES COc1cc2ccccc2cc1C(=O)Nc1cc(C(=O)NCCCCNC(=O)c2ccc(-c3c4nc(c(-c5c(F)cc(S(=O)(=O)[O-])cc5F)c5ccc([nH]5)c(-c5c(F)cc(S(=O)(=O)[O-])cc5F)c5nc(c(-c6c(F)cc(S(=O)(=O)[O-])cc6F)c6ccc3[nH]6)C=C5)C=C4)cc2)ccc1C
REMARK SMILES IDX 23 1 22 2 21 3 19 4 20 5 18 7 16 8 17 9 97 10 96 11 98 12
REMARK SMILES IDX 95 13 15 14 13 15 14 16 12 18 3 19 4 20 5 21 11 22 6 23
REMARK SMILES IDX 10 24 7 25 9 26 8 27 2 28 1 29 24 30 25 31 26 32 27 33 28 35
REMARK SMILES IDX 29 36 30 37 94 38 31 39 93 40 32 41 33 42 34 43 87 44 35 45
REMARK SMILES IDX 92 46 86 47 88 48 36 49 91 50 85 51 84 52 37 54 71 55 50 56
REMARK SMILES IDX 70 57 51 58 54 59 69 60 89 61 52 62 53 63 68 65 90 66 55 67
REMARK SMILES IDX 38 68 39 69 48 70 40 71 41 72 47 73 49 74 42 75 43 76 44 77
REMARK SMILES IDX 45 78 46 79 72 80 73 81 82 82 74 83 75 84 81 85 83 86 76 87
REMARK SMILES IDX 77 88 78 89 79 90 80 91 56 92 57 93 66 94 58 95 59 96 65 97
REMARK SMILES IDX 67 98 60 99 61 100 62 101 63 102 64 103
REMARK H PARENT 21 6 15 17 26 34 88 53 54 64
REMARK Flexibility Score: inf
ROOT
ATOM      1  C   UNL A   1      32.502  30.408  26.519  1.00  0.00     0.023 C 
ENDROOT
BRANCH   1   2
ATOM      2  C   UNL A   1      31.986  29.782  25.215  1.00  0.00     0.116 C 
BRANCH   2   3
ATOM      3  N   UNL A   1      33.048  29.653  24.228  1.00  0.00    -0.352 N 
ATOM      4  C   UNL A   1      33.548  28.618  23.477  1.00  0.00     0.251 C 
ATOM      5  O   UNL A   1      34.527  28.877  22.770  1.00  0.00    -0.269 OA
ATOM      6  H   UNL A   1      33.516  30.503  24.060  1.00  0.00     0.163 HD
BRANCH   4   7
ATOM      7  C   UNL A   1      32.964  27.242  23.406  1.00  0.00     0.041 A 
ATOM      8  C   UNL A   1      32.146  25.205  24.445  1.00  0.00     0.045 A 
ATOM      9  C   UNL A   1      33.004  26.310  24.437  1.00  0.00     0.040 A 
ATOM     10  C   UNL A   1      31.458  24.826  23.282  1.00  0.00    -0.027 A 
ATOM     11  C   UNL A   1      31.466  25.724  22.205  1.00  0.00     0.006 A 
ATOM     12  C   UNL A   1      30.536  23.642  23.230  1.00  0.00     0.046 C 
ATOM     13  C   UNL A   1      32.172  26.934  22.286  1.00  0.00     0.014 A 
BRANCH   8  14
ATOM     14  N   UNL A   1      31.814  24.622  25.684  1.00  0.00    -0.322 N 
ATOM     15  C   UNL A   1      32.485  23.596  26.355  1.00  0.00     0.259 C 
ATOM     16  O   UNL A   1      31.991  23.162  27.397  1.00  0.00    -0.269 OA
ATOM     17  H   UNL A   1      31.013  24.981  26.130  1.00  0.00     0.170 HD
BRANCH  15  18
ATOM     18  C   UNL A   1      33.817  23.054  25.906  1.00  0.00     0.082 A 
ATOM     19  C   UNL A   1      33.975  21.987  25.021  1.00  0.00     0.132 A 
ATOM     20  C   UNL A   1      35.148  21.231  25.011  1.00  0.00     0.056 A 
ATOM     21  C   UNL A   1      36.306  21.771  25.551  1.00  0.00    -0.015 A 
ATOM     22  C   UNL A   1      34.996  23.689  26.294  1.00  0.00     0.026 A 
ATOM     23  C   UNL A   1      37.527  21.076  25.548  1.00  0.00     0.009 A 
ATOM     24  C   UNL A   1      36.248  23.101  25.993  1.00  0.00    -0.017 A 
ATOM     25  C   UNL A   1      38.715  21.753  25.800  1.00  0.00     0.001 A 
ATOM     26  C   UNL A   1      37.455  23.792  26.070  1.00  0.00     0.009 A 
ATOM     27  C   UNL A   1      38.681  23.128  25.965  1.00  0.00     0.001 A 
BRANCH  19  28
ATOM     28  O   UNL A   1      33.067  21.663  24.046  1.00  0.00    -0.496 OA
ATOM     29  C   UNL A   1      32.533  20.358  24.286  1.00  0.00     0.278 C 
ENDBRANCH  19  28
ENDBRANCH  15  18
ENDBRANCH   8  14
ENDBRANCH   4   7
ENDBRANCH   2   3
ENDBRANCH   1   2
BRANCH   1  30
ATOM     30  C   UNL A   1      33.257  29.405  27.399  1.00  0.00     0.023 C 
BRANCH  30  31
ATOM     31  C   UNL A   1      34.745  29.371  27.072  1.00  0.00     0.116 C 
BRANCH  31  32
ATOM     32  N   UNL A   1      35.443  30.625  27.298  1.00  0.00    -0.352 N 
ATOM     33  C   UNL A   1      36.651  30.815  27.960  1.00  0.00     0.251 C 
ATOM     34  H   UNL A   1      35.010  31.433  26.942  1.00  0.00     0.163 HD
ATOM     35  O   UNL A   1      37.008  31.895  28.372  1.00  0.00    -0.269 OA
BRANCH  33  36
ATOM     36  C   UNL A   1      37.577  29.657  27.980  1.00  0.00     0.039 A 
ATOM     37  C   UNL A   1      37.574  28.887  29.151  1.00  0.00     0.014 A 
ATOM     38  C   UNL A   1      38.614  29.569  27.058  1.00  0.00     0.014 A 
ATOM     39  C   UNL A   1      38.726  28.200  29.507  1.00  0.00     0.010 A 
ATOM     40  C   UNL A   1      39.790  28.978  27.465  1.00  0.00     0.010 A 
ATOM     41  C   UNL A   1      39.861  28.358  28.719  1.00  0.00    -0.014 A 
BRANCH  41  42
ATOM     42  C   UNL A   1      41.184  27.884  29.090  1.00  0.00     0.031 A 
ATOM     43  C   UNL A   1      41.539  26.527  28.637  1.00  0.00     0.074 A 
ATOM     44  C   UNL A   1      42.061  28.659  29.752  1.00  0.00     0.049 A 
ATOM     45  N   UNL A   1      42.707  26.129  28.272  1.00  0.00    -0.248 NA
ATOM     46  C   UNL A   1      40.493  25.502  28.550  1.00  0.00     0.031 C 
ATOM     47  C   UNL A   1      43.458  28.351  29.997  1.00  0.00     0.029 A 
ATOM     48  N   UNL A   1      41.823  29.815  30.498  1.00  0.00    -0.354 N 
ATOM     49  C   UNL A   1      42.595  24.790  27.991  1.00  0.00     0.074 A 
ATOM     50  C   UNL A   1      41.194  24.448  28.136  1.00  0.00     0.031 C 
ATOM     51  C   UNL A   1      43.938  29.165  30.945  1.00  0.00     0.029 A 
ATOM     52  C   UNL A   1      42.802  29.859  31.505  1.00  0.00     0.049 A 
ATOM     53  H   UNL A   1      41.106  30.474  30.348  1.00  0.00     0.167 HD
ATOM     54  C   UNL A   1      43.636  23.938  28.156  1.00  0.00     0.037 A 
ATOM     55  C   UNL A   1      42.465  29.685  32.815  1.00  0.00     0.037 A 
ATOM     56  C   UNL A   1      44.548  24.459  29.167  1.00  0.00     0.049 A 
ATOM     57  C   UNL A   1      43.096  28.410  33.343  1.00  0.00     0.074 A 
ATOM     58  C   UNL A   1      45.741  25.156  29.137  1.00  0.00     0.029 A 
ATOM     59  N   UNL A   1      44.085  24.536  30.491  1.00  0.00    -0.354 N 
ATOM     60  N   UNL A   1      43.190  27.276  32.679  1.00  0.00    -0.248 NA
ATOM     61  C   UNL A   1      43.944  28.459  34.529  1.00  0.00     0.031 C 
ATOM     62  C   UNL A   1      45.951  25.717  30.433  1.00  0.00     0.029 A 
ATOM     63  C   UNL A   1      44.915  25.317  31.273  1.00  0.00     0.049 A 
ATOM     64  H   UNL A   1      43.271  24.091  30.819  1.00  0.00     0.167 HD
ATOM     65  C   UNL A   1      44.187  26.518  33.259  1.00  0.00     0.074 A 
ATOM     66  C   UNL A   1      44.603  27.296  34.420  1.00  0.00     0.031 C 
ATOM     67  C   UNL A   1      44.777  25.397  32.730  1.00  0.00     0.037 A 
BRANCH  54  68
ATOM     68  C   UNL A   1      43.873  22.868  27.100  1.00  0.00     0.058 A 
ATOM     69  C   UNL A   1      43.040  21.735  27.007  1.00  0.00     0.135 A 
ATOM     70  C   UNL A   1      44.990  22.841  26.224  1.00  0.00     0.135 A 
ATOM     71  F   UNL A   1      41.965  21.605  27.798  1.00  0.00    -0.206 F 
ATOM     72  C   UNL A   1      43.307  20.659  26.142  1.00  0.00     0.059 A 
ATOM     73  C   UNL A   1      45.264  21.794  25.343  1.00  0.00     0.059 A 
ATOM     74  F   UNL A   1      45.911  23.810  26.204  1.00  0.00    -0.206 F 
ATOM     75  C   UNL A   1      44.429  20.693  25.320  1.00  0.00     0.060 A 
BRANCH  75  76
ATOM     76  S   UNL A   1      44.820  19.288  24.257  1.00  0.00     0.124 S 
ATOM     77  O   UNL A   1      46.261  19.160  24.445  1.00  0.00    -0.237 OA
ATOM     78  O   UNL A   1      44.004  18.225  24.832  1.00  0.00    -0.237 OA
ATOM     79  O   UNL A   1      44.406  19.737  22.929  1.00  0.00    -0.744 OA
ENDBRANCH  75  76
ENDBRANCH  54  68
BRANCH  55  80
ATOM     80  C   UNL A   1      41.190  30.358  33.174  1.00  0.00     0.058 A 
ATOM     81  C   UNL A   1      40.117  29.506  33.523  1.00  0.00     0.135 A 
ATOM     82  C   UNL A   1      41.151  31.668  33.664  1.00  0.00     0.135 A 
ATOM     83  F   UNL A   1      40.088  28.247  33.054  1.00  0.00    -0.206 F 
ATOM     84  C   UNL A   1      39.169  29.865  34.475  1.00  0.00     0.059 A 
ATOM     85  C   UNL A   1      40.195  32.056  34.610  1.00  0.00     0.059 A 
ATOM     86  F   UNL A   1      42.133  32.530  33.364  1.00  0.00    -0.206 F 
ATOM     87  C   UNL A   1      39.269  31.117  35.072  1.00  0.00     0.060 A 
BRANCH  87  88
ATOM     88  S   UNL A   1      38.285  31.439  36.557  1.00  0.00     0.124 S 
ATOM     89  O   UNL A   1      39.256  32.071  37.444  1.00  0.00    -0.237 OA
ATOM     90  O   UNL A   1      37.242  32.322  36.035  1.00  0.00    -0.237 OA
ATOM     91  O   UNL A   1      37.847  30.107  36.957  1.00  0.00    -0.744 OA
ENDBRANCH  87  88
ENDBRANCH  55  80
BRANCH  67  92
ATOM     92  C   UNL A   1      45.482  24.337  33.574  1.00  0.00     0.058 A 
ATOM     93  C   UNL A   1      44.931  23.077  33.881  1.00  0.00     0.135 A 
ATOM     94  C   UNL A   1      46.839  24.494  33.963  1.00  0.00     0.135 A 
ATOM     95  F   UNL A   1      43.718  22.708  33.448  1.00  0.00    -0.206 F 
ATOM     96  C   UNL A   1      45.624  22.098  34.593  1.00  0.00     0.059 A 
ATOM     97  C   UNL A   1      47.568  23.509  34.627  1.00  0.00     0.059 A 
ATOM     98  F   UNL A   1      47.541  25.596  33.662  1.00  0.00    -0.206 F 
ATOM     99  C   UNL A   1      46.944  22.319  34.959  1.00  0.00     0.060 A 
BRANCH  99 100
ATOM    100  S   UNL A   1      47.869  21.000  35.758  1.00  0.00     0.124 S 
ATOM    101  O   UNL A   1      48.684  20.506  34.654  1.00  0.00    -0.237 OA
ATOM    102  O   UNL A   1      48.593  21.711  36.809  1.00  0.00    -0.237 OA
ATOM    103  O   UNL A   1      46.825  20.097  36.231  1.00  0.00    -0.744 OA
ENDBRANCH  99 100
ENDBRANCH  67  92
ENDBRANCH  41  42
ENDBRANCH  33  36
ENDBRANCH  31  32
ENDBRANCH  30  31
ENDBRANCH   1  30
TORSDOF 17
ENDMDL
MODEL 2
REMARK VINA RESULT:     -14.0      1.522      2.192
REMARK SMILES COc1cc2ccccc2cc1C(=O)Nc1cc(C(=O)NCCCCNC(=O)c2ccc(-c3c4nc(c(-c5c(F)cc(S(=O)(=O)[O-])cc5F)c5ccc([nH]5)c(-c5c(F)cc(S(=O)(=O)[O-])cc5F)c5nc(c(-c6c(F)cc(S(=O)(=O)[O-])cc6F)c6ccc3[nH]6)C=C5)C=C4)cc2)ccc1C
REMARK SMILES IDX 23 1 22 2 21 3 19 4 20 5 18 7 16 8 17 9 97 10 96 11 98 12
REMARK SMILES IDX 95 13 15 14 13 15 14 16 12 18 3 19 4 20 5 21 11 22 6 23
REMARK SMILES IDX 10 24 7 25 9 26 8 27 2 28 1 29 24 30 25 31 26 32 27 33 28 35
REMARK SMILES IDX 29 36 30 37 94 38 31 39 93 40 32 41 33 42 34 43 87 44 35 45
REMARK SMILES IDX 92 46 86 47 88 48 36 49 91 50 85 51 84 52 37 54 71 55 50 56
REMARK SMILES IDX 70 57 51 58 54 59 69 60 89 61 52 62 53 63 68 65 90 66 55 67
REMARK SMILES IDX 38 68 39 69 48 70 40 71 41 72 47 73 49 74 42 75 43 76 44 77
REMARK SMILES IDX 45 78 46 79 72 80 73 81 82 82 74 83 75 84 81 85 83 86 76 87
REMARK SMILES IDX 77 88 78 89 79 90 80 91 56 92 57 93 66 94 58 95 59 96 65 97
REMARK SMILES IDX 67 98 60 99 61 100 62 101 63 102 64 103
REMARK H PARENT 21 6 15 17 26 34 88 53 54 64
REMARK Flexibility Score: inf
ROOT
ATOM      1  C   UNL A   1      31.742  30.498  26.180  1.00  0.00     0.023 C 
ENDROOT
BRANCH   1   2
ATOM      2  C   UNL A   1      31.455  29.833  24.825  1.00  0.00     0.116 C 
BRANCH   2   3
ATOM      3  N   UNL A   1      32.669  29.690  24.034  1.00  0.00    -0.352 N 
ATOM      4  C   UNL A   1      33.329  28.632  23.459  1.00  0.00     0.251 C 
ATOM      5  O   UNL A   1      34.398  28.892  22.898  1.00  0.00    -0.269 OA
ATOM      6  H   UNL A   1      33.121  30.551  23.873  1.00  0.00     0.163 HD
BRANCH   4   7
ATOM      7  C   UNL A   1      32.825  27.224  23.410  1.00  0.00     0.041 A 
ATOM      8  C   UNL A   1      32.113  25.164  24.482  1.00  0.00     0.045 A 
ATOM      9  C   UNL A   1      32.908  26.316  24.460  1.00  0.00     0.040 A 
ATOM     10  C   UNL A   1      31.459  24.724  23.321  1.00  0.00    -0.027 A 
ATOM     11  C   UNL A   1      31.427  25.600  22.227  1.00  0.00     0.006 A 
ATOM     12  C   UNL A   1      30.606  23.489  23.285  1.00  0.00     0.046 C 
ATOM     13  C   UNL A   1      32.062  26.850  22.290  1.00  0.00     0.014 A 
BRANCH   8  14
ATOM     14  N   UNL A   1      31.803  24.587  25.730  1.00  0.00    -0.322 N 
ATOM     15  C   UNL A   1      32.505  23.588  26.410  1.00  0.00     0.259 C 
ATOM     16  O   UNL A   1      32.027  23.153  27.459  1.00  0.00    -0.269 OA
ATOM     17  H   UNL A   1      30.994  24.929  26.175  1.00  0.00     0.170 HD
BRANCH  15  18
ATOM     18  C   UNL A   1      33.848  23.076  25.960  1.00  0.00     0.082 A 
ATOM     19  C   UNL A   1      34.031  22.019  25.068  1.00  0.00     0.132 A 
ATOM     20  C   UNL A   1      35.220  21.289  25.056  1.00  0.00     0.056 A 
ATOM     21  C   UNL A   1      36.365  21.848  25.604  1.00  0.00    -0.015 A 
ATOM     22  C   UNL A   1      35.013  23.733  26.356  1.00  0.00     0.026 A 
ATOM     23  C   UNL A   1      37.600  21.178  25.599  1.00  0.00     0.009 A 
ATOM     24  C   UNL A   1      36.278  23.173  26.054  1.00  0.00    -0.017 A 
ATOM     25  C   UNL A   1      38.773  21.878  25.859  1.00  0.00     0.001 A 
ATOM     26  C   UNL A   1      37.470  23.889  26.140  1.00  0.00     0.009 A 
ATOM     27  C   UNL A   1      38.710  23.251  26.033  1.00  0.00     0.001 A 
BRANCH  19  28
ATOM     28  O   UNL A   1      33.133  21.684  24.089  1.00  0.00    -0.496 OA
ATOM     29  C   UNL A   1      32.775  20.303  24.201  1.00  0.00     0.278 C 
ENDBRANCH  19  28
ENDBRANCH  15  18
ENDBRANCH   8  14
ENDBRANCH   4   7
ENDBRANCH   2   3
ENDBRANCH   1   2
BRANCH   1  30
ATOM     30  C   UNL A   1      32.278  29.511  27.222  1.00  0.00     0.023 C 
BRANCH  30  31
ATOM     31  C   UNL A   1      33.800  29.449  27.214  1.00  0.00     0.116 C 
BRANCH  31  32
ATOM     32  N   UNL A   1      34.460  30.742  27.228  1.00  0.00    -0.352 N 
ATOM     33  C   UNL A   1      35.650  31.080  27.863  1.00  0.00     0.251 C 
ATOM     34  H   UNL A   1      34.013  31.464  26.730  1.00  0.00     0.163 HD
ATOM     35  O   UNL A   1      35.970  32.226  28.086  1.00  0.00    -0.269 OA
BRANCH  33  36
ATOM     36  C   UNL A   1      36.606  29.972  28.098  1.00  0.00     0.039 A 
ATOM     37  C   UNL A   1      36.595  29.410  29.381  1.00  0.00     0.014 A 
ATOM     38  C   UNL A   1      37.669  29.761  27.225  1.00  0.00     0.014 A 
ATOM     39  C   UNL A   1      37.756  28.829  29.871  1.00  0.00     0.010 A 
ATOM     40  C   UNL A   1      38.850  29.284  27.749  1.00  0.00     0.010 A 
ATOM     41  C   UNL A   1      38.905  28.886  29.091  1.00  0.00    -0.014 A 
BRANCH  41  42
ATOM     42  C   UNL A   1      40.231  28.523  29.563  1.00  0.00     0.031 A 
ATOM     43  C   UNL A   1      40.774  27.248  29.060  1.00  0.00     0.074 A 
ATOM     44  C   UNL A   1      40.952  29.331  30.361  1.00  0.00     0.049 A 
ATOM     45  N   UNL A   1      42.007  27.000  28.791  1.00  0.00    -0.248 NA
ATOM     46  C   UNL A   1      39.858  26.131  28.799  1.00  0.00     0.031 C 
ATOM     47  C   UNL A   1      42.345  29.149  30.727  1.00  0.00     0.029 A 
ATOM     48  N   UNL A   1      40.520  30.396  31.154  1.00  0.00    -0.354 N 
ATOM     49  C   UNL A   1      42.069  25.682  28.412  1.00  0.00     0.074 A 
ATOM     50  C   UNL A   1      40.706  25.189  28.391  1.00  0.00     0.031 C 
ATOM     51  C   UNL A   1      42.641  29.933  31.770  1.00  0.00     0.029 A 
ATOM     52  C   UNL A   1      41.389  30.462  32.256  1.00  0.00     0.049 A 
ATOM     53  H   UNL A   1      39.753  30.988  30.975  1.00  0.00     0.167 HD
ATOM     54  C   UNL A   1      43.177  24.931  28.626  1.00  0.00     0.037 A 
ATOM     55  C   UNL A   1      40.950  30.155  33.511  1.00  0.00     0.037 A 
ATOM     56  C   UNL A   1      43.926  25.464  29.758  1.00  0.00     0.049 A 
ATOM     57  C   UNL A   1      41.663  28.915  34.014  1.00  0.00     0.074 A 
ATOM     58  C   UNL A   1      45.033  26.279  29.896  1.00  0.00     0.029 A 
ATOM     59  N   UNL A   1      43.334  25.391  31.029  1.00  0.00    -0.354 N 
ATOM     60  N   UNL A   1      41.943  27.851  33.291  1.00  0.00    -0.248 NA
ATOM     61  C   UNL A   1      42.385  28.959  35.281  1.00  0.00     0.031 C 
ATOM     62  C   UNL A   1      45.057  26.758  31.240  1.00  0.00     0.029 A 
ATOM     63  C   UNL A   1      43.997  26.191  31.942  1.00  0.00     0.049 A 
ATOM     64  H   UNL A   1      42.546  24.841  31.243  1.00  0.00     0.167 HD
ATOM     65  C   UNL A   1      42.957  27.156  33.918  1.00  0.00     0.074 A 
ATOM     66  C   UNL A   1      43.174  27.881  35.164  1.00  0.00     0.031 C 
ATOM     67  C   UNL A   1      43.713  26.145  33.379  1.00  0.00     0.037 A 
BRANCH  54  68
ATOM     68  C   UNL A   1      43.628  23.975  27.532  1.00  0.00     0.058 A 
ATOM     69  C   UNL A   1      43.005  22.723  27.352  1.00  0.00     0.135 A 
ATOM     70  C   UNL A   1      44.761  24.184  26.702  1.00  0.00     0.135 A 
ATOM     71  F   UNL A   1      41.943  22.370  28.092  1.00  0.00    -0.206 F 
ATOM     72  C   UNL A   1      43.481  21.755  26.449  1.00  0.00     0.059 A 
ATOM     73  C   UNL A   1      45.238  23.247  25.785  1.00  0.00     0.059 A 
ATOM     74  F   UNL A   1      45.501  25.296  26.765  1.00  0.00    -0.206 F 
ATOM     75  C   UNL A   1      44.606  22.023  25.676  1.00  0.00     0.060 A 
BRANCH  75  76
ATOM     76  S   UNL A   1      45.267  20.764  24.565  1.00  0.00     0.124 S 
ATOM     77  O   UNL A   1      44.587  21.080  23.314  1.00  0.00    -0.237 OA
ATOM     78  O   UNL A   1      46.699  21.037  24.600  1.00  0.00    -0.237 OA
ATOM     79  O   UNL A   1      44.860  19.507  25.191  1.00  0.00    -0.744 OA
ENDBRANCH  75  76
ENDBRANCH  54  68
BRANCH  55  80
ATOM     80  C   UNL A   1      39.581  30.665  33.780  1.00  0.00     0.058 A 
ATOM     81  C   UNL A   1      39.470  32.060  33.986  1.00  0.00     0.135 A 
ATOM     82  C   UNL A   1      38.435  29.991  33.347  1.00  0.00     0.135 A 
ATOM     83  F   UNL A   1      40.532  32.752  34.433  1.00  0.00    -0.206 F 
ATOM     84  C   UNL A   1      38.350  32.779  33.584  1.00  0.00     0.059 A 
ATOM     85  C   UNL A   1      37.290  30.694  32.953  1.00  0.00     0.059 A 
ATOM     86  F   UNL A   1      38.468  28.667  33.139  1.00  0.00    -0.206 F 
ATOM     87  C   UNL A   1      37.297  32.091  32.991  1.00  0.00     0.060 A 
BRANCH  87  88
ATOM     88  S   UNL A   1      36.022  33.048  32.134  1.00  0.00     0.124 S 
ATOM     89  O   UNL A   1      35.339  32.026  31.348  1.00  0.00    -0.237 OA
ATOM     90  O   UNL A   1      35.257  33.592  33.256  1.00  0.00    -0.237 OA
ATOM     91  O   UNL A   1      36.796  34.015  31.367  1.00  0.00    -0.744 OA
ENDBRANCH  87  88
ENDBRANCH  55  80
BRANCH  67  92
ATOM     92  C   UNL A   1      44.447  25.101  34.219  1.00  0.00     0.058 A 
ATOM     93  C   UNL A   1      45.786  25.226  34.641  1.00  0.00     0.135 A 
ATOM     94  C   UNL A   1      43.755  23.997  34.784  1.00  0.00     0.135 A 
ATOM     95  F   UNL A   1      46.532  26.293  34.327  1.00  0.00    -0.206 F 
ATOM     96  C   UNL A   1      46.412  24.293  35.467  1.00  0.00     0.059 A 
ATOM     97  C   UNL A   1      44.345  23.083  35.655  1.00  0.00     0.059 A 
ATOM     98  F   UNL A   1      42.450  23.787  34.562  1.00  0.00    -0.206 F 
ATOM     99  C   UNL A   1      45.684  23.226  35.975  1.00  0.00     0.060 A 
BRANCH  99 100
ATOM    100  S   UNL A   1      46.464  22.105  37.145  1.00  0.00     0.124 S 
ATOM    101  O   UNL A   1      47.874  22.426  36.960  1.00  0.00    -0.237 OA
ATOM    102  O   UNL A   1      45.883  22.523  38.419  1.00  0.00    -0.237 OA
ATOM    103  O   UNL A   1      46.045  20.788  36.679  1.00  0.00    -0.744 OA
ENDBRANCH  99 100
ENDBRANCH  67  92
ENDBRANCH  41  42
ENDBRANCH  33  36
ENDBRANCH  31  32
ENDBRANCH  30  31
ENDBRANCH   1  30
TORSDOF 17
ENDMDL
MODEL 3
REMARK VINA RESULT:     -13.8      4.967     11.353
REMARK SMILES COc1cc2ccccc2cc1C(=O)Nc1cc(C(=O)NCCCCNC(=O)c2ccc(-c3c4nc(c(-c5c(F)cc(S(=O)(=O)[O-])cc5F)c5ccc([nH]5)c(-c5c(F)cc(S(=O)(=O)[O-])cc5F)c5nc(c(-c6c(F)cc(S(=O)(=O)[O-])cc6F)c6ccc3[nH]6)C=C5)C=C4)cc2)ccc1C
REMARK SMILES IDX 23 1 22 2 21 3 19 4 20 5 18 7 16 8 17 9 97 10 96 11 98 12
REMARK SMILES IDX 95 13 15 14 13 15 14 16 12 18 3 19 4 20 5 21 11 22 6 23
REMARK SMILES IDX 10 24 7 25 9 26 8 27 2 28 1 29 24 30 25 31 26 32 27 33 28 35
REMARK SMILES IDX 29 36 30 37 94 38 31 39 93 40 32 41 33 42 34 43 87 44 35 45
REMARK SMILES IDX 92 46 86 47 88 48 36 49 91 50 85 51 84 52 37 54 71 55 50 56
REMARK SMILES IDX 70 57 51 58 54 59 69 60 89 61 52 62 53 63 68 65 90 66 55 67
REMARK SMILES IDX 38 68 39 69 48 70 40 71 41 72 47 73 49 74 42 75 43 76 44 77
REMARK SMILES IDX 45 78 46 79 72 80 73 81 82 82 74 83 75 84 81 85 83 86 76 87
REMARK SMILES IDX 77 88 78 89 79 90 80 91 56 92 57 93 66 94 58 95 59 96 65 97
REMARK SMILES IDX 67 98 60 99 61 100 62 101 63 102 64 103
REMARK H PARENT 21 6 15 17 26 34 88 53 54 64
REMARK Flexibility Score: inf
ROOT
ATOM      1  C   UNL A   1      36.136  21.831  25.849  1.00  0.00     0.023 C 
ENDROOT
BRANCH   1   2
ATOM      2  C   UNL A   1      35.797  20.588  25.013  1.00  0.00     0.116 C 
BRANCH   2   3
ATOM      3  N   UNL A   1      34.385  20.245  25.114  1.00  0.00    -0.352 N 
ATOM      4  C   UNL A   1      33.210  20.911  24.867  1.00  0.00     0.251 C 
ATOM      5  O   UNL A   1      32.169  20.303  25.137  1.00  0.00    -0.269 OA
ATOM      6  H   UNL A   1      34.240  19.325  25.432  1.00  0.00     0.163 HD
BRANCH   4   7
ATOM      7  C   UNL A   1      33.100  22.270  24.249  1.00  0.00     0.041 A 
ATOM      8  C   UNL A   1      33.363  24.683  24.318  1.00  0.00     0.045 A 
ATOM      9  C   UNL A   1      33.107  23.466  24.958  1.00  0.00     0.040 A 
ATOM     10  C   UNL A   1      33.302  24.782  22.919  1.00  0.00    -0.027 A 
ATOM     11  C   UNL A   1      33.223  23.587  22.190  1.00  0.00     0.006 A 
ATOM     12  C   UNL A   1      33.555  26.064  22.181  1.00  0.00     0.046 C 
ATOM     13  C   UNL A   1      33.170  22.348  22.847  1.00  0.00     0.014 A 
BRANCH   8  14
ATOM     14  N   UNL A   1      33.901  25.741  25.078  1.00  0.00    -0.322 N 
ATOM     15  C   UNL A   1      33.310  26.973  25.368  1.00  0.00     0.259 C 
ATOM     16  O   UNL A   1      33.976  27.807  25.984  1.00  0.00    -0.269 OA
ATOM     17  H   UNL A   1      34.801  25.593  25.449  1.00  0.00     0.170 HD
BRANCH  15  18
ATOM     18  C   UNL A   1      31.878  27.298  25.030  1.00  0.00     0.082 A 
ATOM     19  C   UNL A   1      30.783  26.525  25.414  1.00  0.00     0.132 A 
ATOM     20  C   UNL A   1      29.582  26.580  24.705  1.00  0.00     0.056 A 
ATOM     21  C   UNL A   1      29.319  27.682  23.903  1.00  0.00    -0.015 A 
ATOM     22  C   UNL A   1      31.569  28.491  24.377  1.00  0.00     0.026 A 
ATOM     23  C   UNL A   1      28.118  27.814  23.185  1.00  0.00     0.009 A 
ATOM     24  C   UNL A   1      30.248  28.732  23.932  1.00  0.00    -0.017 A 
ATOM     25  C   UNL A   1      27.754  29.047  22.657  1.00  0.00     0.001 A 
ATOM     26  C   UNL A   1      29.787  29.990  23.550  1.00  0.00     0.009 A 
ATOM     27  C   UNL A   1      28.546  30.152  22.927  1.00  0.00     0.001 A 
BRANCH  19  28
ATOM     28  O   UNL A   1      30.755  25.749  26.543  1.00  0.00    -0.496 OA
ATOM     29  C   UNL A   1      30.111  24.502  26.268  1.00  0.00     0.278 C 
ENDBRANCH  19  28
ENDBRANCH  15  18
ENDBRANCH   8  14
ENDBRANCH   4   7
ENDBRANCH   2   3
ENDBRANCH   1   2
BRANCH   1  30
ATOM     30  C   UNL A   1      37.276  22.658  25.246  1.00  0.00     0.023 C 
BRANCH  30  31
ATOM     31  C   UNL A   1      37.782  23.719  26.214  1.00  0.00     0.116 C 
BRANCH  31  32
ATOM     32  N   UNL A   1      38.896  23.299  27.046  1.00  0.00    -0.352 N 
ATOM     33  C   UNL A   1      39.859  24.105  27.643  1.00  0.00     0.251 C 
ATOM     34  H   UNL A   1      38.979  22.331  27.204  1.00  0.00     0.163 HD
ATOM     35  O   UNL A   1      40.911  23.671  28.055  1.00  0.00    -0.269 OA
BRANCH  33  36
ATOM     36  C   UNL A   1      39.461  25.505  27.922  1.00  0.00     0.039 A 
ATOM     37  C   UNL A   1      39.966  26.475  27.046  1.00  0.00     0.014 A 
ATOM     38  C   UNL A   1      38.932  25.854  29.160  1.00  0.00     0.014 A 
ATOM     39  C   UNL A   1      40.151  27.770  27.510  1.00  0.00     0.010 A 
ATOM     40  C   UNL A   1      39.217  27.108  29.654  1.00  0.00     0.010 A 
ATOM     41  C   UNL A   1      39.889  28.037  28.849  1.00  0.00    -0.014 A 
BRANCH  41  42
ATOM     42  C   UNL A   1      40.246  29.277  29.518  1.00  0.00     0.031 A 
ATOM     43  C   UNL A   1      39.202  30.317  29.559  1.00  0.00     0.074 A 
ATOM     44  C   UNL A   1      41.435  29.445  30.124  1.00  0.00     0.049 A 
ATOM     45  N   UNL A   1      38.994  31.148  30.519  1.00  0.00    -0.248 NA
ATOM     46  C   UNL A   1      38.269  30.443  28.434  1.00  0.00     0.031 C 
ATOM     47  C   UNL A   1      41.809  30.560  30.975  1.00  0.00     0.029 A 
ATOM     48  N   UNL A   1      42.619  28.725  29.951  1.00  0.00    -0.354 N 
ATOM     49  C   UNL A   1      37.972  31.969  30.113  1.00  0.00     0.074 A 
ATOM     50  C   UNL A   1      37.522  31.473  28.829  1.00  0.00     0.031 C 
ATOM     51  C   UNL A   1      43.138  30.575  31.136  1.00  0.00     0.029 A 
ATOM     52  C   UNL A   1      43.676  29.616  30.201  1.00  0.00     0.049 A 
ATOM     53  H   UNL A   1      42.697  27.776  29.702  1.00  0.00     0.167 HD
ATOM     54  C   UNL A   1      37.877  33.253  30.540  1.00  0.00     0.037 A 
ATOM     55  C   UNL A   1      44.500  30.022  29.192  1.00  0.00     0.037 A 
ATOM     56  C   UNL A   1      39.198  33.754  30.901  1.00  0.00     0.049 A 
ATOM     57  C   UNL A   1      44.334  31.512  28.963  1.00  0.00     0.074 A 
ATOM     58  C   UNL A   1      39.890  33.912  32.087  1.00  0.00     0.029 A 
ATOM     59  N   UNL A   1      40.144  33.908  29.875  1.00  0.00    -0.354 N 
ATOM     60  N   UNL A   1      43.189  32.163  28.988  1.00  0.00    -0.248 NA
ATOM     61  C   UNL A   1      45.499  32.388  29.019  1.00  0.00     0.031 C 
ATOM     62  C   UNL A   1      41.270  34.084  31.768  1.00  0.00     0.029 A 
ATOM     63  C   UNL A   1      41.417  34.089  30.384  1.00  0.00     0.049 A 
ATOM     64  H   UNL A   1      39.929  33.889  28.915  1.00  0.00     0.167 HD
ATOM     65  C   UNL A   1      43.457  33.501  29.196  1.00  0.00     0.074 A 
ATOM     66  C   UNL A   1      44.913  33.584  29.183  1.00  0.00     0.031 C 
ATOM     67  C   UNL A   1      42.553  34.475  29.541  1.00  0.00     0.037 A 
BRANCH  54  68
ATOM     68  C   UNL A   1      36.504  33.797  30.904  1.00  0.00     0.058 A 
ATOM     69  C   UNL A   1      35.596  34.214  29.910  1.00  0.00     0.135 A 
ATOM     70  C   UNL A   1      36.070  34.052  32.231  1.00  0.00     0.135 A 
ATOM     71  F   UNL A   1      35.885  34.070  28.608  1.00  0.00    -0.206 F 
ATOM     72  C   UNL A   1      34.377  34.851  30.207  1.00  0.00     0.059 A 
ATOM     73  C   UNL A   1      34.857  34.664  32.550  1.00  0.00     0.059 A 
ATOM     74  F   UNL A   1      36.819  33.762  33.300  1.00  0.00    -0.206 F 
ATOM     75  C   UNL A   1      34.022  35.081  31.532  1.00  0.00     0.060 A 
BRANCH  75  76
ATOM     76  S   UNL A   1      32.494  35.960  31.923  1.00  0.00     0.124 S 
ATOM     77  O   UNL A   1      31.713  34.925  32.590  1.00  0.00    -0.237 OA
ATOM     78  O   UNL A   1      32.969  37.048  32.772  1.00  0.00    -0.237 OA
ATOM     79  O   UNL A   1      31.990  36.371  30.614  1.00  0.00    -0.744 OA
ENDBRANCH  75  76
ENDBRANCH  54  68
BRANCH  55  80
ATOM     80  C   UNL A   1      44.835  28.925  28.248  1.00  0.00     0.058 A 
ATOM     81  C   UNL A   1      44.300  29.046  26.945  1.00  0.00     0.135 A 
ATOM     82  C   UNL A   1      45.981  28.137  28.397  1.00  0.00     0.135 A 
ATOM     83  F   UNL A   1      43.181  29.766  26.749  1.00  0.00    -0.206 F 
ATOM     84  C   UNL A   1      44.980  28.587  25.822  1.00  0.00     0.059 A 
ATOM     85  C   UNL A   1      46.672  27.650  27.281  1.00  0.00     0.059 A 
ATOM     86  F   UNL A   1      46.535  27.974  29.607  1.00  0.00    -0.206 F 
ATOM     87  C   UNL A   1      46.209  27.961  26.000  1.00  0.00     0.060 A 
BRANCH  87  88
ATOM     88  S   UNL A   1      47.259  27.705  24.547  1.00  0.00     0.124 S 
ATOM     89  O   UNL A   1      46.684  28.634  23.579  1.00  0.00    -0.237 OA
ATOM     90  O   UNL A   1      48.575  28.074  25.066  1.00  0.00    -0.237 OA
ATOM     91  O   UNL A   1      47.068  26.292  24.249  1.00  0.00    -0.744 OA
ENDBRANCH  87  88
ENDBRANCH  55  80
BRANCH  67  92
ATOM     92  C   UNL A   1      42.775  35.963  29.279  1.00  0.00     0.058 A 
ATOM     93  C   UNL A   1      43.624  36.783  30.049  1.00  0.00     0.135 A 
ATOM     94  C   UNL A   1      42.261  36.585  28.110  1.00  0.00     0.135 A 
ATOM     95  F   UNL A   1      44.313  36.307  31.095  1.00  0.00    -0.206 F 
ATOM     96  C   UNL A   1      43.865  38.122  29.747  1.00  0.00     0.059 A 
ATOM     97  C   UNL A   1      42.533  37.907  27.759  1.00  0.00     0.059 A 
ATOM     98  F   UNL A   1      41.514  35.918  27.219  1.00  0.00    -0.206 F 
ATOM     99  C   UNL A   1      43.320  38.677  28.597  1.00  0.00     0.060 A 
BRANCH  99 100
ATOM    100  S   UNL A   1      43.747  40.365  28.146  1.00  0.00     0.124 S 
ATOM    101  O   UNL A   1      43.150  41.119  29.242  1.00  0.00    -0.237 OA
ATOM    102  O   UNL A   1      45.207  40.328  28.126  1.00  0.00    -0.237 OA
ATOM    103  O   UNL A   1      43.117  40.532  26.841  1.00  0.00    -0.744 OA
ENDBRANCH  99 100
ENDBRANCH  67  92
ENDBRANCH  41  42
ENDBRANCH  33  36
ENDBRANCH  31  32
ENDBRANCH  30  31
ENDBRANCH   1  30
TORSDOF 17
ENDMDL
