MODEL 1
REMARK VINA RESULT:     -11.5      0.000      0.000
REMARK SMILES Cc1cc(C)nc(N2CCCC[C@H]2C(=O)NCCCCNC(=O)c2ccc(-c3c4nc(c(-c5c(F)cc(S(=O)(=O)[O-])cc5F)c5ccc([nH]5)c(-c5c(F)cc(S(=O)(=O)[O-])cc5F)c5nc(c(-c6c(F)cc(S(=O)(=O)[O-])cc6F)c6ccc3[nH]6)C=C5)C=C4)cc2)n1
REMARK SMILES IDX 19 1 18 2 17 3 16 4 14 5 15 6 13 8 8 9 9 10 10 11 12 12
REMARK SMILES IDX 11 13 7 14 1 15 2 16 3 17 90 18 4 19 5 20 6 21 20 22 21 23
REMARK SMILES IDX 22 24 23 26 24 27 25 28 89 29 26 30 88 31 27 32 28 33 29 34
REMARK SMILES IDX 82 35 30 36 87 37 81 38 83 39 31 40 86 41 80 42 79 43 32 45
REMARK SMILES IDX 66 46 45 47 65 48 46 49 49 50 64 51 84 52 47 53 48 54 63 56
REMARK SMILES IDX 85 57 50 58 33 59 34 60 43 61 35 62 36 63 42 64 44 65 37 66
REMARK SMILES IDX 38 67 39 68 40 69 41 70 67 71 68 72 77 73 69 74 70 75 76 76
REMARK SMILES IDX 78 77 71 78 72 79 73 80 74 81 75 82 51 83 52 84 61 85 53 86
REMARK SMILES IDX 54 87 60 88 62 89 55 90 56 91 57 92 58 93 59 94
REMARK H PARENT 16 7 21 25 83 44 49 55
REMARK Flexibility Score: inf
ROOT
ATOM      1  C   UNL A   1      32.097  28.012  27.284  1.00  0.00     0.023 C 
ENDROOT
BRANCH   1   2
ATOM      2  C   UNL A   1      31.284  27.964  25.989  1.00  0.00     0.023 C 
BRANCH   2   3
ATOM      3  C   UNL A   1      30.563  26.651  25.711  1.00  0.00     0.116 C 
BRANCH   3   4
ATOM      4  N   UNL A   1      30.810  25.631  26.705  1.00  0.00    -0.354 N 
ATOM      5  C   UNL A   1      31.396  24.405  26.532  1.00  0.00     0.242 C 
ATOM      6  O   UNL A   1      31.664  23.771  27.558  1.00  0.00    -0.273 OA
ATOM      7  H   UNL A   1      30.519  25.844  27.621  1.00  0.00     0.163 HD
BRANCH   5   8
ATOM      8  C   UNL A   1      31.674  23.845  25.108  1.00  0.00     0.174 C 
ATOM      9  N   UNL A   1      33.011  24.187  24.633  1.00  0.00    -0.329 N 
ATOM     10  C   UNL A   1      34.176  23.591  25.241  1.00  0.00     0.120 C 
ATOM     11  C   UNL A   1      34.060  22.069  25.156  1.00  0.00     0.022 C 
ATOM     12  C   UNL A   1      31.536  22.307  25.085  1.00  0.00     0.035 C 
ATOM     13  C   UNL A   1      32.727  21.569  25.710  1.00  0.00     0.004 C 
BRANCH   9  14
ATOM     14  C   UNL A   1      33.173  25.123  23.655  1.00  0.00     0.226 A 
ATOM     15  C   UNL A   1      34.087  28.665  23.517  1.00  0.00     0.067 C 
ATOM     16  C   UNL A   1      33.698  27.290  23.067  1.00  0.00     0.043 A 
ATOM     17  C   UNL A   1      33.336  27.058  21.760  1.00  0.00     0.047 A 
ATOM     18  N   UNL A   1      33.639  26.328  24.008  1.00  0.00    -0.218 NA
ATOM     19  C   UNL A   1      32.916  25.779  21.464  1.00  0.00     0.043 A 
ATOM     20  C   UNL A   1      32.522  25.430  20.061  1.00  0.00     0.067 C 
ATOM     21  N   UNL A   1      32.805  24.814  22.402  1.00  0.00    -0.218 NA
ENDBRANCH   9  14
ENDBRANCH   5   8
ENDBRANCH   3   4
ENDBRANCH   2   3
ENDBRANCH   1   2
BRANCH   1  22
ATOM     22  C   UNL A   1      33.474  28.668  27.205  1.00  0.00     0.116 C 
BRANCH  22  23
ATOM     23  N   UNL A   1      33.529  30.009  27.769  1.00  0.00    -0.352 N 
ATOM     24  C   UNL A   1      34.596  30.692  28.305  1.00  0.00     0.251 C 
ATOM     25  H   UNL A   1      32.676  30.500  27.766  1.00  0.00     0.163 HD
ATOM     26  O   UNL A   1      34.438  31.839  28.718  1.00  0.00    -0.269 OA
BRANCH  24  27
ATOM     27  C   UNL A   1      35.911  30.024  28.449  1.00  0.00     0.039 A 
ATOM     28  C   UNL A   1      36.811  30.094  27.381  1.00  0.00     0.014 A 
ATOM     29  C   UNL A   1      36.285  29.395  29.640  1.00  0.00     0.014 A 
ATOM     30  C   UNL A   1      38.122  29.641  27.549  1.00  0.00     0.010 A 
ATOM     31  C   UNL A   1      37.610  29.002  29.827  1.00  0.00     0.010 A 
ATOM     32  C   UNL A   1      38.547  29.148  28.793  1.00  0.00    -0.014 A 
BRANCH  32  33
ATOM     33  C   UNL A   1      39.982  28.849  29.045  1.00  0.00     0.031 A 
ATOM     34  C   UNL A   1      40.886  29.886  29.651  1.00  0.00     0.074 A 
ATOM     35  C   UNL A   1      40.482  27.654  28.664  1.00  0.00     0.049 A 
ATOM     36  N   UNL A   1      42.173  29.825  29.878  1.00  0.00    -0.248 NA
ATOM     37  C   UNL A   1      40.268  31.166  30.028  1.00  0.00     0.031 C 
ATOM     38  C   UNL A   1      39.722  26.587  28.008  1.00  0.00     0.029 A 
ATOM     39  N   UNL A   1      41.751  27.140  28.763  1.00  0.00    -0.354 N 
ATOM     40  C   UNL A   1      42.521  31.056  30.421  1.00  0.00     0.074 A 
ATOM     41  C   UNL A   1      41.318  31.861  30.445  1.00  0.00     0.031 C 
ATOM     42  C   UNL A   1      40.532  25.540  27.781  1.00  0.00     0.029 A 
ATOM     43  C   UNL A   1      41.874  25.869  28.250  1.00  0.00     0.049 A 
ATOM     44  H   UNL A   1      42.502  27.633  29.164  1.00  0.00     0.167 HD
ATOM     45  C   UNL A   1      43.727  31.470  30.879  1.00  0.00     0.037 A 
ATOM     46  C   UNL A   1      42.947  25.058  28.167  1.00  0.00     0.037 A 
ATOM     47  C   UNL A   1      44.919  30.662  30.869  1.00  0.00     0.049 A 
ATOM     48  C   UNL A   1      44.264  25.528  28.722  1.00  0.00     0.074 A 
ATOM     49  C   UNL A   1      46.190  30.992  31.309  1.00  0.00     0.029 A 
ATOM     50  N   UNL A   1      44.984  29.355  30.409  1.00  0.00    -0.354 N 
ATOM     51  N   UNL A   1      44.565  26.686  29.260  1.00  0.00    -0.248 NA
ATOM     52  C   UNL A   1      45.384  24.577  28.676  1.00  0.00     0.031 C 
ATOM     53  C   UNL A   1      47.025  29.887  31.109  1.00  0.00     0.029 A 
ATOM     54  C   UNL A   1      46.267  28.860  30.569  1.00  0.00     0.049 A 
ATOM     55  H   UNL A   1      44.229  28.853  30.025  1.00  0.00     0.167 HD
ATOM     56  C   UNL A   1      45.898  26.591  29.642  1.00  0.00     0.074 A 
ATOM     57  C   UNL A   1      46.343  25.261  29.285  1.00  0.00     0.031 C 
ATOM     58  C   UNL A   1      46.683  27.523  30.235  1.00  0.00     0.037 A 
BRANCH  45  59
ATOM     59  C   UNL A   1      43.811  32.855  31.455  1.00  0.00     0.058 A 
ATOM     60  C   UNL A   1      44.233  33.940  30.671  1.00  0.00     0.135 A 
ATOM     61  C   UNL A   1      43.431  33.110  32.781  1.00  0.00     0.135 A 
ATOM     62  F   UNL A   1      44.625  33.745  29.401  1.00  0.00    -0.206 F 
ATOM     63  C   UNL A   1      44.296  35.229  31.188  1.00  0.00     0.059 A 
ATOM     64  C   UNL A   1      43.464  34.397  33.314  1.00  0.00     0.059 A 
ATOM     65  F   UNL A   1      43.021  32.107  33.573  1.00  0.00    -0.206 F 
ATOM     66  C   UNL A   1      43.910  35.448  32.512  1.00  0.00     0.060 A 
BRANCH  66  67
ATOM     67  S   UNL A   1      43.982  37.129  33.164  1.00  0.00     0.124 S 
ATOM     68  O   UNL A   1      43.614  37.912  31.989  1.00  0.00    -0.237 OA
ATOM     69  O   UNL A   1      42.992  37.094  34.237  1.00  0.00    -0.237 OA
ATOM     70  O   UNL A   1      45.369  37.264  33.600  1.00  0.00    -0.744 OA
ENDBRANCH  66  67
ENDBRANCH  45  59
BRANCH  46  71
ATOM     71  C   UNL A   1      42.825  23.706  27.562  1.00  0.00     0.058 A 
ATOM     72  C   UNL A   1      42.421  22.605  28.333  1.00  0.00     0.135 A 
ATOM     73  C   UNL A   1      43.130  23.483  26.212  1.00  0.00     0.135 A 
ATOM     74  F   UNL A   1      42.120  22.771  29.631  1.00  0.00    -0.206 F 
ATOM     75  C   UNL A   1      42.360  21.323  27.798  1.00  0.00     0.059 A 
ATOM     76  C   UNL A   1      43.054  22.214  25.647  1.00  0.00     0.059 A 
ATOM     77  F   UNL A   1      43.499  24.507  25.427  1.00  0.00    -0.206 F 
ATOM     78  C   UNL A   1      42.687  21.136  26.454  1.00  0.00     0.060 A 
BRANCH  78  79
ATOM     79  S   UNL A   1      42.594  19.473  25.756  1.00  0.00     0.124 S 
ATOM     80  O   UNL A   1      41.170  19.359  25.463  1.00  0.00    -0.237 OA
ATOM     81  O   UNL A   1      43.478  19.569  24.598  1.00  0.00    -0.237 OA
ATOM     82  O   UNL A   1      43.087  18.631  26.841  1.00  0.00    -0.744 OA
ENDBRANCH  78  79
ENDBRANCH  46  71
BRANCH  58  83
ATOM     83  C   UNL A   1      48.085  27.116  30.584  1.00  0.00     0.058 A 
ATOM     84  C   UNL A   1      48.371  26.376  31.740  1.00  0.00     0.135 A 
ATOM     85  C   UNL A   1      49.150  27.449  29.732  1.00  0.00     0.135 A 
ATOM     86  F   UNL A   1      47.387  26.040  32.589  1.00  0.00    -0.206 F 
ATOM     87  C   UNL A   1      49.673  25.999  32.055  1.00  0.00     0.059 A 
ATOM     88  C   UNL A   1      50.457  27.065  30.017  1.00  0.00     0.059 A 
ATOM     89  F   UNL A   1      48.925  28.150  28.610  1.00  0.00    -0.206 F 
ATOM     90  C   UNL A   1      50.709  26.352  31.188  1.00  0.00     0.060 A 
BRANCH  90  91
ATOM     91  S   UNL A   1      52.394  25.841  31.590  1.00  0.00     0.124 S 
ATOM     92  O   UNL A   1      53.058  25.980  30.298  1.00  0.00    -0.237 OA
ATOM     93  O   UNL A   1      52.785  26.810  32.610  1.00  0.00    -0.237 OA
ATOM     94  O   UNL A   1      52.226  24.472  32.069  1.00  0.00    -0.744 OA
ENDBRANCH  90  91
ENDBRANCH  58  83
ENDBRANCH  32  33
ENDBRANCH  24  27
ENDBRANCH  22  23
ENDBRANCH   1  22
TORSDOF 15
ENDMDL
MODEL 2
REMARK VINA RESULT:     -11.3      1.083      2.106
REMARK SMILES Cc1cc(C)nc(N2CCCC[C@H]2C(=O)NCCCCNC(=O)c2ccc(-c3c4nc(c(-c5c(F)cc(S(=O)(=O)[O-])cc5F)c5ccc([nH]5)c(-c5c(F)cc(S(=O)(=O)[O-])cc5F)c5nc(c(-c6c(F)cc(S(=O)(=O)[O-])cc6F)c6ccc3[nH]6)C=C5)C=C4)cc2)n1
REMARK SMILES IDX 19 1 18 2 17 3 16 4 14 5 15 6 13 8 8 9 9 10 10 11 12 12
REMARK SMILES IDX 11 13 7 14 1 15 2 16 3 17 90 18 4 19 5 20 6 21 20 22 21 23
REMARK SMILES IDX 22 24 23 26 24 27 25 28 89 29 26 30 88 31 27 32 28 33 29 34
REMARK SMILES IDX 82 35 30 36 87 37 81 38 83 39 31 40 86 41 80 42 79 43 32 45
REMARK SMILES IDX 66 46 45 47 65 48 46 49 49 50 64 51 84 52 47 53 48 54 63 56
REMARK SMILES IDX 85 57 50 58 33 59 34 60 43 61 35 62 36 63 42 64 44 65 37 66
REMARK SMILES IDX 38 67 39 68 40 69 41 70 67 71 68 72 77 73 69 74 70 75 76 76
REMARK SMILES IDX 78 77 71 78 72 79 73 80 74 81 75 82 51 83 52 84 61 85 53 86
REMARK SMILES IDX 54 87 60 88 62 89 55 90 56 91 57 92 58 93 59 94
REMARK H PARENT 16 7 21 25 83 44 49 55
REMARK Flexibility Score: inf
ROOT
ATOM      1  C   UNL A   1      32.177  28.425  26.420  1.00  0.00     0.023 C 
ENDROOT
BRANCH   1   2
ATOM      2  C   UNL A   1      31.193  27.392  26.973  1.00  0.00     0.023 C 
BRANCH   2   3
ATOM      3  C   UNL A   1      30.899  26.208  26.060  1.00  0.00     0.116 C 
BRANCH   3   4
ATOM      4  N   UNL A   1      30.986  24.926  26.725  1.00  0.00    -0.354 N 
ATOM      5  C   UNL A   1      31.882  23.915  26.499  1.00  0.00     0.242 C 
ATOM      6  O   UNL A   1      31.879  22.983  27.308  1.00  0.00    -0.273 OA
ATOM      7  H   UNL A   1      30.318  24.760  27.427  1.00  0.00     0.163 HD
BRANCH   5   8
ATOM      8  C   UNL A   1      32.826  23.944  25.263  1.00  0.00     0.174 C 
ATOM      9  N   UNL A   1      33.319  22.615  24.915  1.00  0.00    -0.329 N 
ATOM     10  C   UNL A   1      32.421  21.622  24.375  1.00  0.00     0.120 C 
ATOM     11  C   UNL A   1      31.756  22.182  23.118  1.00  0.00     0.022 C 
ATOM     12  C   UNL A   1      32.101  24.524  24.029  1.00  0.00     0.035 C 
ATOM     13  C   UNL A   1      31.117  23.546  23.373  1.00  0.00     0.004 C 
BRANCH   9  14
ATOM     14  C   UNL A   1      34.618  22.278  25.161  1.00  0.00     0.226 A 
ATOM     15  C   UNL A   1      37.681  24.064  26.072  1.00  0.00     0.067 C 
ATOM     16  C   UNL A   1      36.752  22.938  25.728  1.00  0.00     0.043 A 
ATOM     17  C   UNL A   1      37.243  21.676  25.485  1.00  0.00     0.047 A 
ATOM     18  N   UNL A   1      35.447  23.238  25.589  1.00  0.00    -0.218 NA
ATOM     19  C   UNL A   1      36.319  20.729  25.098  1.00  0.00     0.043 A 
ATOM     20  C   UNL A   1      36.760  19.322  24.832  1.00  0.00     0.067 C 
ATOM     21  N   UNL A   1      35.014  21.022  24.907  1.00  0.00    -0.218 NA
ENDBRANCH   9  14
ENDBRANCH   5   8
ENDBRANCH   3   4
ENDBRANCH   2   3
ENDBRANCH   1   2
BRANCH   1  22
ATOM     22  C   UNL A   1      33.416  28.712  27.267  1.00  0.00     0.116 C 
BRANCH  22  23
ATOM     23  N   UNL A   1      33.486  30.071  27.782  1.00  0.00    -0.352 N 
ATOM     24  C   UNL A   1      34.561  30.763  28.289  1.00  0.00     0.251 C 
ATOM     25  H   UNL A   1      32.637  30.569  27.766  1.00  0.00     0.163 HD
ATOM     26  O   UNL A   1      34.414  31.926  28.662  1.00  0.00    -0.269 OA
BRANCH  24  27
ATOM     27  C   UNL A   1      35.870  30.090  28.451  1.00  0.00     0.039 A 
ATOM     28  C   UNL A   1      36.766  30.113  27.377  1.00  0.00     0.014 A 
ATOM     29  C   UNL A   1      36.245  29.501  29.662  1.00  0.00     0.014 A 
ATOM     30  C   UNL A   1      38.074  29.655  27.555  1.00  0.00     0.010 A 
ATOM     31  C   UNL A   1      37.567  29.103  29.857  1.00  0.00     0.010 A 
ATOM     32  C   UNL A   1      38.501  29.204  28.815  1.00  0.00    -0.014 A 
BRANCH  32  33
ATOM     33  C   UNL A   1      39.934  28.901  29.071  1.00  0.00     0.031 A 
ATOM     34  C   UNL A   1      40.840  29.939  29.674  1.00  0.00     0.074 A 
ATOM     35  C   UNL A   1      40.431  27.704  28.696  1.00  0.00     0.049 A 
ATOM     36  N   UNL A   1      42.126  29.875  29.904  1.00  0.00    -0.248 NA
ATOM     37  C   UNL A   1      40.225  31.222  30.045  1.00  0.00     0.031 C 
ATOM     38  C   UNL A   1      39.669  26.636  28.043  1.00  0.00     0.029 A 
ATOM     39  N   UNL A   1      41.698  27.186  28.799  1.00  0.00    -0.354 N 
ATOM     40  C   UNL A   1      42.477  31.107  30.442  1.00  0.00     0.074 A 
ATOM     41  C   UNL A   1      41.276  31.915  30.461  1.00  0.00     0.031 C 
ATOM     42  C   UNL A   1      40.477  25.586  27.822  1.00  0.00     0.029 A 
ATOM     43  C   UNL A   1      41.819  25.913  28.292  1.00  0.00     0.049 A 
ATOM     44  H   UNL A   1      42.450  27.679  29.200  1.00  0.00     0.167 HD
ATOM     45  C   UNL A   1      43.683  31.519  30.901  1.00  0.00     0.037 A 
ATOM     46  C   UNL A   1      42.889  25.099  28.214  1.00  0.00     0.037 A 
ATOM     47  C   UNL A   1      44.873  30.707  30.897  1.00  0.00     0.049 A 
ATOM     48  C   UNL A   1      44.207  25.567  28.770  1.00  0.00     0.074 A 
ATOM     49  C   UNL A   1      46.144  31.035  31.338  1.00  0.00     0.029 A 
ATOM     50  N   UNL A   1      44.935  29.399  30.442  1.00  0.00    -0.354 N 
ATOM     51  N   UNL A   1      44.510  26.726  29.304  1.00  0.00    -0.248 NA
ATOM     52  C   UNL A   1      45.324  24.612  28.730  1.00  0.00     0.031 C 
ATOM     53  C   UNL A   1      46.976  29.927  31.144  1.00  0.00     0.029 A 
ATOM     54  C   UNL A   1      46.216  28.901  30.608  1.00  0.00     0.049 A 
ATOM     55  H   UNL A   1      44.179  28.898  30.059  1.00  0.00     0.167 HD
ATOM     56  C   UNL A   1      45.842  26.629  29.689  1.00  0.00     0.074 A 
ATOM     57  C   UNL A   1      46.283  25.296  29.338  1.00  0.00     0.031 C 
ATOM     58  C   UNL A   1      46.629  27.561  30.279  1.00  0.00     0.037 A 
BRANCH  45  59
ATOM     59  C   UNL A   1      43.771  32.906  31.472  1.00  0.00     0.058 A 
ATOM     60  C   UNL A   1      43.966  34.019  30.640  1.00  0.00     0.135 A 
ATOM     61  C   UNL A   1      43.618  33.132  32.848  1.00  0.00     0.135 A 
ATOM     62  F   UNL A   1      44.136  33.854  29.318  1.00  0.00    -0.206 F 
ATOM     63  C   UNL A   1      44.028  35.309  31.155  1.00  0.00     0.059 A 
ATOM     64  C   UNL A   1      43.654  34.418  33.383  1.00  0.00     0.059 A 
ATOM     65  F   UNL A   1      43.430  32.101  33.687  1.00  0.00    -0.206 F 
ATOM     66  C   UNL A   1      43.872  35.499  32.529  1.00  0.00     0.060 A 
BRANCH  66  67
ATOM     67  S   UNL A   1      43.940  37.180  33.181  1.00  0.00     0.124 S 
ATOM     68  O   UNL A   1      43.925  37.968  31.953  1.00  0.00    -0.237 OA
ATOM     69  O   UNL A   1      42.730  37.253  33.995  1.00  0.00    -0.237 OA
ATOM     70  O   UNL A   1      45.195  37.204  33.927  1.00  0.00    -0.744 OA
ENDBRANCH  66  67
ENDBRANCH  45  59
BRANCH  46  71
ATOM     71  C   UNL A   1      42.764  23.745  27.615  1.00  0.00     0.058 A 
ATOM     72  C   UNL A   1      42.479  22.626  28.413  1.00  0.00     0.135 A 
ATOM     73  C   UNL A   1      42.950  23.537  26.240  1.00  0.00     0.135 A 
ATOM     74  F   UNL A   1      42.296  22.776  29.734  1.00  0.00    -0.206 F 
ATOM     75  C   UNL A   1      42.419  21.344  27.878  1.00  0.00     0.059 A 
ATOM     76  C   UNL A   1      42.872  22.268  25.677  1.00  0.00     0.059 A 
ATOM     77  F   UNL A   1      43.203  24.578  25.431  1.00  0.00    -0.206 F 
ATOM     78  C   UNL A   1      42.624  21.174  26.507  1.00  0.00     0.060 A 
BRANCH  78  79
ATOM     79  S   UNL A   1      42.532  19.510  25.810  1.00  0.00     0.124 S 
ATOM     80  O   UNL A   1      43.473  19.606  24.701  1.00  0.00    -0.237 OA
ATOM     81  O   UNL A   1      42.951  18.677  26.933  1.00  0.00    -0.237 OA
ATOM     82  O   UNL A   1      41.126  19.385  25.440  1.00  0.00    -0.744 OA
ENDBRANCH  78  79
ENDBRANCH  46  71
BRANCH  58  83
ATOM     83  C   UNL A   1      48.029  27.151  30.633  1.00  0.00     0.058 A 
ATOM     84  C   UNL A   1      48.324  26.502  31.840  1.00  0.00     0.135 A 
ATOM     85  C   UNL A   1      49.082  27.387  29.736  1.00  0.00     0.135 A 
ATOM     86  F   UNL A   1      47.351  26.260  32.733  1.00  0.00    -0.206 F 
ATOM     87  C   UNL A   1      49.623  26.121  32.159  1.00  0.00     0.059 A 
ATOM     88  C   UNL A   1      50.386  26.998  30.025  1.00  0.00     0.059 A 
ATOM     89  F   UNL A   1      48.848  28.000  28.564  1.00  0.00    -0.206 F 
ATOM     90  C   UNL A   1      50.648  26.378  31.246  1.00  0.00     0.060 A 
BRANCH  90  91
ATOM     91  S   UNL A   1      52.330  25.862  31.656  1.00  0.00     0.124 S 
ATOM     92  O   UNL A   1      52.668  26.793  32.728  1.00  0.00    -0.237 OA
ATOM     93  O   UNL A   1      52.146  24.471  32.059  1.00  0.00    -0.237 OA
ATOM     94  O   UNL A   1      53.056  26.053  30.404  1.00  0.00    -0.744 OA
ENDBRANCH  90  91
ENDBRANCH  58  83
ENDBRANCH  32  33
ENDBRANCH  24  27
ENDBRANCH  22  23
ENDBRANCH   1  22
TORSDOF 15
ENDMDL
MODEL 3
REMARK VINA RESULT:     -11.3      0.614      8.321
REMARK SMILES Cc1cc(C)nc(N2CCCC[C@H]2C(=O)NCCCCNC(=O)c2ccc(-c3c4nc(c(-c5c(F)cc(S(=O)(=O)[O-])cc5F)c5ccc([nH]5)c(-c5c(F)cc(S(=O)(=O)[O-])cc5F)c5nc(c(-c6c(F)cc(S(=O)(=O)[O-])cc6F)c6ccc3[nH]6)C=C5)C=C4)cc2)n1
REMARK SMILES IDX 19 1 18 2 17 3 16 4 14 5 15 6 13 8 8 9 9 10 10 11 12 12
REMARK SMILES IDX 11 13 7 14 1 15 2 16 3 17 90 18 4 19 5 20 6 21 20 22 21 23
REMARK SMILES IDX 22 24 23 26 24 27 25 28 89 29 26 30 88 31 27 32 28 33 29 34
REMARK SMILES IDX 82 35 30 36 87 37 81 38 83 39 31 40 86 41 80 42 79 43 32 45
REMARK SMILES IDX 66 46 45 47 65 48 46 49 49 50 64 51 84 52 47 53 48 54 63 56
REMARK SMILES IDX 85 57 50 58 33 59 34 60 43 61 35 62 36 63 42 64 44 65 37 66
REMARK SMILES IDX 38 67 39 68 40 69 41 70 67 71 68 72 77 73 69 74 70 75 76 76
REMARK SMILES IDX 78 77 71 78 72 79 73 80 74 81 75 82 51 83 52 84 61 85 53 86
REMARK SMILES IDX 54 87 60 88 62 89 55 90 56 91 57 92 58 93 59 94
REMARK H PARENT 16 7 21 25 83 44 49 55
REMARK Flexibility Score: inf
ROOT
ATOM      1  C   UNL A   1      32.222  27.852  27.245  1.00  0.00     0.023 C 
ENDROOT
BRANCH   1   2
ATOM      2  C   UNL A   1      31.366  27.803  25.978  1.00  0.00     0.023 C 
BRANCH   2   3
ATOM      3  C   UNL A   1      30.554  26.529  25.780  1.00  0.00     0.116 C 
BRANCH   3   4
ATOM      4  N   UNL A   1      30.835  25.502  26.759  1.00  0.00    -0.354 N 
ATOM      5  C   UNL A   1      31.437  24.288  26.563  1.00  0.00     0.242 C 
ATOM      6  O   UNL A   1      31.735  23.648  27.577  1.00  0.00    -0.273 OA
ATOM      7  H   UNL A   1      30.559  25.702  27.682  1.00  0.00     0.163 HD
BRANCH   5   8
ATOM      8  C   UNL A   1      31.697  23.746  25.128  1.00  0.00     0.174 C 
ATOM      9  N   UNL A   1      33.031  24.089  24.643  1.00  0.00    -0.329 N 
ATOM     10  C   UNL A   1      34.200  23.479  25.230  1.00  0.00     0.120 C 
ATOM     11  C   UNL A   1      34.076  21.959  25.126  1.00  0.00     0.022 C 
ATOM     12  C   UNL A   1      31.552  22.209  25.085  1.00  0.00     0.035 C 
ATOM     13  C   UNL A   1      32.746  21.458  25.687  1.00  0.00     0.004 C 
BRANCH   9  14
ATOM     14  C   UNL A   1      33.187  25.038  23.676  1.00  0.00     0.226 A 
ATOM     15  C   UNL A   1      34.109  28.579  23.579  1.00  0.00     0.067 C 
ATOM     16  C   UNL A   1      33.712  27.211  23.114  1.00  0.00     0.043 A 
ATOM     17  C   UNL A   1      33.338  26.998  21.807  1.00  0.00     0.047 A 
ATOM     18  N   UNL A   1      33.659  26.237  24.042  1.00  0.00    -0.218 NA
ATOM     19  C   UNL A   1      32.912  25.725  21.497  1.00  0.00     0.043 A 
ATOM     20  C   UNL A   1      32.505  25.395  20.093  1.00  0.00     0.067 C 
ATOM     21  N   UNL A   1      32.807  24.748  22.423  1.00  0.00    -0.218 NA
ENDBRANCH   9  14
ENDBRANCH   5   8
ENDBRANCH   3   4
ENDBRANCH   2   3
ENDBRANCH   1   2
BRANCH   1  22
ATOM     22  C   UNL A   1      33.551  28.600  27.145  1.00  0.00     0.116 C 
BRANCH  22  23
ATOM     23  N   UNL A   1      33.545  29.912  27.774  1.00  0.00    -0.352 N 
ATOM     24  C   UNL A   1      34.581  30.617  28.342  1.00  0.00     0.251 C 
ATOM     25  H   UNL A   1      32.670  30.362  27.796  1.00  0.00     0.163 HD
ATOM     26  O   UNL A   1      34.370  31.734  28.812  1.00  0.00    -0.269 OA
BRANCH  24  27
ATOM     27  C   UNL A   1      35.925  30.005  28.452  1.00  0.00     0.039 A 
ATOM     28  C   UNL A   1      36.773  30.060  27.341  1.00  0.00     0.014 A 
ATOM     29  C   UNL A   1      36.378  29.444  29.650  1.00  0.00     0.014 A 
ATOM     30  C   UNL A   1      38.106  29.663  27.465  1.00  0.00     0.010 A 
ATOM     31  C   UNL A   1      37.724  29.108  29.790  1.00  0.00     0.010 A 
ATOM     32  C   UNL A   1      38.607  29.243  28.708  1.00  0.00    -0.014 A 
BRANCH  32  33
ATOM     33  C   UNL A   1      40.063  29.008  28.904  1.00  0.00     0.031 A 
ATOM     34  C   UNL A   1      40.672  27.672  28.584  1.00  0.00     0.074 A 
ATOM     35  C   UNL A   1      40.822  29.989  29.435  1.00  0.00     0.049 A 
ATOM     36  N   UNL A   1      41.905  27.267  28.755  1.00  0.00    -0.248 NA
ATOM     37  C   UNL A   1      39.777  26.651  28.019  1.00  0.00     0.031 C 
ATOM     38  C   UNL A   1      40.336  31.309  29.847  1.00  0.00     0.029 A 
ATOM     39  N   UNL A   1      42.162  30.026  29.731  1.00  0.00    -0.354 N 
ATOM     40  C   UNL A   1      41.933  25.946  28.326  1.00  0.00     0.074 A 
ATOM     41  C   UNL A   1      40.584  25.603  27.928  1.00  0.00     0.031 C 
ATOM     42  C   UNL A   1      41.364  32.031  30.323  1.00  0.00     0.029 A 
ATOM     43  C   UNL A   1      42.575  31.220  30.275  1.00  0.00     0.049 A 
ATOM     44  H   UNL A   1      42.770  29.270  29.567  1.00  0.00     0.167 HD
ATOM     45  C   UNL A   1      42.991  25.103  28.246  1.00  0.00     0.037 A 
ATOM     46  C   UNL A   1      43.794  31.619  30.689  1.00  0.00     0.037 A 
ATOM     47  C   UNL A   1      44.336  25.451  28.626  1.00  0.00     0.049 A 
ATOM     48  C   UNL A   1      44.958  30.676  30.550  1.00  0.00     0.074 A 
ATOM     49  C   UNL A   1      45.475  24.666  28.585  1.00  0.00     0.029 A 
ATOM     50  N   UNL A   1      44.725  26.693  29.103  1.00  0.00    -0.354 N 
ATOM     51  N   UNL A   1      44.969  29.440  30.111  1.00  0.00    -0.248 NA
ATOM     52  C   UNL A   1      46.280  31.186  30.945  1.00  0.00     0.031 C 
ATOM     53  C   UNL A   1      46.553  25.432  29.043  1.00  0.00     0.029 A 
ATOM     54  C   UNL A   1      46.088  26.702  29.344  1.00  0.00     0.049 A 
ATOM     55  H   UNL A   1      44.121  27.457  29.249  1.00  0.00     0.167 HD
ATOM     56  C   UNL A   1      46.299  29.037  30.149  1.00  0.00     0.074 A 
ATOM     57  C   UNL A   1      47.064  30.162  30.643  1.00  0.00     0.031 C 
ATOM     58  C   UNL A   1      46.837  27.841  29.808  1.00  0.00     0.037 A 
BRANCH  45  59
ATOM     59  C   UNL A   1      42.740  23.725  27.702  1.00  0.00     0.058 A 
ATOM     60  C   UNL A   1      42.761  23.478  26.321  1.00  0.00     0.135 A 
ATOM     61  C   UNL A   1      42.517  22.638  28.561  1.00  0.00     0.135 A 
ATOM     62  F   UNL A   1      42.951  24.487  25.456  1.00  0.00    -0.206 F 
ATOM     63  C   UNL A   1      42.550  22.203  25.808  1.00  0.00     0.059 A 
ATOM     64  C   UNL A   1      42.326  21.349  28.071  1.00  0.00     0.059 A 
ATOM     65  F   UNL A   1      42.486  22.821  29.891  1.00  0.00    -0.206 F 
ATOM     66  C   UNL A   1      42.332  21.143  26.691  1.00  0.00     0.060 A 
BRANCH  66  67
ATOM     67  S   UNL A   1      42.075  19.492  26.011  1.00  0.00     0.124 S 
ATOM     68  O   UNL A   1      42.542  18.651  27.108  1.00  0.00    -0.237 OA
ATOM     69  O   UNL A   1      40.635  19.472  25.766  1.00  0.00    -0.237 OA
ATOM     70  O   UNL A   1      42.910  19.485  24.814  1.00  0.00    -0.744 OA
ENDBRANCH  66  67
ENDBRANCH  45  59
BRANCH  46  71
ATOM     71  C   UNL A   1      43.991  32.981  31.248  1.00  0.00     0.058 A 
ATOM     72  C   UNL A   1      44.282  34.069  30.411  1.00  0.00     0.135 A 
ATOM     73  C   UNL A   1      43.918  33.219  32.629  1.00  0.00     0.135 A 
ATOM     74  F   UNL A   1      44.364  33.889  29.084  1.00  0.00    -0.206 F 
ATOM     75  C   UNL A   1      44.529  35.338  30.923  1.00  0.00     0.059 A 
ATOM     76  C   UNL A   1      44.138  34.484  33.164  1.00  0.00     0.059 A 
ATOM     77  F   UNL A   1      43.621  32.216  33.469  1.00  0.00    -0.206 F 
ATOM     78  C   UNL A   1      44.463  35.534  32.304  1.00  0.00     0.060 A 
BRANCH  78  79
ATOM     79  S   UNL A   1      44.770  37.186  32.968  1.00  0.00     0.124 S 
ATOM     80  O   UNL A   1      44.154  38.028  31.950  1.00  0.00    -0.237 OA
ATOM     81  O   UNL A   1      44.086  37.138  34.256  1.00  0.00    -0.237 OA
ATOM     82  O   UNL A   1      46.227  37.245  33.043  1.00  0.00    -0.744 OA
ENDBRANCH  78  79
ENDBRANCH  46  71
BRANCH  58  83
ATOM     83  C   UNL A   1      48.329  27.708  29.902  1.00  0.00     0.058 A 
ATOM     84  C   UNL A   1      48.953  27.206  31.053  1.00  0.00     0.135 A 
ATOM     85  C   UNL A   1      49.141  28.062  28.813  1.00  0.00     0.135 A 
ATOM     86  F   UNL A   1      48.220  26.860  32.123  1.00  0.00    -0.206 F 
ATOM     87  C   UNL A   1      50.336  27.081  31.131  1.00  0.00     0.059 A 
ATOM     88  C   UNL A   1      50.524  27.928  28.861  1.00  0.00     0.059 A 
ATOM     89  F   UNL A   1      48.589  28.541  27.686  1.00  0.00    -0.206 F 
ATOM     90  C   UNL A   1      51.114  27.449  30.031  1.00  0.00     0.060 A 
BRANCH  90  91
ATOM     91  S   UNL A   1      52.907  27.265  30.130  1.00  0.00     0.124 S 
ATOM     92  O   UNL A   1      53.357  28.617  29.816  1.00  0.00    -0.237 OA
ATOM     93  O   UNL A   1      53.107  26.836  31.512  1.00  0.00    -0.237 OA
ATOM     94  O   UNL A   1      53.199  26.253  29.119  1.00  0.00    -0.744 OA
ENDBRANCH  90  91
ENDBRANCH  58  83
ENDBRANCH  32  33
ENDBRANCH  24  27
ENDBRANCH  22  23
ENDBRANCH   1  22
TORSDOF 15
ENDMDL
