MODEL 1
REMARK VINA RESULT:     -11.9      0.000      0.000
REMARK SMILES CCCc1cc(OC(F)(F)F)cc2c1O[C@@H](C(F)(F)F)C(C(=O)NCCCCNC(=O)c1ccc(-c3c4nc(c(-c5c(F)cc(S(=O)(=O)[O-])cc5F)c5ccc([nH]5)c(-c5c(F)cc(S(=O)(=O)[O-])cc5F)c5nc(c(-c6c(F)cc(S(=O)(=O)[O-])cc6F)c6ccc3[nH]6)C=C5)C=C4)cc1)=C2
REMARK SMILES IDX 27 1 26 2 25 3 24 4 22 5 23 6 21 8 4 9 5 10 14 11 6 12 13 13
REMARK SMILES IDX 15 14 12 15 98 16 16 17 3 18 2 19 1 20 7 21 8 22 9 23 10 24
REMARK SMILES IDX 11 25 17 26 18 27 19 28 20 29 28 30 29 31 30 32 31 34 32 35
REMARK SMILES IDX 33 36 97 37 34 38 96 39 35 40 36 41 37 42 90 43 38 44 95 45
REMARK SMILES IDX 89 46 91 47 39 48 94 49 88 50 87 51 40 53 74 54 53 55 73 56
REMARK SMILES IDX 54 57 57 58 72 59 92 60 55 61 56 62 71 64 93 65 58 66 41 67
REMARK SMILES IDX 42 68 51 69 43 70 44 71 50 72 52 73 45 74 46 75 47 76 48 77
REMARK SMILES IDX 49 78 75 79 76 80 85 81 77 82 78 83 84 84 86 85 79 86 80 87
REMARK SMILES IDX 81 88 82 89 83 90 59 91 60 92 69 93 61 94 62 95 68 96 70 97
REMARK SMILES IDX 63 98 64 99 65 100 66 101 67 102
REMARK H PARENT 24 7 29 33 91 52 57 63
REMARK Flexibility Score: inf
ROOT
ATOM      1  C   UNL A   1      33.999  30.020  27.258  1.00  0.00     0.023 C 
ENDROOT
BRANCH   1   2
ATOM      2  C   UNL A   1      33.571  28.552  27.300  1.00  0.00     0.023 C 
BRANCH   2   3
ATOM      3  C   UNL A   1      32.240  28.255  26.597  1.00  0.00     0.116 C 
BRANCH   3   4
ATOM      4  N   UNL A   1      32.338  28.564  25.180  1.00  0.00    -0.352 N 
ATOM      5  C   UNL A   1      32.741  27.833  24.107  1.00  0.00     0.251 C 
ATOM      6  O   UNL A   1      32.843  28.404  23.024  1.00  0.00    -0.270 OA
ATOM      7  H   UNL A   1      32.056  29.480  24.954  1.00  0.00     0.163 HD
BRANCH   5   8
ATOM      8  C   UNL A   1      33.009  26.371  24.173  1.00  0.00     0.067 C 
ATOM      9  C   UNL A   1      33.483  22.179  24.384  1.00  0.00    -0.002 A 
ATOM     10  C   UNL A   1      34.683  21.680  24.929  1.00  0.00     0.054 A 
ATOM     11  C   UNL A   1      33.319  23.574  24.302  1.00  0.00     0.131 A 
ATOM     12  C   UNL A   1      35.696  22.533  25.367  1.00  0.00     0.130 A 
ATOM     13  C   UNL A   1      34.340  24.430  24.708  1.00  0.00     0.021 A 
ATOM     14  O   UNL A   1      32.110  24.052  23.880  1.00  0.00    -0.475 OA
ATOM     15  C   UNL A   1      35.524  23.908  25.235  1.00  0.00     0.058 A 
ATOM     16  C   UNL A   1      34.149  25.866  24.660  1.00  0.00     0.025 C 
ATOM     17  C   UNL A   1      31.994  25.457  23.496  1.00  0.00     0.314 C 
BRANCH   9  18
ATOM     18  C   UNL A   1      32.355  21.254  23.961  1.00  0.00     0.039 C 
BRANCH  18  19
ATOM     19  C   UNL A   1      32.513  19.759  24.278  1.00  0.00     0.001 C 
ATOM     20  C   UNL A   1      32.211  18.839  23.101  1.00  0.00     0.004 C 
ENDBRANCH  18  19
ENDBRANCH   9  18
BRANCH  12  21
ATOM     21  O   UNL A   1      36.879  22.167  25.944  1.00  0.00    -0.406 OA
BRANCH  21  22
ATOM     22  C   UNL A   1      37.822  21.478  25.143  1.00  0.00     0.573 C 
ATOM     23  F   UNL A   1      39.087  21.727  25.544  1.00  0.00    -0.132 F 
ATOM     24  F   UNL A   1      37.596  20.146  25.170  1.00  0.00    -0.132 F 
ATOM     25  F   UNL A   1      37.697  21.898  23.865  1.00  0.00    -0.132 F 
ENDBRANCH  21  22
ENDBRANCH  12  21
BRANCH  17  26
ATOM     26  C   UNL A   1      30.505  25.846  23.653  1.00  0.00     0.429 C 
ATOM     27  F   UNL A   1      29.662  24.820  23.411  1.00  0.00    -0.167 F 
ATOM     28  F   UNL A   1      30.241  26.232  24.932  1.00  0.00    -0.167 F 
ATOM     29  F   UNL A   1      30.155  26.882  22.856  1.00  0.00    -0.167 F 
ENDBRANCH  17  26
ENDBRANCH   5   8
ENDBRANCH   3   4
ENDBRANCH   2   3
ENDBRANCH   1   2
BRANCH   1  30
ATOM     30  C   UNL A   1      35.386  30.297  27.819  1.00  0.00     0.116 C 
BRANCH  30  31
ATOM     31  N   UNL A   1      35.370  30.690  29.220  1.00  0.00    -0.352 N 
ATOM     32  C   UNL A   1      36.359  30.547  30.162  1.00  0.00     0.251 C 
ATOM     33  H   UNL A   1      34.539  31.116  29.534  1.00  0.00     0.163 HD
ATOM     34  O   UNL A   1      36.144  30.837  31.328  1.00  0.00    -0.269 OA
BRANCH  32  35
ATOM     35  C   UNL A   1      37.670  29.995  29.751  1.00  0.00     0.039 A 
ATOM     36  C   UNL A   1      37.992  29.980  28.392  1.00  0.00     0.014 A 
ATOM     37  C   UNL A   1      38.582  29.529  30.701  1.00  0.00     0.014 A 
ATOM     38  C   UNL A   1      39.258  29.553  27.992  1.00  0.00     0.010 A 
ATOM     39  C   UNL A   1      39.866  29.168  30.306  1.00  0.00     0.010 A 
ATOM     40  C   UNL A   1      40.216  29.175  28.948  1.00  0.00    -0.014 A 
BRANCH  40  41
ATOM     41  C   UNL A   1      41.588  28.785  28.540  1.00  0.00     0.031 A 
ATOM     42  C   UNL A   1      42.678  29.818  28.472  1.00  0.00     0.074 A 
ATOM     43  C   UNL A   1      41.834  27.511  28.178  1.00  0.00     0.049 A 
ATOM     44  N   UNL A   1      43.927  29.676  28.110  1.00  0.00    -0.248 NA
ATOM     45  C   UNL A   1      42.310  31.197  28.830  1.00  0.00     0.031 C 
ATOM     46  C   UNL A   1      40.841  26.434  28.141  1.00  0.00     0.029 A 
ATOM     47  N   UNL A   1      42.994  26.905  27.767  1.00  0.00    -0.354 N 
ATOM     48  C   UNL A   1      44.490  30.944  28.187  1.00  0.00     0.074 A 
ATOM     49  C   UNL A   1      43.433  31.853  28.576  1.00  0.00     0.031 C 
ATOM     50  C   UNL A   1      41.440  25.296  27.754  1.00  0.00     0.029 A 
ATOM     51  C   UNL A   1      42.850  25.566  27.491  1.00  0.00     0.049 A 
ATOM     52  H   UNL A   1      43.849  27.384  27.677  1.00  0.00     0.167 HD
ATOM     53  C   UNL A   1      45.776  31.313  27.979  1.00  0.00     0.037 A 
ATOM     54  C   UNL A   1      43.754  24.658  27.076  1.00  0.00     0.037 A 
ATOM     55  C   UNL A   1      46.829  30.399  27.620  1.00  0.00     0.049 A 
ATOM     56  C   UNL A   1      45.181  25.087  26.875  1.00  0.00     0.074 A 
ATOM     57  C   UNL A   1      48.177  30.660  27.452  1.00  0.00     0.029 A 
ATOM     58  N   UNL A   1      46.651  29.045  27.377  1.00  0.00    -0.354 N 
ATOM     59  N   UNL A   1      45.713  26.278  27.023  1.00  0.00    -0.248 NA
ATOM     60  C   UNL A   1      46.135  24.050  26.460  1.00  0.00     0.031 C 
ATOM     61  C   UNL A   1      48.809  29.471  27.071  1.00  0.00     0.029 A 
ATOM     62  C   UNL A   1      47.861  28.461  27.043  1.00  0.00     0.049 A 
ATOM     63  H   UNL A   1      45.790  28.568  27.433  1.00  0.00     0.167 HD
ATOM     64  C   UNL A   1      47.065  26.129  26.738  1.00  0.00     0.074 A 
ATOM     65  C   UNL A   1      47.273  24.729  26.427  1.00  0.00     0.031 C 
ATOM     66  C   UNL A   1      48.047  27.064  26.733  1.00  0.00     0.037 A 
BRANCH  53  67
ATOM     67  C   UNL A   1      46.115  32.769  28.145  1.00  0.00     0.058 A 
ATOM     68  C   UNL A   1      46.543  33.286  29.380  1.00  0.00     0.135 A 
ATOM     69  C   UNL A   1      46.033  33.653  27.059  1.00  0.00     0.135 A 
ATOM     70  F   UNL A   1      46.623  32.488  30.456  1.00  0.00    -0.206 F 
ATOM     71  C   UNL A   1      46.844  34.634  29.539  1.00  0.00     0.059 A 
ATOM     72  C   UNL A   1      46.356  35.001  27.189  1.00  0.00     0.059 A 
ATOM     73  F   UNL A   1      45.629  33.212  25.858  1.00  0.00    -0.206 F 
ATOM     74  C   UNL A   1      46.745  35.486  28.437  1.00  0.00     0.060 A 
BRANCH  74  75
ATOM     75  S   UNL A   1      47.137  37.234  28.659  1.00  0.00     0.124 S 
ATOM     76  O   UNL A   1      47.665  37.582  27.344  1.00  0.00    -0.237 OA
ATOM     77  O   UNL A   1      45.836  37.807  28.992  1.00  0.00    -0.237 OA
ATOM     78  O   UNL A   1      48.112  37.227  29.746  1.00  0.00    -0.744 OA
ENDBRANCH  74  75
ENDBRANCH  53  67
BRANCH  54  79
ATOM     79  C   UNL A   1      43.343  23.247  26.856  1.00  0.00     0.058 A 
ATOM     80  C   UNL A   1      43.246  22.720  25.560  1.00  0.00     0.135 A 
ATOM     81  C   UNL A   1      43.056  22.395  27.933  1.00  0.00     0.135 A 
ATOM     82  F   UNL A   1      43.506  23.498  24.498  1.00  0.00    -0.206 F 
ATOM     83  C   UNL A   1      42.862  21.402  25.337  1.00  0.00     0.059 A 
ATOM     84  C   UNL A   1      42.692  21.067  27.736  1.00  0.00     0.059 A 
ATOM     85  F   UNL A   1      43.153  22.847  29.193  1.00  0.00    -0.206 F 
ATOM     86  C   UNL A   1      42.589  20.582  26.433  1.00  0.00     0.060 A 
BRANCH  86  87
ATOM     87  S   UNL A   1      42.141  18.857  26.135  1.00  0.00     0.124 S 
ATOM     88  O   UNL A   1      42.385  18.261  27.443  1.00  0.00    -0.237 OA
ATOM     89  O   UNL A   1      40.743  18.967  25.733  1.00  0.00    -0.237 OA
ATOM     90  O   UNL A   1      43.060  18.454  25.074  1.00  0.00    -0.744 OA
ENDBRANCH  86  87
ENDBRANCH  54  79
BRANCH  66  91
ATOM     91  C   UNL A   1      49.435  26.598  26.396  1.00  0.00     0.058 A 
ATOM     92  C   UNL A   1      49.975  26.770  25.113  1.00  0.00     0.135 A 
ATOM     93  C   UNL A   1      50.244  26.002  27.376  1.00  0.00     0.135 A 
ATOM     94  F   UNL A   1      49.241  27.329  24.139  1.00  0.00    -0.206 F 
ATOM     95  C   UNL A   1      51.262  26.339  24.804  1.00  0.00     0.059 A 
ATOM     96  C   UNL A   1      51.542  25.586  27.097  1.00  0.00     0.059 A 
ATOM     97  F   UNL A   1      49.778  25.826  28.623  1.00  0.00    -0.206 F 
ATOM     98  C   UNL A   1      52.036  25.746  25.802  1.00  0.00     0.060 A 
BRANCH  98  99
ATOM     99  S   UNL A   1      53.710  25.205  25.395  1.00  0.00     0.124 S 
ATOM    100  O   UNL A   1      54.492  25.871  26.431  1.00  0.00    -0.237 OA
ATOM    101  O   UNL A   1      53.610  23.754  25.512  1.00  0.00    -0.237 OA
ATOM    102  O   UNL A   1      53.907  25.707  24.038  1.00  0.00    -0.744 OA
ENDBRANCH  98  99
ENDBRANCH  66  91
ENDBRANCH  40  41
ENDBRANCH  32  35
ENDBRANCH  30  31
ENDBRANCH   1  30
TORSDOF 19
ENDMDL
MODEL 2
REMARK VINA RESULT:     -11.8      4.928      6.404
REMARK SMILES CCCc1cc(OC(F)(F)F)cc2c1O[C@@H](C(F)(F)F)C(C(=O)NCCCCNC(=O)c1ccc(-c3c4nc(c(-c5c(F)cc(S(=O)(=O)[O-])cc5F)c5ccc([nH]5)c(-c5c(F)cc(S(=O)(=O)[O-])cc5F)c5nc(c(-c6c(F)cc(S(=O)(=O)[O-])cc6F)c6ccc3[nH]6)C=C5)C=C4)cc1)=C2
REMARK SMILES IDX 27 1 26 2 25 3 24 4 22 5 23 6 21 8 4 9 5 10 14 11 6 12 13 13
REMARK SMILES IDX 15 14 12 15 98 16 16 17 3 18 2 19 1 20 7 21 8 22 9 23 10 24
REMARK SMILES IDX 11 25 17 26 18 27 19 28 20 29 28 30 29 31 30 32 31 34 32 35
REMARK SMILES IDX 33 36 97 37 34 38 96 39 35 40 36 41 37 42 90 43 38 44 95 45
REMARK SMILES IDX 89 46 91 47 39 48 94 49 88 50 87 51 40 53 74 54 53 55 73 56
REMARK SMILES IDX 54 57 57 58 72 59 92 60 55 61 56 62 71 64 93 65 58 66 41 67
REMARK SMILES IDX 42 68 51 69 43 70 44 71 50 72 52 73 45 74 46 75 47 76 48 77
REMARK SMILES IDX 49 78 75 79 76 80 85 81 77 82 78 83 84 84 86 85 79 86 80 87
REMARK SMILES IDX 81 88 82 89 83 90 59 91 60 92 69 93 61 94 62 95 68 96 70 97
REMARK SMILES IDX 63 98 64 99 65 100 66 101 67 102
REMARK H PARENT 24 7 29 33 91 52 57 63
REMARK Flexibility Score: inf
ROOT
ATOM      1  C   UNL A   1      33.155  27.576  26.547  1.00  0.00     0.023 C 
ENDROOT
BRANCH   1   2
ATOM      2  C   UNL A   1      31.665  27.876  26.372  1.00  0.00     0.023 C 
BRANCH   2   3
ATOM      3  C   UNL A   1      30.742  26.673  26.604  1.00  0.00     0.116 C 
BRANCH   3   4
ATOM      4  N   UNL A   1      30.032  26.339  25.381  1.00  0.00    -0.352 N 
ATOM      5  C   UNL A   1      30.317  25.492  24.356  1.00  0.00     0.251 C 
ATOM      6  O   UNL A   1      29.582  25.507  23.371  1.00  0.00    -0.270 OA
ATOM      7  H   UNL A   1      29.178  26.819  25.274  1.00  0.00     0.163 HD
BRANCH   5   8
ATOM      8  C   UNL A   1      31.437  24.513  24.397  1.00  0.00     0.067 C 
ATOM      9  C   UNL A   1      34.728  21.868  24.281  1.00  0.00    -0.002 A 
ATOM     10  C   UNL A   1      34.542  20.565  24.783  1.00  0.00     0.054 A 
ATOM     11  C   UNL A   1      33.640  22.760  24.323  1.00  0.00     0.131 A 
ATOM     12  C   UNL A   1      33.321  20.158  25.323  1.00  0.00     0.130 A 
ATOM     13  C   UNL A   1      32.429  22.369  24.889  1.00  0.00     0.021 A 
ATOM     14  O   UNL A   1      33.792  23.982  23.731  1.00  0.00    -0.475 OA
ATOM     15  C   UNL A   1      32.275  21.073  25.390  1.00  0.00     0.058 A 
ATOM     16  C   UNL A   1      31.299  23.278  24.892  1.00  0.00     0.025 C 
ATOM     17  C   UNL A   1      32.816  25.034  24.008  1.00  0.00     0.314 C 
BRANCH   9  18
ATOM     18  C   UNL A   1      36.037  22.294  23.639  1.00  0.00     0.039 C 
BRANCH  18  19
ATOM     19  C   UNL A   1      37.172  22.733  24.577  1.00  0.00     0.001 C 
ATOM     20  C   UNL A   1      36.712  23.592  25.749  1.00  0.00     0.004 C 
ENDBRANCH  18  19
ENDBRANCH   9  18
BRANCH  12  21
ATOM     21  O   UNL A   1      33.013  18.916  25.802  1.00  0.00    -0.406 OA
BRANCH  21  22
ATOM     22  C   UNL A   1      32.856  17.865  24.866  1.00  0.00     0.573 C 
ATOM     23  F   UNL A   1      34.049  17.367  24.476  1.00  0.00    -0.132 F 
ATOM     24  F   UNL A   1      32.100  16.871  25.381  1.00  0.00    -0.132 F 
ATOM     25  F   UNL A   1      32.225  18.347  23.772  1.00  0.00    -0.132 F 
ENDBRANCH  21  22
ENDBRANCH  12  21
BRANCH  17  26
ATOM     26  C   UNL A   1      32.868  26.022  22.819  1.00  0.00     0.429 C 
ATOM     27  F   UNL A   1      32.456  27.266  23.147  1.00  0.00    -0.167 F 
ATOM     28  F   UNL A   1      34.146  26.174  22.375  1.00  0.00    -0.167 F 
ATOM     29  F   UNL A   1      32.139  25.597  21.762  1.00  0.00    -0.167 F 
ENDBRANCH  17  26
ENDBRANCH   5   8
ENDBRANCH   3   4
ENDBRANCH   2   3
ENDBRANCH   1   2
BRANCH   1  30
ATOM     30  C   UNL A   1      34.091  28.625  25.961  1.00  0.00     0.116 C 
BRANCH  30  31
ATOM     31  N   UNL A   1      33.775  29.979  26.391  1.00  0.00    -0.352 N 
ATOM     32  C   UNL A   1      34.421  30.754  27.323  1.00  0.00     0.251 C 
ATOM     33  H   UNL A   1      32.995  30.394  25.956  1.00  0.00     0.163 HD
ATOM     34  O   UNL A   1      33.961  31.838  27.646  1.00  0.00    -0.269 OA
BRANCH  32  35
ATOM     35  C   UNL A   1      35.653  30.237  27.961  1.00  0.00     0.039 A 
ATOM     36  C   UNL A   1      36.870  30.407  27.298  1.00  0.00     0.014 A 
ATOM     37  C   UNL A   1      35.608  29.622  29.214  1.00  0.00     0.014 A 
ATOM     38  C   UNL A   1      38.053  30.012  27.923  1.00  0.00     0.010 A 
ATOM     39  C   UNL A   1      36.793  29.293  29.864  1.00  0.00     0.010 A 
ATOM     40  C   UNL A   1      38.027  29.483  29.225  1.00  0.00    -0.014 A 
BRANCH  40  41
ATOM     41  C   UNL A   1      39.282  29.125  29.928  1.00  0.00     0.031 A 
ATOM     42  C   UNL A   1      39.691  29.867  31.169  1.00  0.00     0.074 A 
ATOM     43  C   UNL A   1      40.080  28.169  29.413  1.00  0.00     0.049 A 
ATOM     44  N   UNL A   1      40.763  29.718  31.903  1.00  0.00    -0.248 NA
ATOM     45  C   UNL A   1      38.790  30.935  31.632  1.00  0.00     0.031 C 
ATOM     46  C   UNL A   1      39.820  27.425  28.178  1.00  0.00     0.029 A 
ATOM     47  N   UNL A   1      41.273  27.662  29.861  1.00  0.00    -0.354 N 
ATOM     48  C   UNL A   1      40.672  30.678  32.905  1.00  0.00     0.074 A 
ATOM     49  C   UNL A   1      39.468  31.439  32.654  1.00  0.00     0.031 C 
ATOM     50  C   UNL A   1      40.812  26.540  27.981  1.00  0.00     0.029 A 
ATOM     51  C   UNL A   1      41.788  26.671  29.058  1.00  0.00     0.049 A 
ATOM     52  H   UNL A   1      41.719  27.977  30.679  1.00  0.00     0.167 HD
ATOM     53  C   UNL A   1      41.503  30.886  33.954  1.00  0.00     0.037 A 
ATOM     54  C   UNL A   1      42.917  25.948  29.179  1.00  0.00     0.037 A 
ATOM     55  C   UNL A   1      42.684  30.107  34.215  1.00  0.00     0.049 A 
ATOM     56  C   UNL A   1      43.810  26.182  30.366  1.00  0.00     0.074 A 
ATOM     57  C   UNL A   1      43.555  30.194  35.286  1.00  0.00     0.029 A 
ATOM     58  N   UNL A   1      43.159  29.093  33.395  1.00  0.00    -0.354 N 
ATOM     59  N   UNL A   1      43.671  27.045  31.345  1.00  0.00    -0.248 NA
ATOM     60  C   UNL A   1      45.009  25.340  30.472  1.00  0.00     0.031 C 
ATOM     61  C   UNL A   1      44.578  29.256  35.096  1.00  0.00     0.029 A 
ATOM     62  C   UNL A   1      44.320  28.558  33.927  1.00  0.00     0.049 A 
ATOM     63  H   UNL A   1      42.733  28.796  32.558  1.00  0.00     0.167 HD
ATOM     64  C   UNL A   1      44.753  26.836  32.192  1.00  0.00     0.074 A 
ATOM     65  C   UNL A   1      45.528  25.753  31.620  1.00  0.00     0.031 C 
ATOM     66  C   UNL A   1      45.079  27.481  33.340  1.00  0.00     0.037 A 
BRANCH  53  67
ATOM     67  C   UNL A   1      41.152  31.999  34.904  1.00  0.00     0.058 A 
ATOM     68  C   UNL A   1      41.696  33.287  34.758  1.00  0.00     0.135 A 
ATOM     69  C   UNL A   1      40.250  31.785  35.956  1.00  0.00     0.135 A 
ATOM     70  F   UNL A   1      42.578  33.541  33.779  1.00  0.00    -0.206 F 
ATOM     71  C   UNL A   1      41.383  34.313  35.643  1.00  0.00     0.059 A 
ATOM     72  C   UNL A   1      39.900  32.806  36.837  1.00  0.00     0.059 A 
ATOM     73  F   UNL A   1      39.702  30.575  36.142  1.00  0.00    -0.206 F 
ATOM     74  C   UNL A   1      40.485  34.062  36.682  1.00  0.00     0.060 A 
BRANCH  74  75
ATOM     75  S   UNL A   1      40.090  35.403  37.824  1.00  0.00     0.124 S 
ATOM     76  O   UNL A   1      38.887  34.889  38.470  1.00  0.00    -0.237 OA
ATOM     77  O   UNL A   1      41.284  35.463  38.662  1.00  0.00    -0.237 OA
ATOM     78  O   UNL A   1      39.888  36.550  36.943  1.00  0.00    -0.744 OA
ENDBRANCH  74  75
ENDBRANCH  53  67
BRANCH  54  79
ATOM     79  C   UNL A   1      43.249  24.912  28.167  1.00  0.00     0.058 A 
ATOM     80  C   UNL A   1      42.883  23.572  28.363  1.00  0.00     0.135 A 
ATOM     81  C   UNL A   1      43.921  25.240  26.980  1.00  0.00     0.135 A 
ATOM     82  F   UNL A   1      42.243  23.209  29.485  1.00  0.00    -0.206 F 
ATOM     83  C   UNL A   1      43.186  22.590  27.426  1.00  0.00     0.059 A 
ATOM     84  C   UNL A   1      44.215  24.280  26.018  1.00  0.00     0.059 A 
ATOM     85  F   UNL A   1      44.275  26.512  26.737  1.00  0.00    -0.206 F 
ATOM     86  C   UNL A   1      43.851  22.955  26.254  1.00  0.00     0.060 A 
BRANCH  86  87
ATOM     87  S   UNL A   1      44.194  21.681  25.020  1.00  0.00     0.124 S 
ATOM     88  O   UNL A   1      45.558  21.300  25.363  1.00  0.00    -0.237 OA
ATOM     89  O   UNL A   1      43.162  20.690  25.306  1.00  0.00    -0.237 OA
ATOM     90  O   UNL A   1      44.034  22.392  23.755  1.00  0.00    -0.744 OA
ENDBRANCH  86  87
ENDBRANCH  54  79
BRANCH  66  91
ATOM     91  C   UNL A   1      46.316  27.021  34.058  1.00  0.00     0.058 A 
ATOM     92  C   UNL A   1      46.261  26.034  35.054  1.00  0.00     0.135 A 
ATOM     93  C   UNL A   1      47.572  27.550  33.725  1.00  0.00     0.135 A 
ATOM     94  F   UNL A   1      45.083  25.501  35.415  1.00  0.00    -0.206 F 
ATOM     95  C   UNL A   1      47.408  25.608  35.717  1.00  0.00     0.059 A 
ATOM     96  C   UNL A   1      48.735  27.120  34.356  1.00  0.00     0.059 A 
ATOM     97  F   UNL A   1      47.679  28.487  32.770  1.00  0.00    -0.206 F 
ATOM     98  C   UNL A   1      48.640  26.160  35.362  1.00  0.00     0.060 A 
BRANCH  98  99
ATOM     99  S   UNL A   1      50.124  25.588  36.217  1.00  0.00     0.124 S 
ATOM    100  O   UNL A   1      51.171  25.981  35.280  1.00  0.00    -0.237 OA
ATOM    101  O   UNL A   1      50.078  26.340  37.467  1.00  0.00    -0.237 OA
ATOM    102  O   UNL A   1      49.906  24.150  36.348  1.00  0.00    -0.744 OA
ENDBRANCH  98  99
ENDBRANCH  66  91
ENDBRANCH  40  41
ENDBRANCH  32  35
ENDBRANCH  30  31
ENDBRANCH   1  30
TORSDOF 19
ENDMDL
MODEL 3
REMARK VINA RESULT:     -11.8      1.453      2.203
REMARK SMILES CCCc1cc(OC(F)(F)F)cc2c1O[C@@H](C(F)(F)F)C(C(=O)NCCCCNC(=O)c1ccc(-c3c4nc(c(-c5c(F)cc(S(=O)(=O)[O-])cc5F)c5ccc([nH]5)c(-c5c(F)cc(S(=O)(=O)[O-])cc5F)c5nc(c(-c6c(F)cc(S(=O)(=O)[O-])cc6F)c6ccc3[nH]6)C=C5)C=C4)cc1)=C2
REMARK SMILES IDX 27 1 26 2 25 3 24 4 22 5 23 6 21 8 4 9 5 10 14 11 6 12 13 13
REMARK SMILES IDX 15 14 12 15 98 16 16 17 3 18 2 19 1 20 7 21 8 22 9 23 10 24
REMARK SMILES IDX 11 25 17 26 18 27 19 28 20 29 28 30 29 31 30 32 31 34 32 35
REMARK SMILES IDX 33 36 97 37 34 38 96 39 35 40 36 41 37 42 90 43 38 44 95 45
REMARK SMILES IDX 89 46 91 47 39 48 94 49 88 50 87 51 40 53 74 54 53 55 73 56
REMARK SMILES IDX 54 57 57 58 72 59 92 60 55 61 56 62 71 64 93 65 58 66 41 67
REMARK SMILES IDX 42 68 51 69 43 70 44 71 50 72 52 73 45 74 46 75 47 76 48 77
REMARK SMILES IDX 49 78 75 79 76 80 85 81 77 82 78 83 84 84 86 85 79 86 80 87
REMARK SMILES IDX 81 88 82 89 83 90 59 91 60 92 69 93 61 94 62 95 68 96 70 97
REMARK SMILES IDX 63 98 64 99 65 100 66 101 67 102
REMARK H PARENT 24 7 29 33 91 52 57 63
REMARK Flexibility Score: inf
ROOT
ATOM      1  C   UNL A   1      34.615  28.940  27.104  1.00  0.00     0.023 C 
ENDROOT
BRANCH   1   2
ATOM      2  C   UNL A   1      33.115  29.235  27.154  1.00  0.00     0.023 C 
BRANCH   2   3
ATOM      3  C   UNL A   1      32.227  27.994  27.310  1.00  0.00     0.116 C 
BRANCH   3   4
ATOM      4  N   UNL A   1      31.210  27.966  26.272  1.00  0.00    -0.352 N 
ATOM      5  C   UNL A   1      31.053  27.198  25.161  1.00  0.00     0.251 C 
ATOM      6  O   UNL A   1      30.150  27.488  24.381  1.00  0.00    -0.270 OA
ATOM      7  H   UNL A   1      30.497  28.633  26.398  1.00  0.00     0.163 HD
BRANCH   5   8
ATOM      8  C   UNL A   1      31.884  25.996  24.879  1.00  0.00     0.067 C 
ATOM      9  C   UNL A   1      34.358  22.729  23.857  1.00  0.00    -0.002 A 
ATOM     10  C   UNL A   1      33.899  21.434  24.170  1.00  0.00     0.054 A 
ATOM     11  C   UNL A   1      33.545  23.825  24.201  1.00  0.00     0.131 A 
ATOM     12  C   UNL A   1      32.679  21.228  24.816  1.00  0.00     0.130 A 
ATOM     13  C   UNL A   1      32.342  23.626  24.874  1.00  0.00     0.021 A 
ATOM     14  O   UNL A   1      33.940  25.068  23.793  1.00  0.00    -0.475 OA
ATOM     15  C   UNL A   1      31.915  22.331  25.182  1.00  0.00     0.058 A 
ATOM     16  C   UNL A   1      31.488  24.756  25.189  1.00  0.00     0.025 C 
ATOM     17  C   UNL A   1      33.301  26.246  24.375  1.00  0.00     0.314 C 
BRANCH   9  18
ATOM     18  C   UNL A   1      35.656  22.953  23.101  1.00  0.00     0.039 C 
BRANCH  18  19
ATOM     19  C   UNL A   1      36.962  22.885  23.909  1.00  0.00     0.001 C 
ATOM     20  C   UNL A   1      36.840  23.411  25.334  1.00  0.00     0.004 C 
ENDBRANCH  18  19
ENDBRANCH   9  18
BRANCH  12  21
ATOM     21  O   UNL A   1      32.117  20.024  25.134  1.00  0.00    -0.406 OA
BRANCH  21  22
ATOM     22  C   UNL A   1      32.523  18.887  24.394  1.00  0.00     0.573 C 
ATOM     23  F   UNL A   1      32.292  19.048  23.073  1.00  0.00    -0.132 F 
ATOM     24  F   UNL A   1      33.834  18.625  24.592  1.00  0.00    -0.132 F 
ATOM     25  F   UNL A   1      31.814  17.817  24.816  1.00  0.00    -0.132 F 
ENDBRANCH  21  22
ENDBRANCH  12  21
BRANCH  17  26
ATOM     26  C   UNL A   1      33.477  27.401  23.363  1.00  0.00     0.429 C 
ATOM     27  F   UNL A   1      34.597  27.284  22.616  1.00  0.00    -0.167 F 
ATOM     28  F   UNL A   1      32.451  27.419  22.468  1.00  0.00    -0.167 F 
ATOM     29  F   UNL A   1      33.491  28.615  23.961  1.00  0.00    -0.167 F 
ENDBRANCH  17  26
ENDBRANCH   5   8
ENDBRANCH   3   4
ENDBRANCH   2   3
ENDBRANCH   1   2
BRANCH   1  30
ATOM     30  C   UNL A   1      35.499  30.023  27.707  1.00  0.00     0.116 C 
BRANCH  30  31
ATOM     31  N   UNL A   1      35.365  30.133  29.152  1.00  0.00    -0.352 N 
ATOM     32  C   UNL A   1      36.334  29.997  30.115  1.00  0.00     0.251 C 
ATOM     33  H   UNL A   1      34.459  30.333  29.482  1.00  0.00     0.163 HD
ATOM     34  O   UNL A   1      36.032  30.015  31.298  1.00  0.00    -0.269 OA
BRANCH  32  35
ATOM     35  C   UNL A   1      37.738  29.781  29.699  1.00  0.00     0.039 A 
ATOM     36  C   UNL A   1      38.675  29.420  30.670  1.00  0.00     0.014 A 
ATOM     37  C   UNL A   1      38.116  29.901  28.359  1.00  0.00     0.014 A 
ATOM     38  C   UNL A   1      39.981  29.119  30.284  1.00  0.00     0.010 A 
ATOM     39  C   UNL A   1      39.400  29.535  27.969  1.00  0.00     0.010 A 
ATOM     40  C   UNL A   1      40.346  29.143  28.927  1.00  0.00    -0.014 A 
BRANCH  40  41
ATOM     41  C   UNL A   1      41.712  28.757  28.498  1.00  0.00     0.031 A 
ATOM     42  C   UNL A   1      42.796  29.795  28.406  1.00  0.00     0.074 A 
ATOM     43  C   UNL A   1      41.959  27.482  28.139  1.00  0.00     0.049 A 
ATOM     44  N   UNL A   1      44.039  29.656  28.024  1.00  0.00    -0.248 NA
ATOM     45  C   UNL A   1      42.427  31.174  28.763  1.00  0.00     0.031 C 
ATOM     46  C   UNL A   1      40.970  26.401  28.125  1.00  0.00     0.029 A 
ATOM     47  N   UNL A   1      43.114  26.880  27.711  1.00  0.00    -0.354 N 
ATOM     48  C   UNL A   1      44.597  30.928  28.085  1.00  0.00     0.074 A 
ATOM     49  C   UNL A   1      43.543  31.834  28.487  1.00  0.00     0.031 C 
ATOM     50  C   UNL A   1      41.568  25.263  27.734  1.00  0.00     0.029 A 
ATOM     51  C   UNL A   1      42.972  25.538  27.445  1.00  0.00     0.049 A 
ATOM     52  H   UNL A   1      43.965  27.362  27.605  1.00  0.00     0.167 HD
ATOM     53  C   UNL A   1      45.878  31.301  27.853  1.00  0.00     0.037 A 
ATOM     54  C   UNL A   1      43.873  24.633  27.019  1.00  0.00     0.037 A 
ATOM     55  C   UNL A   1      46.929  30.391  27.481  1.00  0.00     0.049 A 
ATOM     56  C   UNL A   1      45.294  25.067  26.792  1.00  0.00     0.074 A 
ATOM     57  C   UNL A   1      48.273  30.657  27.289  1.00  0.00     0.029 A 
ATOM     58  N   UNL A   1      46.753  29.034  27.248  1.00  0.00    -0.354 N 
ATOM     59  N   UNL A   1      45.822  26.261  26.925  1.00  0.00    -0.248 NA
ATOM     60  C   UNL A   1      46.246  24.032  26.367  1.00  0.00     0.031 C 
ATOM     61  C   UNL A   1      48.904  29.468  26.904  1.00  0.00     0.029 A 
ATOM     62  C   UNL A   1      47.960  28.454  26.897  1.00  0.00     0.049 A 
ATOM     63  H   UNL A   1      45.896  28.554  27.322  1.00  0.00     0.167 HD
ATOM     64  C   UNL A   1      47.170  26.117  26.618  1.00  0.00     0.074 A 
ATOM     65  C   UNL A   1      47.380  24.716  26.311  1.00  0.00     0.031 C 
ATOM     66  C   UNL A   1      48.147  27.057  26.591  1.00  0.00     0.037 A 
BRANCH  53  67
ATOM     67  C   UNL A   1      46.213  32.760  28.006  1.00  0.00     0.058 A 
ATOM     68  C   UNL A   1      46.700  33.277  29.218  1.00  0.00     0.135 A 
ATOM     69  C   UNL A   1      46.066  33.646  26.928  1.00  0.00     0.135 A 
ATOM     70  F   UNL A   1      46.843  32.477  30.286  1.00  0.00    -0.206 F 
ATOM     71  C   UNL A   1      46.998  34.628  29.365  1.00  0.00     0.059 A 
ATOM     72  C   UNL A   1      46.385  34.997  27.045  1.00  0.00     0.059 A 
ATOM     73  F   UNL A   1      45.604  33.205  25.748  1.00  0.00    -0.206 F 
ATOM     74  C   UNL A   1      46.834  35.481  28.272  1.00  0.00     0.060 A 
BRANCH  74  75
ATOM     75  S   UNL A   1      47.222  37.232  28.479  1.00  0.00     0.124 S 
ATOM     76  O   UNL A   1      46.528  37.819  27.338  1.00  0.00    -0.237 OA
ATOM     77  O   UNL A   1      46.650  37.527  29.790  1.00  0.00    -0.237 OA
ATOM     78  O   UNL A   1      48.680  37.266  28.413  1.00  0.00    -0.744 OA
ENDBRANCH  74  75
ENDBRANCH  53  67
BRANCH  54  79
ATOM     79  C   UNL A   1      43.465  23.218  26.814  1.00  0.00     0.058 A 
ATOM     80  C   UNL A   1      43.361  22.680  25.523  1.00  0.00     0.135 A 
ATOM     81  C   UNL A   1      43.187  22.375  27.900  1.00  0.00     0.135 A 
ATOM     82  F   UNL A   1      43.613  23.450  24.454  1.00  0.00    -0.206 F 
ATOM     83  C   UNL A   1      42.980  21.359  25.314  1.00  0.00     0.059 A 
ATOM     84  C   UNL A   1      42.826  21.044  27.716  1.00  0.00     0.059 A 
ATOM     85  F   UNL A   1      43.290  22.838  29.155  1.00  0.00    -0.206 F 
ATOM     86  C   UNL A   1      42.716  20.548  26.418  1.00  0.00     0.060 A 
BRANCH  86  87
ATOM     87  S   UNL A   1      42.272  18.819  26.137  1.00  0.00     0.124 S 
ATOM     88  O   UNL A   1      43.199  18.447  25.075  1.00  0.00    -0.237 OA
ATOM     89  O   UNL A   1      42.525  18.220  27.444  1.00  0.00    -0.237 OA
ATOM     90  O   UNL A   1      40.866  18.894  25.753  1.00  0.00    -0.744 OA
ENDBRANCH  86  87
ENDBRANCH  54  79
BRANCH  66  91
ATOM     91  C   UNL A   1      49.532  26.596  26.234  1.00  0.00     0.058 A 
ATOM     92  C   UNL A   1      50.040  26.739  24.934  1.00  0.00     0.135 A 
ATOM     93  C   UNL A   1      50.370  26.032  27.209  1.00  0.00     0.135 A 
ATOM     94  F   UNL A   1      49.277  27.266  23.963  1.00  0.00    -0.206 F 
ATOM     95  C   UNL A   1      51.323  26.312  24.605  1.00  0.00     0.059 A 
ATOM     96  C   UNL A   1      51.665  25.622  26.909  1.00  0.00     0.059 A 
ATOM     97  F   UNL A   1      49.935  25.884  28.470  1.00  0.00    -0.206 F 
ATOM     98  C   UNL A   1      52.127  25.752  25.600  1.00  0.00     0.060 A 
BRANCH  98  99
ATOM     99  S   UNL A   1      53.796  25.217  25.166  1.00  0.00     0.124 S 
ATOM    100  O   UNL A   1      54.555  25.653  26.334  1.00  0.00    -0.237 OA
ATOM    101  O   UNL A   1      53.636  23.775  25.017  1.00  0.00    -0.237 OA
ATOM    102  O   UNL A   1      54.074  25.944  23.930  1.00  0.00    -0.744 OA
ENDBRANCH  98  99
ENDBRANCH  66  91
ENDBRANCH  40  41
ENDBRANCH  32  35
ENDBRANCH  30  31
ENDBRANCH   1  30
TORSDOF 19
ENDMDL
