MODEL 1
REMARK VINA RESULT:     -11.3      0.000      0.000
REMARK SMILES O=C(C[C@H]1CN(c2nc(C3CC3)ns2)CCO1)NCCCCNC(=O)c1ccc(-c2c3nc(c(-c4c(F)cc(S(=O)(=O)[O-])cc4F)c4ccc([nH]4)c(-c4c(F)cc(S(=O)(=O)[O-])cc4F)c4nc(c(-c5c(F)cc(S(=O)(=O)[O-])cc5F)c5ccc2[nH]5)C=C4)C=C3)cc1
REMARK SMILES IDX 20 1 19 2 18 3 1 4 2 5 3 7 4 8 5 9 17 10 6 11 16 12 15 13
REMARK SMILES IDX 7 14 8 15 14 16 9 17 13 18 10 19 11 20 12 21 21 22 22 23
REMARK SMILES IDX 23 24 24 25 25 27 26 28 27 29 91 30 28 31 90 32 29 33 30 34
REMARK SMILES IDX 31 35 84 36 32 37 89 38 83 39 85 40 33 41 88 42 82 43 81 44
REMARK SMILES IDX 34 46 68 47 47 48 67 49 48 50 51 51 66 52 86 53 49 54 50 55
REMARK SMILES IDX 65 57 87 58 52 59 35 60 36 61 45 62 37 63 38 64 44 65 46 66
REMARK SMILES IDX 39 67 40 68 41 69 42 70 43 71 69 72 70 73 79 74 71 75 72 76
REMARK SMILES IDX 78 77 80 78 73 79 74 80 75 81 76 82 77 83 53 84 54 85 63 86
REMARK SMILES IDX 55 87 56 88 62 89 64 90 57 91 58 92 59 93 60 94 61 95
REMARK H PARENT 18 6 23 26 85 45 51 56
REMARK Flexibility Score: inf
ROOT
ATOM      1  C   UNL A   1      33.304  28.793  24.599  1.00  0.00     0.023 C 
ENDROOT
BRANCH   1   2
ATOM      2  C   UNL A   1      33.532  27.782  23.479  1.00  0.00     0.116 C 
BRANCH   2   3
ATOM      3  N   UNL A   1      33.641  26.427  23.970  1.00  0.00    -0.356 N 
ATOM      4  O   UNL A   1      33.881  25.452  21.911  1.00  0.00    -0.275 OA
ATOM      5  C   UNL A   1      33.850  25.356  23.135  1.00  0.00     0.222 C 
ATOM      6  H   UNL A   1      33.563  26.266  24.939  1.00  0.00     0.163 HD
BRANCH   5   7
ATOM      7  C   UNL A   1      33.988  24.022  23.832  1.00  0.00     0.133 C 
BRANCH   7   8
ATOM      8  C   UNL A   1      35.107  23.876  24.878  1.00  0.00     0.147 C 
ATOM      9  C   UNL A   1      34.845  22.733  25.882  1.00  0.00     0.151 C 
ATOM     10  O   UNL A   1      36.450  23.823  24.355  1.00  0.00    -0.374 OA
ATOM     11  N   UNL A   1      35.257  21.440  25.344  1.00  0.00    -0.342 N 
ATOM     12  C   UNL A   1      36.796  22.541  23.800  1.00  0.00     0.182 C 
ATOM     13  C   UNL A   1      36.610  21.391  24.802  1.00  0.00     0.147 C 
BRANCH  11  14
ATOM     14  C   UNL A   1      34.338  20.477  25.087  1.00  0.00     0.205 A 
ATOM     15  N   UNL A   1      34.611  19.274  24.633  1.00  0.00    -0.203 NA
ATOM     16  S   UNL A   1      32.625  20.709  25.224  1.00  0.00     0.004 S 
ATOM     17  C   UNL A   1      33.424  18.587  24.414  1.00  0.00     0.147 A 
ATOM     18  N   UNL A   1      32.257  19.207  24.602  1.00  0.00    -0.174 NA
BRANCH  17  19
ATOM     19  C   UNL A   1      33.433  17.129  23.957  1.00  0.00     0.059 C 
ATOM     20  C   UNL A   1      34.454  16.170  24.533  1.00  0.00     0.012 C 
ATOM     21  C   UNL A   1      33.027  16.063  24.954  1.00  0.00     0.012 C 
ENDBRANCH  17  19
ENDBRANCH  11  14
ENDBRANCH   7   8
ENDBRANCH   5   7
ENDBRANCH   2   3
ENDBRANCH   1   2
BRANCH   1  22
ATOM     22  C   UNL A   1      32.811  28.189  25.917  1.00  0.00     0.023 C 
BRANCH  22  23
ATOM     23  C   UNL A   1      33.674  28.483  27.138  1.00  0.00     0.116 C 
BRANCH  23  24
ATOM     24  N   UNL A   1      33.600  29.872  27.564  1.00  0.00    -0.352 N 
ATOM     25  C   UNL A   1      34.542  30.643  28.204  1.00  0.00     0.251 C 
ATOM     26  H   UNL A   1      32.751  30.328  27.366  1.00  0.00     0.163 HD
ATOM     27  O   UNL A   1      34.237  31.760  28.617  1.00  0.00    -0.269 OA
BRANCH  25  28
ATOM     28  C   UNL A   1      35.911  30.121  28.423  1.00  0.00     0.039 A 
ATOM     29  C   UNL A   1      36.828  30.170  27.370  1.00  0.00     0.014 A 
ATOM     30  C   UNL A   1      36.293  29.587  29.657  1.00  0.00     0.014 A 
ATOM     31  C   UNL A   1      38.146  29.751  27.575  1.00  0.00     0.010 A 
ATOM     32  C   UNL A   1      37.625  29.241  29.881  1.00  0.00     0.010 A 
ATOM     33  C   UNL A   1      38.568  29.320  28.844  1.00  0.00    -0.014 A 
BRANCH  33  34
ATOM     34  C   UNL A   1      39.989  28.967  29.108  1.00  0.00     0.031 A 
ATOM     35  C   UNL A   1      40.932  29.985  29.691  1.00  0.00     0.074 A 
ATOM     36  C   UNL A   1      40.448  27.746  28.762  1.00  0.00     0.049 A 
ATOM     37  N   UNL A   1      42.214  29.883  29.931  1.00  0.00    -0.248 NA
ATOM     38  C   UNL A   1      40.364  31.301  30.028  1.00  0.00     0.031 C 
ATOM     39  C   UNL A   1      39.647  26.684  28.149  1.00  0.00     0.029 A 
ATOM     40  N   UNL A   1      41.701  27.194  28.867  1.00  0.00    -0.354 N 
ATOM     41  C   UNL A   1      42.609  31.118  30.430  1.00  0.00     0.074 A 
ATOM     42  C   UNL A   1      41.441  31.972  30.411  1.00  0.00     0.031 C 
ATOM     43  C   UNL A   1      40.421  25.603  27.956  1.00  0.00     0.029 A 
ATOM     44  C   UNL A   1      41.781  25.906  28.390  1.00  0.00     0.049 A 
ATOM     45  H   UNL A   1      42.470  27.675  29.249  1.00  0.00     0.167 HD
ATOM     46  C   UNL A   1      43.828  31.501  30.883  1.00  0.00     0.037 A 
ATOM     47  C   UNL A   1      42.831  25.066  28.301  1.00  0.00     0.037 A 
ATOM     48  C   UNL A   1      44.982  30.639  30.920  1.00  0.00     0.049 A 
ATOM     49  C   UNL A   1      44.179  25.520  28.797  1.00  0.00     0.074 A 
ATOM     50  C   UNL A   1      46.243  30.915  31.419  1.00  0.00     0.029 A 
ATOM     51  N   UNL A   1      45.020  29.339  30.436  1.00  0.00    -0.354 N 
ATOM     52  N   UNL A   1      44.517  26.671  29.329  1.00  0.00    -0.248 NA
ATOM     53  C   UNL A   1      45.287  24.561  28.683  1.00  0.00     0.031 C 
ATOM     54  C   UNL A   1      47.059  29.803  31.184  1.00  0.00     0.029 A 
ATOM     55  C   UNL A   1      46.290  28.811  30.597  1.00  0.00     0.049 A 
ATOM     56  H   UNL A   1      44.256  28.863  30.036  1.00  0.00     0.167 HD
ATOM     57  C   UNL A   1      45.867  26.560  29.645  1.00  0.00     0.074 A 
ATOM     58  C   UNL A   1      46.281  25.229  29.253  1.00  0.00     0.031 C 
ATOM     59  C   UNL A   1      46.689  27.480  30.210  1.00  0.00     0.037 A 
BRANCH  46  60
ATOM     60  C   UNL A   1      43.982  32.916  31.373  1.00  0.00     0.058 A 
ATOM     61  C   UNL A   1      43.819  33.254  32.727  1.00  0.00     0.135 A 
ATOM     62  C   UNL A   1      44.348  33.942  30.485  1.00  0.00     0.135 A 
ATOM     63  F   UNL A   1      43.457  32.317  33.618  1.00  0.00    -0.206 F 
ATOM     64  C   UNL A   1      43.983  34.560  33.177  1.00  0.00     0.059 A 
ATOM     65  C   UNL A   1      44.547  35.249  30.918  1.00  0.00     0.059 A 
ATOM     66  F   UNL A   1      44.519  33.678  29.180  1.00  0.00    -0.206 F 
ATOM     67  C   UNL A   1      44.348  35.551  32.265  1.00  0.00     0.060 A 
BRANCH  67  68
ATOM     68  S   UNL A   1      44.565  37.239  32.868  1.00  0.00     0.124 S 
ATOM     69  O   UNL A   1      43.227  37.544  33.365  1.00  0.00    -0.237 OA
ATOM     70  O   UNL A   1      45.597  37.075  33.886  1.00  0.00    -0.237 OA
ATOM     71  O   UNL A   1      44.974  37.976  31.677  1.00  0.00    -0.744 OA
ENDBRANCH  67  68
ENDBRANCH  46  60
BRANCH  47  72
ATOM     72  C   UNL A   1      42.650  23.701  27.735  1.00  0.00     0.058 A 
ATOM     73  C   UNL A   1      42.501  22.586  28.574  1.00  0.00     0.135 A 
ATOM     74  C   UNL A   1      42.620  23.483  26.349  1.00  0.00     0.135 A 
ATOM     75  F   UNL A   1      42.531  22.741  29.906  1.00  0.00    -0.206 F 
ATOM     76  C   UNL A   1      42.351  21.301  28.061  1.00  0.00     0.059 A 
ATOM     77  C   UNL A   1      42.440  22.211  25.812  1.00  0.00     0.059 A 
ATOM     78  F   UNL A   1      42.741  24.516  25.501  1.00  0.00    -0.206 F 
ATOM     79  C   UNL A   1      42.318  21.125  26.677  1.00  0.00     0.060 A 
BRANCH  79  80
ATOM     80  S   UNL A   1      42.081  19.458  26.022  1.00  0.00     0.124 S 
ATOM     81  O   UNL A   1      40.641  19.436  25.792  1.00  0.00    -0.237 OA
ATOM     82  O   UNL A   1      42.920  19.478  24.827  1.00  0.00    -0.237 OA
ATOM     83  O   UNL A   1      42.562  18.603  27.102  1.00  0.00    -0.744 OA
ENDBRANCH  79  80
ENDBRANCH  47  72
BRANCH  59  84
ATOM     84  C   UNL A   1      48.111  27.068  30.482  1.00  0.00     0.058 A 
ATOM     85  C   UNL A   1      49.147  27.331  29.571  1.00  0.00     0.135 A 
ATOM     86  C   UNL A   1      48.451  26.449  31.696  1.00  0.00     0.135 A 
ATOM     87  F   UNL A   1      48.878  27.915  28.392  1.00  0.00    -0.206 F 
ATOM     88  C   UNL A   1      50.464  26.974  29.844  1.00  0.00     0.059 A 
ATOM     89  C   UNL A   1      49.765  26.112  32.003  1.00  0.00     0.059 A 
ATOM     90  F   UNL A   1      47.502  26.183  32.608  1.00  0.00    -0.206 F 
ATOM     91  C   UNL A   1      50.763  26.366  31.065  1.00  0.00     0.060 A 
BRANCH  91  92
ATOM     92  S   UNL A   1      52.481  25.940  31.421  1.00  0.00     0.124 S 
ATOM     93  O   UNL A   1      53.090  26.046  30.099  1.00  0.00    -0.237 OA
ATOM     94  O   UNL A   1      52.866  26.971  32.379  1.00  0.00    -0.237 OA
ATOM     95  O   UNL A   1      52.392  24.588  31.964  1.00  0.00    -0.744 OA
ENDBRANCH  91  92
ENDBRANCH  59  84
ENDBRANCH  33  34
ENDBRANCH  25  28
ENDBRANCH  23  24
ENDBRANCH  22  23
ENDBRANCH   1  22
TORSDOF 17
ENDMDL
MODEL 2
REMARK VINA RESULT:     -11.3      4.887      7.902
REMARK SMILES O=C(C[C@H]1CN(c2nc(C3CC3)ns2)CCO1)NCCCCNC(=O)c1ccc(-c2c3nc(c(-c4c(F)cc(S(=O)(=O)[O-])cc4F)c4ccc([nH]4)c(-c4c(F)cc(S(=O)(=O)[O-])cc4F)c4nc(c(-c5c(F)cc(S(=O)(=O)[O-])cc5F)c5ccc2[nH]5)C=C4)C=C3)cc1
REMARK SMILES IDX 20 1 19 2 18 3 1 4 2 5 3 7 4 8 5 9 17 10 6 11 16 12 15 13
REMARK SMILES IDX 7 14 8 15 14 16 9 17 13 18 10 19 11 20 12 21 21 22 22 23
REMARK SMILES IDX 23 24 24 25 25 27 26 28 27 29 91 30 28 31 90 32 29 33 30 34
REMARK SMILES IDX 31 35 84 36 32 37 89 38 83 39 85 40 33 41 88 42 82 43 81 44
REMARK SMILES IDX 34 46 68 47 47 48 67 49 48 50 51 51 66 52 86 53 49 54 50 55
REMARK SMILES IDX 65 57 87 58 52 59 35 60 36 61 45 62 37 63 38 64 44 65 46 66
REMARK SMILES IDX 39 67 40 68 41 69 42 70 43 71 69 72 70 73 79 74 71 75 72 76
REMARK SMILES IDX 78 77 80 78 73 79 74 80 75 81 76 82 77 83 53 84 54 85 63 86
REMARK SMILES IDX 55 87 56 88 62 89 64 90 57 91 58 92 59 93 60 94 61 95
REMARK H PARENT 18 6 23 26 85 45 51 56
REMARK Flexibility Score: inf
ROOT
ATOM      1  C   UNL A   1      34.774  32.580  28.594  1.00  0.00     0.023 C 
ENDROOT
BRANCH   1   2
ATOM      2  C   UNL A   1      35.086  33.949  27.997  1.00  0.00     0.116 C 
BRANCH   2   3
ATOM      3  N   UNL A   1      34.791  35.030  28.909  1.00  0.00    -0.356 N 
ATOM      4  O   UNL A   1      32.528  35.028  28.548  1.00  0.00    -0.275 OA
ATOM      5  C   UNL A   1      33.508  35.465  29.145  1.00  0.00     0.222 C 
ATOM      6  H   UNL A   1      35.535  35.472  29.378  1.00  0.00     0.163 HD
BRANCH   5   7
ATOM      7  C   UNL A   1      33.389  36.572  30.167  1.00  0.00     0.133 C 
BRANCH   7   8
ATOM      8  C   UNL A   1      32.596  36.275  31.452  1.00  0.00     0.147 C 
ATOM      9  C   UNL A   1      33.021  34.954  32.129  1.00  0.00     0.151 C 
ATOM     10  O   UNL A   1      32.518  37.355  32.404  1.00  0.00    -0.374 OA
ATOM     11  N   UNL A   1      34.202  35.136  32.968  1.00  0.00    -0.342 N 
ATOM     12  C   UNL A   1      33.719  37.521  33.179  1.00  0.00     0.182 C 
ATOM     13  C   UNL A   1      34.129  36.238  33.920  1.00  0.00     0.147 C 
BRANCH  11  14
ATOM     14  C   UNL A   1      35.373  34.531  32.650  1.00  0.00     0.205 A 
ATOM     15  N   UNL A   1      36.156  34.876  31.653  1.00  0.00    -0.203 NA
ATOM     16  S   UNL A   1      35.989  33.125  33.458  1.00  0.00     0.004 S 
ATOM     17  C   UNL A   1      37.224  33.991  31.580  1.00  0.00     0.147 A 
ATOM     18  N   UNL A   1      37.274  32.948  32.412  1.00  0.00    -0.174 NA
BRANCH  17  19
ATOM     19  C   UNL A   1      38.343  34.190  30.560  1.00  0.00     0.059 C 
ATOM     20  C   UNL A   1      39.354  33.086  30.334  1.00  0.00     0.012 C 
ATOM     21  C   UNL A   1      38.318  33.356  29.296  1.00  0.00     0.012 C 
ENDBRANCH  17  19
ENDBRANCH  11  14
ENDBRANCH   7   8
ENDBRANCH   5   7
ENDBRANCH   2   3
ENDBRANCH   1   2
BRANCH   1  22
ATOM     22  C   UNL A   1      34.982  31.401  27.639  1.00  0.00     0.023 C 
BRANCH  22  23
ATOM     23  C   UNL A   1      35.532  30.129  28.275  1.00  0.00     0.116 C 
BRANCH  23  24
ATOM     24  N   UNL A   1      35.487  30.156  29.728  1.00  0.00    -0.352 N 
ATOM     25  C   UNL A   1      36.491  29.923  30.639  1.00  0.00     0.251 C 
ATOM     26  H   UNL A   1      34.610  30.373  30.118  1.00  0.00     0.163 HD
ATOM     27  O   UNL A   1      36.221  29.847  31.837  1.00  0.00    -0.269 OA
BRANCH  25  28
ATOM     28  C   UNL A   1      37.887  29.735  30.182  1.00  0.00     0.039 A 
ATOM     29  C   UNL A   1      38.885  29.511  31.135  1.00  0.00     0.014 A 
ATOM     30  C   UNL A   1      38.216  29.777  28.825  1.00  0.00     0.014 A 
ATOM     31  C   UNL A   1      40.196  29.259  30.723  1.00  0.00     0.010 A 
ATOM     32  C   UNL A   1      39.507  29.450  28.413  1.00  0.00     0.010 A 
ATOM     33  C   UNL A   1      40.512  29.186  29.356  1.00  0.00    -0.014 A 
BRANCH  33  34
ATOM     34  C   UNL A   1      41.880  28.818  28.898  1.00  0.00     0.031 A 
ATOM     35  C   UNL A   1      42.969  29.856  28.841  1.00  0.00     0.074 A 
ATOM     36  C   UNL A   1      42.125  27.562  28.471  1.00  0.00     0.049 A 
ATOM     37  N   UNL A   1      44.199  29.741  28.411  1.00  0.00    -0.248 NA
ATOM     38  C   UNL A   1      42.623  31.210  29.306  1.00  0.00     0.031 C 
ATOM     39  C   UNL A   1      41.145  26.474  28.435  1.00  0.00     0.029 A 
ATOM     40  N   UNL A   1      43.271  26.988  27.978  1.00  0.00    -0.354 N 
ATOM     41  C   UNL A   1      44.769  31.002  28.539  1.00  0.00     0.074 A 
ATOM     42  C   UNL A   1      43.734  31.882  29.039  1.00  0.00     0.031 C 
ATOM     43  C   UNL A   1      41.737  25.362  27.970  1.00  0.00     0.029 A 
ATOM     44  C   UNL A   1      43.125  25.664  27.634  1.00  0.00     0.049 A 
ATOM     45  H   UNL A   1      44.119  27.478  27.880  1.00  0.00     0.167 HD
ATOM     46  C   UNL A   1      46.042  31.389  28.284  1.00  0.00     0.037 A 
ATOM     47  C   UNL A   1      44.003  24.793  27.100  1.00  0.00     0.037 A 
ATOM     48  C   UNL A   1      47.074  30.503  27.808  1.00  0.00     0.049 A 
ATOM     49  C   UNL A   1      45.409  25.250  26.811  1.00  0.00     0.074 A 
ATOM     50  C   UNL A   1      48.410  30.786  27.580  1.00  0.00     0.029 A 
ATOM     51  N   UNL A   1      46.888  29.168  27.481  1.00  0.00    -0.354 N 
ATOM     52  N   UNL A   1      45.947  26.432  27.004  1.00  0.00    -0.248 NA
ATOM     53  C   UNL A   1      46.326  24.258  26.237  1.00  0.00     0.031 C 
ATOM     54  C   UNL A   1      49.018  29.638  27.061  1.00  0.00     0.029 A 
ATOM     55  C   UNL A   1      48.076  28.621  27.025  1.00  0.00     0.049 A 
ATOM     56  H   UNL A   1      46.035  28.680  27.560  1.00  0.00     0.167 HD
ATOM     57  C   UNL A   1      47.274  26.313  26.606  1.00  0.00     0.074 A 
ATOM     58  C   UNL A   1      47.459  24.944  26.172  1.00  0.00     0.031 C 
ATOM     59  C   UNL A   1      48.251  27.254  26.603  1.00  0.00     0.037 A 
BRANCH  46  60
ATOM     60  C   UNL A   1      46.396  32.835  28.511  1.00  0.00     0.058 A 
ATOM     61  C   UNL A   1      46.885  33.294  29.744  1.00  0.00     0.135 A 
ATOM     62  C   UNL A   1      46.290  33.766  27.463  1.00  0.00     0.135 A 
ATOM     63  F   UNL A   1      46.995  32.451  30.784  1.00  0.00    -0.206 F 
ATOM     64  C   UNL A   1      47.229  34.627  29.941  1.00  0.00     0.059 A 
ATOM     65  C   UNL A   1      46.658  35.098  27.629  1.00  0.00     0.059 A 
ATOM     66  F   UNL A   1      45.829  33.384  26.262  1.00  0.00    -0.206 F 
ATOM     67  C   UNL A   1      47.113  35.522  28.876  1.00  0.00     0.060 A 
BRANCH  67  68
ATOM     68  S   UNL A   1      47.572  37.247  29.147  1.00  0.00     0.124 S 
ATOM     69  O   UNL A   1      48.896  37.106  29.745  1.00  0.00    -0.237 OA
ATOM     70  O   UNL A   1      47.544  37.792  27.793  1.00  0.00    -0.237 OA
ATOM     71  O   UNL A   1      46.530  37.741  30.040  1.00  0.00    -0.744 OA
ENDBRANCH  67  68
ENDBRANCH  46  60
BRANCH  47  72
ATOM     72  C   UNL A   1      43.587  23.391  26.818  1.00  0.00     0.058 A 
ATOM     73  C   UNL A   1      43.342  22.487  27.863  1.00  0.00     0.135 A 
ATOM     74  C   UNL A   1      43.425  22.928  25.503  1.00  0.00     0.135 A 
ATOM     75  F   UNL A   1      43.491  22.879  29.137  1.00  0.00    -0.206 F 
ATOM     76  C   UNL A   1      42.971  21.169  27.616  1.00  0.00     0.059 A 
ATOM     77  C   UNL A   1      43.025  21.623  25.231  1.00  0.00     0.059 A 
ATOM     78  F   UNL A   1      43.631  23.755  24.467  1.00  0.00    -0.206 F 
ATOM     79  C   UNL A   1      42.813  20.747  26.295  1.00  0.00     0.060 A 
BRANCH  79  80
ATOM     80  S   UNL A   1      42.293  19.045  25.987  1.00  0.00     0.124 S 
ATOM     81  O   UNL A   1      43.099  18.699  24.822  1.00  0.00    -0.237 OA
ATOM     82  O   UNL A   1      42.657  18.384  27.236  1.00  0.00    -0.237 OA
ATOM     83  O   UNL A   1      40.859  19.171  25.748  1.00  0.00    -0.744 OA
ENDBRANCH  79  80
ENDBRANCH  47  72
BRANCH  59  84
ATOM     84  C   UNL A   1      49.625  26.829  26.156  1.00  0.00     0.058 A 
ATOM     85  C   UNL A   1      50.564  26.293  27.051  1.00  0.00     0.135 A 
ATOM     86  C   UNL A   1      49.987  26.911  24.801  1.00  0.00     0.135 A 
ATOM     87  F   UNL A   1      50.274  26.198  28.359  1.00  0.00    -0.206 F 
ATOM     88  C   UNL A   1      51.821  25.876  26.623  1.00  0.00     0.059 A 
ATOM     89  C   UNL A   1      51.225  26.470  24.346  1.00  0.00     0.059 A 
ATOM     90  F   UNL A   1      49.123  27.406  23.900  1.00  0.00    -0.206 F 
ATOM     91  C   UNL A   1      52.141  25.966  25.266  1.00  0.00     0.060 A 
BRANCH  91  92
ATOM     92  S   UNL A   1      53.762  25.388  24.720  1.00  0.00     0.124 S 
ATOM     93  O   UNL A   1      53.903  26.076  23.441  1.00  0.00    -0.237 OA
ATOM     94  O   UNL A   1      54.636  25.856  25.790  1.00  0.00    -0.237 OA
ATOM     95  O   UNL A   1      53.597  23.940  24.639  1.00  0.00    -0.744 OA
ENDBRANCH  91  92
ENDBRANCH  59  84
ENDBRANCH  33  34
ENDBRANCH  25  28
ENDBRANCH  23  24
ENDBRANCH  22  23
ENDBRANCH   1  22
TORSDOF 17
ENDMDL
MODEL 3
REMARK VINA RESULT:     -11.2      4.968     11.312
REMARK SMILES O=C(C[C@H]1CN(c2nc(C3CC3)ns2)CCO1)NCCCCNC(=O)c1ccc(-c2c3nc(c(-c4c(F)cc(S(=O)(=O)[O-])cc4F)c4ccc([nH]4)c(-c4c(F)cc(S(=O)(=O)[O-])cc4F)c4nc(c(-c5c(F)cc(S(=O)(=O)[O-])cc5F)c5ccc2[nH]5)C=C4)C=C3)cc1
REMARK SMILES IDX 20 1 19 2 18 3 1 4 2 5 3 7 4 8 5 9 17 10 6 11 16 12 15 13
REMARK SMILES IDX 7 14 8 15 14 16 9 17 13 18 10 19 11 20 12 21 21 22 22 23
REMARK SMILES IDX 23 24 24 25 25 27 26 28 27 29 91 30 28 31 90 32 29 33 30 34
REMARK SMILES IDX 31 35 84 36 32 37 89 38 83 39 85 40 33 41 88 42 82 43 81 44
REMARK SMILES IDX 34 46 68 47 47 48 67 49 48 50 51 51 66 52 86 53 49 54 50 55
REMARK SMILES IDX 65 57 87 58 52 59 35 60 36 61 45 62 37 63 38 64 44 65 46 66
REMARK SMILES IDX 39 67 40 68 41 69 42 70 43 71 69 72 70 73 79 74 71 75 72 76
REMARK SMILES IDX 78 77 80 78 73 79 74 80 75 81 76 82 77 83 53 84 54 85 63 86
REMARK SMILES IDX 55 87 56 88 62 89 64 90 57 91 58 92 59 93 60 94 61 95
REMARK H PARENT 18 6 23 26 85 45 51 56
REMARK Flexibility Score: inf
ROOT
ATOM      1  C   UNL A   1      34.660  32.352  28.544  1.00  0.00     0.023 C 
ENDROOT
BRANCH   1   2
ATOM      2  C   UNL A   1      35.060  33.664  27.876  1.00  0.00     0.116 C 
BRANCH   2   3
ATOM      3  N   UNL A   1      34.794  34.813  28.711  1.00  0.00    -0.356 N 
ATOM      4  O   UNL A   1      32.519  34.780  28.436  1.00  0.00    -0.275 OA
ATOM      5  C   UNL A   1      33.519  35.263  28.961  1.00  0.00     0.222 C 
ATOM      6  H   UNL A   1      35.553  35.292  29.117  1.00  0.00     0.163 HD
BRANCH   5   7
ATOM      7  C   UNL A   1      33.433  36.447  29.897  1.00  0.00     0.133 C 
BRANCH   7   8
ATOM      8  C   UNL A   1      32.671  36.256  31.220  1.00  0.00     0.147 C 
ATOM      9  C   UNL A   1      33.154  35.027  32.019  1.00  0.00     0.151 C 
ATOM     10  O   UNL A   1      32.569  37.424  32.058  1.00  0.00    -0.374 OA
ATOM     11  N   UNL A   1      34.340  35.334  32.813  1.00  0.00    -0.342 N 
ATOM     12  C   UNL A   1      33.774  37.710  32.790  1.00  0.00     0.182 C 
ATOM     13  C   UNL A   1      34.241  36.525  33.649  1.00  0.00     0.147 C 
BRANCH  11  14
ATOM     14  C   UNL A   1      35.527  34.740  32.536  1.00  0.00     0.205 A 
ATOM     15  N   UNL A   1      35.904  34.322  31.349  1.00  0.00    -0.203 NA
ATOM     16  S   UNL A   1      36.715  34.343  33.735  1.00  0.00     0.004 S 
ATOM     17  C   UNL A   1      37.140  33.697  31.454  1.00  0.00     0.147 A 
ATOM     18  N   UNL A   1      37.703  33.545  32.655  1.00  0.00    -0.174 NA
BRANCH  17  19
ATOM     19  C   UNL A   1      37.867  33.176  30.215  1.00  0.00     0.059 C 
ATOM     20  C   UNL A   1      38.699  34.128  29.382  1.00  0.00     0.012 C 
ATOM     21  C   UNL A   1      39.380  33.118  30.243  1.00  0.00     0.012 C 
ENDBRANCH  17  19
ENDBRANCH  11  14
ENDBRANCH   7   8
ENDBRANCH   5   7
ENDBRANCH   2   3
ENDBRANCH   1   2
BRANCH   1  22
ATOM     22  C   UNL A   1      34.762  31.118  27.644  1.00  0.00     0.023 C 
BRANCH  22  23
ATOM     23  C   UNL A   1      35.547  29.945  28.222  1.00  0.00     0.116 C 
BRANCH  23  24
ATOM     24  N   UNL A   1      35.548  29.926  29.677  1.00  0.00    -0.352 N 
ATOM     25  C   UNL A   1      36.587  29.701  30.548  1.00  0.00     0.251 C 
ATOM     26  H   UNL A   1      34.677  30.100  30.100  1.00  0.00     0.163 HD
ATOM     27  O   UNL A   1      36.359  29.578  31.750  1.00  0.00    -0.269 OA
BRANCH  25  28
ATOM     28  C   UNL A   1      37.974  29.576  30.042  1.00  0.00     0.039 A 
ATOM     29  C   UNL A   1      38.989  29.221  30.936  1.00  0.00     0.014 A 
ATOM     30  C   UNL A   1      38.277  29.806  28.698  1.00  0.00     0.014 A 
ATOM     31  C   UNL A   1      40.291  29.028  30.467  1.00  0.00     0.010 A 
ATOM     32  C   UNL A   1      39.559  29.539  28.220  1.00  0.00     0.010 A 
ATOM     33  C   UNL A   1      40.581  29.145  29.098  1.00  0.00    -0.014 A 
BRANCH  33  34
ATOM     34  C   UNL A   1      41.938  28.843  28.566  1.00  0.00     0.031 A 
ATOM     35  C   UNL A   1      42.290  27.448  28.123  1.00  0.00     0.074 A 
ATOM     36  C   UNL A   1      42.876  29.813  28.542  1.00  0.00     0.049 A 
ATOM     37  N   UNL A   1      43.434  26.981  27.694  1.00  0.00    -0.248 NA
ATOM     38  C   UNL A   1      41.221  26.438  28.194  1.00  0.00     0.031 C 
ATOM     39  C   UNL A   1      42.675  31.195  28.984  1.00  0.00     0.029 A 
ATOM     40  N   UNL A   1      44.188  29.785  28.137  1.00  0.00    -0.354 N 
ATOM     41  C   UNL A   1      43.230  25.627  27.458  1.00  0.00     0.074 A 
ATOM     42  C   UNL A   1      41.865  25.335  27.841  1.00  0.00     0.031 C 
ATOM     43  C   UNL A   1      43.812  31.886  28.803  1.00  0.00     0.029 A 
ATOM     44  C   UNL A   1      44.836  30.990  28.274  1.00  0.00     0.049 A 
ATOM     45  H   UNL A   1      44.623  28.977  27.781  1.00  0.00     0.167 HD
ATOM     46  C   UNL A   1      44.093  24.714  26.950  1.00  0.00     0.037 A 
ATOM     47  C   UNL A   1      46.112  31.336  28.015  1.00  0.00     0.037 A 
ATOM     48  C   UNL A   1      45.444  25.016  26.550  1.00  0.00     0.049 A 
ATOM     49  C   UNL A   1      47.057  30.299  27.465  1.00  0.00     0.074 A 
ATOM     50  C   UNL A   1      46.374  24.174  25.965  1.00  0.00     0.029 A 
ATOM     51  N   UNL A   1      46.060  26.250  26.696  1.00  0.00    -0.354 N 
ATOM     52  N   UNL A   1      46.825  29.039  27.184  1.00  0.00    -0.248 NA
ATOM     53  C   UNL A   1      48.434  30.732  27.192  1.00  0.00     0.031 C 
ATOM     54  C   UNL A   1      47.571  24.883  25.812  1.00  0.00     0.029 A 
ATOM     55  C   UNL A   1      47.367  26.184  26.242  1.00  0.00     0.049 A 
ATOM     56  H   UNL A   1      45.631  27.055  27.070  1.00  0.00     0.167 HD
ATOM     57  C   UNL A   1      48.016  28.539  26.671  1.00  0.00     0.074 A 
ATOM     58  C   UNL A   1      48.963  29.634  26.670  1.00  0.00     0.031 C 
ATOM     59  C   UNL A   1      48.299  27.285  26.238  1.00  0.00     0.037 A 
BRANCH  46  60
ATOM     60  C   UNL A   1      43.607  23.297  26.799  1.00  0.00     0.058 A 
ATOM     61  C   UNL A   1      43.412  22.457  27.908  1.00  0.00     0.135 A 
ATOM     62  C   UNL A   1      43.285  22.786  25.529  1.00  0.00     0.135 A 
ATOM     63  F   UNL A   1      43.715  22.887  29.143  1.00  0.00    -0.206 F 
ATOM     64  C   UNL A   1      42.944  21.156  27.763  1.00  0.00     0.059 A 
ATOM     65  C   UNL A   1      42.786  21.498  25.364  1.00  0.00     0.059 A 
ATOM     66  F   UNL A   1      43.451  23.543  24.434  1.00  0.00    -0.206 F 
ATOM     67  C   UNL A   1      42.632  20.685  26.486  1.00  0.00     0.060 A 
BRANCH  67  68
ATOM     68  S   UNL A   1      42.017  18.996  26.317  1.00  0.00     0.124 S 
ATOM     69  O   UNL A   1      40.679  19.225  25.781  1.00  0.00    -0.237 OA
ATOM     70  O   UNL A   1      42.978  18.407  25.389  1.00  0.00    -0.237 OA
ATOM     71  O   UNL A   1      42.067  18.476  27.679  1.00  0.00    -0.744 OA
ENDBRANCH  67  68
ENDBRANCH  46  60
BRANCH  47  72
ATOM     72  C   UNL A   1      46.572  32.732  28.254  1.00  0.00     0.058 A 
ATOM     73  C   UNL A   1      47.166  33.096  29.473  1.00  0.00     0.135 A 
ATOM     74  C   UNL A   1      46.430  33.727  27.275  1.00  0.00     0.135 A 
ATOM     75  F   UNL A   1      47.317  32.183  30.444  1.00  0.00    -0.206 F 
ATOM     76  C   UNL A   1      47.584  34.400  29.720  1.00  0.00     0.059 A 
ATOM     77  C   UNL A   1      46.868  35.031  27.487  1.00  0.00     0.059 A 
ATOM     78  F   UNL A   1      45.883  33.428  26.086  1.00  0.00    -0.206 F 
ATOM     79  C   UNL A   1      47.432  35.361  28.718  1.00  0.00     0.060 A 
BRANCH  79  80
ATOM     80  S   UNL A   1      48.015  37.041  29.035  1.00  0.00     0.124 S 
ATOM     81  O   UNL A   1      48.824  37.298  27.849  1.00  0.00    -0.237 OA
ATOM     82  O   UNL A   1      46.763  37.785  29.129  1.00  0.00    -0.237 OA
ATOM     83  O   UNL A   1      48.753  36.909  30.286  1.00  0.00    -0.744 OA
ENDBRANCH  79  80
ENDBRANCH  47  72
BRANCH  59  84
ATOM     84  C   UNL A   1      49.677  27.034  25.685  1.00  0.00     0.058 A 
ATOM     85  C   UNL A   1      49.992  27.282  24.339  1.00  0.00     0.135 A 
ATOM     86  C   UNL A   1      50.709  26.589  26.527  1.00  0.00     0.135 A 
ATOM     87  F   UNL A   1      49.043  27.702  23.488  1.00  0.00    -0.206 F 
ATOM     88  C   UNL A   1      51.276  27.075  23.844  1.00  0.00     0.059 A 
ATOM     89  C   UNL A   1      52.006  26.405  26.061  1.00  0.00     0.059 A 
ATOM     90  F   UNL A   1      50.465  26.346  27.825  1.00  0.00    -0.206 F 
ATOM     91  C   UNL A   1      52.278  26.638  24.714  1.00  0.00     0.060 A 
BRANCH  91  92
ATOM     92  S   UNL A   1      53.947  26.408  24.065  1.00  0.00     0.124 S 
ATOM     93  O   UNL A   1      54.591  27.657  24.460  1.00  0.00    -0.237 OA
ATOM     94  O   UNL A   1      54.395  25.214  24.775  1.00  0.00    -0.237 OA
ATOM     95  O   UNL A   1      53.735  26.237  22.632  1.00  0.00    -0.744 OA
ENDBRANCH  91  92
ENDBRANCH  59  84
ENDBRANCH  33  34
ENDBRANCH  25  28
ENDBRANCH  23  24
ENDBRANCH  22  23
ENDBRANCH   1  22
TORSDOF 17
ENDMDL
