MODEL 1
REMARK VINA RESULT:     -11.4      0.000      0.000
REMARK SMILES N#CCSc1nnnn1-c1ccc(C(=O)NCCCCNC(=O)c2ccc(-c3c4nc(c(-c5c(F)cc(S(=O)(=O)[O-])cc5F)c5ccc([nH]5)c(-c5c(F)cc(S(=O)(=O)[O-])cc5F)c5nc(c(-c6c(F)cc(S(=O)(=O)[O-])cc6F)c6ccc3[nH]6)C=C5)C=C4)cc2)cc1
REMARK SMILES IDX 18 1 17 2 16 3 14 4 15 5 13 7 10 8 11 9 91 10 12 11 90 12
REMARK SMILES IDX 9 13 5 14 6 15 7 16 8 17 4 18 3 19 2 20 1 21 19 22 20 23
REMARK SMILES IDX 21 24 22 25 23 27 24 28 25 29 89 30 26 31 88 32 27 33 28 34
REMARK SMILES IDX 29 35 82 36 30 37 87 38 81 39 83 40 31 41 86 42 80 43 79 44
REMARK SMILES IDX 32 46 66 47 45 48 65 49 46 50 49 51 64 52 84 53 47 54 48 55
REMARK SMILES IDX 63 57 85 58 50 59 33 60 34 61 43 62 35 63 36 64 42 65 44 66
REMARK SMILES IDX 37 67 38 68 39 69 40 70 41 71 67 72 68 73 77 74 69 75 70 76
REMARK SMILES IDX 76 77 78 78 71 79 72 80 73 81 74 82 75 83 51 84 52 85 61 86
REMARK SMILES IDX 53 87 54 88 60 89 62 90 55 91 56 92 57 93 58 94 59 95
REMARK H PARENT 16 6 21 26 83 45 49 56
REMARK Flexibility Score: inf
ROOT
ATOM      1  C   UNL A   1      40.611  20.922  26.909  1.00  0.00     0.023 C 
ENDROOT
BRANCH   1   2
ATOM      2  C   UNL A   1      39.436  21.433  26.062  1.00  0.00     0.116 C 
BRANCH   2   3
ATOM      3  N   UNL A   1      39.107  22.807  26.389  1.00  0.00    -0.352 N 
ATOM      4  C   UNL A   1      38.023  23.609  26.124  1.00  0.00     0.251 C 
ATOM      5  O   UNL A   1      38.065  24.768  26.539  1.00  0.00    -0.269 OA
ATOM      6  H   UNL A   1      39.808  23.262  26.911  1.00  0.00     0.163 HD
BRANCH   4   7
ATOM      7  C   UNL A   1      36.797  23.153  25.403  1.00  0.00     0.039 A 
ATOM      8  C   UNL A   1      34.459  22.130  24.223  1.00  0.00     0.069 A 
ATOM      9  C   UNL A   1      34.458  22.444  25.582  1.00  0.00     0.029 A 
ATOM     10  C   UNL A   1      35.579  22.412  23.438  1.00  0.00     0.029 A 
ATOM     11  C   UNL A   1      35.639  22.920  26.170  1.00  0.00     0.016 A 
ATOM     12  C   UNL A   1      36.719  22.962  24.023  1.00  0.00     0.016 A 
BRANCH   8  13
ATOM     13  N   UNL A   1      33.325  21.545  23.625  1.00  0.00    -0.187 N 
ATOM     14  C   UNL A   1      32.816  20.262  23.742  1.00  0.00     0.215 A 
ATOM     15  N   UNL A   1      31.904  20.078  22.816  1.00  0.00    -0.101 NA
ATOM     16  N   UNL A   1      31.780  21.286  22.174  1.00  0.00    -0.022 NA
ATOM     17  N   UNL A   1      32.584  22.200  22.702  1.00  0.00    -0.039 NA
BRANCH  14  18
ATOM     18  S   UNL A   1      33.177  19.191  25.059  1.00  0.00    -0.069 SA
BRANCH  18  19
ATOM     19  C   UNL A   1      34.461  18.125  24.339  1.00  0.00     0.198 C 
BRANCH  19  20
ATOM     20  C   UNL A   1      34.361  16.661  24.735  1.00  0.00     0.074 C 
ATOM     21  N   UNL A   1      34.279  15.447  25.064  1.00  0.00    -0.197 NA
ENDBRANCH  19  20
ENDBRANCH  18  19
ENDBRANCH  14  18
ENDBRANCH   8  13
ENDBRANCH   4   7
ENDBRANCH   2   3
ENDBRANCH   1   2
BRANCH   1  22
ATOM     22  C   UNL A   1      41.345  19.695  26.345  1.00  0.00     0.023 C 
BRANCH  22  23
ATOM     23  C   UNL A   1      42.753  19.474  26.888  1.00  0.00     0.116 C 
BRANCH  23  24
ATOM     24  N   UNL A   1      43.775  19.426  25.834  1.00  0.00    -0.352 N 
ATOM     25  C   UNL A   1      44.211  20.448  25.005  1.00  0.00     0.251 C 
ATOM     26  H   UNL A   1      44.207  18.552  25.698  1.00  0.00     0.163 HD
ATOM     27  O   UNL A   1      44.740  20.204  23.931  1.00  0.00    -0.269 OA
BRANCH  25  28
ATOM     28  C   UNL A   1      44.056  21.840  25.469  1.00  0.00     0.039 A 
ATOM     29  C   UNL A   1      43.054  22.695  24.998  1.00  0.00     0.014 A 
ATOM     30  C   UNL A   1      44.953  22.262  26.441  1.00  0.00     0.014 A 
ATOM     31  C   UNL A   1      42.929  23.960  25.575  1.00  0.00     0.010 A 
ATOM     32  C   UNL A   1      44.695  23.400  27.147  1.00  0.00     0.010 A 
ATOM     33  C   UNL A   1      43.756  24.296  26.656  1.00  0.00    -0.014 A 
BRANCH  33  34
ATOM     34  C   UNL A   1      43.631  25.545  27.393  1.00  0.00     0.031 A 
ATOM     35  C   UNL A   1      44.657  26.558  27.038  1.00  0.00     0.074 A 
ATOM     36  C   UNL A   1      42.497  25.850  28.065  1.00  0.00     0.049 A 
ATOM     37  N   UNL A   1      45.651  26.965  27.756  1.00  0.00    -0.248 NA
ATOM     38  C   UNL A   1      44.701  27.041  25.646  1.00  0.00     0.031 C 
ATOM     39  C   UNL A   1      41.261  25.058  28.166  1.00  0.00     0.029 A 
ATOM     40  N   UNL A   1      42.152  27.001  28.699  1.00  0.00    -0.354 N 
ATOM     41  C   UNL A   1      46.264  27.965  27.006  1.00  0.00     0.074 A 
ATOM     42  C   UNL A   1      45.823  27.765  25.653  1.00  0.00     0.031 C 
ATOM     43  C   UNL A   1      40.251  25.842  28.604  1.00  0.00     0.029 A 
ATOM     44  C   UNL A   1      40.792  27.135  28.973  1.00  0.00     0.049 A 
ATOM     45  H   UNL A   1      42.813  27.687  28.945  1.00  0.00     0.167 HD
ATOM     46  C   UNL A   1      46.826  29.052  27.608  1.00  0.00     0.037 A 
ATOM     47  C   UNL A   1      40.166  28.249  29.438  1.00  0.00     0.037 A 
ATOM     48  C   UNL A   1      46.965  28.829  29.030  1.00  0.00     0.049 A 
ATOM     49  C   UNL A   1      41.222  29.119  30.025  1.00  0.00     0.074 A 
ATOM     50  C   UNL A   1      47.587  27.872  29.810  1.00  0.00     0.029 A 
ATOM     51  N   UNL A   1      46.057  29.448  29.858  1.00  0.00    -0.354 N 
ATOM     52  N   UNL A   1      41.914  28.799  31.086  1.00  0.00    -0.248 NA
ATOM     53  C   UNL A   1      41.847  30.098  29.150  1.00  0.00     0.031 C 
ATOM     54  C   UNL A   1      46.685  27.633  30.890  1.00  0.00     0.029 A 
ATOM     55  C   UNL A   1      45.613  28.517  30.763  1.00  0.00     0.049 A 
ATOM     56  H   UNL A   1      45.775  30.390  29.810  1.00  0.00     0.167 HD
ATOM     57  C   UNL A   1      43.215  29.182  30.792  1.00  0.00     0.074 A 
ATOM     58  C   UNL A   1      43.097  30.051  29.621  1.00  0.00     0.031 C 
ATOM     59  C   UNL A   1      44.284  28.522  31.334  1.00  0.00     0.037 A 
BRANCH  46  60
ATOM     60  C   UNL A   1      46.872  30.448  27.013  1.00  0.00     0.058 A 
ATOM     61  C   UNL A   1      48.094  31.156  27.043  1.00  0.00     0.135 A 
ATOM     62  C   UNL A   1      45.740  31.221  26.673  1.00  0.00     0.135 A 
ATOM     63  F   UNL A   1      49.241  30.527  27.344  1.00  0.00    -0.206 F 
ATOM     64  C   UNL A   1      48.168  32.535  26.846  1.00  0.00     0.059 A 
ATOM     65  C   UNL A   1      45.800  32.586  26.418  1.00  0.00     0.059 A 
ATOM     66  F   UNL A   1      44.498  30.724  26.662  1.00  0.00    -0.206 F 
ATOM     67  C   UNL A   1      47.008  33.244  26.552  1.00  0.00     0.060 A 
BRANCH  67  68
ATOM     68  S   UNL A   1      47.079  35.035  26.400  1.00  0.00     0.124 S 
ATOM     69  O   UNL A   1      45.692  35.354  26.085  1.00  0.00    -0.237 OA
ATOM     70  O   UNL A   1      47.543  35.431  27.726  1.00  0.00    -0.237 OA
ATOM     71  O   UNL A   1      48.038  35.242  25.319  1.00  0.00    -0.744 OA
ENDBRANCH  67  68
ENDBRANCH  46  60
BRANCH  47  72
ATOM     72  C   UNL A   1      38.804  28.758  29.117  1.00  0.00     0.058 A 
ATOM     73  C   UNL A   1      37.837  28.943  30.124  1.00  0.00     0.135 A 
ATOM     74  C   UNL A   1      38.517  29.353  27.872  1.00  0.00     0.135 A 
ATOM     75  F   UNL A   1      38.029  28.422  31.346  1.00  0.00    -0.206 F 
ATOM     76  C   UNL A   1      36.688  29.719  29.928  1.00  0.00     0.059 A 
ATOM     77  C   UNL A   1      37.376  30.126  27.651  1.00  0.00     0.059 A 
ATOM     78  F   UNL A   1      39.389  29.280  26.855  1.00  0.00    -0.206 F 
ATOM     79  C   UNL A   1      36.480  30.330  28.692  1.00  0.00     0.060 A 
BRANCH  79  80
ATOM     80  S   UNL A   1      35.106  31.492  28.490  1.00  0.00     0.124 S 
ATOM     81  O   UNL A   1      35.678  32.486  27.591  1.00  0.00    -0.237 OA
ATOM     82  O   UNL A   1      34.064  30.643  27.922  1.00  0.00    -0.237 OA
ATOM     83  O   UNL A   1      34.852  31.954  29.853  1.00  0.00    -0.744 OA
ENDBRANCH  79  80
ENDBRANCH  47  72
BRANCH  59  84
ATOM     84  C   UNL A   1      44.026  27.580  32.485  1.00  0.00     0.058 A 
ATOM     85  C   UNL A   1      43.926  26.178  32.378  1.00  0.00     0.135 A 
ATOM     86  C   UNL A   1      43.990  28.118  33.780  1.00  0.00     0.135 A 
ATOM     87  F   UNL A   1      44.070  25.564  31.197  1.00  0.00    -0.206 F 
ATOM     88  C   UNL A   1      43.726  25.364  33.495  1.00  0.00     0.059 A 
ATOM     89  C   UNL A   1      43.828  27.323  34.911  1.00  0.00     0.059 A 
ATOM     90  F   UNL A   1      44.150  29.440  33.962  1.00  0.00    -0.206 F 
ATOM     91  C   UNL A   1      43.670  25.948  34.759  1.00  0.00     0.060 A 
BRANCH  91  92
ATOM     92  S   UNL A   1      43.424  24.898  36.206  1.00  0.00     0.124 S 
ATOM     93  O   UNL A   1      44.180  23.702  35.848  1.00  0.00    -0.237 OA
ATOM     94  O   UNL A   1      43.988  25.705  37.285  1.00  0.00    -0.237 OA
ATOM     95  O   UNL A   1      41.974  24.726  36.262  1.00  0.00    -0.744 OA
ENDBRANCH  91  92
ENDBRANCH  59  84
ENDBRANCH  33  34
ENDBRANCH  25  28
ENDBRANCH  23  24
ENDBRANCH  22  23
ENDBRANCH   1  22
TORSDOF 18
ENDMDL
MODEL 2
REMARK VINA RESULT:     -11.4      1.904      2.496
REMARK SMILES N#CCSc1nnnn1-c1ccc(C(=O)NCCCCNC(=O)c2ccc(-c3c4nc(c(-c5c(F)cc(S(=O)(=O)[O-])cc5F)c5ccc([nH]5)c(-c5c(F)cc(S(=O)(=O)[O-])cc5F)c5nc(c(-c6c(F)cc(S(=O)(=O)[O-])cc6F)c6ccc3[nH]6)C=C5)C=C4)cc2)cc1
REMARK SMILES IDX 18 1 17 2 16 3 14 4 15 5 13 7 10 8 11 9 91 10 12 11 90 12
REMARK SMILES IDX 9 13 5 14 6 15 7 16 8 17 4 18 3 19 2 20 1 21 19 22 20 23
REMARK SMILES IDX 21 24 22 25 23 27 24 28 25 29 89 30 26 31 88 32 27 33 28 34
REMARK SMILES IDX 29 35 82 36 30 37 87 38 81 39 83 40 31 41 86 42 80 43 79 44
REMARK SMILES IDX 32 46 66 47 45 48 65 49 46 50 49 51 64 52 84 53 47 54 48 55
REMARK SMILES IDX 63 57 85 58 50 59 33 60 34 61 43 62 35 63 36 64 42 65 44 66
REMARK SMILES IDX 37 67 38 68 39 69 40 70 41 71 67 72 68 73 77 74 69 75 70 76
REMARK SMILES IDX 76 77 78 78 71 79 72 80 73 81 74 82 75 83 51 84 52 85 61 86
REMARK SMILES IDX 53 87 54 88 60 89 62 90 55 91 56 92 57 93 58 94 59 95
REMARK H PARENT 16 6 21 26 83 45 49 56
REMARK Flexibility Score: inf
ROOT
ATOM      1  C   UNL A   1      39.836  21.752  26.678  1.00  0.00     0.023 C 
ENDROOT
BRANCH   1   2
ATOM      2  C   UNL A   1      38.708  22.309  25.796  1.00  0.00     0.116 C 
BRANCH   2   3
ATOM      3  N   UNL A   1      37.688  21.308  25.547  1.00  0.00    -0.352 N 
ATOM      4  C   UNL A   1      36.377  21.374  25.143  1.00  0.00     0.251 C 
ATOM      5  O   UNL A   1      35.763  20.311  25.043  1.00  0.00    -0.269 OA
ATOM      6  H   UNL A   1      38.001  20.387  25.700  1.00  0.00     0.163 HD
BRANCH   4   7
ATOM      7  C   UNL A   1      35.671  22.641  24.786  1.00  0.00     0.039 A 
ATOM      8  C   UNL A   1      34.194  24.985  24.300  1.00  0.00     0.069 A 
ATOM      9  C   UNL A   1      34.637  24.711  25.594  1.00  0.00     0.029 A 
ATOM     10  C   UNL A   1      34.565  24.154  23.241  1.00  0.00     0.029 A 
ATOM     11  C   UNL A   1      35.341  23.522  25.834  1.00  0.00     0.016 A 
ATOM     12  C   UNL A   1      35.337  23.017  23.484  1.00  0.00     0.016 A 
BRANCH   8  13
ATOM     13  N   UNL A   1      33.389  26.112  24.044  1.00  0.00    -0.187 N 
ATOM     14  C   UNL A   1      32.042  26.194  23.734  1.00  0.00     0.215 A 
ATOM     15  N   UNL A   1      31.770  27.412  23.326  1.00  0.00    -0.101 NA
ATOM     16  N   UNL A   1      32.939  28.119  23.469  1.00  0.00    -0.022 NA
ATOM     17  N   UNL A   1      33.906  27.360  23.970  1.00  0.00    -0.039 NA
BRANCH  14  18
ATOM     18  S   UNL A   1      30.889  24.941  24.071  1.00  0.00    -0.069 SA
BRANCH  18  19
ATOM     19  C   UNL A   1      30.444  25.291  25.798  1.00  0.00     0.198 C 
BRANCH  19  20
ATOM     20  C   UNL A   1      30.253  24.056  26.663  1.00  0.00     0.074 C 
ATOM     21  N   UNL A   1      30.094  23.031  27.381  1.00  0.00    -0.197 NA
ENDBRANCH  19  20
ENDBRANCH  18  19
ENDBRANCH  14  18
ENDBRANCH   8  13
ENDBRANCH   4   7
ENDBRANCH   2   3
ENDBRANCH   1   2
BRANCH   1  22
ATOM     22  C   UNL A   1      40.417  20.402  26.228  1.00  0.00     0.023 C 
BRANCH  22  23
ATOM     23  C   UNL A   1      41.601  19.900  27.048  1.00  0.00     0.116 C 
BRANCH  23  24
ATOM     24  N   UNL A   1      42.800  19.657  26.236  1.00  0.00    -0.352 N 
ATOM     25  C   UNL A   1      43.557  20.570  25.516  1.00  0.00     0.251 C 
ATOM     26  H   UNL A   1      43.108  18.723  26.197  1.00  0.00     0.163 HD
ATOM     27  O   UNL A   1      44.254  20.208  24.581  1.00  0.00    -0.269 OA
BRANCH  25  28
ATOM     28  C   UNL A   1      43.530  21.984  25.933  1.00  0.00     0.039 A 
ATOM     29  C   UNL A   1      42.896  22.987  25.191  1.00  0.00     0.014 A 
ATOM     30  C   UNL A   1      44.151  22.277  27.140  1.00  0.00     0.014 A 
ATOM     31  C   UNL A   1      42.839  24.277  25.722  1.00  0.00     0.010 A 
ATOM     32  C   UNL A   1      43.906  23.471  27.751  1.00  0.00     0.010 A 
ATOM     33  C   UNL A   1      43.345  24.502  27.010  1.00  0.00    -0.014 A 
BRANCH  33  34
ATOM     34  C   UNL A   1      43.237  25.782  27.693  1.00  0.00     0.031 A 
ATOM     35  C   UNL A   1      44.280  26.764  27.302  1.00  0.00     0.074 A 
ATOM     36  C   UNL A   1      42.106  26.133  28.347  1.00  0.00     0.049 A 
ATOM     37  N   UNL A   1      45.277  27.185  28.006  1.00  0.00    -0.248 NA
ATOM     38  C   UNL A   1      44.337  27.187  25.890  1.00  0.00     0.031 C 
ATOM     39  C   UNL A   1      40.857  25.365  28.475  1.00  0.00     0.029 A 
ATOM     40  N   UNL A   1      41.776  27.315  28.931  1.00  0.00    -0.354 N 
ATOM     41  C   UNL A   1      45.909  28.143  27.217  1.00  0.00     0.074 A 
ATOM     42  C   UNL A   1      45.470  27.893  25.872  1.00  0.00     0.031 C 
ATOM     43  C   UNL A   1      39.857  26.182  28.876  1.00  0.00     0.029 A 
ATOM     44  C   UNL A   1      40.417  27.481  29.193  1.00  0.00     0.049 A 
ATOM     45  H   UNL A   1      42.446  28.000  29.151  1.00  0.00     0.167 HD
ATOM     46  C   UNL A   1      46.486  29.246  27.776  1.00  0.00     0.037 A 
ATOM     47  C   UNL A   1      39.806  28.623  29.608  1.00  0.00     0.037 A 
ATOM     48  C   UNL A   1      46.615  29.081  29.207  1.00  0.00     0.049 A 
ATOM     49  C   UNL A   1      40.874  29.500  30.163  1.00  0.00     0.074 A 
ATOM     50  C   UNL A   1      47.219  28.147  30.029  1.00  0.00     0.029 A 
ATOM     51  N   UNL A   1      45.714  29.747  30.004  1.00  0.00    -0.354 N 
ATOM     52  N   UNL A   1      41.556  29.215  31.239  1.00  0.00    -0.248 NA
ATOM     53  C   UNL A   1      41.517  30.432  29.251  1.00  0.00     0.031 C 
ATOM     54  C   UNL A   1      46.310  27.967  31.114  1.00  0.00     0.029 A 
ATOM     55  C   UNL A   1      45.252  28.862  30.946  1.00  0.00     0.049 A 
ATOM     56  H   UNL A   1      45.447  30.690  29.915  1.00  0.00     0.167 HD
ATOM     57  C   UNL A   1      42.865  29.564  30.936  1.00  0.00     0.074 A 
ATOM     58  C   UNL A   1      42.764  30.385  29.728  1.00  0.00     0.031 C 
ATOM     59  C   UNL A   1      43.920  28.912  31.510  1.00  0.00     0.037 A 
BRANCH  46  60
ATOM     60  C   UNL A   1      46.556  30.614  27.124  1.00  0.00     0.058 A 
ATOM     61  C   UNL A   1      47.791  31.299  27.119  1.00  0.00     0.135 A 
ATOM     62  C   UNL A   1      45.437  31.395  26.757  1.00  0.00     0.135 A 
ATOM     63  F   UNL A   1      48.928  30.661  27.441  1.00  0.00    -0.206 F 
ATOM     64  C   UNL A   1      47.890  32.667  26.865  1.00  0.00     0.059 A 
ATOM     65  C   UNL A   1      45.522  32.746  26.444  1.00  0.00     0.059 A 
ATOM     66  F   UNL A   1      44.186  30.922  26.771  1.00  0.00    -0.206 F 
ATOM     67  C   UNL A   1      46.744  33.386  26.546  1.00  0.00     0.060 A 
BRANCH  67  68
ATOM     68  S   UNL A   1      46.849  35.167  26.320  1.00  0.00     0.124 S 
ATOM     69  O   UNL A   1      47.662  35.258  25.112  1.00  0.00    -0.237 OA
ATOM     70  O   UNL A   1      45.444  35.536  26.176  1.00  0.00    -0.237 OA
ATOM     71  O   UNL A   1      47.489  35.624  27.550  1.00  0.00    -0.744 OA
ENDBRANCH  67  68
ENDBRANCH  46  60
BRANCH  47  72
ATOM     72  C   UNL A   1      38.454  29.139  29.260  1.00  0.00     0.058 A 
ATOM     73  C   UNL A   1      37.500  29.422  30.257  1.00  0.00     0.135 A 
ATOM     74  C   UNL A   1      38.170  29.646  27.975  1.00  0.00     0.135 A 
ATOM     75  F   UNL A   1      37.692  28.990  31.513  1.00  0.00    -0.206 F 
ATOM     76  C   UNL A   1      36.369  30.209  30.012  1.00  0.00     0.059 A 
ATOM     77  C   UNL A   1      37.045  30.427  27.705  1.00  0.00     0.059 A 
ATOM     78  F   UNL A   1      39.030  29.476  26.960  1.00  0.00    -0.206 F 
ATOM     79  C   UNL A   1      36.163  30.730  28.735  1.00  0.00     0.060 A 
BRANCH  79  80
ATOM     80  S   UNL A   1      34.815  31.906  28.457  1.00  0.00     0.124 S 
ATOM     81  O   UNL A   1      35.450  32.898  27.599  1.00  0.00    -0.237 OA
ATOM     82  O   UNL A   1      33.802  31.069  27.822  1.00  0.00    -0.237 OA
ATOM     83  O   UNL A   1      34.484  32.365  29.804  1.00  0.00    -0.744 OA
ENDBRANCH  79  80
ENDBRANCH  47  72
BRANCH  59  84
ATOM     84  C   UNL A   1      43.643  28.022  32.698  1.00  0.00     0.058 A 
ATOM     85  C   UNL A   1      43.570  26.616  32.658  1.00  0.00     0.135 A 
ATOM     86  C   UNL A   1      43.559  28.623  33.962  1.00  0.00     0.135 A 
ATOM     87  F   UNL A   1      43.760  25.947  31.513  1.00  0.00    -0.206 F 
ATOM     88  C   UNL A   1      43.350  25.854  33.808  1.00  0.00     0.059 A 
ATOM     89  C   UNL A   1      43.376  27.882  35.127  1.00  0.00     0.059 A 
ATOM     90  F   UNL A   1      43.692  29.955  34.083  1.00  0.00    -0.206 F 
ATOM     91  C   UNL A   1      43.246  26.499  35.038  1.00  0.00     0.060 A 
BRANCH  91  92
ATOM     92  S   UNL A   1      42.974  25.516  36.528  1.00  0.00     0.124 S 
ATOM     93  O   UNL A   1      44.269  24.869  36.709  1.00  0.00    -0.237 OA
ATOM     94  O   UNL A   1      42.628  26.531  37.520  1.00  0.00    -0.237 OA
ATOM     95  O   UNL A   1      41.878  24.624  36.154  1.00  0.00    -0.744 OA
ENDBRANCH  91  92
ENDBRANCH  59  84
ENDBRANCH  33  34
ENDBRANCH  25  28
ENDBRANCH  23  24
ENDBRANCH  22  23
ENDBRANCH   1  22
TORSDOF 18
ENDMDL
MODEL 3
REMARK VINA RESULT:     -10.9      3.393      9.452
REMARK SMILES N#CCSc1nnnn1-c1ccc(C(=O)NCCCCNC(=O)c2ccc(-c3c4nc(c(-c5c(F)cc(S(=O)(=O)[O-])cc5F)c5ccc([nH]5)c(-c5c(F)cc(S(=O)(=O)[O-])cc5F)c5nc(c(-c6c(F)cc(S(=O)(=O)[O-])cc6F)c6ccc3[nH]6)C=C5)C=C4)cc2)cc1
REMARK SMILES IDX 18 1 17 2 16 3 14 4 15 5 13 7 10 8 11 9 91 10 12 11 90 12
REMARK SMILES IDX 9 13 5 14 6 15 7 16 8 17 4 18 3 19 2 20 1 21 19 22 20 23
REMARK SMILES IDX 21 24 22 25 23 27 24 28 25 29 89 30 26 31 88 32 27 33 28 34
REMARK SMILES IDX 29 35 82 36 30 37 87 38 81 39 83 40 31 41 86 42 80 43 79 44
REMARK SMILES IDX 32 46 66 47 45 48 65 49 46 50 49 51 64 52 84 53 47 54 48 55
REMARK SMILES IDX 63 57 85 58 50 59 33 60 34 61 43 62 35 63 36 64 42 65 44 66
REMARK SMILES IDX 37 67 38 68 39 69 40 70 41 71 67 72 68 73 77 74 69 75 70 76
REMARK SMILES IDX 76 77 78 78 71 79 72 80 73 81 74 82 75 83 51 84 52 85 61 86
REMARK SMILES IDX 53 87 54 88 60 89 62 90 55 91 56 92 57 93 58 94 59 95
REMARK H PARENT 16 6 21 26 83 45 49 56
REMARK Flexibility Score: inf
ROOT
ATOM      1  C   UNL A   1      32.565  29.863  25.150  1.00  0.00     0.023 C 
ENDROOT
BRANCH   1   2
ATOM      2  C   UNL A   1      31.039  30.039  25.106  1.00  0.00     0.116 C 
BRANCH   2   3
ATOM      3  N   UNL A   1      30.540  29.979  23.745  1.00  0.00    -0.352 N 
ATOM      4  C   UNL A   1      30.715  29.090  22.712  1.00  0.00     0.251 C 
ATOM      5  O   UNL A   1      30.151  29.346  21.647  1.00  0.00    -0.269 OA
ATOM      6  H   UNL A   1      29.952  30.734  23.512  1.00  0.00     0.163 HD
BRANCH   4   7
ATOM      7  C   UNL A   1      31.508  27.829  22.815  1.00  0.00     0.039 A 
ATOM      8  C   UNL A   1      32.912  25.427  23.231  1.00  0.00     0.069 A 
ATOM      9  C   UNL A   1      31.550  25.485  23.529  1.00  0.00     0.029 A 
ATOM     10  C   UNL A   1      33.547  26.522  22.640  1.00  0.00     0.029 A 
ATOM     11  C   UNL A   1      30.866  26.696  23.353  1.00  0.00     0.016 A 
ATOM     12  C   UNL A   1      32.832  27.694  22.395  1.00  0.00     0.016 A 
BRANCH   8  13
ATOM     13  N   UNL A   1      33.653  24.261  23.502  1.00  0.00    -0.187 N 
ATOM     14  C   UNL A   1      33.909  23.626  24.705  1.00  0.00     0.215 A 
ATOM     15  N   UNL A   1      34.850  22.728  24.524  1.00  0.00    -0.101 NA
ATOM     16  N   UNL A   1      35.119  22.742  23.177  1.00  0.00    -0.022 NA
ATOM     17  N   UNL A   1      34.350  23.616  22.538  1.00  0.00    -0.039 NA
BRANCH  14  18
ATOM     18  S   UNL A   1      32.954  23.840  26.139  1.00  0.00    -0.069 SA
BRANCH  18  19
ATOM     19  C   UNL A   1      31.586  22.679  25.860  1.00  0.00     0.198 C 
BRANCH  19  20
ATOM     20  C   UNL A   1      30.407  22.854  26.804  1.00  0.00     0.074 C 
ATOM     21  N   UNL A   1      29.429  23.000  27.587  1.00  0.00    -0.197 NA
ENDBRANCH  19  20
ENDBRANCH  18  19
ENDBRANCH  14  18
ENDBRANCH   8  13
ENDBRANCH   4   7
ENDBRANCH   2   3
ENDBRANCH   1   2
BRANCH   1  22
ATOM     22  C   UNL A   1      33.082  28.870  26.203  1.00  0.00     0.023 C 
BRANCH  22  23
ATOM     23  C   UNL A   1      33.583  29.500  27.499  1.00  0.00     0.116 C 
BRANCH  23  24
ATOM     24  N   UNL A   1      33.856  30.937  27.372  1.00  0.00    -0.352 N 
ATOM     25  C   UNL A   1      34.894  31.673  27.923  1.00  0.00     0.251 C 
ATOM     26  H   UNL A   1      33.217  31.446  26.823  1.00  0.00     0.163 HD
ATOM     27  O   UNL A   1      34.790  32.879  28.089  1.00  0.00    -0.269 OA
BRANCH  25  28
ATOM     28  C   UNL A   1      36.144  30.970  28.267  1.00  0.00     0.039 A 
ATOM     29  C   UNL A   1      36.443  29.680  27.815  1.00  0.00     0.014 A 
ATOM     30  C   UNL A   1      37.044  31.674  29.055  1.00  0.00     0.014 A 
ATOM     31  C   UNL A   1      37.695  29.141  28.114  1.00  0.00     0.010 A 
ATOM     32  C   UNL A   1      38.333  31.241  29.158  1.00  0.00     0.010 A 
ATOM     33  C   UNL A   1      38.635  29.939  28.782  1.00  0.00    -0.014 A 
BRANCH  33  34
ATOM     34  C   UNL A   1      40.000  29.508  29.044  1.00  0.00     0.031 A 
ATOM     35  C   UNL A   1      40.300  29.296  30.482  1.00  0.00     0.074 A 
ATOM     36  C   UNL A   1      40.785  29.030  28.050  1.00  0.00     0.049 A 
ATOM     37  N   UNL A   1      41.048  30.015  31.251  1.00  0.00    -0.248 NA
ATOM     38  C   UNL A   1      39.525  28.272  31.208  1.00  0.00     0.031 C 
ATOM     39  C   UNL A   1      40.442  28.848  26.631  1.00  0.00     0.029 A 
ATOM     40  N   UNL A   1      42.023  28.475  28.119  1.00  0.00    -0.354 N 
ATOM     41  C   UNL A   1      41.059  29.357  32.478  1.00  0.00     0.074 A 
ATOM     42  C   UNL A   1      39.915  28.488  32.466  1.00  0.00     0.031 C 
ATOM     43  C   UNL A   1      41.339  28.023  26.046  1.00  0.00     0.029 A 
ATOM     44  C   UNL A   1      42.406  27.753  26.990  1.00  0.00     0.049 A 
ATOM     45  H   UNL A   1      42.604  28.576  28.907  1.00  0.00     0.167 HD
ATOM     46  C   UNL A   1      42.176  29.350  33.262  1.00  0.00     0.037 A 
ATOM     47  C   UNL A   1      43.508  26.966  26.867  1.00  0.00     0.037 A 
ATOM     48  C   UNL A   1      43.126  30.338  32.802  1.00  0.00     0.049 A 
ATOM     49  C   UNL A   1      44.443  27.370  27.953  1.00  0.00     0.074 A 
ATOM     50  C   UNL A   1      43.085  31.703  32.588  1.00  0.00     0.029 A 
ATOM     51  N   UNL A   1      44.214  29.885  32.092  1.00  0.00    -0.354 N 
ATOM     52  N   UNL A   1      45.018  28.541  28.013  1.00  0.00    -0.248 NA
ATOM     53  C   UNL A   1      44.345  26.662  29.220  1.00  0.00     0.031 C 
ATOM     54  C   UNL A   1      43.827  31.912  31.387  1.00  0.00     0.029 A 
ATOM     55  C   UNL A   1      44.355  30.684  30.985  1.00  0.00     0.049 A 
ATOM     56  H   UNL A   1      44.788  29.124  32.335  1.00  0.00     0.167 HD
ATOM     57  C   UNL A   1      44.949  28.905  29.351  1.00  0.00     0.074 A 
ATOM     58  C   UNL A   1      44.599  27.672  30.058  1.00  0.00     0.031 C 
ATOM     59  C   UNL A   1      44.884  30.219  29.722  1.00  0.00     0.037 A 
BRANCH  46  60
ATOM     60  C   UNL A   1      42.593  28.207  34.169  1.00  0.00     0.058 A 
ATOM     61  C   UNL A   1      42.758  28.463  35.548  1.00  0.00     0.135 A 
ATOM     62  C   UNL A   1      43.099  26.965  33.725  1.00  0.00     0.135 A 
ATOM     63  F   UNL A   1      42.309  29.606  36.090  1.00  0.00    -0.206 F 
ATOM     64  C   UNL A   1      43.454  27.598  36.394  1.00  0.00     0.059 A 
ATOM     65  C   UNL A   1      43.746  26.064  34.563  1.00  0.00     0.059 A 
ATOM     66  F   UNL A   1      43.084  26.591  32.441  1.00  0.00    -0.206 F 
ATOM     67  C   UNL A   1      43.961  26.408  35.885  1.00  0.00     0.060 A 
BRANCH  67  68
ATOM     68  S   UNL A   1      44.948  25.340  36.944  1.00  0.00     0.124 S 
ATOM     69  O   UNL A   1      46.220  26.052  36.967  1.00  0.00    -0.237 OA
ATOM     70  O   UNL A   1      44.181  25.356  38.186  1.00  0.00    -0.237 OA
ATOM     71  O   UNL A   1      44.947  24.067  36.229  1.00  0.00    -0.744 OA
ENDBRANCH  67  68
ENDBRANCH  46  60
BRANCH  47  72
ATOM     72  C   UNL A   1      43.668  25.692  26.113  1.00  0.00     0.058 A 
ATOM     73  C   UNL A   1      44.814  25.444  25.333  1.00  0.00     0.135 A 
ATOM     74  C   UNL A   1      42.847  24.576  26.374  1.00  0.00     0.135 A 
ATOM     75  F   UNL A   1      45.660  26.444  25.043  1.00  0.00    -0.206 F 
ATOM     76  C   UNL A   1      45.158  24.160  24.893  1.00  0.00     0.059 A 
ATOM     77  C   UNL A   1      43.166  23.289  25.940  1.00  0.00     0.059 A 
ATOM     78  F   UNL A   1      41.754  24.688  27.144  1.00  0.00    -0.206 F 
ATOM     79  C   UNL A   1      44.338  23.082  25.225  1.00  0.00     0.060 A 
BRANCH  79  80
ATOM     80  S   UNL A   1      44.874  21.398  24.830  1.00  0.00     0.124 S 
ATOM     81  O   UNL A   1      46.280  21.429  25.218  1.00  0.00    -0.237 OA
ATOM     82  O   UNL A   1      43.999  20.590  25.672  1.00  0.00    -0.237 OA
ATOM     83  O   UNL A   1      44.625  21.292  23.395  1.00  0.00    -0.744 OA
ENDBRANCH  79  80
ENDBRANCH  47  72
BRANCH  59  84
ATOM     84  C   UNL A   1      45.196  31.267  28.680  1.00  0.00     0.058 A 
ATOM     85  C   UNL A   1      44.270  31.795  27.760  1.00  0.00     0.135 A 
ATOM     86  C   UNL A   1      46.475  31.844  28.691  1.00  0.00     0.135 A 
ATOM     87  F   UNL A   1      42.993  31.391  27.756  1.00  0.00    -0.206 F 
ATOM     88  C   UNL A   1      44.621  32.794  26.849  1.00  0.00     0.059 A 
ATOM     89  C   UNL A   1      46.836  32.865  27.818  1.00  0.00     0.059 A 
ATOM     90  F   UNL A   1      47.387  31.438  29.590  1.00  0.00    -0.206 F 
ATOM     91  C   UNL A   1      45.912  33.318  26.881  1.00  0.00     0.060 A 
BRANCH  91  92
ATOM     92  S   UNL A   1      46.365  34.619  25.713  1.00  0.00     0.124 S 
ATOM     93  O   UNL A   1      45.452  34.365  24.604  1.00  0.00    -0.237 OA
ATOM     94  O   UNL A   1      46.110  35.836  26.479  1.00  0.00    -0.237 OA
ATOM     95  O   UNL A   1      47.775  34.352  25.435  1.00  0.00    -0.744 OA
ENDBRANCH  91  92
ENDBRANCH  59  84
ENDBRANCH  33  34
ENDBRANCH  25  28
ENDBRANCH  23  24
ENDBRANCH  22  23
ENDBRANCH   1  22
TORSDOF 18
ENDMDL
