MODEL 1
REMARK VINA RESULT:     -10.9      0.000      0.000
REMARK SMILES O=C(C[N@H+](Cc1c(F)cccc1Cl)C1CC1)NCCCCNC(=O)c1ccc(-c2c3nc(c(-c4c(F)cc(S(=O)(=O)[O-])cc4F)c4ccc([nH]4)c(-c4c(F)cc(S(=O)(=O)[O-])cc4F)c4nc(c(-c5c(F)cc(S(=O)(=O)[O-])cc5F)c5ccc2[nH]5)C=C4)C=C3)cc1
REMARK SMILES IDX 19 1 18 2 17 3 1 4 2 5 3 7 4 8 5 10 6 11 7 12 12 13 8 14
REMARK SMILES IDX 9 15 11 16 13 17 10 18 14 19 15 20 16 21 20 22 21 23 22 24
REMARK SMILES IDX 23 25 24 27 25 28 26 29 90 30 27 31 89 32 28 33 29 34 30 35
REMARK SMILES IDX 83 36 31 37 88 38 82 39 84 40 32 41 87 42 81 43 80 44 33 46
REMARK SMILES IDX 67 47 46 48 66 49 47 50 50 51 65 52 85 53 48 54 49 55 64 57
REMARK SMILES IDX 86 58 51 59 34 60 35 61 44 62 36 63 37 64 43 65 45 66 38 67
REMARK SMILES IDX 39 68 40 69 41 70 42 71 68 72 69 73 78 74 70 75 71 76 77 77
REMARK SMILES IDX 79 78 72 79 73 80 74 81 75 82 76 83 52 84 53 85 62 86 54 87
REMARK SMILES IDX 55 88 61 89 63 90 56 91 57 92 58 93 59 94 60 95
REMARK H PARENT 17 6 4 9 22 26 84 45 50 56
REMARK Flexibility Score: inf
ROOT
ATOM      1  C   UNL A   1      36.067  23.935  25.213  1.00  0.00     0.023 C 
ENDROOT
BRANCH   1   2
ATOM      2  C   UNL A   1      35.010  22.998  24.629  1.00  0.00     0.116 C 
BRANCH   2   3
ATOM      3  N   UNL A   1      33.858  23.727  24.158  1.00  0.00    -0.351 N 
ATOM      4  O   UNL A   1      32.327  22.214  24.948  1.00  0.00    -0.269 OA
ATOM      5  C   UNL A   1      32.576  23.243  24.326  1.00  0.00     0.275 C 
ATOM      6  H   UNL A   1      33.989  24.592  23.706  1.00  0.00     0.163 HD
BRANCH   5   7
ATOM      7  C   UNL A   1      31.511  24.086  23.627  1.00  0.00     0.364 C 
BRANCH   7   8
ATOM      8  N   UNL A   1      31.833  25.519  23.659  1.00  0.00    -0.321 N 
ATOM      9  H   UNL A   1      32.808  25.574  23.951  1.00  0.00     0.349 HD
BRANCH   8  10
ATOM     10  C   UNL A   1      31.008  26.208  24.659  1.00  0.00     0.304 C 
BRANCH  10  11
ATOM     11  C   UNL A   1      31.659  27.413  25.298  1.00  0.00     0.061 A 
ATOM     12  C   UNL A   1      32.677  27.157  26.230  1.00  0.00     0.133 A 
ATOM     13  C   UNL A   1      31.403  28.760  24.990  1.00  0.00     0.052 A 
ATOM     14  F   UNL A   1      33.032  25.890  26.495  1.00  0.00    -0.206 F 
ATOM     15  C   UNL A   1      33.360  28.176  26.891  1.00  0.00     0.040 A 
ATOM     16  C   UNL A   1      32.062  29.789  25.679  1.00  0.00     0.021 A 
ATOM     17  Cl  UNL A   1      30.331  29.293  23.743  1.00  0.00    -0.084 Cl
ATOM     18  C   UNL A   1      33.035  29.500  26.632  1.00  0.00     0.005 A 
ENDBRANCH  10  11
ENDBRANCH   8  10
BRANCH   8  19
ATOM     19  C   UNL A   1      31.889  26.205  22.358  1.00  0.00     0.185 C 
ATOM     20  C   UNL A   1      33.211  26.771  21.900  1.00  0.00     0.071 C 
ATOM     21  C   UNL A   1      32.634  25.578  21.207  1.00  0.00     0.071 C 
ENDBRANCH   8  19
ENDBRANCH   7   8
ENDBRANCH   5   7
ENDBRANCH   2   3
ENDBRANCH   1   2
BRANCH   1  22
ATOM     22  C   UNL A   1      37.392  23.255  25.574  1.00  0.00     0.023 C 
BRANCH  22  23
ATOM     23  C   UNL A   1      38.305  24.057  26.494  1.00  0.00     0.116 C 
BRANCH  23  24
ATOM     24  N   UNL A   1      39.714  23.843  26.212  1.00  0.00    -0.352 N 
ATOM     25  C   UNL A   1      40.803  24.576  26.622  1.00  0.00     0.251 C 
ATOM     26  H   UNL A   1      39.918  23.062  25.649  1.00  0.00     0.163 HD
ATOM     27  O   UNL A   1      41.910  24.334  26.162  1.00  0.00    -0.269 OA
BRANCH  25  28
ATOM     28  C   UNL A   1      40.624  25.676  27.597  1.00  0.00     0.039 A 
ATOM     29  C   UNL A   1      39.601  25.575  28.543  1.00  0.00     0.014 A 
ATOM     30  C   UNL A   1      41.462  26.794  27.587  1.00  0.00     0.014 A 
ATOM     31  C   UNL A   1      39.461  26.565  29.519  1.00  0.00     0.010 A 
ATOM     32  C   UNL A   1      41.369  27.739  28.605  1.00  0.00     0.010 A 
ATOM     33  C   UNL A   1      40.367  27.636  29.582  1.00  0.00    -0.014 A 
BRANCH  33  34
ATOM     34  C   UNL A   1      40.287  28.649  30.667  1.00  0.00     0.031 A 
ATOM     35  C   UNL A   1      41.157  28.525  31.889  1.00  0.00     0.074 A 
ATOM     36  C   UNL A   1      39.385  29.648  30.581  1.00  0.00     0.049 A 
ATOM     37  N   UNL A   1      41.187  29.274  32.962  1.00  0.00    -0.248 NA
ATOM     38  C   UNL A   1      42.101  27.396  31.921  1.00  0.00     0.031 C 
ATOM     39  C   UNL A   1      38.453  29.852  29.469  1.00  0.00     0.029 A 
ATOM     40  N   UNL A   1      39.098  30.676  31.444  1.00  0.00    -0.354 N 
ATOM     41  C   UNL A   1      42.138  28.702  33.799  1.00  0.00     0.074 A 
ATOM     42  C   UNL A   1      42.623  27.512  33.133  1.00  0.00     0.031 C 
ATOM     43  C   UNL A   1      37.716  30.949  29.706  1.00  0.00     0.029 A 
ATOM     44  C   UNL A   1      38.090  31.503  31.004  1.00  0.00     0.049 A 
ATOM     45  H   UNL A   1      39.568  30.808  32.299  1.00  0.00     0.167 HD
ATOM     46  C   UNL A   1      42.583  29.141  35.000  1.00  0.00     0.037 A 
ATOM     47  C   UNL A   1      37.525  32.582  31.582  1.00  0.00     0.037 A 
ATOM     48  C   UNL A   1      42.109  30.337  35.648  1.00  0.00     0.049 A 
ATOM     49  C   UNL A   1      38.027  33.041  32.924  1.00  0.00     0.074 A 
ATOM     50  C   UNL A   1      42.540  30.898  36.838  1.00  0.00     0.029 A 
ATOM     51  N   UNL A   1      41.096  31.154  35.165  1.00  0.00    -0.354 N 
ATOM     52  N   UNL A   1      38.974  32.527  33.671  1.00  0.00    -0.248 NA
ATOM     53  C   UNL A   1      37.387  34.232  33.501  1.00  0.00     0.031 C 
ATOM     54  C   UNL A   1      41.749  32.021  37.104  1.00  0.00     0.029 A 
ATOM     55  C   UNL A   1      40.868  32.197  36.048  1.00  0.00     0.049 A 
ATOM     56  H   UNL A   1      40.611  31.012  34.321  1.00  0.00     0.167 HD
ATOM     57  C   UNL A   1      39.066  33.348  34.790  1.00  0.00     0.074 A 
ATOM     58  C   UNL A   1      38.084  34.399  34.616  1.00  0.00     0.031 C 
ATOM     59  C   UNL A   1      39.890  33.242  35.862  1.00  0.00     0.037 A 
BRANCH  46  60
ATOM     60  C   UNL A   1      43.636  28.320  35.699  1.00  0.00     0.058 A 
ATOM     61  C   UNL A   1      43.300  27.309  36.614  1.00  0.00     0.135 A 
ATOM     62  C   UNL A   1      44.998  28.523  35.423  1.00  0.00     0.135 A 
ATOM     63  F   UNL A   1      42.015  27.079  36.927  1.00  0.00    -0.206 F 
ATOM     64  C   UNL A   1      44.276  26.554  37.257  1.00  0.00     0.059 A 
ATOM     65  C   UNL A   1      45.990  27.758  36.029  1.00  0.00     0.059 A 
ATOM     66  F   UNL A   1      45.378  29.475  34.556  1.00  0.00    -0.206 F 
ATOM     67  C   UNL A   1      45.619  26.785  36.957  1.00  0.00     0.060 A 
BRANCH  67  68
ATOM     68  S   UNL A   1      46.872  25.797  37.800  1.00  0.00     0.124 S 
ATOM     69  O   UNL A   1      46.100  24.621  38.192  1.00  0.00    -0.237 OA
ATOM     70  O   UNL A   1      47.860  25.583  36.748  1.00  0.00    -0.237 OA
ATOM     71  O   UNL A   1      47.303  26.657  38.898  1.00  0.00    -0.744 OA
ENDBRANCH  67  68
ENDBRANCH  46  60
BRANCH  47  72
ATOM     72  C   UNL A   1      36.432  33.311  30.884  1.00  0.00     0.058 A 
ATOM     73  C   UNL A   1      35.092  33.138  31.261  1.00  0.00     0.135 A 
ATOM     74  C   UNL A   1      36.704  34.206  29.837  1.00  0.00     0.135 A 
ATOM     75  F   UNL A   1      34.779  32.289  32.252  1.00  0.00    -0.206 F 
ATOM     76  C   UNL A   1      34.060  33.813  30.617  1.00  0.00     0.059 A 
ATOM     77  C   UNL A   1      35.692  34.913  29.196  1.00  0.00     0.059 A 
ATOM     78  F   UNL A   1      37.971  34.420  29.447  1.00  0.00    -0.206 F 
ATOM     79  C   UNL A   1      34.371  34.702  29.587  1.00  0.00     0.060 A 
BRANCH  79  80
ATOM     80  S   UNL A   1      33.027  35.609  28.792  1.00  0.00     0.124 S 
ATOM     81  O   UNL A   1      32.288  36.111  29.945  1.00  0.00    -0.237 OA
ATOM     82  O   UNL A   1      33.752  36.608  28.014  1.00  0.00    -0.237 OA
ATOM     83  O   UNL A   1      32.349  34.583  28.005  1.00  0.00    -0.744 OA
ENDBRANCH  79  80
ENDBRANCH  47  72
BRANCH  59  84
ATOM     84  C   UNL A   1      39.798  34.309  36.919  1.00  0.00     0.058 A 
ATOM     85  C   UNL A   1      40.500  35.521  36.813  1.00  0.00     0.135 A 
ATOM     86  C   UNL A   1      38.953  34.138  38.028  1.00  0.00     0.135 A 
ATOM     87  F   UNL A   1      41.326  35.734  35.777  1.00  0.00    -0.206 F 
ATOM     88  C   UNL A   1      40.385  36.513  37.781  1.00  0.00     0.059 A 
ATOM     89  C   UNL A   1      38.800  35.130  38.992  1.00  0.00     0.059 A 
ATOM     90  F   UNL A   1      38.250  33.002  38.174  1.00  0.00    -0.206 F 
ATOM     91  C   UNL A   1      39.530  36.310  38.865  1.00  0.00     0.060 A 
BRANCH  91  92
ATOM     92  S   UNL A   1      39.365  37.622  40.095  1.00  0.00     0.124 S 
ATOM     93  O   UNL A   1      39.155  36.854  41.317  1.00  0.00    -0.237 OA
ATOM     94  O   UNL A   1      40.648  38.310  39.990  1.00  0.00    -0.237 OA
ATOM     95  O   UNL A   1      38.212  38.385  39.626  1.00  0.00    -0.744 OA
ENDBRANCH  91  92
ENDBRANCH  59  84
ENDBRANCH  33  34
ENDBRANCH  25  28
ENDBRANCH  23  24
ENDBRANCH  22  23
ENDBRANCH   1  22
TORSDOF 18
ENDMDL
MODEL 2
REMARK VINA RESULT:     -10.7      1.174      2.124
REMARK SMILES O=C(C[N@H+](Cc1c(F)cccc1Cl)C1CC1)NCCCCNC(=O)c1ccc(-c2c3nc(c(-c4c(F)cc(S(=O)(=O)[O-])cc4F)c4ccc([nH]4)c(-c4c(F)cc(S(=O)(=O)[O-])cc4F)c4nc(c(-c5c(F)cc(S(=O)(=O)[O-])cc5F)c5ccc2[nH]5)C=C4)C=C3)cc1
REMARK SMILES IDX 19 1 18 2 17 3 1 4 2 5 3 7 4 8 5 10 6 11 7 12 12 13 8 14
REMARK SMILES IDX 9 15 11 16 13 17 10 18 14 19 15 20 16 21 20 22 21 23 22 24
REMARK SMILES IDX 23 25 24 27 25 28 26 29 90 30 27 31 89 32 28 33 29 34 30 35
REMARK SMILES IDX 83 36 31 37 88 38 82 39 84 40 32 41 87 42 81 43 80 44 33 46
REMARK SMILES IDX 67 47 46 48 66 49 47 50 50 51 65 52 85 53 48 54 49 55 64 57
REMARK SMILES IDX 86 58 51 59 34 60 35 61 44 62 36 63 37 64 43 65 45 66 38 67
REMARK SMILES IDX 39 68 40 69 41 70 42 71 68 72 69 73 78 74 70 75 71 76 77 77
REMARK SMILES IDX 79 78 72 79 73 80 74 81 75 82 76 83 52 84 53 85 62 86 54 87
REMARK SMILES IDX 55 88 61 89 63 90 56 91 57 92 58 93 59 94 60 95
REMARK H PARENT 17 6 4 9 22 26 84 45 50 56
REMARK Flexibility Score: inf
ROOT
ATOM      1  C   UNL A   1      37.829  22.007  25.116  1.00  0.00     0.023 C 
ENDROOT
BRANCH   1   2
ATOM      2  C   UNL A   1      36.731  20.950  25.228  1.00  0.00     0.116 C 
BRANCH   2   3
ATOM      3  N   UNL A   1      35.467  21.444  24.738  1.00  0.00    -0.351 N 
ATOM      4  O   UNL A   1      34.456  21.485  26.796  1.00  0.00    -0.269 OA
ATOM      5  C   UNL A   1      34.390  21.639  25.579  1.00  0.00     0.275 C 
ATOM      6  H   UNL A   1      35.371  21.648  23.780  1.00  0.00     0.163 HD
BRANCH   5   7
ATOM      7  C   UNL A   1      33.107  22.022  24.845  1.00  0.00     0.364 C 
BRANCH   7   8
ATOM      8  N   UNL A   1      32.726  23.420  25.088  1.00  0.00    -0.321 N 
ATOM      9  H   UNL A   1      32.031  23.642  24.375  1.00  0.00     0.349 HD
BRANCH   8  10
ATOM     10  C   UNL A   1      33.882  24.306  24.900  1.00  0.00     0.304 C 
BRANCH  10  11
ATOM     11  C   UNL A   1      33.599  25.558  24.101  1.00  0.00     0.061 A 
ATOM     12  C   UNL A   1      33.802  26.782  24.759  1.00  0.00     0.133 A 
ATOM     13  C   UNL A   1      33.233  25.618  22.746  1.00  0.00     0.052 A 
ATOM     14  F   UNL A   1      34.244  26.790  26.026  1.00  0.00    -0.206 F 
ATOM     15  C   UNL A   1      33.580  28.010  24.139  1.00  0.00     0.040 A 
ATOM     16  C   UNL A   1      32.973  26.851  22.129  1.00  0.00     0.021 A 
ATOM     17  Cl  UNL A   1      33.114  24.245  21.702  1.00  0.00    -0.084 Cl
ATOM     18  C   UNL A   1      33.140  28.046  22.824  1.00  0.00     0.005 A 
ENDBRANCH  10  11
ENDBRANCH   8  10
BRANCH   8  19
ATOM     19  C   UNL A   1      31.965  23.687  26.318  1.00  0.00     0.185 C 
ATOM     20  C   UNL A   1      30.674  24.461  26.211  1.00  0.00     0.071 C 
ATOM     21  C   UNL A   1      30.641  23.004  26.548  1.00  0.00     0.071 C 
ENDBRANCH   8  19
ENDBRANCH   7   8
ENDBRANCH   5   7
ENDBRANCH   2   3
ENDBRANCH   1   2
BRANCH   1  22
ATOM     22  C   UNL A   1      37.401  23.417  25.535  1.00  0.00     0.023 C 
BRANCH  22  23
ATOM     23  C   UNL A   1      38.322  24.105  26.536  1.00  0.00     0.116 C 
BRANCH  23  24
ATOM     24  N   UNL A   1      39.728  23.894  26.243  1.00  0.00    -0.352 N 
ATOM     25  C   UNL A   1      40.821  24.623  26.650  1.00  0.00     0.251 C 
ATOM     26  H   UNL A   1      39.929  23.117  25.673  1.00  0.00     0.163 HD
ATOM     27  O   UNL A   1      41.925  24.384  26.181  1.00  0.00    -0.269 OA
BRANCH  25  28
ATOM     28  C   UNL A   1      40.649  25.717  27.634  1.00  0.00     0.039 A 
ATOM     29  C   UNL A   1      39.629  25.612  28.583  1.00  0.00     0.014 A 
ATOM     30  C   UNL A   1      41.490  26.833  27.628  1.00  0.00     0.014 A 
ATOM     31  C   UNL A   1      39.495  26.596  29.566  1.00  0.00     0.010 A 
ATOM     32  C   UNL A   1      41.404  27.771  28.653  1.00  0.00     0.010 A 
ATOM     33  C   UNL A   1      40.405  27.664  29.634  1.00  0.00    -0.014 A 
BRANCH  33  34
ATOM     34  C   UNL A   1      40.332  28.670  30.726  1.00  0.00     0.031 A 
ATOM     35  C   UNL A   1      41.216  28.542  31.937  1.00  0.00     0.074 A 
ATOM     36  C   UNL A   1      39.425  29.665  30.656  1.00  0.00     0.049 A 
ATOM     37  N   UNL A   1      41.253  29.284  33.015  1.00  0.00    -0.248 NA
ATOM     38  C   UNL A   1      42.165  27.417  31.952  1.00  0.00     0.031 C 
ATOM     39  C   UNL A   1      38.480  29.872  29.554  1.00  0.00     0.029 A 
ATOM     40  N   UNL A   1      39.142  30.686  31.528  1.00  0.00    -0.354 N 
ATOM     41  C   UNL A   1      42.216  28.711  33.838  1.00  0.00     0.074 A 
ATOM     42  C   UNL A   1      42.699  27.528  33.160  1.00  0.00     0.031 C 
ATOM     43  C   UNL A   1      37.741  30.964  29.807  1.00  0.00     0.029 A 
ATOM     44  C   UNL A   1      38.127  31.512  31.104  1.00  0.00     0.049 A 
ATOM     45  H   UNL A   1      39.621  30.815  32.379  1.00  0.00     0.167 HD
ATOM     46  C   UNL A   1      42.672  29.144  35.037  1.00  0.00     0.037 A 
ATOM     47  C   UNL A   1      37.563  32.584  31.696  1.00  0.00     0.037 A 
ATOM     48  C   UNL A   1      42.200  30.333  35.698  1.00  0.00     0.049 A 
ATOM     49  C   UNL A   1      38.077  33.037  33.035  1.00  0.00     0.074 A 
ATOM     50  C   UNL A   1      42.641  30.889  36.887  1.00  0.00     0.029 A 
ATOM     51  N   UNL A   1      41.178  31.149  35.231  1.00  0.00    -0.354 N 
ATOM     52  N   UNL A   1      39.035  32.522  33.768  1.00  0.00    -0.248 NA
ATOM     53  C   UNL A   1      37.438  34.222  33.626  1.00  0.00     0.031 C 
ATOM     54  C   UNL A   1      41.847  32.007  37.168  1.00  0.00     0.029 A 
ATOM     55  C   UNL A   1      40.954  32.186  36.123  1.00  0.00     0.049 A 
ATOM     56  H   UNL A   1      40.684  31.011  34.391  1.00  0.00     0.167 HD
ATOM     57  C   UNL A   1      39.135  33.337  34.892  1.00  0.00     0.074 A 
ATOM     58  C   UNL A   1      38.146  34.384  34.735  1.00  0.00     0.031 C 
ATOM     59  C   UNL A   1      39.970  33.227  35.954  1.00  0.00     0.037 A 
BRANCH  46  60
ATOM     60  C   UNL A   1      43.736  28.323  35.719  1.00  0.00     0.058 A 
ATOM     61  C   UNL A   1      43.414  27.314  36.642  1.00  0.00     0.135 A 
ATOM     62  C   UNL A   1      45.093  28.524  35.420  1.00  0.00     0.135 A 
ATOM     63  F   UNL A   1      42.134  27.085  36.977  1.00  0.00    -0.206 F 
ATOM     64  C   UNL A   1      44.401  26.558  37.269  1.00  0.00     0.059 A 
ATOM     65  C   UNL A   1      46.095  27.759  36.011  1.00  0.00     0.059 A 
ATOM     66  F   UNL A   1      45.459  29.475  34.545  1.00  0.00    -0.206 F 
ATOM     67  C   UNL A   1      45.739  26.789  36.946  1.00  0.00     0.060 A 
BRANCH  67  68
ATOM     68  S   UNL A   1      47.005  25.800  37.770  1.00  0.00     0.124 S 
ATOM     69  O   UNL A   1      48.228  26.437  37.291  1.00  0.00    -0.237 OA
ATOM     70  O   UNL A   1      46.693  26.007  39.180  1.00  0.00    -0.237 OA
ATOM     71  O   UNL A   1      46.764  24.451  37.267  1.00  0.00    -0.744 OA
ENDBRANCH  67  68
ENDBRANCH  46  60
BRANCH  47  72
ATOM     72  C   UNL A   1      36.459  33.313  31.013  1.00  0.00     0.058 A 
ATOM     73  C   UNL A   1      36.710  34.113  29.888  1.00  0.00     0.135 A 
ATOM     74  C   UNL A   1      35.133  33.216  31.461  1.00  0.00     0.135 A 
ATOM     75  F   UNL A   1      37.963  34.244  29.424  1.00  0.00    -0.206 F 
ATOM     76  C   UNL A   1      35.690  34.801  29.240  1.00  0.00     0.059 A 
ATOM     77  C   UNL A   1      34.091  33.873  30.814  1.00  0.00     0.059 A 
ATOM     78  F   UNL A   1      34.836  32.452  32.525  1.00  0.00    -0.206 F 
ATOM     79  C   UNL A   1      34.382  34.671  29.708  1.00  0.00     0.060 A 
BRANCH  79  80
ATOM     80  S   UNL A   1      33.058  35.530  28.829  1.00  0.00     0.124 S 
ATOM     81  O   UNL A   1      33.811  36.481  28.020  1.00  0.00    -0.237 OA
ATOM     82  O   UNL A   1      32.418  34.438  28.102  1.00  0.00    -0.237 OA
ATOM     83  O   UNL A   1      32.260  36.108  29.906  1.00  0.00    -0.744 OA
ENDBRANCH  79  80
ENDBRANCH  47  72
BRANCH  59  84
ATOM     84  C   UNL A   1      39.884  34.287  37.019  1.00  0.00     0.058 A 
ATOM     85  C   UNL A   1      40.564  35.511  36.904  1.00  0.00     0.135 A 
ATOM     86  C   UNL A   1      39.069  34.095  38.147  1.00  0.00     0.135 A 
ATOM     87  F   UNL A   1      41.361  35.744  35.850  1.00  0.00    -0.206 F 
ATOM     88  C   UNL A   1      40.454  36.496  37.879  1.00  0.00     0.059 A 
ATOM     89  C   UNL A   1      38.921  35.080  39.119  1.00  0.00     0.059 A 
ATOM     90  F   UNL A   1      38.389  32.947  38.303  1.00  0.00    -0.206 F 
ATOM     91  C   UNL A   1      39.629  36.273  38.982  1.00  0.00     0.060 A 
BRANCH  91  92
ATOM     92  S   UNL A   1      39.469  37.575  40.223  1.00  0.00     0.124 S 
ATOM     93  O   UNL A   1      38.517  38.476  39.582  1.00  0.00    -0.237 OA
ATOM     94  O   UNL A   1      38.968  36.842  41.382  1.00  0.00    -0.237 OA
ATOM     95  O   UNL A   1      40.830  38.089  40.354  1.00  0.00    -0.744 OA
ENDBRANCH  91  92
ENDBRANCH  59  84
ENDBRANCH  33  34
ENDBRANCH  25  28
ENDBRANCH  23  24
ENDBRANCH  22  23
ENDBRANCH   1  22
TORSDOF 18
ENDMDL
MODEL 3
REMARK VINA RESULT:     -10.6      2.881      3.575
REMARK SMILES O=C(C[N@H+](Cc1c(F)cccc1Cl)C1CC1)NCCCCNC(=O)c1ccc(-c2c3nc(c(-c4c(F)cc(S(=O)(=O)[O-])cc4F)c4ccc([nH]4)c(-c4c(F)cc(S(=O)(=O)[O-])cc4F)c4nc(c(-c5c(F)cc(S(=O)(=O)[O-])cc5F)c5ccc2[nH]5)C=C4)C=C3)cc1
REMARK SMILES IDX 19 1 18 2 17 3 1 4 2 5 3 7 4 8 5 10 6 11 7 12 12 13 8 14
REMARK SMILES IDX 9 15 11 16 13 17 10 18 14 19 15 20 16 21 20 22 21 23 22 24
REMARK SMILES IDX 23 25 24 27 25 28 26 29 90 30 27 31 89 32 28 33 29 34 30 35
REMARK SMILES IDX 83 36 31 37 88 38 82 39 84 40 32 41 87 42 81 43 80 44 33 46
REMARK SMILES IDX 67 47 46 48 66 49 47 50 50 51 65 52 85 53 48 54 49 55 64 57
REMARK SMILES IDX 86 58 51 59 34 60 35 61 44 62 36 63 37 64 43 65 45 66 38 67
REMARK SMILES IDX 39 68 40 69 41 70 42 71 68 72 69 73 78 74 70 75 71 76 77 77
REMARK SMILES IDX 79 78 72 79 73 80 74 81 75 82 76 83 52 84 53 85 62 86 54 87
REMARK SMILES IDX 55 88 61 89 63 90 56 91 57 92 58 93 59 94 60 95
REMARK H PARENT 17 6 4 9 22 26 84 45 50 56
REMARK Flexibility Score: inf
ROOT
ATOM      1  C   UNL A   1      35.120  22.410  23.909  1.00  0.00     0.023 C 
ENDROOT
BRANCH   1   2
ATOM      2  C   UNL A   1      33.671  21.927  23.902  1.00  0.00     0.116 C 
BRANCH   2   3
ATOM      3  N   UNL A   1      32.778  22.934  23.380  1.00  0.00    -0.351 N 
ATOM      4  O   UNL A   1      31.275  22.782  25.105  1.00  0.00    -0.269 OA
ATOM      5  C   UNL A   1      31.600  23.261  24.022  1.00  0.00     0.275 C 
ATOM      6  H   UNL A   1      33.016  23.400  22.546  1.00  0.00     0.163 HD
BRANCH   5   7
ATOM      7  C   UNL A   1      30.729  24.236  23.234  1.00  0.00     0.364 C 
BRANCH   7   8
ATOM      8  N   UNL A   1      31.200  25.623  23.358  1.00  0.00    -0.321 N 
ATOM      9  H   UNL A   1      32.084  25.567  23.865  1.00  0.00     0.349 HD
BRANCH   8  10
ATOM     10  C   UNL A   1      30.257  26.415  24.157  1.00  0.00     0.304 C 
BRANCH  10  11
ATOM     11  C   UNL A   1      30.894  27.476  25.024  1.00  0.00     0.061 A 
ATOM     12  C   UNL A   1      31.425  27.048  26.252  1.00  0.00     0.133 A 
ATOM     13  C   UNL A   1      31.080  28.828  24.688  1.00  0.00     0.052 A 
ATOM     14  F   UNL A   1      31.363  25.750  26.587  1.00  0.00    -0.206 F 
ATOM     15  C   UNL A   1      32.041  27.922  27.146  1.00  0.00     0.040 A 
ATOM     16  C   UNL A   1      31.667  29.718  25.600  1.00  0.00     0.021 A 
ATOM     17  Cl  UNL A   1      30.676  29.520  23.156  1.00  0.00    -0.084 Cl
ATOM     18  C   UNL A   1      32.142  29.269  26.829  1.00  0.00     0.005 A 
ENDBRANCH  10  11
ENDBRANCH   8  10
BRANCH   8  19
ATOM     19  C   UNL A   1      31.630  26.282  22.115  1.00  0.00     0.185 C 
ATOM     20  C   UNL A   1      33.072  26.707  21.987  1.00  0.00     0.071 C 
ATOM     21  C   UNL A   1      32.558  25.568  21.165  1.00  0.00     0.071 C 
ENDBRANCH   8  19
ENDBRANCH   7   8
ENDBRANCH   5   7
ENDBRANCH   2   3
ENDBRANCH   1   2
BRANCH   1  22
ATOM     22  C   UNL A   1      35.496  23.280  25.113  1.00  0.00     0.023 C 
BRANCH  22  23
ATOM     23  C   UNL A   1      36.911  23.845  25.090  1.00  0.00     0.116 C 
BRANCH  23  24
ATOM     24  N   UNL A   1      37.922  22.840  25.371  1.00  0.00    -0.352 N 
ATOM     25  C   UNL A   1      39.103  22.965  26.064  1.00  0.00     0.251 C 
ATOM     26  H   UNL A   1      37.734  21.942  25.016  1.00  0.00     0.163 HD
ATOM     27  O   UNL A   1      39.907  22.043  26.072  1.00  0.00    -0.269 OA
BRANCH  25  28
ATOM     28  C   UNL A   1      39.410  24.229  26.772  1.00  0.00     0.039 A 
ATOM     29  C   UNL A   1      38.913  24.412  28.065  1.00  0.00     0.014 A 
ATOM     30  C   UNL A   1      40.187  25.223  26.171  1.00  0.00     0.014 A 
ATOM     31  C   UNL A   1      39.252  25.564  28.779  1.00  0.00     0.010 A 
ATOM     32  C   UNL A   1      40.585  26.333  26.912  1.00  0.00     0.010 A 
ATOM     33  C   UNL A   1      40.122  26.517  28.223  1.00  0.00    -0.014 A 
BRANCH  33  34
ATOM     34  C   UNL A   1      40.563  27.704  29.003  1.00  0.00     0.031 A 
ATOM     35  C   UNL A   1      41.901  27.705  29.692  1.00  0.00     0.074 A 
ATOM     36  C   UNL A   1      39.732  28.757  29.142  1.00  0.00     0.049 A 
ATOM     37  N   UNL A   1      42.432  28.620  30.464  1.00  0.00    -0.248 NA
ATOM     38  C   UNL A   1      42.743  26.512  29.513  1.00  0.00     0.031 C 
ATOM     39  C   UNL A   1      38.391  28.858  28.560  1.00  0.00     0.029 A 
ATOM     40  N   UNL A   1      39.887  29.940  29.819  1.00  0.00    -0.354 N 
ATOM     41  C   UNL A   1      43.660  28.109  30.869  1.00  0.00     0.074 A 
ATOM     42  C   UNL A   1      43.770  26.781  30.306  1.00  0.00     0.031 C 
ATOM     43  C   UNL A   1      37.858  30.046  28.886  1.00  0.00     0.029 A 
ATOM     44  C   UNL A   1      38.797  30.774  29.733  1.00  0.00     0.049 A 
ATOM     45  H   UNL A   1      40.702  30.169  30.322  1.00  0.00     0.167 HD
ATOM     46  C   UNL A   1      44.616  28.701  31.624  1.00  0.00     0.037 A 
ATOM     47  C   UNL A   1      38.574  31.986  30.281  1.00  0.00     0.037 A 
ATOM     48  C   UNL A   1      44.507  30.031  32.167  1.00  0.00     0.049 A 
ATOM     49  C   UNL A   1      39.645  32.617  31.127  1.00  0.00     0.074 A 
ATOM     50  C   UNL A   1      45.446  30.742  32.894  1.00  0.00     0.029 A 
ATOM     51  N   UNL A   1      43.391  30.848  32.048  1.00  0.00    -0.354 N 
ATOM     52  N   UNL A   1      40.828  32.147  31.445  1.00  0.00    -0.248 NA
ATOM     53  C   UNL A   1      39.357  33.946  31.685  1.00  0.00     0.031 C 
ATOM     54  C   UNL A   1      44.878  31.966  33.264  1.00  0.00     0.029 A 
ATOM     55  C   UNL A   1      43.608  32.044  32.713  1.00  0.00     0.049 A 
ATOM     56  H   UNL A   1      42.568  30.613  31.563  1.00  0.00     0.167 HD
ATOM     57  C   UNL A   1      41.437  33.135  32.214  1.00  0.00     0.074 A 
ATOM     58  C   UNL A   1      40.494  34.231  32.303  1.00  0.00     0.031 C 
ATOM     59  C   UNL A   1      42.663  33.133  32.791  1.00  0.00     0.037 A 
BRANCH  46  60
ATOM     60  C   UNL A   1      45.867  27.912  31.913  1.00  0.00     0.058 A 
ATOM     61  C   UNL A   1      45.979  27.091  33.047  1.00  0.00     0.135 A 
ATOM     62  C   UNL A   1      46.955  27.950  31.026  1.00  0.00     0.135 A 
ATOM     63  F   UNL A   1      44.976  27.026  33.938  1.00  0.00    -0.206 F 
ATOM     64  C   UNL A   1      47.136  26.364  33.310  1.00  0.00     0.059 A 
ATOM     65  C   UNL A   1      48.110  27.207  31.252  1.00  0.00     0.059 A 
ATOM     66  F   UNL A   1      46.904  28.718  29.926  1.00  0.00    -0.206 F 
ATOM     67  C   UNL A   1      48.197  26.429  32.405  1.00  0.00     0.060 A 
BRANCH  67  68
ATOM     68  S   UNL A   1      49.691  25.480  32.762  1.00  0.00     0.124 S 
ATOM     69  O   UNL A   1      50.090  25.054  31.424  1.00  0.00    -0.237 OA
ATOM     70  O   UNL A   1      50.549  26.478  33.392  1.00  0.00    -0.237 OA
ATOM     71  O   UNL A   1      49.217  24.417  33.642  1.00  0.00    -0.744 OA
ENDBRANCH  67  68
ENDBRANCH  46  60
BRANCH  47  72
ATOM     72  C   UNL A   1      37.287  32.689  30.027  1.00  0.00     0.058 A 
ATOM     73  C   UNL A   1      36.146  32.406  30.794  1.00  0.00     0.135 A 
ATOM     74  C   UNL A   1      37.173  33.667  29.026  1.00  0.00     0.135 A 
ATOM     75  F   UNL A   1      36.201  31.475  31.759  1.00  0.00    -0.206 F 
ATOM     76  C   UNL A   1      34.936  33.054  30.569  1.00  0.00     0.059 A 
ATOM     77  C   UNL A   1      35.982  34.349  28.800  1.00  0.00     0.059 A 
ATOM     78  F   UNL A   1      38.239  33.987  28.275  1.00  0.00    -0.206 F 
ATOM     79  C   UNL A   1      34.865  34.028  29.571  1.00  0.00     0.060 A 
BRANCH  79  80
ATOM     80  S   UNL A   1      33.303  34.899  29.321  1.00  0.00     0.124 S 
ATOM     81  O   UNL A   1      33.763  36.200  28.850  1.00  0.00    -0.237 OA
ATOM     82  O   UNL A   1      32.641  34.057  28.330  1.00  0.00    -0.237 OA
ATOM     83  O   UNL A   1      32.696  34.886  30.649  1.00  0.00    -0.744 OA
ENDBRANCH  79  80
ENDBRANCH  47  72
BRANCH  59  84
ATOM     84  C   UNL A   1      43.082  34.369  33.541  1.00  0.00     0.058 A 
ATOM     85  C   UNL A   1      42.846  34.516  34.918  1.00  0.00     0.135 A 
ATOM     86  C   UNL A   1      43.775  35.397  32.882  1.00  0.00     0.135 A 
ATOM     87  F   UNL A   1      42.181  33.567  35.595  1.00  0.00    -0.206 F 
ATOM     88  C   UNL A   1      43.263  35.649  35.608  1.00  0.00     0.059 A 
ATOM     89  C   UNL A   1      44.229  36.525  33.560  1.00  0.00     0.059 A 
ATOM     90  F   UNL A   1      44.036  35.304  31.568  1.00  0.00    -0.206 F 
ATOM     91  C   UNL A   1      43.956  36.647  34.921  1.00  0.00     0.060 A 
BRANCH  91  92
ATOM     92  S   UNL A   1      44.522  38.096  35.838  1.00  0.00     0.124 S 
ATOM     93  O   UNL A   1      43.770  37.969  37.082  1.00  0.00    -0.237 OA
ATOM     94  O   UNL A   1      45.959  37.859  35.939  1.00  0.00    -0.237 OA
ATOM     95  O   UNL A   1      44.137  39.214  34.982  1.00  0.00    -0.744 OA
ENDBRANCH  91  92
ENDBRANCH  59  84
ENDBRANCH  33  34
ENDBRANCH  25  28
ENDBRANCH  23  24
ENDBRANCH  22  23
ENDBRANCH   1  22
TORSDOF 18
ENDMDL
