MODEL 1
REMARK VINA RESULT:     -13.1      0.000      0.000
REMARK SMILES O=C(NCCCCNC(=O)c1nc(NC[C@H]2c3ccccc3CSc3ccccc32)c2ccccc2n1)c1ccc(-c2c3nc(c(-c4c(F)cc(S(=O)(=O)[O-])cc4F)c4ccc([nH]4)c(-c4c(F)cc(S(=O)(=O)[O-])cc4F)c4nc(c(-c5c(F)cc(S(=O)(=O)[O-])cc5F)c5ccc2[nH]5)C=C4)C=C3)cc1
REMARK SMILES IDX 5 1 4 2 3 3 1 4 2 5 38 7 39 8 103 9 40 10 102 11 41 12 42 13
REMARK SMILES IDX 43 14 96 15 44 16 101 17 95 18 97 19 45 20 100 21 94 22
REMARK SMILES IDX 93 23 46 25 80 26 59 27 79 28 60 29 63 30 78 31 98 32 61 33
REMARK SMILES IDX 62 34 77 36 99 37 64 38 47 39 48 40 57 41 49 42 50 43 56 44
REMARK SMILES IDX 58 45 51 46 52 47 53 48 54 49 55 50 81 51 82 52 91 53 83 54
REMARK SMILES IDX 84 55 90 56 92 57 85 58 86 59 87 60 88 61 89 62 65 63 66 64
REMARK SMILES IDX 75 65 67 66 68 67 74 68 76 69 69 70 70 71 71 72 72 73 73 74
REMARK SMILES IDX 6 75 7 76 8 77 9 78 10 80 11 81 12 82 37 83 13 84 36 85
REMARK SMILES IDX 31 86 35 87 32 88 34 89 33 90 14 91 15 93 16 94 17 95 30 96
REMARK SMILES IDX 18 97 22 98 25 99 29 100 19 101 21 102 23 103 24 104 26 105
REMARK SMILES IDX 28 106 20 107 27 108
REMARK H PARENT 3 6 97 24 63 35 8 79 14 92
REMARK Flexibility Score: inf
ROOT
ATOM      1  C   UNL A   1      38.187  23.366  26.177  1.00  0.00     0.023 C 
ENDROOT
BRANCH   1   2
ATOM      2  C   UNL A   1      39.493  23.712  26.889  1.00  0.00     0.116 C 
BRANCH   2   3
ATOM      3  N   UNL A   1      40.472  24.314  26.001  1.00  0.00    -0.352 N 
ATOM      4  O   UNL A   1      41.797  25.917  25.147  1.00  0.00    -0.269 OA
ATOM      5  C   UNL A   1      41.114  25.523  26.096  1.00  0.00     0.251 C 
ATOM      6  H   UNL A   1      40.712  23.776  25.212  1.00  0.00     0.163 HD
BRANCH   5   7
ATOM      7  C   UNL A   1      40.990  26.364  27.309  1.00  0.00     0.039 A 
ATOM      8  C   UNL A   1      40.003  26.047  28.250  1.00  0.00     0.014 A 
ATOM      9  C   UNL A   1      41.794  27.492  27.501  1.00  0.00     0.014 A 
ATOM     10  C   UNL A   1      39.851  26.832  29.398  1.00  0.00     0.010 A 
ATOM     11  C   UNL A   1      41.675  28.243  28.670  1.00  0.00     0.010 A 
ATOM     12  C   UNL A   1      40.697  27.927  29.626  1.00  0.00    -0.014 A 
BRANCH  12  13
ATOM     13  C   UNL A   1      40.546  28.792  30.824  1.00  0.00     0.031 A 
ATOM     14  C   UNL A   1      39.527  29.901  30.817  1.00  0.00     0.074 A 
ATOM     15  C   UNL A   1      41.337  28.612  31.901  1.00  0.00     0.049 A 
ATOM     16  N   UNL A   1      39.340  30.861  31.685  1.00  0.00    -0.248 NA
ATOM     17  C   UNL A   1      38.603  29.940  29.670  1.00  0.00     0.031 C 
ATOM     18  C   UNL A   1      42.346  27.561  32.046  1.00  0.00     0.029 A 
ATOM     19  N   UNL A   1      41.418  29.314  33.077  1.00  0.00    -0.354 N 
ATOM     20  C   UNL A   1      38.286  31.621  31.191  1.00  0.00     0.074 A 
ATOM     21  C   UNL A   1      37.898  31.034  29.926  1.00  0.00     0.031 C 
ATOM     22  C   UNL A   1      42.931  27.678  33.251  1.00  0.00     0.029 A 
ATOM     23  C   UNL A   1      42.375  28.837  33.943  1.00  0.00     0.049 A 
ATOM     24  H   UNL A   1      40.845  30.088  33.283  1.00  0.00     0.167 HD
ATOM     25  C   UNL A   1      37.683  32.696  31.750  1.00  0.00     0.037 A 
ATOM     26  C   UNL A   1      42.767  29.292  35.150  1.00  0.00     0.037 A 
ATOM     27  C   UNL A   1      38.058  33.269  33.016  1.00  0.00     0.049 A 
ATOM     28  C   UNL A   1      42.114  30.522  35.722  1.00  0.00     0.074 A 
ATOM     29  C   UNL A   1      37.532  34.384  33.648  1.00  0.00     0.029 A 
ATOM     30  N   UNL A   1      39.033  32.758  33.859  1.00  0.00    -0.354 N 
ATOM     31  N   UNL A   1      41.156  31.261  35.216  1.00  0.00    -0.248 NA
ATOM     32  C   UNL A   1      42.598  30.984  37.032  1.00  0.00     0.031 C 
ATOM     33  C   UNL A   1      38.198  34.554  34.866  1.00  0.00     0.029 A 
ATOM     34  C   UNL A   1      39.114  33.523  35.009  1.00  0.00     0.049 A 
ATOM     35  H   UNL A   1      39.586  31.965  33.667  1.00  0.00     0.167 HD
ATOM     36  C   UNL A   1      40.897  32.247  36.161  1.00  0.00     0.074 A 
ATOM     37  C   UNL A   1      41.797  32.012  37.270  1.00  0.00     0.031 C 
ATOM     38  C   UNL A   1      39.994  33.257  36.116  1.00  0.00     0.037 A 
BRANCH  25  39
ATOM     39  C   UNL A   1      36.537  33.322  31.007  1.00  0.00     0.058 A 
ATOM     40  C   UNL A   1      35.217  33.180  31.459  1.00  0.00     0.135 A 
ATOM     41  C   UNL A   1      36.764  34.131  29.881  1.00  0.00     0.135 A 
ATOM     42  F   UNL A   1      34.944  32.399  32.517  1.00  0.00    -0.206 F 
ATOM     43  C   UNL A   1      34.158  33.817  30.821  1.00  0.00     0.059 A 
ATOM     44  C   UNL A   1      35.722  34.796  29.241  1.00  0.00     0.059 A 
ATOM     45  F   UNL A   1      38.008  34.295  29.406  1.00  0.00    -0.206 F 
ATOM     46  C   UNL A   1      34.422  34.630  29.717  1.00  0.00     0.060 A 
BRANCH  46  47
ATOM     47  S   UNL A   1      33.041  35.487  28.931  1.00  0.00     0.124 S 
ATOM     48  O   UNL A   1      33.739  36.487  28.127  1.00  0.00    -0.237 OA
ATOM     49  O   UNL A   1      32.392  34.414  28.185  1.00  0.00    -0.237 OA
ATOM     50  O   UNL A   1      32.280  36.013  30.059  1.00  0.00    -0.744 OA
ENDBRANCH  46  47
ENDBRANCH  25  39
BRANCH  26  51
ATOM     51  C   UNL A   1      43.824  28.582  35.918  1.00  0.00     0.058 A 
ATOM     52  C   UNL A   1      43.493  27.532  36.787  1.00  0.00     0.135 A 
ATOM     53  C   UNL A   1      45.173  28.957  35.829  1.00  0.00     0.135 A 
ATOM     54  F   UNL A   1      42.214  27.144  36.912  1.00  0.00    -0.206 F 
ATOM     55  C   UNL A   1      44.454  26.897  37.564  1.00  0.00     0.059 A 
ATOM     56  C   UNL A   1      46.158  28.321  36.578  1.00  0.00     0.059 A 
ATOM     57  F   UNL A   1      45.544  29.948  35.003  1.00  0.00    -0.206 F 
ATOM     58  C   UNL A   1      45.786  27.303  37.456  1.00  0.00     0.060 A 
BRANCH  58  59
ATOM     59  S   UNL A   1      47.032  26.463  38.458  1.00  0.00     0.124 S 
ATOM     60  O   UNL A   1      46.232  25.439  39.121  1.00  0.00    -0.237 OA
ATOM     61  O   UNL A   1      47.970  25.984  37.447  1.00  0.00    -0.237 OA
ATOM     62  O   UNL A   1      47.539  27.525  39.320  1.00  0.00    -0.744 OA
ENDBRANCH  58  59
ENDBRANCH  26  51
BRANCH  38  63
ATOM     63  C   UNL A   1      39.883  34.140  37.326  1.00  0.00     0.058 A 
ATOM     64  C   UNL A   1      40.556  35.369  37.410  1.00  0.00     0.135 A 
ATOM     65  C   UNL A   1      39.058  33.767  38.399  1.00  0.00     0.135 A 
ATOM     66  F   UNL A   1      41.360  35.768  36.412  1.00  0.00    -0.206 F 
ATOM     67  C   UNL A   1      40.437  36.185  38.530  1.00  0.00     0.059 A 
ATOM     68  C   UNL A   1      38.906  34.579  39.519  1.00  0.00     0.059 A 
ATOM     69  F   UNL A   1      38.384  32.607  38.362  1.00  0.00    -0.206 F 
ATOM     70  C   UNL A   1      39.611  35.780  39.580  1.00  0.00     0.060 A 
BRANCH  70  71
ATOM     71  S   UNL A   1      39.449  36.857  41.021  1.00  0.00     0.124 S 
ATOM     72  O   UNL A   1      38.770  38.015  40.446  1.00  0.00    -0.237 OA
ATOM     73  O   UNL A   1      38.653  36.043  41.934  1.00  0.00    -0.237 OA
ATOM     74  O   UNL A   1      40.832  37.081  41.434  1.00  0.00    -0.744 OA
ENDBRANCH  70  71
ENDBRANCH  38  63
ENDBRANCH  12  13
ENDBRANCH   5   7
ENDBRANCH   2   3
ENDBRANCH   1   2
BRANCH   1  75
ATOM     75  C   UNL A   1      38.034  21.908  25.740  1.00  0.00     0.023 C 
BRANCH  75  76
ATOM     76  C   UNL A   1      36.657  21.518  25.207  1.00  0.00     0.116 C 
BRANCH  76  77
ATOM     77  N   UNL A   1      35.734  21.135  26.262  1.00  0.00    -0.349 N 
ATOM     78  C   UNL A   1      34.476  21.647  26.538  1.00  0.00     0.289 C 
ATOM     79  H   UNL A   1      36.043  20.417  26.861  1.00  0.00     0.163 HD
ATOM     80  O   UNL A   1      33.878  21.253  27.540  1.00  0.00    -0.266 OA
BRANCH  78  81
ATOM     81  C   UNL A   1      33.877  22.698  25.647  1.00  0.00     0.220 A 
ATOM     82  N   UNL A   1      33.687  23.900  26.210  1.00  0.00    -0.206 NA
ATOM     83  N   UNL A   1      33.761  22.409  24.340  1.00  0.00    -0.224 NA
ATOM     84  C   UNL A   1      33.403  24.919  25.390  1.00  0.00     0.138 A 
ATOM     85  C   UNL A   1      33.452  23.424  23.537  1.00  0.00     0.077 A 
ATOM     86  C   UNL A   1      33.243  24.733  23.998  1.00  0.00     0.043 A 
ATOM     87  C   UNL A   1      33.406  23.173  22.172  1.00  0.00     0.029 A 
ATOM     88  C   UNL A   1      32.969  25.755  23.052  1.00  0.00     0.014 A 
ATOM     89  C   UNL A   1      33.167  24.187  21.243  1.00  0.00     0.002 A 
ATOM     90  C   UNL A   1      32.943  25.483  21.686  1.00  0.00     0.001 A 
BRANCH  84  91
ATOM     91  N   UNL A   1      33.390  26.199  25.944  1.00  0.00    -0.368 N 
ATOM     92  H   UNL A   1      34.185  26.776  25.877  1.00  0.00     0.162 HD
BRANCH  91  93
ATOM     93  C   UNL A   1      32.178  26.678  26.627  1.00  0.00     0.127 C 
BRANCH  93  94
ATOM     94  C   UNL A   1      31.871  28.206  26.374  1.00  0.00     0.070 C 
ATOM     95  C   UNL A   1      33.053  29.123  26.763  1.00  0.00    -0.035 A 
ATOM     96  C   UNL A   1      31.155  28.558  25.046  1.00  0.00    -0.025 A 
ATOM     97  C   UNL A   1      34.397  28.707  26.745  1.00  0.00     0.005 A 
ATOM     98  C   UNL A   1      32.805  30.436  27.213  1.00  0.00    -0.034 A 
ATOM     99  C   UNL A   1      30.768  29.865  24.657  1.00  0.00     0.011 A 
ATOM    100  C   UNL A   1      30.750  27.500  24.188  1.00  0.00     0.005 A 
ATOM    101  C   UNL A   1      35.446  29.529  27.168  1.00  0.00     0.000 A 
ATOM    102  C   UNL A   1      33.870  31.269  27.619  1.00  0.00     0.005 A 
ATOM    103  C   UNL A   1      31.415  31.001  27.194  1.00  0.00     0.110 C 
ATOM    104  S   UNL A   1      30.950  31.441  25.506  1.00  0.00    -0.121 SA
ATOM    105  C   UNL A   1      30.095  30.052  23.422  1.00  0.00     0.015 A 
ATOM    106  C   UNL A   1      30.070  27.708  22.984  1.00  0.00     0.000 A 
ATOM    107  C   UNL A   1      35.182  30.814  27.605  1.00  0.00     0.000 A 
ATOM    108  C   UNL A   1      29.753  28.992  22.591  1.00  0.00     0.001 A 
ENDBRANCH  93  94
ENDBRANCH  91  93
ENDBRANCH  84  91
ENDBRANCH  78  81
ENDBRANCH  76  77
ENDBRANCH  75  76
ENDBRANCH   1  75
TORSDOF 17
ENDMDL
MODEL 2
REMARK VINA RESULT:     -12.9      1.547      3.254
REMARK SMILES O=C(NCCCCNC(=O)c1nc(NC[C@H]2c3ccccc3CSc3ccccc32)c2ccccc2n1)c1ccc(-c2c3nc(c(-c4c(F)cc(S(=O)(=O)[O-])cc4F)c4ccc([nH]4)c(-c4c(F)cc(S(=O)(=O)[O-])cc4F)c4nc(c(-c5c(F)cc(S(=O)(=O)[O-])cc5F)c5ccc2[nH]5)C=C4)C=C3)cc1
REMARK SMILES IDX 5 1 4 2 3 3 1 4 2 5 38 7 39 8 103 9 40 10 102 11 41 12 42 13
REMARK SMILES IDX 43 14 96 15 44 16 101 17 95 18 97 19 45 20 100 21 94 22
REMARK SMILES IDX 93 23 46 25 80 26 59 27 79 28 60 29 63 30 78 31 98 32 61 33
REMARK SMILES IDX 62 34 77 36 99 37 64 38 47 39 48 40 57 41 49 42 50 43 56 44
REMARK SMILES IDX 58 45 51 46 52 47 53 48 54 49 55 50 81 51 82 52 91 53 83 54
REMARK SMILES IDX 84 55 90 56 92 57 85 58 86 59 87 60 88 61 89 62 65 63 66 64
REMARK SMILES IDX 75 65 67 66 68 67 74 68 76 69 69 70 70 71 71 72 72 73 73 74
REMARK SMILES IDX 6 75 7 76 8 77 9 78 10 80 11 81 12 82 37 83 13 84 36 85
REMARK SMILES IDX 31 86 35 87 32 88 34 89 33 90 14 91 15 93 16 94 17 95 30 96
REMARK SMILES IDX 18 97 22 98 25 99 29 100 19 101 21 102 23 103 24 104 26 105
REMARK SMILES IDX 28 106 20 107 27 108
REMARK H PARENT 3 6 97 24 63 35 8 79 14 92
REMARK Flexibility Score: inf
ROOT
ATOM      1  C   UNL A   1      41.761  21.913  26.632  1.00  0.00     0.023 C 
ENDROOT
BRANCH   1   2
ATOM      2  C   UNL A   1      42.128  23.331  27.064  1.00  0.00     0.116 C 
BRANCH   2   3
ATOM      3  N   UNL A   1      42.315  24.229  25.938  1.00  0.00    -0.352 N 
ATOM      4  O   UNL A   1      42.193  26.139  24.759  1.00  0.00    -0.269 OA
ATOM      5  C   UNL A   1      42.129  25.586  25.861  1.00  0.00     0.251 C 
ATOM      6  H   UNL A   1      42.620  23.801  25.105  1.00  0.00     0.163 HD
BRANCH   5   7
ATOM      7  C   UNL A   1      41.841  26.392  27.070  1.00  0.00     0.039 A 
ATOM      8  C   UNL A   1      42.665  27.484  27.362  1.00  0.00     0.014 A 
ATOM      9  C   UNL A   1      40.807  26.049  27.946  1.00  0.00     0.014 A 
ATOM     10  C   UNL A   1      42.428  28.256  28.505  1.00  0.00     0.010 A 
ATOM     11  C   UNL A   1      40.540  26.848  29.058  1.00  0.00     0.010 A 
ATOM     12  C   UNL A   1      41.353  27.954  29.354  1.00  0.00    -0.014 A 
BRANCH  12  13
ATOM     13  C   UNL A   1      41.089  28.741  30.586  1.00  0.00     0.031 A 
ATOM     14  C   UNL A   1      40.004  29.785  30.582  1.00  0.00     0.074 A 
ATOM     15  C   UNL A   1      41.836  28.551  31.692  1.00  0.00     0.049 A 
ATOM     16  N   UNL A   1      39.714  30.683  31.487  1.00  0.00    -0.248 NA
ATOM     17  C   UNL A   1      39.136  29.831  29.392  1.00  0.00     0.031 C 
ATOM     18  C   UNL A   1      42.901  27.557  31.835  1.00  0.00     0.029 A 
ATOM     19  N   UNL A   1      41.815  29.192  32.905  1.00  0.00    -0.354 N 
ATOM     20  C   UNL A   1      38.640  31.404  30.979  1.00  0.00     0.074 A 
ATOM     21  C   UNL A   1      38.352  30.865  29.667  1.00  0.00     0.031 C 
ATOM     22  C   UNL A   1      43.419  27.643  33.073  1.00  0.00     0.029 A 
ATOM     23  C   UNL A   1      42.756  28.727  33.794  1.00  0.00     0.049 A 
ATOM     24  H   UNL A   1      41.185  29.917  33.120  1.00  0.00     0.167 HD
ATOM     25  C   UNL A   1      37.943  32.409  31.560  1.00  0.00     0.037 A 
ATOM     26  C   UNL A   1      43.060  29.138  35.041  1.00  0.00     0.037 A 
ATOM     27  C   UNL A   1      38.219  32.933  32.872  1.00  0.00     0.049 A 
ATOM     28  C   UNL A   1      42.303  30.294  35.641  1.00  0.00     0.074 A 
ATOM     29  C   UNL A   1      37.593  33.978  33.532  1.00  0.00     0.029 A 
ATOM     30  N   UNL A   1      39.182  32.436  33.737  1.00  0.00    -0.354 N 
ATOM     31  N   UNL A   1      41.326  31.000  35.124  1.00  0.00    -0.248 NA
ATOM     32  C   UNL A   1      42.692  30.711  36.997  1.00  0.00     0.031 C 
ATOM     33  C   UNL A   1      38.187  34.121  34.790  1.00  0.00     0.029 A 
ATOM     34  C   UNL A   1      39.157  33.142  34.927  1.00  0.00     0.049 A 
ATOM     35  H   UNL A   1      39.793  31.691  33.533  1.00  0.00     0.167 HD
ATOM     36  C   UNL A   1      40.959  31.915  36.104  1.00  0.00     0.074 A 
ATOM     37  C   UNL A   1      41.817  31.675  37.245  1.00  0.00     0.031 C 
ATOM     38  C   UNL A   1      39.997  32.869  36.064  1.00  0.00     0.037 A 
BRANCH  25  39
ATOM     39  C   UNL A   1      36.798  33.003  30.791  1.00  0.00     0.058 A 
ATOM     40  C   UNL A   1      35.473  32.623  31.055  1.00  0.00     0.135 A 
ATOM     41  C   UNL A   1      37.015  34.013  29.840  1.00  0.00     0.135 A 
ATOM     42  F   UNL A   1      35.213  31.647  31.939  1.00  0.00    -0.206 F 
ATOM     43  C   UNL A   1      34.402  33.223  30.402  1.00  0.00     0.059 A 
ATOM     44  C   UNL A   1      35.957  34.642  29.190  1.00  0.00     0.059 A 
ATOM     45  F   UNL A   1      38.264  34.408  29.547  1.00  0.00    -0.206 F 
ATOM     46  C   UNL A   1      34.654  34.237  29.476  1.00  0.00     0.060 A 
BRANCH  46  47
ATOM     47  S   UNL A   1      33.248  35.036  28.673  1.00  0.00     0.124 S 
ATOM     48  O   UNL A   1      32.462  35.468  29.826  1.00  0.00    -0.237 OA
ATOM     49  O   UNL A   1      33.890  36.100  27.908  1.00  0.00    -0.237 OA
ATOM     50  O   UNL A   1      32.655  33.966  27.878  1.00  0.00    -0.744 OA
ENDBRANCH  46  47
ENDBRANCH  25  39
BRANCH  26  51
ATOM     51  C   UNL A   1      44.121  28.453  35.826  1.00  0.00     0.058 A 
ATOM     52  C   UNL A   1      43.793  27.436  36.735  1.00  0.00     0.135 A 
ATOM     53  C   UNL A   1      45.470  28.819  35.713  1.00  0.00     0.135 A 
ATOM     54  F   UNL A   1      42.514  27.058  36.884  1.00  0.00    -0.206 F 
ATOM     55  C   UNL A   1      44.759  26.826  37.527  1.00  0.00     0.059 A 
ATOM     56  C   UNL A   1      46.459  28.207  36.477  1.00  0.00     0.059 A 
ATOM     57  F   UNL A   1      45.837  29.778  34.849  1.00  0.00    -0.206 F 
ATOM     58  C   UNL A   1      46.091  27.223  37.394  1.00  0.00     0.060 A 
BRANCH  58  59
ATOM     59  S   UNL A   1      47.342  26.415  38.416  1.00  0.00     0.124 S 
ATOM     60  O   UNL A   1      46.581  25.312  38.992  1.00  0.00    -0.237 OA
ATOM     61  O   UNL A   1      48.354  26.046  37.430  1.00  0.00    -0.237 OA
ATOM     62  O   UNL A   1      47.739  27.464  39.349  1.00  0.00    -0.744 OA
ENDBRANCH  58  59
ENDBRANCH  26  51
BRANCH  38  63
ATOM     63  C   UNL A   1      39.772  33.677  37.310  1.00  0.00     0.058 A 
ATOM     64  C   UNL A   1      40.461  34.875  37.551  1.00  0.00     0.135 A 
ATOM     65  C   UNL A   1      38.821  33.263  38.257  1.00  0.00     0.135 A 
ATOM     66  F   UNL A   1      41.383  35.311  36.677  1.00  0.00    -0.206 F 
ATOM     67  C   UNL A   1      40.236  35.622  38.702  1.00  0.00     0.059 A 
ATOM     68  C   UNL A   1      38.563  34.006  39.405  1.00  0.00     0.059 A 
ATOM     69  F   UNL A   1      38.127  32.130  38.067  1.00  0.00    -0.206 F 
ATOM     70  C   UNL A   1      39.286  35.177  39.624  1.00  0.00     0.060 A 
BRANCH  70  71
ATOM     71  S   UNL A   1      38.989  36.166  41.106  1.00  0.00     0.124 S 
ATOM     72  O   UNL A   1      40.237  35.977  41.840  1.00  0.00    -0.237 OA
ATOM     73  O   UNL A   1      38.772  37.500  40.556  1.00  0.00    -0.237 OA
ATOM     74  O   UNL A   1      37.810  35.541  41.701  1.00  0.00    -0.744 OA
ENDBRANCH  70  71
ENDBRANCH  38  63
ENDBRANCH  12  13
ENDBRANCH   5   7
ENDBRANCH   2   3
ENDBRANCH   1   2
BRANCH   1  75
ATOM     75  C   UNL A   1      40.425  21.382  27.157  1.00  0.00     0.023 C 
BRANCH  75  76
ATOM     76  C   UNL A   1      39.304  21.278  26.124  1.00  0.00     0.116 C 
BRANCH  76  77
ATOM     77  N   UNL A   1      38.858  22.576  25.646  1.00  0.00    -0.349 N 
ATOM     78  C   UNL A   1      37.563  23.024  25.442  1.00  0.00     0.289 C 
ATOM     79  H   UNL A   1      39.571  23.223  25.438  1.00  0.00     0.163 HD
ATOM     80  O   UNL A   1      37.388  24.135  24.939  1.00  0.00    -0.266 OA
BRANCH  78  81
ATOM     81  C   UNL A   1      36.396  22.144  25.789  1.00  0.00     0.220 A 
ATOM     82  N   UNL A   1      35.533  22.645  26.684  1.00  0.00    -0.206 NA
ATOM     83  N   UNL A   1      36.216  21.035  25.051  1.00  0.00    -0.224 NA
ATOM     84  C   UNL A   1      34.362  22.012  26.820  1.00  0.00     0.138 A 
ATOM     85  C   UNL A   1      35.060  20.398  25.215  1.00  0.00     0.077 A 
ATOM     86  C   UNL A   1      34.066  20.829  26.108  1.00  0.00     0.043 A 
ATOM     87  C   UNL A   1      34.811  19.298  24.406  1.00  0.00     0.029 A 
ATOM     88  C   UNL A   1      32.845  20.108  26.170  1.00  0.00     0.014 A 
ATOM     89  C   UNL A   1      33.597  18.610  24.449  1.00  0.00     0.002 A 
ATOM     90  C   UNL A   1      32.611  19.014  25.338  1.00  0.00     0.001 A 
BRANCH  84  91
ATOM     91  N   UNL A   1      33.390  22.632  27.606  1.00  0.00    -0.368 N 
ATOM     92  H   UNL A   1      33.432  22.570  28.588  1.00  0.00     0.162 HD
BRANCH  91  93
ATOM     93  C   UNL A   1      32.303  23.381  26.955  1.00  0.00     0.127 C 
BRANCH  93  94
ATOM     94  C   UNL A   1      32.774  24.219  25.703  1.00  0.00     0.070 C 
ATOM     95  C   UNL A   1      32.593  23.454  24.371  1.00  0.00    -0.035 A 
ATOM     96  C   UNL A   1      32.371  25.715  25.679  1.00  0.00    -0.025 A 
ATOM     97  C   UNL A   1      31.616  22.462  24.173  1.00  0.00     0.005 A 
ATOM     98  C   UNL A   1      33.470  23.701  23.295  1.00  0.00    -0.034 A 
ATOM     99  C   UNL A   1      32.728  26.633  24.659  1.00  0.00     0.011 A 
ATOM    100  C   UNL A   1      31.686  26.256  26.800  1.00  0.00     0.005 A 
ATOM    101  C   UNL A   1      31.514  21.731  22.986  1.00  0.00     0.000 A 
ATOM    102  C   UNL A   1      33.350  22.974  22.090  1.00  0.00     0.005 A 
ATOM    103  C   UNL A   1      34.495  24.793  23.379  1.00  0.00     0.110 C 
ATOM    104  S   UNL A   1      33.702  26.401  23.164  1.00  0.00    -0.121 SA
ATOM    105  C   UNL A   1      32.315  27.986  24.766  1.00  0.00     0.015 A 
ATOM    106  C   UNL A   1      31.306  27.598  26.891  1.00  0.00     0.000 A 
ATOM    107  C   UNL A   1      32.383  21.989  21.940  1.00  0.00     0.000 A 
ATOM    108  C   UNL A   1      31.610  28.466  25.863  1.00  0.00     0.001 A 
ENDBRANCH  93  94
ENDBRANCH  91  93
ENDBRANCH  84  91
ENDBRANCH  78  81
ENDBRANCH  76  77
ENDBRANCH  75  76
ENDBRANCH   1  75
TORSDOF 17
ENDMDL
MODEL 3
REMARK VINA RESULT:     -12.8      6.366     11.527
REMARK SMILES O=C(NCCCCNC(=O)c1nc(NC[C@H]2c3ccccc3CSc3ccccc32)c2ccccc2n1)c1ccc(-c2c3nc(c(-c4c(F)cc(S(=O)(=O)[O-])cc4F)c4ccc([nH]4)c(-c4c(F)cc(S(=O)(=O)[O-])cc4F)c4nc(c(-c5c(F)cc(S(=O)(=O)[O-])cc5F)c5ccc2[nH]5)C=C4)C=C3)cc1
REMARK SMILES IDX 5 1 4 2 3 3 1 4 2 5 38 7 39 8 103 9 40 10 102 11 41 12 42 13
REMARK SMILES IDX 43 14 96 15 44 16 101 17 95 18 97 19 45 20 100 21 94 22
REMARK SMILES IDX 93 23 46 25 80 26 59 27 79 28 60 29 63 30 78 31 98 32 61 33
REMARK SMILES IDX 62 34 77 36 99 37 64 38 47 39 48 40 57 41 49 42 50 43 56 44
REMARK SMILES IDX 58 45 51 46 52 47 53 48 54 49 55 50 81 51 82 52 91 53 83 54
REMARK SMILES IDX 84 55 90 56 92 57 85 58 86 59 87 60 88 61 89 62 65 63 66 64
REMARK SMILES IDX 75 65 67 66 68 67 74 68 76 69 69 70 70 71 71 72 72 73 73 74
REMARK SMILES IDX 6 75 7 76 8 77 9 78 10 80 11 81 12 82 37 83 13 84 36 85
REMARK SMILES IDX 31 86 35 87 32 88 34 89 33 90 14 91 15 93 16 94 17 95 30 96
REMARK SMILES IDX 18 97 22 98 25 99 29 100 19 101 21 102 23 103 24 104 26 105
REMARK SMILES IDX 28 106 20 107 27 108
REMARK H PARENT 3 6 97 24 63 35 8 79 14 92
REMARK Flexibility Score: inf
ROOT
ATOM      1  C   UNL A   1      35.849  32.728  28.208  1.00  0.00     0.023 C 
ENDROOT
BRANCH   1   2
ATOM      2  C   UNL A   1      36.615  32.916  29.515  1.00  0.00     0.116 C 
BRANCH   2   3
ATOM      3  N   UNL A   1      36.182  32.000  30.556  1.00  0.00    -0.352 N 
ATOM      4  O   UNL A   1      36.148  30.123  31.792  1.00  0.00    -0.269 OA
ATOM      5  C   UNL A   1      36.765  30.840  30.999  1.00  0.00     0.251 C 
ATOM      6  H   UNL A   1      35.345  32.247  31.011  1.00  0.00     0.163 HD
BRANCH   5   7
ATOM      7  C   UNL A   1      38.111  30.431  30.534  1.00  0.00     0.039 A 
ATOM      8  C   UNL A   1      38.297  30.151  29.176  1.00  0.00     0.014 A 
ATOM      9  C   UNL A   1      39.173  30.266  31.429  1.00  0.00     0.014 A 
ATOM     10  C   UNL A   1      39.552  29.748  28.709  1.00  0.00     0.010 A 
ATOM     11  C   UNL A   1      40.436  29.913  30.954  1.00  0.00     0.010 A 
ATOM     12  C   UNL A   1      40.637  29.641  29.592  1.00  0.00    -0.014 A 
BRANCH  12  13
ATOM     13  C   UNL A   1      41.976  29.194  29.129  1.00  0.00     0.031 A 
ATOM     14  C   UNL A   1      43.115  30.179  29.089  1.00  0.00     0.074 A 
ATOM     15  C   UNL A   1      42.168  27.926  28.714  1.00  0.00     0.049 A 
ATOM     16  N   UNL A   1      44.311  30.043  28.578  1.00  0.00    -0.248 NA
ATOM     17  C   UNL A   1      42.868  31.498  29.697  1.00  0.00     0.031 C 
ATOM     18  C   UNL A   1      41.156  26.868  28.723  1.00  0.00     0.029 A 
ATOM     19  N   UNL A   1      43.282  27.314  28.196  1.00  0.00    -0.354 N 
ATOM     20  C   UNL A   1      44.957  31.255  28.794  1.00  0.00     0.074 A 
ATOM     21  C   UNL A   1      44.008  32.130  29.449  1.00  0.00     0.031 C 
ATOM     22  C   UNL A   1      41.702  25.734  28.251  1.00  0.00     0.029 A 
ATOM     23  C   UNL A   1      43.086  25.995  27.863  1.00  0.00     0.049 A 
ATOM     24  H   UNL A   1      44.142  27.777  28.075  1.00  0.00     0.167 HD
ATOM     25  C   UNL A   1      46.231  31.600  28.493  1.00  0.00     0.037 A 
ATOM     26  C   UNL A   1      43.922  25.102  27.295  1.00  0.00     0.037 A 
ATOM     27  C   UNL A   1      47.180  30.725  27.858  1.00  0.00     0.049 A 
ATOM     28  C   UNL A   1      45.317  25.531  26.923  1.00  0.00     0.074 A 
ATOM     29  C   UNL A   1      48.484  30.996  27.476  1.00  0.00     0.029 A 
ATOM     30  N   UNL A   1      46.940  29.398  27.534  1.00  0.00    -0.354 N 
ATOM     31  N   UNL A   1      45.893  26.698  27.084  1.00  0.00    -0.248 NA
ATOM     32  C   UNL A   1      46.175  24.521  26.287  1.00  0.00     0.031 C 
ATOM     33  C   UNL A   1      49.027  29.838  26.910  1.00  0.00     0.029 A 
ATOM     34  C   UNL A   1      48.073  28.835  26.973  1.00  0.00     0.049 A 
ATOM     35  H   UNL A   1      46.088  28.926  27.683  1.00  0.00     0.167 HD
ATOM     36  C   UNL A   1      47.191  26.549  26.609  1.00  0.00     0.074 A 
ATOM     37  C   UNL A   1      47.317  25.180  26.153  1.00  0.00     0.031 C 
ATOM     38  C   UNL A   1      48.190  27.463  26.554  1.00  0.00     0.037 A 
BRANCH  25  39
ATOM     39  C   UNL A   1      46.688  32.983  28.862  1.00  0.00     0.058 A 
ATOM     40  C   UNL A   1      46.549  34.055  27.968  1.00  0.00     0.135 A 
ATOM     41  C   UNL A   1      47.196  33.256  30.143  1.00  0.00     0.135 A 
ATOM     42  F   UNL A   1      46.090  33.843  26.724  1.00  0.00    -0.206 F 
ATOM     43  C   UNL A   1      46.899  35.352  28.328  1.00  0.00     0.059 A 
ATOM     44  C   UNL A   1      47.532  34.550  30.532  1.00  0.00     0.059 A 
ATOM     45  F   UNL A   1      47.353  32.265  31.033  1.00  0.00    -0.206 F 
ATOM     46  C   UNL A   1      47.383  35.590  29.615  1.00  0.00     0.060 A 
BRANCH  46  47
ATOM     47  S   UNL A   1      47.788  37.287  30.081  1.00  0.00     0.124 S 
ATOM     48  O   UNL A   1      47.366  37.314  31.479  1.00  0.00    -0.237 OA
ATOM     49  O   UNL A   1      49.228  37.338  29.852  1.00  0.00    -0.237 OA
ATOM     50  O   UNL A   1      46.981  38.092  29.170  1.00  0.00    -0.744 OA
ENDBRANCH  46  47
ENDBRANCH  25  39
BRANCH  26  51
ATOM     51  C   UNL A   1      43.480  23.704  27.048  1.00  0.00     0.058 A 
ATOM     52  C   UNL A   1      43.108  23.289  25.761  1.00  0.00     0.135 A 
ATOM     53  C   UNL A   1      43.388  22.769  28.090  1.00  0.00     0.135 A 
ATOM     54  F   UNL A   1      43.172  24.151  24.735  1.00  0.00    -0.206 F 
ATOM     55  C   UNL A   1      42.631  22.006  25.517  1.00  0.00     0.059 A 
ATOM     56  C   UNL A   1      42.936  21.472  27.867  1.00  0.00     0.059 A 
ATOM     57  F   UNL A   1      43.743  23.112  29.337  1.00  0.00    -0.206 F 
ATOM     58  C   UNL A   1      42.544  21.105  26.580  1.00  0.00     0.060 A 
BRANCH  58  59
ATOM     59  S   UNL A   1      41.937  19.436  26.252  1.00  0.00     0.124 S 
ATOM     60  O   UNL A   1      40.500  19.664  26.139  1.00  0.00    -0.237 OA
ATOM     61  O   UNL A   1      42.628  19.093  25.013  1.00  0.00    -0.237 OA
ATOM     62  O   UNL A   1      42.367  18.687  27.429  1.00  0.00    -0.744 OA
ENDBRANCH  58  59
ENDBRANCH  26  51
BRANCH  38  63
ATOM     63  C   UNL A   1      49.526  26.998  26.049  1.00  0.00     0.058 A 
ATOM     64  C   UNL A   1      50.485  26.434  26.904  1.00  0.00     0.135 A 
ATOM     65  C   UNL A   1      49.832  27.081  24.682  1.00  0.00     0.135 A 
ATOM     66  F   UNL A   1      50.241  26.336  28.221  1.00  0.00    -0.206 F 
ATOM     67  C   UNL A   1      51.714  25.994  26.425  1.00  0.00     0.059 A 
ATOM     68  C   UNL A   1      51.047  26.627  24.177  1.00  0.00     0.059 A 
ATOM     69  F   UNL A   1      48.944  27.602  23.820  1.00  0.00    -0.206 F 
ATOM     70  C   UNL A   1      51.986  26.097  25.059  1.00  0.00     0.060 A 
BRANCH  70  71
ATOM     71  S   UNL A   1      53.578  25.505  24.445  1.00  0.00     0.124 S 
ATOM     72  O   UNL A   1      53.476  24.071  24.701  1.00  0.00    -0.237 OA
ATOM     73  O   UNL A   1      53.542  25.903  23.042  1.00  0.00    -0.237 OA
ATOM     74  O   UNL A   1      54.547  26.222  25.269  1.00  0.00    -0.744 OA
ENDBRANCH  70  71
ENDBRANCH  38  63
ENDBRANCH  12  13
ENDBRANCH   5   7
ENDBRANCH   2   3
ENDBRANCH   1   2
BRANCH   1  75
ATOM     75  C   UNL A   1      35.795  31.296  27.669  1.00  0.00     0.023 C 
BRANCH  75  76
ATOM     76  C   UNL A   1      34.407  30.660  27.620  1.00  0.00     0.116 C 
BRANCH  76  77
ATOM     77  N   UNL A   1      33.337  31.642  27.647  1.00  0.00    -0.349 N 
ATOM     78  C   UNL A   1      32.126  31.621  26.973  1.00  0.00     0.289 C 
ATOM     79  H   UNL A   1      33.492  32.428  28.219  1.00  0.00     0.163 HD
ATOM     80  O   UNL A   1      31.382  32.598  27.052  1.00  0.00    -0.266 OA
BRANCH  78  81
ATOM     81  C   UNL A   1      31.756  30.437  26.124  1.00  0.00     0.220 A 
ATOM     82  N   UNL A   1      31.982  29.234  26.671  1.00  0.00    -0.206 NA
ATOM     83  N   UNL A   1      31.070  30.677  24.993  1.00  0.00    -0.224 NA
ATOM     84  C   UNL A   1      31.432  28.176  26.062  1.00  0.00     0.138 A 
ATOM     85  C   UNL A   1      30.552  29.616  24.382  1.00  0.00     0.077 A 
ATOM     86  C   UNL A   1      30.702  28.304  24.860  1.00  0.00     0.043 A 
ATOM     87  C   UNL A   1      29.768  29.840  23.258  1.00  0.00     0.029 A 
ATOM     88  C   UNL A   1      30.064  27.246  24.161  1.00  0.00     0.014 A 
ATOM     89  C   UNL A   1      29.118  28.799  22.592  1.00  0.00     0.002 A 
ATOM     90  C   UNL A   1      29.271  27.496  23.043  1.00  0.00     0.001 A 
BRANCH  84  91
ATOM     91  N   UNL A   1      31.505  26.951  26.725  1.00  0.00    -0.368 N 
ATOM     92  H   UNL A   1      30.730  26.613  27.230  1.00  0.00     0.162 HD
BRANCH  91  93
ATOM     93  C   UNL A   1      32.750  26.167  26.661  1.00  0.00     0.127 C 
BRANCH  93  94
ATOM     94  C   UNL A   1      32.931  25.377  25.307  1.00  0.00     0.070 C 
ATOM     95  C   UNL A   1      33.324  26.297  24.128  1.00  0.00    -0.035 A 
ATOM     96  C   UNL A   1      33.688  24.028  25.388  1.00  0.00    -0.025 A 
ATOM     97  C   UNL A   1      34.026  27.506  24.288  1.00  0.00     0.005 A 
ATOM     98  C   UNL A   1      32.929  25.965  22.816  1.00  0.00    -0.034 A 
ATOM     99  C   UNL A   1      33.921  23.163  24.290  1.00  0.00     0.011 A 
ATOM    100  C   UNL A   1      34.096  23.549  26.663  1.00  0.00     0.005 A 
ATOM    101  C   UNL A   1      34.310  28.358  23.217  1.00  0.00     0.000 A 
ATOM    102  C   UNL A   1      33.236  26.820  21.736  1.00  0.00     0.005 A 
ATOM    103  C   UNL A   1      32.245  24.660  22.531  1.00  0.00     0.110 C 
ATOM    104  S   UNL A   1      33.447  23.314  22.561  1.00  0.00    -0.121 SA
ATOM    105  C   UNL A   1      34.609  21.940  24.500  1.00  0.00     0.015 A 
ATOM    106  C   UNL A   1      34.756  22.331  26.849  1.00  0.00     0.000 A 
ATOM    107  C   UNL A   1      33.915  28.015  21.937  1.00  0.00     0.000 A 
ATOM    108  C   UNL A   1      35.027  21.528  25.761  1.00  0.00     0.001 A 
ENDBRANCH  93  94
ENDBRANCH  91  93
ENDBRANCH  84  91
ENDBRANCH  78  81
ENDBRANCH  76  77
ENDBRANCH  75  76
ENDBRANCH   1  75
TORSDOF 17
ENDMDL
