MODEL 1
REMARK VINA RESULT:     -12.0      0.000      0.000
REMARK SMILES Cc1[nH]c2ccccc2c1[C@H](C(=O)NCCCCNC(=O)c1ccc(-c2c3nc(c(-c4c(F)cc(S(=O)(=O)[O-])cc4F)c4ccc([nH]4)c(-c4c(F)cc(S(=O)(=O)[O-])cc4F)c4nc(c(-c5c(F)cc(S(=O)(=O)[O-])cc5F)c5ccc2[nH]5)C=C4)C=C3)cc1)[NH+]1CCOCC1
REMARK SMILES IDX 17 1 16 2 15 3 14 4 12 5 13 6 11 8 10 9 1 10 2 11 3 12 4 13
REMARK SMILES IDX 9 15 5 16 8 17 6 18 7 19 88 20 89 21 93 22 90 24 92 25 91 26
REMARK SMILES IDX 18 27 19 28 20 29 21 31 22 32 23 33 87 34 24 35 86 36 25 37
REMARK SMILES IDX 26 38 27 39 80 40 28 41 85 42 79 43 81 44 29 45 84 46 78 47
REMARK SMILES IDX 77 48 30 50 64 51 43 52 63 53 44 54 47 55 62 56 82 57 45 58
REMARK SMILES IDX 46 59 61 61 83 62 48 63 31 64 32 65 41 66 33 67 34 68 40 69
REMARK SMILES IDX 42 70 35 71 36 72 37 73 38 74 39 75 65 76 66 77 75 78 67 79
REMARK SMILES IDX 68 80 74 81 76 82 69 83 70 84 71 85 72 86 73 87 49 88 50 89
REMARK SMILES IDX 59 90 51 91 52 92 58 93 60 94 53 95 54 96 55 97 56 98 57 99
REMARK H PARENT 14 7 3 14 88 23 19 30 81 49 47 60
REMARK Flexibility Score: inf
ROOT
ATOM      1  C   UNL A   1      32.160  28.205  27.611  1.00  0.00     0.023 C 
ENDROOT
BRANCH   1   2
ATOM      2  C   UNL A   1      31.651  27.292  26.507  1.00  0.00     0.023 C 
BRANCH   2   3
ATOM      3  C   UNL A   1      32.615  26.164  26.160  1.00  0.00     0.116 C 
BRANCH   3   4
ATOM      4  N   UNL A   1      32.140  24.870  26.609  1.00  0.00    -0.351 N 
ATOM      5  C   UNL A   1      32.374  23.625  26.086  1.00  0.00     0.283 C 
ATOM      6  O   UNL A   1      31.846  22.669  26.669  1.00  0.00    -0.268 OA
ATOM      7  H   UNL A   1      31.564  24.888  27.407  1.00  0.00     0.163 HD
BRANCH   5   8
ATOM      8  C   UNL A   1      33.285  23.388  24.849  1.00  0.00     0.308 C 
BRANCH   8   9
ATOM      9  C   UNL A   1      34.405  22.383  25.134  1.00  0.00     0.047 A 
ATOM     10  C   UNL A   1      33.074  20.155  24.692  1.00  0.00     0.065 C 
ATOM     11  C   UNL A   1      34.265  20.997  25.004  1.00  0.00     0.022 A 
ATOM     12  N   UNL A   1      35.509  20.432  25.107  1.00  0.00    -0.358 N 
ATOM     13  C   UNL A   1      36.451  21.388  25.386  1.00  0.00     0.046 A 
ATOM     14  H   UNL A   1      35.699  19.474  24.995  1.00  0.00     0.166 HD
ATOM     15  C   UNL A   1      35.781  22.607  25.513  1.00  0.00     0.009 A 
ATOM     16  C   UNL A   1      37.838  21.256  25.525  1.00  0.00     0.027 A 
ATOM     17  C   UNL A   1      36.548  23.734  25.881  1.00  0.00     0.011 A 
ATOM     18  C   UNL A   1      38.569  22.396  25.858  1.00  0.00     0.002 A 
ATOM     19  C   UNL A   1      37.932  23.616  26.058  1.00  0.00     0.001 A 
ENDBRANCH   8   9
BRANCH   8  20
ATOM     20  N   UNL A   1      32.549  23.149  23.575  1.00  0.00    -0.317 N 
ATOM     21  C   UNL A   1      33.275  23.644  22.387  1.00  0.00     0.292 C 
ATOM     22  C   UNL A   1      31.146  23.600  23.472  1.00  0.00     0.292 C 
ATOM     23  H   UNL A   1      32.503  22.131  23.601  1.00  0.00     0.349 HD
ATOM     24  C   UNL A   1      33.048  25.130  22.060  1.00  0.00     0.221 C 
ATOM     25  C   UNL A   1      30.939  25.081  23.095  1.00  0.00     0.221 C 
ATOM     26  O   UNL A   1      31.654  25.412  21.900  1.00  0.00    -0.370 OA
ENDBRANCH   8  20
ENDBRANCH   5   8
ENDBRANCH   3   4
ENDBRANCH   2   3
ENDBRANCH   1   2
BRANCH   1  27
ATOM     27  C   UNL A   1      33.464  28.912  27.276  1.00  0.00     0.116 C 
BRANCH  27  28
ATOM     28  N   UNL A   1      33.545  30.268  27.819  1.00  0.00    -0.352 N 
ATOM     29  C   UNL A   1      34.633  30.856  28.426  1.00  0.00     0.251 C 
ATOM     30  H   UNL A   1      32.734  30.821  27.740  1.00  0.00     0.163 HD
ATOM     31  O   UNL A   1      34.579  31.962  28.932  1.00  0.00    -0.269 OA
BRANCH  29  32
ATOM     32  C   UNL A   1      35.867  30.053  28.453  1.00  0.00     0.039 A 
ATOM     33  C   UNL A   1      36.734  30.111  27.361  1.00  0.00     0.014 A 
ATOM     34  C   UNL A   1      36.258  29.494  29.673  1.00  0.00     0.014 A 
ATOM     35  C   UNL A   1      38.048  29.675  27.523  1.00  0.00     0.010 A 
ATOM     36  C   UNL A   1      37.588  29.156  29.852  1.00  0.00     0.010 A 
ATOM     37  C   UNL A   1      38.497  29.247  28.784  1.00  0.00    -0.014 A 
BRANCH  37  38
ATOM     38  C   UNL A   1      39.913  28.880  29.026  1.00  0.00     0.031 A 
ATOM     39  C   UNL A   1      40.854  29.929  29.548  1.00  0.00     0.074 A 
ATOM     40  C   UNL A   1      40.370  27.659  28.676  1.00  0.00     0.049 A 
ATOM     41  N   UNL A   1      42.153  29.886  29.673  1.00  0.00    -0.248 NA
ATOM     42  C   UNL A   1      40.256  31.222  29.927  1.00  0.00     0.031 C 
ATOM     43  C   UNL A   1      39.566  26.583  28.090  1.00  0.00     0.029 A 
ATOM     44  N   UNL A   1      41.632  27.125  28.745  1.00  0.00    -0.354 N 
ATOM     45  C   UNL A   1      42.528  31.153  30.100  1.00  0.00     0.074 A 
ATOM     46  C   UNL A   1      41.330  31.959  30.157  1.00  0.00     0.031 C 
ATOM     47  C   UNL A   1      40.349  25.512  27.878  1.00  0.00     0.029 A 
ATOM     48  C   UNL A   1      41.716  25.835  28.275  1.00  0.00     0.049 A 
ATOM     49  H   UNL A   1      42.406  27.619  29.099  1.00  0.00     0.167 HD
ATOM     50  C   UNL A   1      43.758  31.597  30.445  1.00  0.00     0.037 A 
ATOM     51  C   UNL A   1      42.778  25.013  28.170  1.00  0.00     0.037 A 
ATOM     52  C   UNL A   1      44.929  30.764  30.463  1.00  0.00     0.049 A 
ATOM     53  C   UNL A   1      44.127  25.508  28.618  1.00  0.00     0.074 A 
ATOM     54  C   UNL A   1      46.203  31.078  30.899  1.00  0.00     0.029 A 
ATOM     55  N   UNL A   1      44.962  29.444  30.036  1.00  0.00    -0.354 N 
ATOM     56  N   UNL A   1      44.453  26.688  29.090  1.00  0.00    -0.248 NA
ATOM     57  C   UNL A   1      45.252  24.567  28.520  1.00  0.00     0.031 C 
ATOM     58  C   UNL A   1      47.013  29.954  30.712  1.00  0.00     0.029 A 
ATOM     59  C   UNL A   1      46.237  28.932  30.186  1.00  0.00     0.049 A 
ATOM     60  H   UNL A   1      44.192  28.946  29.679  1.00  0.00     0.167 HD
ATOM     61  C   UNL A   1      45.816  26.627  29.357  1.00  0.00     0.074 A 
ATOM     62  C   UNL A   1      46.250  25.289  29.010  1.00  0.00     0.031 C 
ATOM     63  C   UNL A   1      46.637  27.592  29.840  1.00  0.00     0.037 A 
BRANCH  50  64
ATOM     64  C   UNL A   1      43.886  33.035  30.858  1.00  0.00     0.058 A 
ATOM     65  C   UNL A   1      44.280  34.029  29.947  1.00  0.00     0.135 A 
ATOM     66  C   UNL A   1      43.610  33.426  32.177  1.00  0.00     0.135 A 
ATOM     67  F   UNL A   1      44.578  33.704  28.679  1.00  0.00    -0.206 F 
ATOM     68  C   UNL A   1      44.429  35.354  30.338  1.00  0.00     0.059 A 
ATOM     69  C   UNL A   1      43.724  34.752  32.583  1.00  0.00     0.059 A 
ATOM     70  F   UNL A   1      43.234  32.515  33.089  1.00  0.00    -0.206 F 
ATOM     71  C   UNL A   1      44.152  35.706  31.660  1.00  0.00     0.060 A 
BRANCH  71  72
ATOM     72  S   UNL A   1      44.348  37.431  32.151  1.00  0.00     0.124 S 
ATOM     73  O   UNL A   1      43.650  37.447  33.434  1.00  0.00    -0.237 OA
ATOM     74  O   UNL A   1      45.798  37.575  32.219  1.00  0.00    -0.237 OA
ATOM     75  O   UNL A   1      43.697  38.168  31.073  1.00  0.00    -0.744 OA
ENDBRANCH  71  72
ENDBRANCH  50  64
BRANCH  51  76
ATOM     76  C   UNL A   1      42.608  23.632  27.645  1.00  0.00     0.058 A 
ATOM     77  C   UNL A   1      42.665  23.376  26.266  1.00  0.00     0.135 A 
ATOM     78  C   UNL A   1      42.399  22.542  28.503  1.00  0.00     0.135 A 
ATOM     79  F   UNL A   1      42.857  24.388  25.405  1.00  0.00    -0.206 F 
ATOM     80  C   UNL A   1      42.508  22.092  25.755  1.00  0.00     0.059 A 
ATOM     81  C   UNL A   1      42.259  21.244  28.015  1.00  0.00     0.059 A 
ATOM     82  F   UNL A   1      42.355  22.729  29.830  1.00  0.00    -0.206 F 
ATOM     83  C   UNL A   1      42.306  21.031  26.639  1.00  0.00     0.060 A 
BRANCH  83  84
ATOM     84  S   UNL A   1      42.157  19.360  25.968  1.00  0.00     0.124 S 
ATOM     85  O   UNL A   1      42.692  18.556  27.060  1.00  0.00    -0.237 OA
ATOM     86  O   UNL A   1      40.719  19.248  25.738  1.00  0.00    -0.237 OA
ATOM     87  O   UNL A   1      42.973  19.412  24.759  1.00  0.00    -0.744 OA
ENDBRANCH  83  84
ENDBRANCH  51  76
BRANCH  63  88
ATOM     88  C   UNL A   1      48.082  27.236  30.034  1.00  0.00     0.058 A 
ATOM     89  C   UNL A   1      49.027  27.457  29.022  1.00  0.00     0.135 A 
ATOM     90  C   UNL A   1      48.537  26.755  31.272  1.00  0.00     0.135 A 
ATOM     91  F   UNL A   1      48.638  27.910  27.820  1.00  0.00    -0.206 F 
ATOM     92  C   UNL A   1      50.379  27.207  29.228  1.00  0.00     0.059 A 
ATOM     93  C   UNL A   1      49.888  26.519  31.507  1.00  0.00     0.059 A 
ATOM     94  F   UNL A   1      47.670  26.538  32.273  1.00  0.00    -0.206 F 
ATOM     95  C   UNL A   1      50.800  26.744  30.477  1.00  0.00     0.060 A 
BRANCH  95  96
ATOM     96  S   UNL A   1      52.565  26.485  30.754  1.00  0.00     0.124 S 
ATOM     97  O   UNL A   1      53.058  26.345  29.388  1.00  0.00    -0.237 OA
ATOM     98  O   UNL A   1      52.956  27.709  31.447  1.00  0.00    -0.237 OA
ATOM     99  O   UNL A   1      52.606  25.272  31.565  1.00  0.00    -0.744 OA
ENDBRANCH  95  96
ENDBRANCH  63  88
ENDBRANCH  37  38
ENDBRANCH  29  32
ENDBRANCH  27  28
ENDBRANCH   1  27
TORSDOF 16
ENDMDL
MODEL 2
REMARK VINA RESULT:     -12.0      0.742      1.670
REMARK SMILES Cc1[nH]c2ccccc2c1[C@H](C(=O)NCCCCNC(=O)c1ccc(-c2c3nc(c(-c4c(F)cc(S(=O)(=O)[O-])cc4F)c4ccc([nH]4)c(-c4c(F)cc(S(=O)(=O)[O-])cc4F)c4nc(c(-c5c(F)cc(S(=O)(=O)[O-])cc5F)c5ccc2[nH]5)C=C4)C=C3)cc1)[NH+]1CCOCC1
REMARK SMILES IDX 17 1 16 2 15 3 14 4 12 5 13 6 11 8 10 9 1 10 2 11 3 12 4 13
REMARK SMILES IDX 9 15 5 16 8 17 6 18 7 19 88 20 89 21 93 22 90 24 92 25 91 26
REMARK SMILES IDX 18 27 19 28 20 29 21 31 22 32 23 33 87 34 24 35 86 36 25 37
REMARK SMILES IDX 26 38 27 39 80 40 28 41 85 42 79 43 81 44 29 45 84 46 78 47
REMARK SMILES IDX 77 48 30 50 64 51 43 52 63 53 44 54 47 55 62 56 82 57 45 58
REMARK SMILES IDX 46 59 61 61 83 62 48 63 31 64 32 65 41 66 33 67 34 68 40 69
REMARK SMILES IDX 42 70 35 71 36 72 37 73 38 74 39 75 65 76 66 77 75 78 67 79
REMARK SMILES IDX 68 80 74 81 76 82 69 83 70 84 71 85 72 86 73 87 49 88 50 89
REMARK SMILES IDX 59 90 51 91 52 92 58 93 60 94 53 95 54 96 55 97 56 98 57 99
REMARK H PARENT 14 7 3 14 88 23 19 30 81 49 47 60
REMARK Flexibility Score: inf
ROOT
ATOM      1  C   UNL A   1      31.973  28.240  27.633  1.00  0.00     0.023 C 
ENDROOT
BRANCH   1   2
ATOM      2  C   UNL A   1      31.515  27.281  26.546  1.00  0.00     0.023 C 
BRANCH   2   3
ATOM      3  C   UNL A   1      32.344  26.004  26.473  1.00  0.00     0.116 C 
BRANCH   3   4
ATOM      4  N   UNL A   1      31.534  24.808  26.590  1.00  0.00    -0.351 N 
ATOM      5  C   UNL A   1      31.538  23.673  25.822  1.00  0.00     0.283 C 
ATOM      6  O   UNL A   1      30.737  22.784  26.141  1.00  0.00    -0.268 OA
ATOM      7  H   UNL A   1      30.885  24.811  27.330  1.00  0.00     0.163 HD
BRANCH   5   8
ATOM      8  C   UNL A   1      32.514  23.465  24.630  1.00  0.00     0.308 C 
BRANCH   8   9
ATOM      9  C   UNL A   1      33.352  22.193  24.779  1.00  0.00     0.047 A 
ATOM     10  C   UNL A   1      35.191  23.107  26.427  1.00  0.00     0.065 C 
ATOM     11  C   UNL A   1      34.474  22.086  25.607  1.00  0.00     0.022 A 
ATOM     12  N   UNL A   1      34.829  20.765  25.677  1.00  0.00    -0.358 N 
ATOM     13  C   UNL A   1      34.035  20.009  24.854  1.00  0.00     0.046 A 
ATOM     14  H   UNL A   1      35.553  20.408  26.239  1.00  0.00     0.166 HD
ATOM     15  C   UNL A   1      33.166  20.883  24.197  1.00  0.00     0.009 A 
ATOM     16  C   UNL A   1      34.022  18.622  24.658  1.00  0.00     0.027 A 
ATOM     17  C   UNL A   1      32.298  20.332  23.230  1.00  0.00     0.011 A 
ATOM     18  C   UNL A   1      33.130  18.107  23.717  1.00  0.00     0.002 A 
ATOM     19  C   UNL A   1      32.294  18.951  22.994  1.00  0.00     0.001 A 
ENDBRANCH   8   9
BRANCH   8  20
ATOM     20  N   UNL A   1      31.896  23.646  23.286  1.00  0.00    -0.317 N 
ATOM     21  C   UNL A   1      32.871  24.057  22.253  1.00  0.00     0.292 C 
ATOM     22  C   UNL A   1      30.708  24.516  23.162  1.00  0.00     0.292 C 
ATOM     23  H   UNL A   1      31.553  22.698  23.134  1.00  0.00     0.349 HD
ATOM     24  C   UNL A   1      33.127  25.571  22.169  1.00  0.00     0.221 C 
ATOM     25  C   UNL A   1      30.988  26.027  23.030  1.00  0.00     0.221 C 
ATOM     26  O   UNL A   1      31.905  26.287  21.962  1.00  0.00    -0.370 OA
ENDBRANCH   8  20
ENDBRANCH   5   8
ENDBRANCH   3   4
ENDBRANCH   2   3
ENDBRANCH   1   2
BRANCH   1  27
ATOM     27  C   UNL A   1      33.348  28.841  27.388  1.00  0.00     0.116 C 
BRANCH  27  28
ATOM     28  N   UNL A   1      33.454  30.237  27.809  1.00  0.00    -0.352 N 
ATOM     29  C   UNL A   1      34.565  30.866  28.328  1.00  0.00     0.251 C 
ATOM     30  H   UNL A   1      32.645  30.789  27.709  1.00  0.00     0.163 HD
ATOM     31  O   UNL A   1      34.533  32.012  28.739  1.00  0.00    -0.269 OA
BRANCH  29  32
ATOM     32  C   UNL A   1      35.794  30.058  28.385  1.00  0.00     0.039 A 
ATOM     33  C   UNL A   1      36.666  30.079  27.296  1.00  0.00     0.014 A 
ATOM     34  C   UNL A   1      36.177  29.535  29.623  1.00  0.00     0.014 A 
ATOM     35  C   UNL A   1      37.977  29.641  27.476  1.00  0.00     0.010 A 
ATOM     36  C   UNL A   1      37.505  29.195  29.818  1.00  0.00     0.010 A 
ATOM     37  C   UNL A   1      38.419  29.250  28.752  1.00  0.00    -0.014 A 
BRANCH  37  38
ATOM     38  C   UNL A   1      39.832  28.882  29.011  1.00  0.00     0.031 A 
ATOM     39  C   UNL A   1      40.765  29.931  29.547  1.00  0.00     0.074 A 
ATOM     40  C   UNL A   1      40.294  27.663  28.664  1.00  0.00     0.049 A 
ATOM     41  N   UNL A   1      42.063  29.889  29.689  1.00  0.00    -0.248 NA
ATOM     42  C   UNL A   1      40.162  31.223  29.921  1.00  0.00     0.031 C 
ATOM     43  C   UNL A   1      39.498  26.587  28.066  1.00  0.00     0.029 A 
ATOM     44  N   UNL A   1      41.555  27.130  28.748  1.00  0.00    -0.354 N 
ATOM     45  C   UNL A   1      42.432  31.155  30.123  1.00  0.00     0.074 A 
ATOM     46  C   UNL A   1      41.233  31.961  30.166  1.00  0.00     0.031 C 
ATOM     47  C   UNL A   1      40.285  25.518  27.862  1.00  0.00     0.029 A 
ATOM     48  C   UNL A   1      41.646  25.840  28.277  1.00  0.00     0.049 A 
ATOM     49  H   UNL A   1      42.325  27.624  29.113  1.00  0.00     0.167 HD
ATOM     50  C   UNL A   1      43.657  31.599  30.485  1.00  0.00     0.037 A 
ATOM     51  C   UNL A   1      42.710  25.019  28.184  1.00  0.00     0.037 A 
ATOM     52  C   UNL A   1      44.828  30.767  30.515  1.00  0.00     0.049 A 
ATOM     53  C   UNL A   1      44.053  25.514  28.650  1.00  0.00     0.074 A 
ATOM     54  C   UNL A   1      46.096  31.081  30.968  1.00  0.00     0.029 A 
ATOM     55  N   UNL A   1      44.867  29.448  30.086  1.00  0.00    -0.354 N 
ATOM     56  N   UNL A   1      44.372  26.694  29.129  1.00  0.00    -0.248 NA
ATOM     57  C   UNL A   1      45.179  24.574  28.564  1.00  0.00     0.031 C 
ATOM     58  C   UNL A   1      46.909  29.958  30.790  1.00  0.00     0.029 A 
ATOM     59  C   UNL A   1      46.141  28.936  30.252  1.00  0.00     0.049 A 
ATOM     60  H   UNL A   1      44.102  28.950  29.719  1.00  0.00     0.167 HD
ATOM     61  C   UNL A   1      45.732  26.633  29.412  1.00  0.00     0.074 A 
ATOM     62  C   UNL A   1      46.171  25.296  29.069  1.00  0.00     0.031 C 
ATOM     63  C   UNL A   1      46.546  27.597  29.908  1.00  0.00     0.037 A 
BRANCH  50  64
ATOM     64  C   UNL A   1      43.779  33.036  30.902  1.00  0.00     0.058 A 
ATOM     65  C   UNL A   1      44.135  34.040  29.986  1.00  0.00     0.135 A 
ATOM     66  C   UNL A   1      43.534  33.417  32.231  1.00  0.00     0.135 A 
ATOM     67  F   UNL A   1      44.402  33.726  28.709  1.00  0.00    -0.206 F 
ATOM     68  C   UNL A   1      44.279  35.365  30.381  1.00  0.00     0.059 A 
ATOM     69  C   UNL A   1      43.643  34.742  32.641  1.00  0.00     0.059 A 
ATOM     70  F   UNL A   1      43.195  32.496  33.147  1.00  0.00    -0.206 F 
ATOM     71  C   UNL A   1      44.034  35.707  31.711  1.00  0.00     0.060 A 
BRANCH  71  72
ATOM     72  S   UNL A   1      44.223  37.431  32.207  1.00  0.00     0.124 S 
ATOM     73  O   UNL A   1      43.322  37.502  33.354  1.00  0.00    -0.237 OA
ATOM     74  O   UNL A   1      45.646  37.515  32.515  1.00  0.00    -0.237 OA
ATOM     75  O   UNL A   1      43.795  38.173  31.026  1.00  0.00    -0.744 OA
ENDBRANCH  71  72
ENDBRANCH  50  64
BRANCH  51  76
ATOM     76  C   UNL A   1      42.548  23.639  27.653  1.00  0.00     0.058 A 
ATOM     77  C   UNL A   1      42.585  23.392  26.273  1.00  0.00     0.135 A 
ATOM     78  C   UNL A   1      42.365  22.542  28.508  1.00  0.00     0.135 A 
ATOM     79  F   UNL A   1      42.752  24.410  25.414  1.00  0.00    -0.206 F 
ATOM     80  C   UNL A   1      42.435  22.109  25.757  1.00  0.00     0.059 A 
ATOM     81  C   UNL A   1      42.231  21.245  28.016  1.00  0.00     0.059 A 
ATOM     82  F   UNL A   1      42.339  22.722  29.838  1.00  0.00    -0.206 F 
ATOM     83  C   UNL A   1      42.260  21.041  26.638  1.00  0.00     0.060 A 
BRANCH  83  84
ATOM     84  S   UNL A   1      42.119  19.371  25.960  1.00  0.00     0.124 S 
ATOM     85  O   UNL A   1      42.960  19.463  24.774  1.00  0.00    -0.237 OA
ATOM     86  O   UNL A   1      42.639  18.551  27.052  1.00  0.00    -0.237 OA
ATOM     87  O   UNL A   1      40.687  19.232  25.713  1.00  0.00    -0.744 OA
ENDBRANCH  83  84
ENDBRANCH  51  76
BRANCH  63  88
ATOM     88  C   UNL A   1      47.988  27.242  30.119  1.00  0.00     0.058 A 
ATOM     89  C   UNL A   1      48.949  27.484  29.128  1.00  0.00     0.135 A 
ATOM     90  C   UNL A   1      48.424  26.739  31.356  1.00  0.00     0.135 A 
ATOM     91  F   UNL A   1      48.579  27.957  27.928  1.00  0.00    -0.206 F 
ATOM     92  C   UNL A   1      50.298  27.234  29.352  1.00  0.00     0.059 A 
ATOM     93  C   UNL A   1      49.771  26.503  31.609  1.00  0.00     0.059 A 
ATOM     94  F   UNL A   1      47.541  26.502  32.338  1.00  0.00    -0.206 F 
ATOM     95  C   UNL A   1      50.700  26.749  30.598  1.00  0.00     0.060 A 
BRANCH  95  96
ATOM     96  S   UNL A   1      52.461  26.490  30.900  1.00  0.00     0.124 S 
ATOM     97  O   UNL A   1      52.820  27.714  31.608  1.00  0.00    -0.237 OA
ATOM     98  O   UNL A   1      52.465  25.270  31.702  1.00  0.00    -0.237 OA
ATOM     99  O   UNL A   1      53.018  26.353  29.558  1.00  0.00    -0.744 OA
ENDBRANCH  95  96
ENDBRANCH  63  88
ENDBRANCH  37  38
ENDBRANCH  29  32
ENDBRANCH  27  28
ENDBRANCH   1  27
TORSDOF 16
ENDMDL
MODEL 3
REMARK VINA RESULT:     -11.7      3.017      9.484
REMARK SMILES Cc1[nH]c2ccccc2c1[C@H](C(=O)NCCCCNC(=O)c1ccc(-c2c3nc(c(-c4c(F)cc(S(=O)(=O)[O-])cc4F)c4ccc([nH]4)c(-c4c(F)cc(S(=O)(=O)[O-])cc4F)c4nc(c(-c5c(F)cc(S(=O)(=O)[O-])cc5F)c5ccc2[nH]5)C=C4)C=C3)cc1)[NH+]1CCOCC1
REMARK SMILES IDX 17 1 16 2 15 3 14 4 12 5 13 6 11 8 10 9 1 10 2 11 3 12 4 13
REMARK SMILES IDX 9 15 5 16 8 17 6 18 7 19 88 20 89 21 93 22 90 24 92 25 91 26
REMARK SMILES IDX 18 27 19 28 20 29 21 31 22 32 23 33 87 34 24 35 86 36 25 37
REMARK SMILES IDX 26 38 27 39 80 40 28 41 85 42 79 43 81 44 29 45 84 46 78 47
REMARK SMILES IDX 77 48 30 50 64 51 43 52 63 53 44 54 47 55 62 56 82 57 45 58
REMARK SMILES IDX 46 59 61 61 83 62 48 63 31 64 32 65 41 66 33 67 34 68 40 69
REMARK SMILES IDX 42 70 35 71 36 72 37 73 38 74 39 75 65 76 66 77 75 78 67 79
REMARK SMILES IDX 68 80 74 81 76 82 69 83 70 84 71 85 72 86 73 87 49 88 50 89
REMARK SMILES IDX 59 90 51 91 52 92 58 93 60 94 53 95 54 96 55 97 56 98 57 99
REMARK H PARENT 14 7 3 14 88 23 19 30 81 49 47 60
REMARK Flexibility Score: inf
ROOT
ATOM      1  C   UNL A   1      36.544  22.972  23.735  1.00  0.00     0.023 C 
ENDROOT
BRANCH   1   2
ATOM      2  C   UNL A   1      35.039  23.187  23.745  1.00  0.00     0.023 C 
BRANCH   2   3
ATOM      3  C   UNL A   1      34.627  24.574  24.225  1.00  0.00     0.116 C 
BRANCH   3   4
ATOM      4  N   UNL A   1      34.092  25.395  23.157  1.00  0.00    -0.351 N 
ATOM      5  C   UNL A   1      33.020  26.248  23.167  1.00  0.00     0.283 C 
ATOM      6  O   UNL A   1      32.771  26.840  22.108  1.00  0.00    -0.268 OA
ATOM      7  H   UNL A   1      34.568  25.330  22.298  1.00  0.00     0.163 HD
BRANCH   5   8
ATOM      8  C   UNL A   1      32.163  26.511  24.438  1.00  0.00     0.308 C 
BRANCH   8   9
ATOM      9  C   UNL A   1      32.088  27.999  24.791  1.00  0.00     0.047 A 
ATOM     10  C   UNL A   1      30.062  28.681  23.255  1.00  0.00     0.065 C 
ATOM     11  C   UNL A   1      31.127  28.878  24.281  1.00  0.00     0.022 A 
ATOM     12  N   UNL A   1      31.210  30.053  24.981  1.00  0.00    -0.358 N 
ATOM     13  C   UNL A   1      32.249  30.010  25.874  1.00  0.00     0.046 A 
ATOM     14  H   UNL A   1      30.607  30.821  24.859  1.00  0.00     0.166 HD
ATOM     15  C   UNL A   1      32.886  28.777  25.711  1.00  0.00     0.009 A 
ATOM     16  C   UNL A   1      32.656  30.967  26.812  1.00  0.00     0.027 A 
ATOM     17  C   UNL A   1      34.045  28.539  26.480  1.00  0.00     0.011 A 
ATOM     18  C   UNL A   1      33.788  30.685  27.577  1.00  0.00     0.002 A 
ATOM     19  C   UNL A   1      34.489  29.498  27.399  1.00  0.00     0.001 A 
ENDBRANCH   8   9
BRANCH   8  20
ATOM     20  N   UNL A   1      30.851  25.804  24.456  1.00  0.00    -0.317 N 
ATOM     21  C   UNL A   1      30.370  25.515  25.825  1.00  0.00     0.292 C 
ATOM     22  C   UNL A   1      30.696  24.576  23.651  1.00  0.00     0.292 C 
ATOM     23  H   UNL A   1      30.279  26.506  23.989  1.00  0.00     0.349 HD
ATOM     24  C   UNL A   1      30.908  24.212  26.439  1.00  0.00     0.221 C 
ATOM     25  C   UNL A   1      31.196  23.271  24.305  1.00  0.00     0.221 C 
ATOM     26  O   UNL A   1      30.614  23.090  25.601  1.00  0.00    -0.370 OA
ENDBRANCH   8  20
ENDBRANCH   5   8
ENDBRANCH   3   4
ENDBRANCH   2   3
ENDBRANCH   1   2
BRANCH   1  27
ATOM     27  C   UNL A   1      37.240  23.412  25.014  1.00  0.00     0.116 C 
BRANCH  27  28
ATOM     28  N   UNL A   1      38.396  22.586  25.359  1.00  0.00    -0.352 N 
ATOM     29  C   UNL A   1      39.481  22.954  26.125  1.00  0.00     0.251 C 
ATOM     30  H   UNL A   1      38.398  21.666  25.009  1.00  0.00     0.163 HD
ATOM     31  O   UNL A   1      40.445  22.226  26.283  1.00  0.00    -0.269 OA
BRANCH  29  32
ATOM     32  C   UNL A   1      39.421  24.298  26.721  1.00  0.00     0.039 A 
ATOM     33  C   UNL A   1      38.874  24.447  27.996  1.00  0.00     0.014 A 
ATOM     34  C   UNL A   1      40.164  25.316  26.117  1.00  0.00     0.014 A 
ATOM     35  C   UNL A   1      39.149  25.611  28.713  1.00  0.00     0.010 A 
ATOM     36  C   UNL A   1      40.512  26.423  26.872  1.00  0.00     0.010 A 
ATOM     37  C   UNL A   1      40.014  26.579  28.177  1.00  0.00    -0.014 A 
BRANCH  37  38
ATOM     38  C   UNL A   1      40.420  27.778  28.950  1.00  0.00     0.031 A 
ATOM     39  C   UNL A   1      41.734  27.758  29.679  1.00  0.00     0.074 A 
ATOM     40  C   UNL A   1      39.572  28.819  29.089  1.00  0.00     0.049 A 
ATOM     41  N   UNL A   1      42.213  28.613  30.543  1.00  0.00    -0.248 NA
ATOM     42  C   UNL A   1      42.601  26.590  29.444  1.00  0.00     0.031 C 
ATOM     43  C   UNL A   1      38.239  28.919  28.489  1.00  0.00     0.029 A 
ATOM     44  N   UNL A   1      39.702  29.987  29.795  1.00  0.00    -0.354 N 
ATOM     45  C   UNL A   1      43.409  28.064  30.985  1.00  0.00     0.074 A 
ATOM     46  C   UNL A   1      43.557  26.778  30.341  1.00  0.00     0.031 C 
ATOM     47  C   UNL A   1      37.687  30.094  28.834  1.00  0.00     0.029 A 
ATOM     48  C   UNL A   1      38.607  30.815  29.708  1.00  0.00     0.049 A 
ATOM     49  H   UNL A   1      40.506  30.214  30.318  1.00  0.00     0.167 HD
ATOM     50  C   UNL A   1      44.321  28.597  31.830  1.00  0.00     0.037 A 
ATOM     51  C   UNL A   1      38.372  32.014  30.277  1.00  0.00     0.037 A 
ATOM     52  C   UNL A   1      44.203  29.910  32.402  1.00  0.00     0.049 A 
ATOM     53  C   UNL A   1      39.428  32.616  31.164  1.00  0.00     0.074 A 
ATOM     54  C   UNL A   1      45.117  30.594  33.182  1.00  0.00     0.029 A 
ATOM     55  N   UNL A   1      43.105  30.742  32.241  1.00  0.00    -0.354 N 
ATOM     56  N   UNL A   1      40.589  32.116  31.515  1.00  0.00    -0.248 NA
ATOM     57  C   UNL A   1      39.145  33.941  31.735  1.00  0.00     0.031 C 
ATOM     58  C   UNL A   1      44.561  31.833  33.514  1.00  0.00     0.029 A 
ATOM     59  C   UNL A   1      43.312  31.931  32.918  1.00  0.00     0.049 A 
ATOM     60  H   UNL A   1      42.299  30.521  31.723  1.00  0.00     0.167 HD
ATOM     61  C   UNL A   1      41.180  33.069  32.336  1.00  0.00     0.074 A 
ATOM     62  C   UNL A   1      40.257  34.182  32.416  1.00  0.00     0.031 C 
ATOM     63  C   UNL A   1      42.377  33.026  32.972  1.00  0.00     0.037 A 
BRANCH  50  64
ATOM     64  C   UNL A   1      45.532  27.771  32.156  1.00  0.00     0.058 A 
ATOM     65  C   UNL A   1      46.671  27.779  31.333  1.00  0.00     0.135 A 
ATOM     66  C   UNL A   1      45.557  26.964  33.304  1.00  0.00     0.135 A 
ATOM     67  F   UNL A   1      46.689  28.516  30.211  1.00  0.00    -0.206 F 
ATOM     68  C   UNL A   1      47.778  26.989  31.619  1.00  0.00     0.059 A 
ATOM     69  C   UNL A   1      46.667  26.187  33.624  1.00  0.00     0.059 A 
ATOM     70  F   UNL A   1      44.493  26.916  34.121  1.00  0.00    -0.206 F 
ATOM     71  C   UNL A   1      47.766  26.194  32.765  1.00  0.00     0.060 A 
BRANCH  71  72
ATOM     72  S   UNL A   1      49.212  25.175  33.123  1.00  0.00     0.124 S 
ATOM     73  O   UNL A   1      48.605  24.047  33.824  1.00  0.00    -0.237 OA
ATOM     74  O   UNL A   1      49.730  24.887  31.790  1.00  0.00    -0.237 OA
ATOM     75  O   UNL A   1      50.047  26.047  33.942  1.00  0.00    -0.744 OA
ENDBRANCH  71  72
ENDBRANCH  50  64
BRANCH  51  76
ATOM     76  C   UNL A   1      37.100  32.736  30.005  1.00  0.00     0.058 A 
ATOM     77  C   UNL A   1      35.977  32.544  30.824  1.00  0.00     0.135 A 
ATOM     78  C   UNL A   1      36.982  33.637  28.937  1.00  0.00     0.135 A 
ATOM     79  F   UNL A   1      36.039  31.688  31.856  1.00  0.00    -0.206 F 
ATOM     80  C   UNL A   1      34.778  33.209  30.587  1.00  0.00     0.059 A 
ATOM     81  C   UNL A   1      35.798  34.329  28.691  1.00  0.00     0.059 A 
ATOM     82  F   UNL A   1      38.032  33.869  28.134  1.00  0.00    -0.206 F 
ATOM     83  C   UNL A   1      34.699  34.102  29.518  1.00  0.00     0.060 A 
BRANCH  83  84
ATOM     84  S   UNL A   1      33.154  35.001  29.250  1.00  0.00     0.124 S 
ATOM     85  O   UNL A   1      32.541  34.929  30.570  1.00  0.00    -0.237 OA
ATOM     86  O   UNL A   1      33.632  36.317  28.837  1.00  0.00    -0.237 OA
ATOM     87  O   UNL A   1      32.497  34.227  28.201  1.00  0.00    -0.744 OA
ENDBRANCH  83  84
ENDBRANCH  51  76
BRANCH  63  88
ATOM     88  C   UNL A   1      42.764  34.217  33.798  1.00  0.00     0.058 A 
ATOM     89  C   UNL A   1      42.344  34.345  35.130  1.00  0.00     0.135 A 
ATOM     90  C   UNL A   1      43.634  35.190  33.281  1.00  0.00     0.135 A 
ATOM     91  F   UNL A   1      41.507  33.442  35.665  1.00  0.00    -0.206 F 
ATOM     92  C   UNL A   1      42.769  35.404  35.923  1.00  0.00     0.059 A 
ATOM     93  C   UNL A   1      44.089  36.245  34.064  1.00  0.00     0.059 A 
ATOM     94  F   UNL A   1      44.070  35.103  32.016  1.00  0.00    -0.206 F 
ATOM     95  C   UNL A   1      43.647  36.346  35.383  1.00  0.00     0.060 A 
BRANCH  95  96
ATOM     96  S   UNL A   1      44.244  37.681  36.442  1.00  0.00     0.124 S 
ATOM     97  O   UNL A   1      43.905  38.858  35.649  1.00  0.00    -0.237 OA
ATOM     98  O   UNL A   1      43.460  37.489  37.659  1.00  0.00    -0.237 OA
ATOM     99  O   UNL A   1      45.670  37.398  36.572  1.00  0.00    -0.744 OA
ENDBRANCH  95  96
ENDBRANCH  63  88
ENDBRANCH  37  38
ENDBRANCH  29  32
ENDBRANCH  27  28
ENDBRANCH   1  27
TORSDOF 16
ENDMDL
