MODEL 1
REMARK VINA RESULT:     -13.3      0.000      0.000
REMARK SMILES CC(=O)Nc1ccc(/C=C2/CCc3oc(C(=O)NCCCCNC(=O)c4ccc(-c5c6nc(c(-c7c(F)cc(S(=O)(=O)[O-])cc7F)c7ccc([nH]7)c(-c7c(F)cc(S(=O)(=O)[O-])cc7F)c7nc(c(-c8c(F)cc(S(=O)(=O)[O-])cc8F)c8ccc5[nH]8)C=C7)C=C6)cc4)c(C)c3C2=O)cc1
REMARK SMILES IDX 21 1 20 2 19 3 18 4 16 5 17 6 15 8 9 9 10 10 11 11 95 12
REMARK SMILES IDX 12 13 94 14 96 15 13 16 92 17 14 18 93 19 8 20 5 21 6 22
REMARK SMILES IDX 98 23 7 24 97 25 4 26 1 27 2 28 3 29 22 31 23 32 24 33 25 35
REMARK SMILES IDX 26 36 27 37 91 38 28 39 90 40 29 41 30 42 31 43 84 44 32 45
REMARK SMILES IDX 89 46 83 47 85 48 33 49 88 50 82 51 81 52 34 54 68 55 47 56
REMARK SMILES IDX 67 57 48 58 51 59 66 60 86 61 49 62 50 63 65 65 87 66 52 67
REMARK SMILES IDX 35 68 36 69 45 70 37 71 38 72 44 73 46 74 39 75 40 76 41 77
REMARK SMILES IDX 42 78 43 79 69 80 70 81 79 82 71 83 72 84 78 85 80 86 73 87
REMARK SMILES IDX 74 88 75 89 76 90 77 91 53 92 54 93 63 94 55 95 56 96 62 97
REMARK SMILES IDX 64 98 57 99 58 100 59 101 60 102 61 103
REMARK H PARENT 18 7 4 30 23 34 85 53 51 64
REMARK Flexibility Score: inf
ROOT
ATOM      1  C   UNL A   1      37.039  22.975  24.851  1.00  0.00     0.023 C 
ENDROOT
BRANCH   1   2
ATOM      2  C   UNL A   1      36.766  21.486  24.591  1.00  0.00     0.023 C 
BRANCH   2   3
ATOM      3  C   UNL A   1      35.737  20.834  25.521  1.00  0.00     0.116 C 
BRANCH   3   4
ATOM      4  N   UNL A   1      34.820  19.956  24.811  1.00  0.00    -0.349 N 
ATOM      5  C   UNL A   1      33.498  20.096  24.436  1.00  0.00     0.287 C 
ATOM      6  O   UNL A   1      33.007  19.133  23.842  1.00  0.00    -0.266 OA
ATOM      7  H   UNL A   1      35.219  19.097  24.544  1.00  0.00     0.163 HD
BRANCH   5   8
ATOM      8  C   UNL A   1      32.734  21.297  24.747  1.00  0.00     0.195 A 
ATOM      9  C   UNL A   1      30.741  26.176  26.808  1.00  0.00     0.016 C 
ATOM     10  C   UNL A   1      30.509  25.084  26.053  1.00  0.00     0.001 C 
ATOM     11  C   UNL A   1      29.465  24.043  26.446  1.00  0.00     0.048 C 
ATOM     12  C   UNL A   1      31.291  24.697  24.827  1.00  0.00     0.192 C 
ATOM     13  C   UNL A   1      30.126  22.694  26.779  1.00  0.00     0.081 C 
ATOM     14  C   UNL A   1      31.772  23.338  24.917  1.00  0.00     0.067 A 
ATOM     15  O   UNL A   1      31.427  25.422  23.842  1.00  0.00    -0.289 OA
ATOM     16  C   UNL A   1      31.199  22.452  25.794  1.00  0.00     0.116 A 
ATOM     17  C   UNL A   1      32.814  22.609  24.259  1.00  0.00     0.012 A 
ATOM     18  O   UNL A   1      31.740  21.232  25.686  1.00  0.00    -0.455 OA
ATOM     19  C   UNL A   1      33.785  23.181  23.287  1.00  0.00     0.049 C 
BRANCH   9  20
ATOM     20  C   UNL A   1      31.772  27.235  26.737  1.00  0.00    -0.025 A 
ATOM     21  C   UNL A   1      33.658  29.353  26.779  1.00  0.00     0.041 A 
ATOM     22  C   UNL A   1      34.014  28.095  26.308  1.00  0.00     0.027 A 
ATOM     23  C   UNL A   1      32.346  29.571  27.192  1.00  0.00     0.027 A 
ATOM     24  C   UNL A   1      33.094  27.044  26.331  1.00  0.00     0.010 A 
ATOM     25  C   UNL A   1      31.412  28.525  27.161  1.00  0.00     0.010 A 
BRANCH  21  26
ATOM     26  N   UNL A   1      34.647  30.343  26.764  1.00  0.00    -0.326 N 
ATOM     27  C   UNL A   1      35.859  29.710  28.832  1.00  0.00     0.114 C 
ATOM     28  C   UNL A   1      35.583  30.667  27.704  1.00  0.00     0.221 C 
ATOM     29  O   UNL A   1      36.240  31.702  27.570  1.00  0.00    -0.275 OA
ATOM     30  H   UNL A   1      34.673  30.892  25.948  1.00  0.00     0.169 HD
ENDBRANCH  21  26
ENDBRANCH   9  20
ENDBRANCH   5   8
ENDBRANCH   3   4
ENDBRANCH   2   3
ENDBRANCH   1   2
BRANCH   1  31
ATOM     31  C   UNL A   1      37.795  23.269  26.142  1.00  0.00     0.116 C 
BRANCH  31  32
ATOM     32  N   UNL A   1      38.898  22.341  26.399  1.00  0.00    -0.352 N 
ATOM     33  C   UNL A   1      40.236  22.651  26.582  1.00  0.00     0.251 C 
ATOM     34  H   UNL A   1      38.661  21.386  26.447  1.00  0.00     0.163 HD
ATOM     35  O   UNL A   1      41.106  21.811  26.381  1.00  0.00    -0.269 OA
BRANCH  33  36
ATOM     36  C   UNL A   1      40.590  24.006  27.044  1.00  0.00     0.039 A 
ATOM     37  C   UNL A   1      39.969  25.156  26.545  1.00  0.00     0.014 A 
ATOM     38  C   UNL A   1      41.566  24.102  28.032  1.00  0.00     0.014 A 
ATOM     39  C   UNL A   1      40.291  26.391  27.111  1.00  0.00     0.010 A 
ATOM     40  C   UNL A   1      41.747  25.281  28.703  1.00  0.00     0.010 A 
ATOM     41  C   UNL A   1      41.171  26.440  28.205  1.00  0.00    -0.014 A 
BRANCH  41  42
ATOM     42  C   UNL A   1      41.400  27.671  28.957  1.00  0.00     0.031 A 
ATOM     43  C   UNL A   1      42.533  28.476  28.423  1.00  0.00     0.074 A 
ATOM     44  C   UNL A   1      40.507  28.145  29.859  1.00  0.00     0.049 A 
ATOM     45  N   UNL A   1      43.690  28.663  28.963  1.00  0.00    -0.248 NA
ATOM     46  C   UNL A   1      42.452  28.960  27.031  1.00  0.00     0.031 C 
ATOM     47  C   UNL A   1      39.197  27.579  30.213  1.00  0.00     0.029 A 
ATOM     48  N   UNL A   1      40.523  29.298  30.586  1.00  0.00    -0.354 N 
ATOM     49  C   UNL A   1      44.369  29.528  28.107  1.00  0.00     0.074 A 
ATOM     50  C   UNL A   1      43.677  29.461  26.850  1.00  0.00     0.031 C 
ATOM     51  C   UNL A   1      38.464  28.493  30.883  1.00  0.00     0.029 A 
ATOM     52  C   UNL A   1      39.299  29.646  31.162  1.00  0.00     0.049 A 
ATOM     53  H   UNL A   1      41.336  29.845  30.694  1.00  0.00     0.167 HD
ATOM     54  C   UNL A   1      45.243  30.448  28.603  1.00  0.00     0.037 A 
ATOM     55  C   UNL A   1      38.992  30.800  31.814  1.00  0.00     0.037 A 
ATOM     56  C   UNL A   1      45.571  30.137  29.975  1.00  0.00     0.049 A 
ATOM     57  C   UNL A   1      40.282  31.413  32.219  1.00  0.00     0.074 A 
ATOM     58  C   UNL A   1      46.165  29.074  30.624  1.00  0.00     0.029 A 
ATOM     59  N   UNL A   1      44.888  30.843  30.933  1.00  0.00    -0.354 N 
ATOM     60  N   UNL A   1      41.099  30.872  33.082  1.00  0.00    -0.248 NA
ATOM     61  C   UNL A   1      40.883  32.375  31.311  1.00  0.00     0.031 C 
ATOM     62  C   UNL A   1      45.458  28.950  31.857  1.00  0.00     0.029 A 
ATOM     63  C   UNL A   1      44.534  29.993  31.946  1.00  0.00     0.049 A 
ATOM     64  H   UNL A   1      44.685  31.806  30.899  1.00  0.00     0.167 HD
ATOM     65  C   UNL A   1      42.362  31.075  32.547  1.00  0.00     0.074 A 
ATOM     66  C   UNL A   1      42.172  32.090  31.511  1.00  0.00     0.031 C 
ATOM     67  C   UNL A   1      43.373  30.188  32.792  1.00  0.00     0.037 A 
BRANCH  54  68
ATOM     68  C   UNL A   1      45.457  31.842  28.039  1.00  0.00     0.058 A 
ATOM     69  C   UNL A   1      46.768  32.238  27.690  1.00  0.00     0.135 A 
ATOM     70  C   UNL A   1      44.511  32.890  28.097  1.00  0.00     0.135 A 
ATOM     71  F   UNL A   1      47.755  31.332  27.599  1.00  0.00    -0.206 F 
ATOM     72  C   UNL A   1      47.126  33.574  27.500  1.00  0.00     0.059 A 
ATOM     73  C   UNL A   1      44.837  34.223  27.861  1.00  0.00     0.059 A 
ATOM     74  F   UNL A   1      43.242  32.701  28.471  1.00  0.00    -0.206 F 
ATOM     75  C   UNL A   1      46.153  34.561  27.602  1.00  0.00     0.060 A 
BRANCH  75  76
ATOM     76  S   UNL A   1      46.623  36.290  27.433  1.00  0.00     0.124 S 
ATOM     77  O   UNL A   1      47.709  36.394  28.399  1.00  0.00    -0.237 OA
ATOM     78  O   UNL A   1      47.006  36.359  26.026  1.00  0.00    -0.237 OA
ATOM     79  O   UNL A   1      45.398  37.005  27.778  1.00  0.00    -0.744 OA
ENDBRANCH  75  76
ENDBRANCH  54  68
BRANCH  55  80
ATOM     80  C   UNL A   1      37.711  31.565  31.814  1.00  0.00     0.058 A 
ATOM     81  C   UNL A   1      36.917  31.692  32.971  1.00  0.00     0.135 A 
ATOM     82  C   UNL A   1      37.387  32.432  30.751  1.00  0.00     0.135 A 
ATOM     83  F   UNL A   1      37.170  30.932  34.047  1.00  0.00    -0.206 F 
ATOM     84  C   UNL A   1      35.888  32.641  33.079  1.00  0.00     0.059 A 
ATOM     85  C   UNL A   1      36.366  33.381  30.832  1.00  0.00     0.059 A 
ATOM     86  F   UNL A   1      38.118  32.441  29.626  1.00  0.00    -0.206 F 
ATOM     87  C   UNL A   1      35.631  33.495  32.007  1.00  0.00     0.060 A 
BRANCH  87  88
ATOM     88  S   UNL A   1      34.405  34.817  32.184  1.00  0.00     0.124 S 
ATOM     89  O   UNL A   1      33.334  34.143  32.908  1.00  0.00    -0.237 OA
ATOM     90  O   UNL A   1      35.144  35.827  32.935  1.00  0.00    -0.237 OA
ATOM     91  O   UNL A   1      34.092  35.178  30.803  1.00  0.00    -0.744 OA
ENDBRANCH  87  88
ENDBRANCH  55  80
BRANCH  67  92
ATOM     92  C   UNL A   1      43.207  29.213  33.931  1.00  0.00     0.058 A 
ATOM     93  C   UNL A   1      43.414  29.505  35.291  1.00  0.00     0.135 A 
ATOM     94  C   UNL A   1      42.658  27.958  33.624  1.00  0.00     0.135 A 
ATOM     95  F   UNL A   1      43.849  30.711  35.682  1.00  0.00    -0.206 F 
ATOM     96  C   UNL A   1      43.118  28.577  36.295  1.00  0.00     0.059 A 
ATOM     97  C   UNL A   1      42.324  27.034  34.607  1.00  0.00     0.059 A 
ATOM     98  F   UNL A   1      42.385  27.640  32.348  1.00  0.00    -0.206 F 
ATOM     99  C   UNL A   1      42.568  27.344  35.942  1.00  0.00     0.060 A 
BRANCH  99 100
ATOM    100  S   UNL A   1      42.117  26.168  37.236  1.00  0.00     0.124 S 
ATOM    101  O   UNL A   1      42.254  24.888  36.548  1.00  0.00    -0.237 OA
ATOM    102  O   UNL A   1      43.107  26.440  38.273  1.00  0.00    -0.237 OA
ATOM    103  O   UNL A   1      40.747  26.545  37.580  1.00  0.00    -0.744 OA
ENDBRANCH  99 100
ENDBRANCH  67  92
ENDBRANCH  41  42
ENDBRANCH  33  36
ENDBRANCH  31  32
ENDBRANCH   1  31
TORSDOF 16
ENDMDL
MODEL 2
REMARK VINA RESULT:     -13.1      2.115      2.925
REMARK SMILES CC(=O)Nc1ccc(/C=C2/CCc3oc(C(=O)NCCCCNC(=O)c4ccc(-c5c6nc(c(-c7c(F)cc(S(=O)(=O)[O-])cc7F)c7ccc([nH]7)c(-c7c(F)cc(S(=O)(=O)[O-])cc7F)c7nc(c(-c8c(F)cc(S(=O)(=O)[O-])cc8F)c8ccc5[nH]8)C=C7)C=C6)cc4)c(C)c3C2=O)cc1
REMARK SMILES IDX 21 1 20 2 19 3 18 4 16 5 17 6 15 8 9 9 10 10 11 11 95 12
REMARK SMILES IDX 12 13 94 14 96 15 13 16 92 17 14 18 93 19 8 20 5 21 6 22
REMARK SMILES IDX 98 23 7 24 97 25 4 26 1 27 2 28 3 29 22 31 23 32 24 33 25 35
REMARK SMILES IDX 26 36 27 37 91 38 28 39 90 40 29 41 30 42 31 43 84 44 32 45
REMARK SMILES IDX 89 46 83 47 85 48 33 49 88 50 82 51 81 52 34 54 68 55 47 56
REMARK SMILES IDX 67 57 48 58 51 59 66 60 86 61 49 62 50 63 65 65 87 66 52 67
REMARK SMILES IDX 35 68 36 69 45 70 37 71 38 72 44 73 46 74 39 75 40 76 41 77
REMARK SMILES IDX 42 78 43 79 69 80 70 81 79 82 71 83 72 84 78 85 80 86 73 87
REMARK SMILES IDX 74 88 75 89 76 90 77 91 53 92 54 93 63 94 55 95 56 96 62 97
REMARK SMILES IDX 64 98 57 99 58 100 59 101 60 102 61 103
REMARK H PARENT 18 7 4 30 23 34 85 53 51 64
REMARK Flexibility Score: inf
ROOT
ATOM      1  C   UNL A   1      39.710  22.277  26.896  1.00  0.00     0.023 C 
ENDROOT
BRANCH   1   2
ATOM      2  C   UNL A   1      39.005  23.642  26.920  1.00  0.00     0.023 C 
BRANCH   2   3
ATOM      3  C   UNL A   1      37.771  23.759  26.018  1.00  0.00     0.116 C 
BRANCH   3   4
ATOM      4  N   UNL A   1      37.630  22.626  25.116  1.00  0.00    -0.349 N 
ATOM      5  C   UNL A   1      36.527  22.028  24.539  1.00  0.00     0.287 C 
ATOM      6  O   UNL A   1      36.764  21.057  23.816  1.00  0.00    -0.266 OA
ATOM      7  H   UNL A   1      38.484  22.206  24.869  1.00  0.00     0.163 HD
BRANCH   5   8
ATOM      8  C   UNL A   1      35.173  22.505  24.790  1.00  0.00     0.195 A 
ATOM      9  C   UNL A   1      30.518  25.513  25.934  1.00  0.00     0.016 C 
ATOM     10  C   UNL A   1      31.068  24.294  25.761  1.00  0.00     0.001 C 
ATOM     11  C   UNL A   1      31.171  23.290  26.905  1.00  0.00     0.048 C 
ATOM     12  C   UNL A   1      31.731  23.815  24.498  1.00  0.00     0.192 C 
ATOM     13  C   UNL A   1      32.639  23.023  27.279  1.00  0.00     0.081 C 
ATOM     14  C   UNL A   1      33.057  23.305  24.761  1.00  0.00     0.067 A 
ATOM     15  O   UNL A   1      31.177  23.785  23.400  1.00  0.00    -0.289 OA
ATOM     16  C   UNL A   1      33.422  22.930  26.029  1.00  0.00     0.116 A 
ATOM     17  C   UNL A   1      34.212  23.079  23.946  1.00  0.00     0.012 A 
ATOM     18  O   UNL A   1      34.662  22.429  26.057  1.00  0.00    -0.455 OA
ATOM     19  C   UNL A   1      34.334  23.434  22.505  1.00  0.00     0.049 C 
BRANCH   9  20
ATOM     20  C   UNL A   1      30.432  26.699  25.056  1.00  0.00    -0.025 A 
ATOM     21  C   UNL A   1      30.051  28.945  23.365  1.00  0.00     0.041 A 
ATOM     22  C   UNL A   1      31.078  28.927  24.301  1.00  0.00     0.027 A 
ATOM     23  C   UNL A   1      29.235  27.824  23.239  1.00  0.00     0.027 A 
ATOM     24  C   UNL A   1      31.234  27.837  25.161  1.00  0.00     0.010 A 
ATOM     25  C   UNL A   1      29.432  26.710  24.070  1.00  0.00     0.010 A 
BRANCH  21  26
ATOM     26  N   UNL A   1      29.934  30.091  22.569  1.00  0.00    -0.326 N 
ATOM     27  C   UNL A   1      27.892  31.062  23.588  1.00  0.00     0.114 C 
ATOM     28  C   UNL A   1      28.932  31.016  22.501  1.00  0.00     0.221 C 
ATOM     29  O   UNL A   1      28.941  31.849  21.591  1.00  0.00    -0.275 OA
ATOM     30  H   UNL A   1      30.692  30.254  21.963  1.00  0.00     0.169 HD
ENDBRANCH  21  26
ENDBRANCH   9  20
ENDBRANCH   5   8
ENDBRANCH   3   4
ENDBRANCH   2   3
ENDBRANCH   1   2
BRANCH   1  31
ATOM     31  C   UNL A   1      41.140  22.289  27.425  1.00  0.00     0.116 C 
BRANCH  31  32
ATOM     32  N   UNL A   1      42.155  22.230  26.370  1.00  0.00    -0.352 N 
ATOM     33  C   UNL A   1      42.656  23.283  25.622  1.00  0.00     0.251 C 
ATOM     34  H   UNL A   1      42.523  21.339  26.170  1.00  0.00     0.163 HD
ATOM     35  O   UNL A   1      43.170  23.083  24.527  1.00  0.00    -0.269 OA
BRANCH  33  36
ATOM     36  C   UNL A   1      42.577  24.646  26.179  1.00  0.00     0.039 A 
ATOM     37  C   UNL A   1      41.686  25.607  25.690  1.00  0.00     0.014 A 
ATOM     38  C   UNL A   1      43.419  24.942  27.247  1.00  0.00     0.014 A 
ATOM     39  C   UNL A   1      41.604  26.838  26.342  1.00  0.00     0.010 A 
ATOM     40  C   UNL A   1      43.211  26.073  27.990  1.00  0.00     0.010 A 
ATOM     41  C   UNL A   1      42.361  27.056  27.505  1.00  0.00    -0.014 A 
BRANCH  41  42
ATOM     42  C   UNL A   1      42.179  28.243  28.334  1.00  0.00     0.031 A 
ATOM     43  C   UNL A   1      43.288  29.228  28.191  1.00  0.00     0.074 A 
ATOM     44  C   UNL A   1      41.004  28.527  28.946  1.00  0.00     0.049 A 
ATOM     45  N   UNL A   1      44.198  29.520  29.057  1.00  0.00    -0.248 NA
ATOM     46  C   UNL A   1      43.543  29.803  26.856  1.00  0.00     0.031 C 
ATOM     47  C   UNL A   1      39.746  27.771  28.873  1.00  0.00     0.029 A 
ATOM     48  N   UNL A   1      40.640  29.613  29.685  1.00  0.00    -0.354 N 
ATOM     49  C   UNL A   1      44.962  30.529  28.474  1.00  0.00     0.074 A 
ATOM     50  C   UNL A   1      44.681  30.470  27.066  1.00  0.00     0.031 C 
ATOM     51  C   UNL A   1      38.723  28.528  29.327  1.00  0.00     0.029 A 
ATOM     52  C   UNL A   1      39.264  29.754  29.883  1.00  0.00     0.049 A 
ATOM     53  H   UNL A   1      41.296  30.251  30.050  1.00  0.00     0.167 HD
ATOM     54  C   UNL A   1      45.510  31.514  29.240  1.00  0.00     0.037 A 
ATOM     55  C   UNL A   1      38.616  30.805  30.455  1.00  0.00     0.037 A 
ATOM     56  C   UNL A   1      45.468  31.142  30.635  1.00  0.00     0.049 A 
ATOM     57  C   UNL A   1      39.628  31.546  31.246  1.00  0.00     0.074 A 
ATOM     58  C   UNL A   1      45.998  30.119  31.393  1.00  0.00     0.029 A 
ATOM     59  N   UNL A   1      44.441  31.678  31.371  1.00  0.00    -0.354 N 
ATOM     60  N   UNL A   1      40.231  31.050  32.294  1.00  0.00    -0.248 NA
ATOM     61  C   UNL A   1      40.319  32.645  30.594  1.00  0.00     0.031 C 
ATOM     62  C   UNL A   1      44.990  29.809  32.355  1.00  0.00     0.029 A 
ATOM     63  C   UNL A   1      43.937  30.714  32.201  1.00  0.00     0.049 A 
ATOM     64  H   UNL A   1      44.118  32.607  31.312  1.00  0.00     0.167 HD
ATOM     65  C   UNL A   1      41.551  31.456  32.166  1.00  0.00     0.074 A 
ATOM     66  C   UNL A   1      41.523  32.515  31.158  1.00  0.00     0.031 C 
ATOM     67  C   UNL A   1      42.566  30.691  32.669  1.00  0.00     0.037 A 
BRANCH  54  68
ATOM     68  C   UNL A   1      45.671  32.963  28.815  1.00  0.00     0.058 A 
ATOM     69  C   UNL A   1      46.938  33.574  28.958  1.00  0.00     0.135 A 
ATOM     70  C   UNL A   1      44.604  33.852  28.557  1.00  0.00     0.135 A 
ATOM     71  F   UNL A   1      48.031  32.834  29.203  1.00  0.00    -0.206 F 
ATOM     72  C   UNL A   1      47.114  34.958  28.933  1.00  0.00     0.059 A 
ATOM     73  C   UNL A   1      44.767  35.232  28.478  1.00  0.00     0.059 A 
ATOM     74  F   UNL A   1      43.334  33.450  28.456  1.00  0.00    -0.206 F 
ATOM     75  C   UNL A   1      46.016  35.781  28.705  1.00  0.00     0.060 A 
BRANCH  75  76
ATOM     76  S   UNL A   1      46.223  37.568  28.746  1.00  0.00     0.124 S 
ATOM     77  O   UNL A   1      47.674  37.692  28.811  1.00  0.00    -0.237 OA
ATOM     78  O   UNL A   1      45.599  37.970  27.490  1.00  0.00    -0.237 OA
ATOM     79  O   UNL A   1      45.499  37.961  29.952  1.00  0.00    -0.744 OA
ENDBRANCH  75  76
ENDBRANCH  54  68
BRANCH  55  80
ATOM     80  C   UNL A   1      37.292  31.396  30.100  1.00  0.00     0.058 A 
ATOM     81  C   UNL A   1      36.454  31.985  31.067  1.00  0.00     0.135 A 
ATOM     82  C   UNL A   1      36.952  31.652  28.757  1.00  0.00     0.135 A 
ATOM     83  F   UNL A   1      36.717  31.824  32.373  1.00  0.00    -0.206 F 
ATOM     84  C   UNL A   1      35.368  32.805  30.724  1.00  0.00     0.059 A 
ATOM     85  C   UNL A   1      35.874  32.461  28.390  1.00  0.00     0.059 A 
ATOM     86  F   UNL A   1      37.717  31.193  27.755  1.00  0.00    -0.206 F 
ATOM     87  C   UNL A   1      35.095  33.052  29.379  1.00  0.00     0.060 A 
BRANCH  87  88
ATOM     88  S   UNL A   1      33.788  34.221  28.926  1.00  0.00     0.124 S 
ATOM     89  O   UNL A   1      33.177  34.510  30.218  1.00  0.00    -0.237 OA
ATOM     90  O   UNL A   1      34.544  35.312  28.320  1.00  0.00    -0.237 OA
ATOM     91  O   UNL A   1      32.954  33.457  28.001  1.00  0.00    -0.744 OA
ENDBRANCH  87  88
ENDBRANCH  55  80
BRANCH  67  92
ATOM     92  C   UNL A   1      42.221  29.618  33.672  1.00  0.00     0.058 A 
ATOM     93  C   UNL A   1      41.846  28.299  33.360  1.00  0.00     0.135 A 
ATOM     94  C   UNL A   1      42.435  29.916  35.028  1.00  0.00     0.135 A 
ATOM     95  F   UNL A   1      41.708  27.903  32.087  1.00  0.00    -0.206 F 
ATOM     96  C   UNL A   1      41.663  27.332  34.354  1.00  0.00     0.059 A 
ATOM     97  C   UNL A   1      42.293  28.963  36.028  1.00  0.00     0.059 A 
ATOM     98  F   UNL A   1      42.848  31.143  35.387  1.00  0.00    -0.206 F 
ATOM     99  C   UNL A   1      41.893  27.674  35.687  1.00  0.00     0.060 A 
BRANCH  99 100
ATOM    100  S   UNL A   1      41.728  26.414  36.970  1.00  0.00     0.124 S 
ATOM    101  O   UNL A   1      42.910  26.655  37.792  1.00  0.00    -0.237 OA
ATOM    102  O   UNL A   1      40.448  26.752  37.585  1.00  0.00    -0.237 OA
ATOM    103  O   UNL A   1      41.737  25.159  36.221  1.00  0.00    -0.744 OA
ENDBRANCH  99 100
ENDBRANCH  67  92
ENDBRANCH  41  42
ENDBRANCH  33  36
ENDBRANCH  31  32
ENDBRANCH   1  31
TORSDOF 16
ENDMDL
MODEL 3
REMARK VINA RESULT:     -12.4      2.656      9.552
REMARK SMILES CC(=O)Nc1ccc(/C=C2/CCc3oc(C(=O)NCCCCNC(=O)c4ccc(-c5c6nc(c(-c7c(F)cc(S(=O)(=O)[O-])cc7F)c7ccc([nH]7)c(-c7c(F)cc(S(=O)(=O)[O-])cc7F)c7nc(c(-c8c(F)cc(S(=O)(=O)[O-])cc8F)c8ccc5[nH]8)C=C7)C=C6)cc4)c(C)c3C2=O)cc1
REMARK SMILES IDX 21 1 20 2 19 3 18 4 16 5 17 6 15 8 9 9 10 10 11 11 95 12
REMARK SMILES IDX 12 13 94 14 96 15 13 16 92 17 14 18 93 19 8 20 5 21 6 22
REMARK SMILES IDX 98 23 7 24 97 25 4 26 1 27 2 28 3 29 22 31 23 32 24 33 25 35
REMARK SMILES IDX 26 36 27 37 91 38 28 39 90 40 29 41 30 42 31 43 84 44 32 45
REMARK SMILES IDX 89 46 83 47 85 48 33 49 88 50 82 51 81 52 34 54 68 55 47 56
REMARK SMILES IDX 67 57 48 58 51 59 66 60 86 61 49 62 50 63 65 65 87 66 52 67
REMARK SMILES IDX 35 68 36 69 45 70 37 71 38 72 44 73 46 74 39 75 40 76 41 77
REMARK SMILES IDX 42 78 43 79 69 80 70 81 79 82 71 83 72 84 78 85 80 86 73 87
REMARK SMILES IDX 74 88 75 89 76 90 77 91 53 92 54 93 63 94 55 95 56 96 62 97
REMARK SMILES IDX 64 98 57 99 58 100 59 101 60 102 61 103
REMARK H PARENT 18 7 4 30 23 34 85 53 51 64
REMARK Flexibility Score: inf
ROOT
ATOM      1  C   UNL A   1      34.365  31.467  27.703  1.00  0.00     0.023 C 
ENDROOT
BRANCH   1   2
ATOM      2  C   UNL A   1      35.210  30.187  27.612  1.00  0.00     0.023 C 
BRANCH   2   3
ATOM      3  C   UNL A   1      34.477  28.952  27.076  1.00  0.00     0.116 C 
BRANCH   3   4
ATOM      4  N   UNL A   1      33.141  28.810  27.637  1.00  0.00    -0.349 N 
ATOM      5  C   UNL A   1      32.048  28.057  27.256  1.00  0.00     0.287 C 
ATOM      6  O   UNL A   1      31.043  28.181  27.961  1.00  0.00    -0.266 OA
ATOM      7  H   UNL A   1      32.988  29.353  28.442  1.00  0.00     0.163 HD
BRANCH   5   8
ATOM      8  C   UNL A   1      32.079  27.193  26.083  1.00  0.00     0.195 A 
ATOM      9  C   UNL A   1      33.114  23.187  22.221  1.00  0.00     0.016 C 
ATOM     10  C   UNL A   1      32.519  24.363  22.506  1.00  0.00     0.001 C 
ATOM     11  C   UNL A   1      32.953  25.665  21.839  1.00  0.00     0.048 C 
ATOM     12  C   UNL A   1      31.463  24.567  23.558  1.00  0.00     0.192 C 
ATOM     13  C   UNL A   1      33.566  26.636  22.864  1.00  0.00     0.081 C 
ATOM     14  C   UNL A   1      31.818  25.638  24.460  1.00  0.00     0.067 A 
ATOM     15  O   UNL A   1      30.397  23.953  23.590  1.00  0.00    -0.289 OA
ATOM     16  C   UNL A   1      32.755  26.573  24.097  1.00  0.00     0.116 A 
ATOM     17  C   UNL A   1      31.402  26.003  25.780  1.00  0.00     0.012 A 
ATOM     18  O   UNL A   1      32.901  27.515  25.037  1.00  0.00    -0.455 OA
ATOM     19  C   UNL A   1      30.465  25.223  26.635  1.00  0.00     0.049 C 
BRANCH   9  20
ATOM     20  C   UNL A   1      32.991  21.840  22.818  1.00  0.00    -0.025 A 
ATOM     21  C   UNL A   1      32.782  19.349  24.159  1.00  0.00     0.041 A 
ATOM     22  C   UNL A   1      32.081  19.582  22.982  1.00  0.00     0.027 A 
ATOM     23  C   UNL A   1      33.625  20.342  24.650  1.00  0.00     0.027 A 
ATOM     24  C   UNL A   1      32.153  20.826  22.349  1.00  0.00     0.010 A 
ATOM     25  C   UNL A   1      33.734  21.570  23.979  1.00  0.00     0.010 A 
BRANCH  21  26
ATOM     26  N   UNL A   1      32.625  18.092  24.755  1.00  0.00    -0.326 N 
ATOM     27  C   UNL A   1      34.148  16.782  23.301  1.00  0.00     0.114 C 
ATOM     28  C   UNL A   1      33.081  16.867  24.359  1.00  0.00     0.221 C 
ATOM     29  O   UNL A   1      32.668  15.856  24.931  1.00  0.00    -0.275 OA
ATOM     30  H   UNL A   1      32.104  18.090  25.589  1.00  0.00     0.169 HD
ENDBRANCH  21  26
ENDBRANCH   9  20
ENDBRANCH   5   8
ENDBRANCH   3   4
ENDBRANCH   2   3
ENDBRANCH   1   2
BRANCH   1  31
ATOM     31  C   UNL A   1      35.090  32.670  28.294  1.00  0.00     0.116 C 
BRANCH  31  32
ATOM     32  N   UNL A   1      34.543  33.110  29.579  1.00  0.00    -0.352 N 
ATOM     33  C   UNL A   1      34.845  32.616  30.838  1.00  0.00     0.251 C 
ATOM     34  H   UNL A   1      33.886  33.842  29.544  1.00  0.00     0.163 HD
ATOM     35  O   UNL A   1      34.060  32.756  31.770  1.00  0.00    -0.269 OA
BRANCH  33  36
ATOM     36  C   UNL A   1      36.138  31.937  31.039  1.00  0.00     0.039 A 
ATOM     37  C   UNL A   1      36.254  30.544  31.100  1.00  0.00     0.014 A 
ATOM     38  C   UNL A   1      37.267  32.745  31.144  1.00  0.00     0.014 A 
ATOM     39  C   UNL A   1      37.527  29.980  31.189  1.00  0.00     0.010 A 
ATOM     40  C   UNL A   1      38.515  32.192  31.050  1.00  0.00     0.010 A 
ATOM     41  C   UNL A   1      38.657  30.815  31.146  1.00  0.00    -0.014 A 
BRANCH  41  42
ATOM     42  C   UNL A   1      40.011  30.279  31.045  1.00  0.00     0.031 A 
ATOM     43  C   UNL A   1      40.640  30.036  32.373  1.00  0.00     0.074 A 
ATOM     44  C   UNL A   1      40.518  29.805  29.881  1.00  0.00     0.049 A 
ATOM     45  N   UNL A   1      41.606  30.695  32.918  1.00  0.00    -0.248 NA
ATOM     46  C   UNL A   1      39.986  29.087  33.294  1.00  0.00     0.031 C 
ATOM     47  C   UNL A   1      39.841  29.704  28.580  1.00  0.00     0.029 A 
ATOM     48  N   UNL A   1      41.716  29.209  29.625  1.00  0.00    -0.354 N 
ATOM     49  C   UNL A   1      41.866  30.050  34.125  1.00  0.00     0.074 A 
ATOM     50  C   UNL A   1      40.699  29.262  34.409  1.00  0.00     0.031 C 
ATOM     51  C   UNL A   1      40.535  28.885  27.760  1.00  0.00     0.029 A 
ATOM     52  C   UNL A   1      41.788  28.537  28.402  1.00  0.00     0.049 A 
ATOM     53  H   UNL A   1      42.473  29.248  30.255  1.00  0.00     0.167 HD
ATOM     54  C   UNL A   1      43.136  29.983  34.616  1.00  0.00     0.037 A 
ATOM     55  C   UNL A   1      42.800  27.745  27.954  1.00  0.00     0.037 A 
ATOM     56  C   UNL A   1      43.989  30.919  33.922  1.00  0.00     0.049 A 
ATOM     57  C   UNL A   1      43.997  28.092  28.759  1.00  0.00     0.074 A 
ATOM     58  C   UNL A   1      44.016  32.289  33.761  1.00  0.00     0.029 A 
ATOM     59  N   UNL A   1      44.766  30.396  32.918  1.00  0.00    -0.354 N 
ATOM     60  N   UNL A   1      44.582  29.260  28.717  1.00  0.00    -0.248 NA
ATOM     61  C   UNL A   1      44.249  27.313  29.959  1.00  0.00     0.031 C 
ATOM     62  C   UNL A   1      44.450  32.497  32.419  1.00  0.00     0.029 A 
ATOM     63  C   UNL A   1      44.758  31.257  31.854  1.00  0.00     0.049 A 
ATOM     64  H   UNL A   1      45.252  29.540  32.957  1.00  0.00     0.167 HD
ATOM     65  C   UNL A   1      44.894  29.545  30.038  1.00  0.00     0.074 A 
ATOM     66  C   UNL A   1      44.756  28.269  30.741  1.00  0.00     0.031 C 
ATOM     67  C   UNL A   1      44.940  30.838  30.479  1.00  0.00     0.037 A 
BRANCH  54  68
ATOM     68  C   UNL A   1      43.716  28.806  35.381  1.00  0.00     0.058 A 
ATOM     69  C   UNL A   1      44.399  29.056  36.593  1.00  0.00     0.135 A 
ATOM     70  C   UNL A   1      43.891  27.507  34.853  1.00  0.00     0.135 A 
ATOM     71  F   UNL A   1      44.308  30.252  37.196  1.00  0.00    -0.206 F 
ATOM     72  C   UNL A   1      45.252  28.122  37.184  1.00  0.00     0.059 A 
ATOM     73  C   UNL A   1      44.697  26.544  35.453  1.00  0.00     0.059 A 
ATOM     74  F   UNL A   1      43.367  27.124  33.685  1.00  0.00    -0.206 F 
ATOM     75  C   UNL A   1      45.405  26.871  36.596  1.00  0.00     0.060 A 
BRANCH  75  76
ATOM     76  S   UNL A   1      46.560  25.691  37.310  1.00  0.00     0.124 S 
ATOM     77  O   UNL A   1      47.820  26.119  36.716  1.00  0.00    -0.237 OA
ATOM     78  O   UNL A   1      46.404  25.947  38.739  1.00  0.00    -0.237 OA
ATOM     79  O   UNL A   1      46.048  24.403  36.851  1.00  0.00    -0.744 OA
ENDBRANCH  75  76
ENDBRANCH  54  68
BRANCH  55  80
ATOM     80  C   UNL A   1      42.724  26.501  27.133  1.00  0.00     0.058 A 
ATOM     81  C   UNL A   1      43.485  26.333  25.959  1.00  0.00     0.135 A 
ATOM     82  C   UNL A   1      42.121  25.334  27.644  1.00  0.00     0.135 A 
ATOM     83  F   UNL A   1      44.125  27.381  25.417  1.00  0.00    -0.206 F 
ATOM     84  C   UNL A   1      43.665  25.082  25.350  1.00  0.00     0.059 A 
ATOM     85  C   UNL A   1      42.281  24.079  27.053  1.00  0.00     0.059 A 
ATOM     86  F   UNL A   1      41.426  25.367  28.791  1.00  0.00    -0.206 F 
ATOM     87  C   UNL A   1      43.070  23.955  25.915  1.00  0.00     0.060 A 
BRANCH  87  88
ATOM     88  S   UNL A   1      43.410  22.315  25.223  1.00  0.00     0.124 S 
ATOM     89  O   UNL A   1      44.527  21.865  26.044  1.00  0.00    -0.237 OA
ATOM     90  O   UNL A   1      42.144  21.620  25.433  1.00  0.00    -0.237 OA
ATOM     91  O   UNL A   1      43.738  22.597  23.827  1.00  0.00    -0.744 OA
ENDBRANCH  87  88
ENDBRANCH  55  80
BRANCH  67  92
ATOM     92  C   UNL A   1      45.019  31.940  29.451  1.00  0.00     0.058 A 
ATOM     93  C   UNL A   1      46.185  32.344  28.775  1.00  0.00     0.135 A 
ATOM     94  C   UNL A   1      43.807  32.506  29.026  1.00  0.00     0.135 A 
ATOM     95  F   UNL A   1      47.373  31.789  29.054  1.00  0.00    -0.206 F 
ATOM     96  C   UNL A   1      46.147  33.291  27.746  1.00  0.00     0.059 A 
ATOM     97  C   UNL A   1      43.742  33.423  27.984  1.00  0.00     0.059 A 
ATOM     98  F   UNL A   1      42.652  32.121  29.593  1.00  0.00    -0.206 F 
ATOM     99  C   UNL A   1      44.918  33.822  27.355  1.00  0.00     0.060 A 
BRANCH  99 100
ATOM    100  S   UNL A   1      44.851  34.992  25.981  1.00  0.00     0.124 S 
ATOM    101  O   UNL A   1      45.533  36.157  26.536  1.00  0.00    -0.237 OA
ATOM    102  O   UNL A   1      45.566  34.283  24.924  1.00  0.00    -0.237 OA
ATOM    103  O   UNL A   1      43.419  35.163  25.746  1.00  0.00    -0.744 OA
ENDBRANCH  99 100
ENDBRANCH  67  92
ENDBRANCH  41  42
ENDBRANCH  33  36
ENDBRANCH  31  32
ENDBRANCH   1  31
TORSDOF 16
ENDMDL
