MODEL 1
REMARK VINA RESULT:     -11.6      0.000      0.000
REMARK SMILES C[C@H]1CC[C@@]1(C(=O)NCCCCNC(=O)c1ccc(-c2c3nc(c(-c4c(F)cc(S(=O)(=O)[O-])cc4F)c4ccc([nH]4)c(-c4c(F)cc(S(=O)(=O)[O-])cc4F)c4nc(c(-c5c(F)cc(S(=O)(=O)[O-])cc5F)c5ccc2[nH]5)C=C4)C=C3)cc1)c1cc(F)cc(F)c1
REMARK SMILES IDX 11 1 10 2 9 3 8 4 6 5 7 6 5 8 1 9 2 10 3 11 4 12 82 13 83 14
REMARK SMILES IDX 89 15 84 16 87 17 85 18 86 19 88 20 12 21 13 22 14 23 15 25
REMARK SMILES IDX 16 26 17 27 81 28 18 29 80 30 19 31 20 32 21 33 74 34 22 35
REMARK SMILES IDX 79 36 73 37 75 38 23 39 78 40 72 41 71 42 24 44 58 45 37 46
REMARK SMILES IDX 57 47 38 48 41 49 56 50 76 51 39 52 40 53 55 55 77 56 42 57
REMARK SMILES IDX 25 58 26 59 35 60 27 61 28 62 34 63 36 64 29 65 30 66 31 67
REMARK SMILES IDX 32 68 33 69 59 70 60 71 69 72 61 73 62 74 68 75 70 76 63 77
REMARK SMILES IDX 64 78 65 79 66 80 67 81 43 82 44 83 53 84 45 85 46 86 52 87
REMARK SMILES IDX 54 88 47 89 48 90 49 91 50 92 51 93
REMARK H PARENT 8 7 13 24 75 43 41 54
REMARK Flexibility Score: inf
ROOT
ATOM      1  C   UNL A   1      31.975  28.034  27.431  1.00  0.00     0.023 C 
ENDROOT
BRANCH   1   2
ATOM      2  C   UNL A   1      31.700  26.817  26.550  1.00  0.00     0.023 C 
BRANCH   2   3
ATOM      3  C   UNL A   1      32.784  26.481  25.528  1.00  0.00     0.116 C 
BRANCH   3   4
ATOM      4  N   UNL A   1      32.267  25.888  24.310  1.00  0.00    -0.355 N 
ATOM      5  C   UNL A   1      32.161  24.561  23.952  1.00  0.00     0.230 C 
ATOM      6  O   UNL A   1      31.658  24.334  22.845  1.00  0.00    -0.274 OA
ATOM      7  H   UNL A   1      31.944  26.530  23.637  1.00  0.00     0.163 HD
BRANCH   5   8
ATOM      8  C   UNL A   1      32.690  23.424  24.957  1.00  0.00     0.077 C 
ATOM      9  C   UNL A   1      32.584  20.724  25.219  1.00  0.00     0.009 C 
ATOM     10  C   UNL A   1      31.910  22.031  24.819  1.00  0.00     0.006 C 
ATOM     11  C   UNL A   1      30.918  22.562  25.878  1.00  0.00     0.006 C 
ATOM     12  C   UNL A   1      32.028  23.493  26.390  1.00  0.00     0.022 C 
BRANCH   8  13
ATOM     13  C   UNL A   1      34.316  23.335  24.816  1.00  0.00    -0.026 A 
ATOM     14  C   UNL A   1      35.194  23.679  25.867  1.00  0.00     0.044 A 
ATOM     15  C   UNL A   1      34.951  22.907  23.626  1.00  0.00     0.044 A 
ATOM     16  C   UNL A   1      36.584  23.632  25.722  1.00  0.00     0.126 A 
ATOM     17  C   UNL A   1      36.341  22.894  23.483  1.00  0.00     0.126 A 
ATOM     18  F   UNL A   1      37.360  23.964  26.761  1.00  0.00    -0.207 F 
ATOM     19  C   UNL A   1      37.169  23.258  24.527  1.00  0.00     0.078 A 
ATOM     20  F   UNL A   1      36.877  22.539  22.309  1.00  0.00    -0.207 F 
ENDBRANCH   8  13
ENDBRANCH   5   8
ENDBRANCH   3   4
ENDBRANCH   2   3
ENDBRANCH   1   2
BRANCH   1  21
ATOM     21  C   UNL A   1      33.367  28.644  27.297  1.00  0.00     0.116 C 
BRANCH  21  22
ATOM     22  N   UNL A   1      33.414  30.049  27.673  1.00  0.00    -0.352 N 
ATOM     23  C   UNL A   1      34.445  30.776  28.221  1.00  0.00     0.251 C 
ATOM     24  H   UNL A   1      32.584  30.555  27.512  1.00  0.00     0.163 HD
ATOM     25  O   UNL A   1      34.252  31.935  28.579  1.00  0.00    -0.269 OA
BRANCH  23  26
ATOM     26  C   UNL A   1      35.770  30.149  28.412  1.00  0.00     0.039 A 
ATOM     27  C   UNL A   1      36.661  30.118  27.335  1.00  0.00     0.014 A 
ATOM     28  C   UNL A   1      36.149  29.632  29.653  1.00  0.00     0.014 A 
ATOM     29  C   UNL A   1      37.967  29.663  27.532  1.00  0.00     0.010 A 
ATOM     30  C   UNL A   1      37.470  29.241  29.864  1.00  0.00     0.010 A 
ATOM     31  C   UNL A   1      38.396  29.276  28.812  1.00  0.00    -0.014 A 
BRANCH  31  32
ATOM     32  C   UNL A   1      39.824  28.971  29.088  1.00  0.00     0.031 A 
ATOM     33  C   UNL A   1      40.744  30.034  29.619  1.00  0.00     0.074 A 
ATOM     34  C   UNL A   1      40.310  27.755  28.766  1.00  0.00     0.049 A 
ATOM     35  N   UNL A   1      42.035  29.982  29.818  1.00  0.00    -0.248 NA
ATOM     36  C   UNL A   1      40.136  31.333  29.948  1.00  0.00     0.031 C 
ATOM     37  C   UNL A   1      39.528  26.656  28.195  1.00  0.00     0.029 A 
ATOM     38  N   UNL A   1      41.581  27.245  28.852  1.00  0.00    -0.354 N 
ATOM     39  C   UNL A   1      42.399  31.240  30.281  1.00  0.00     0.074 A 
ATOM     40  C   UNL A   1      41.198  32.047  30.295  1.00  0.00     0.031 C 
ATOM     41  C   UNL A   1      40.332  25.600  27.994  1.00  0.00     0.029 A 
ATOM     42  C   UNL A   1      41.693  25.958  28.381  1.00  0.00     0.049 A 
ATOM     43  H   UNL A   1      42.342  27.752  29.217  1.00  0.00     0.167 HD
ATOM     44  C   UNL A   1      43.621  31.675  30.675  1.00  0.00     0.037 A 
ATOM     45  C   UNL A   1      42.770  25.159  28.256  1.00  0.00     0.037 A 
ATOM     46  C   UNL A   1      44.808  30.860  30.677  1.00  0.00     0.049 A 
ATOM     47  C   UNL A   1      44.117  25.671  28.686  1.00  0.00     0.074 A 
ATOM     48  C   UNL A   1      46.075  31.188  31.128  1.00  0.00     0.029 A 
ATOM     49  N   UNL A   1      44.879  29.560  30.200  1.00  0.00    -0.354 N 
ATOM     50  N   UNL A   1      44.430  26.842  29.186  1.00  0.00    -0.248 NA
ATOM     51  C   UNL A   1      45.256  24.756  28.530  1.00  0.00     0.031 C 
ATOM     52  C   UNL A   1      46.922  30.101  30.885  1.00  0.00     0.029 A 
ATOM     53  C   UNL A   1      46.174  29.081  30.320  1.00  0.00     0.049 A 
ATOM     54  H   UNL A   1      44.121  29.051  29.831  1.00  0.00     0.167 HD
ATOM     55  C   UNL A   1      45.800  26.801  29.415  1.00  0.00     0.074 A 
ATOM     56  C   UNL A   1      46.252  25.483  29.018  1.00  0.00     0.031 C 
ATOM     57  C   UNL A   1      46.611  27.770  29.909  1.00  0.00     0.037 A 
BRANCH  44  58
ATOM     58  C   UNL A   1      43.734  33.099  31.141  1.00  0.00     0.058 A 
ATOM     59  C   UNL A   1      43.561  33.446  32.490  1.00  0.00     0.135 A 
ATOM     60  C   UNL A   1      44.055  34.125  30.238  1.00  0.00     0.135 A 
ATOM     61  F   UNL A   1      43.239  32.506  33.394  1.00  0.00    -0.206 F 
ATOM     62  C   UNL A   1      43.676  34.762  32.924  1.00  0.00     0.059 A 
ATOM     63  C   UNL A   1      44.199  35.446  30.653  1.00  0.00     0.059 A 
ATOM     64  F   UNL A   1      44.230  33.849  28.936  1.00  0.00    -0.206 F 
ATOM     65  C   UNL A   1      43.993  35.756  31.997  1.00  0.00     0.060 A 
BRANCH  65  66
ATOM     66  S   UNL A   1      44.141  37.461  32.575  1.00  0.00     0.124 S 
ATOM     67  O   UNL A   1      43.143  37.492  33.640  1.00  0.00    -0.237 OA
ATOM     68  O   UNL A   1      45.533  37.524  33.009  1.00  0.00    -0.237 OA
ATOM     69  O   UNL A   1      43.820  38.250  31.391  1.00  0.00    -0.744 OA
ENDBRANCH  65  66
ENDBRANCH  44  58
BRANCH  45  70
ATOM     70  C   UNL A   1      42.616  23.789  27.702  1.00  0.00     0.058 A 
ATOM     71  C   UNL A   1      42.457  22.684  28.551  1.00  0.00     0.135 A 
ATOM     72  C   UNL A   1      42.604  23.559  26.318  1.00  0.00     0.135 A 
ATOM     73  F   UNL A   1      42.470  22.854  29.882  1.00  0.00    -0.206 F 
ATOM     74  C   UNL A   1      42.301  21.397  28.049  1.00  0.00     0.059 A 
ATOM     75  C   UNL A   1      42.426  22.283  25.790  1.00  0.00     0.059 A 
ATOM     76  F   UNL A   1      42.737  24.585  25.463  1.00  0.00    -0.206 F 
ATOM     77  C   UNL A   1      42.283  21.207  26.665  1.00  0.00     0.060 A 
BRANCH  77  78
ATOM     78  S   UNL A   1      42.021  19.539  26.022  1.00  0.00     0.124 S 
ATOM     79  O   UNL A   1      42.832  19.561  24.810  1.00  0.00    -0.237 OA
ATOM     80  O   UNL A   1      42.524  18.707  27.112  1.00  0.00    -0.237 OA
ATOM     81  O   UNL A   1      40.577  19.483  25.818  1.00  0.00    -0.744 OA
ENDBRANCH  77  78
ENDBRANCH  45  70
BRANCH  57  82
ATOM     82  C   UNL A   1      48.070  27.439  30.049  1.00  0.00     0.058 A 
ATOM     83  C   UNL A   1      48.997  27.787  29.055  1.00  0.00     0.135 A 
ATOM     84  C   UNL A   1      48.553  26.811  31.208  1.00  0.00     0.135 A 
ATOM     85  F   UNL A   1      48.584  28.379  27.923  1.00  0.00    -0.206 F 
ATOM     86  C   UNL A   1      50.352  27.507  29.197  1.00  0.00     0.059 A 
ATOM     87  C   UNL A   1      49.908  26.543  31.381  1.00  0.00     0.059 A 
ATOM     88  F   UNL A   1      47.708  26.465  32.192  1.00  0.00    -0.206 F 
ATOM     89  C   UNL A   1      50.798  26.886  30.364  1.00  0.00     0.060 A 
BRANCH  89  90
ATOM     90  S   UNL A   1      52.564  26.563  30.554  1.00  0.00     0.124 S 
ATOM     91  O   UNL A   1      52.559  25.452  31.500  1.00  0.00    -0.237 OA
ATOM     92  O   UNL A   1      52.971  26.232  29.191  1.00  0.00    -0.237 OA
ATOM     93  O   UNL A   1      53.087  27.824  31.069  1.00  0.00    -0.744 OA
ENDBRANCH  89  90
ENDBRANCH  57  82
ENDBRANCH  31  32
ENDBRANCH  23  26
ENDBRANCH  21  22
ENDBRANCH   1  21
TORSDOF 15
ENDMDL
MODEL 2
REMARK VINA RESULT:     -11.5      0.916      1.969
REMARK SMILES C[C@H]1CC[C@@]1(C(=O)NCCCCNC(=O)c1ccc(-c2c3nc(c(-c4c(F)cc(S(=O)(=O)[O-])cc4F)c4ccc([nH]4)c(-c4c(F)cc(S(=O)(=O)[O-])cc4F)c4nc(c(-c5c(F)cc(S(=O)(=O)[O-])cc5F)c5ccc2[nH]5)C=C4)C=C3)cc1)c1cc(F)cc(F)c1
REMARK SMILES IDX 11 1 10 2 9 3 8 4 6 5 7 6 5 8 1 9 2 10 3 11 4 12 82 13 83 14
REMARK SMILES IDX 89 15 84 16 87 17 85 18 86 19 88 20 12 21 13 22 14 23 15 25
REMARK SMILES IDX 16 26 17 27 81 28 18 29 80 30 19 31 20 32 21 33 74 34 22 35
REMARK SMILES IDX 79 36 73 37 75 38 23 39 78 40 72 41 71 42 24 44 58 45 37 46
REMARK SMILES IDX 57 47 38 48 41 49 56 50 76 51 39 52 40 53 55 55 77 56 42 57
REMARK SMILES IDX 25 58 26 59 35 60 27 61 28 62 34 63 36 64 29 65 30 66 31 67
REMARK SMILES IDX 32 68 33 69 59 70 60 71 69 72 61 73 62 74 68 75 70 76 63 77
REMARK SMILES IDX 64 78 65 79 66 80 67 81 43 82 44 83 53 84 45 85 46 86 52 87
REMARK SMILES IDX 54 88 47 89 48 90 49 91 50 92 51 93
REMARK H PARENT 8 7 13 24 75 43 41 54
REMARK Flexibility Score: inf
ROOT
ATOM      1  C   UNL A   1      33.480  28.128  26.059  1.00  0.00     0.023 C 
ENDROOT
BRANCH   1   2
ATOM      2  C   UNL A   1      33.971  26.703  25.809  1.00  0.00     0.023 C 
BRANCH   2   3
ATOM      3  C   UNL A   1      32.899  25.700  25.388  1.00  0.00     0.116 C 
BRANCH   3   4
ATOM      4  N   UNL A   1      32.672  24.652  26.365  1.00  0.00    -0.355 N 
ATOM      5  C   UNL A   1      32.879  23.293  26.265  1.00  0.00     0.230 C 
ATOM      6  O   UNL A   1      32.614  22.625  27.271  1.00  0.00    -0.274 OA
ATOM      7  H   UNL A   1      32.314  24.958  27.230  1.00  0.00     0.163 HD
BRANCH   5   8
ATOM      8  C   UNL A   1      33.426  22.674  24.886  1.00  0.00     0.077 C 
ATOM      9  C   UNL A   1      33.770  23.436  22.303  1.00  0.00     0.009 C 
ATOM     10  C   UNL A   1      32.948  23.480  23.586  1.00  0.00     0.006 C 
ATOM     11  C   UNL A   1      31.709  22.556  23.555  1.00  0.00     0.006 C 
ATOM     12  C   UNL A   1      32.527  21.504  24.321  1.00  0.00     0.022 C 
BRANCH   8  13
ATOM     13  C   UNL A   1      35.041  22.464  25.027  1.00  0.00    -0.026 A 
ATOM     14  C   UNL A   1      35.673  21.220  24.802  1.00  0.00     0.044 A 
ATOM     15  C   UNL A   1      35.914  23.518  25.387  1.00  0.00     0.044 A 
ATOM     16  C   UNL A   1      37.050  21.045  24.960  1.00  0.00     0.126 A 
ATOM     17  C   UNL A   1      37.285  23.323  25.572  1.00  0.00     0.126 A 
ATOM     18  F   UNL A   1      37.587  19.842  24.722  1.00  0.00    -0.207 F 
ATOM     19  C   UNL A   1      37.865  22.087  25.362  1.00  0.00     0.078 A 
ATOM     20  F   UNL A   1      38.046  24.348  25.975  1.00  0.00    -0.207 F 
ENDBRANCH   8  13
ENDBRANCH   5   8
ENDBRANCH   3   4
ENDBRANCH   2   3
ENDBRANCH   1   2
BRANCH   1  21
ATOM     21  C   UNL A   1      33.299  28.515  27.523  1.00  0.00     0.116 C 
BRANCH  21  22
ATOM     22  N   UNL A   1      33.385  29.950  27.750  1.00  0.00    -0.352 N 
ATOM     23  C   UNL A   1      34.448  30.708  28.180  1.00  0.00     0.251 C 
ATOM     24  H   UNL A   1      32.558  30.454  27.568  1.00  0.00     0.163 HD
ATOM     25  O   UNL A   1      34.289  31.902  28.424  1.00  0.00    -0.269 OA
BRANCH  23  26
ATOM     26  C   UNL A   1      35.769  30.077  28.386  1.00  0.00     0.039 A 
ATOM     27  C   UNL A   1      36.663  30.024  27.313  1.00  0.00     0.014 A 
ATOM     28  C   UNL A   1      36.141  29.577  29.636  1.00  0.00     0.014 A 
ATOM     29  C   UNL A   1      37.966  29.564  27.521  1.00  0.00     0.010 A 
ATOM     30  C   UNL A   1      37.458  29.182  29.858  1.00  0.00     0.010 A 
ATOM     31  C   UNL A   1      38.389  29.195  28.808  1.00  0.00    -0.014 A 
BRANCH  31  32
ATOM     32  C   UNL A   1      39.814  28.886  29.094  1.00  0.00     0.031 A 
ATOM     33  C   UNL A   1      40.732  29.945  29.636  1.00  0.00     0.074 A 
ATOM     34  C   UNL A   1      40.300  27.670  28.772  1.00  0.00     0.049 A 
ATOM     35  N   UNL A   1      42.021  29.889  29.844  1.00  0.00    -0.248 NA
ATOM     36  C   UNL A   1      40.125  31.244  29.965  1.00  0.00     0.031 C 
ATOM     37  C   UNL A   1      39.520  26.575  28.191  1.00  0.00     0.029 A 
ATOM     38  N   UNL A   1      41.569  27.157  28.866  1.00  0.00    -0.354 N 
ATOM     39  C   UNL A   1      42.385  31.145  30.315  1.00  0.00     0.074 A 
ATOM     40  C   UNL A   1      41.185  31.955  30.323  1.00  0.00     0.031 C 
ATOM     41  C   UNL A   1      40.323  25.518  27.992  1.00  0.00     0.029 A 
ATOM     42  C   UNL A   1      41.682  25.871  28.391  1.00  0.00     0.049 A 
ATOM     43  H   UNL A   1      42.328  27.661  29.238  1.00  0.00     0.167 HD
ATOM     44  C   UNL A   1      43.604  31.576  30.719  1.00  0.00     0.037 A 
ATOM     45  C   UNL A   1      42.759  25.071  28.271  1.00  0.00     0.037 A 
ATOM     46  C   UNL A   1      44.790  30.759  30.727  1.00  0.00     0.049 A 
ATOM     47  C   UNL A   1      44.103  25.578  28.713  1.00  0.00     0.074 A 
ATOM     48  C   UNL A   1      46.054  31.083  31.190  1.00  0.00     0.029 A 
ATOM     49  N   UNL A   1      44.861  29.460  30.247  1.00  0.00    -0.354 N 
ATOM     50  N   UNL A   1      44.415  26.747  29.219  1.00  0.00    -0.248 NA
ATOM     51  C   UNL A   1      45.242  24.662  28.563  1.00  0.00     0.031 C 
ATOM     52  C   UNL A   1      46.901  29.995  30.949  1.00  0.00     0.029 A 
ATOM     53  C   UNL A   1      46.154  28.979  30.375  1.00  0.00     0.049 A 
ATOM     54  H   UNL A   1      44.105  28.954  29.870  1.00  0.00     0.167 HD
ATOM     55  C   UNL A   1      45.783  26.703  29.459  1.00  0.00     0.074 A 
ATOM     56  C   UNL A   1      46.235  25.385  29.060  1.00  0.00     0.031 C 
ATOM     57  C   UNL A   1      46.592  27.668  29.962  1.00  0.00     0.037 A 
BRANCH  44  58
ATOM     58  C   UNL A   1      43.717  32.999  31.191  1.00  0.00     0.058 A 
ATOM     59  C   UNL A   1      43.939  34.055  30.293  1.00  0.00     0.135 A 
ATOM     60  C   UNL A   1      43.564  33.317  32.550  1.00  0.00     0.135 A 
ATOM     61  F   UNL A   1      44.107  33.806  28.985  1.00  0.00    -0.206 F 
ATOM     62  C   UNL A   1      44.033  35.372  30.729  1.00  0.00     0.059 A 
ATOM     63  C   UNL A   1      43.631  34.630  33.006  1.00  0.00     0.059 A 
ATOM     64  F   UNL A   1      43.351  32.345  33.451  1.00  0.00    -0.206 F 
ATOM     65  C   UNL A   1      43.880  35.650  32.088  1.00  0.00     0.060 A 
BRANCH  65  66
ATOM     66  S   UNL A   1      44.003  37.366  32.638  1.00  0.00     0.124 S 
ATOM     67  O   UNL A   1      45.365  37.405  33.161  1.00  0.00    -0.237 OA
ATOM     68  O   UNL A   1      43.777  38.107  31.401  1.00  0.00    -0.237 OA
ATOM     69  O   UNL A   1      42.943  37.480  33.635  1.00  0.00    -0.744 OA
ENDBRANCH  65  66
ENDBRANCH  44  58
BRANCH  45  70
ATOM     70  C   UNL A   1      42.606  23.703  27.711  1.00  0.00     0.058 A 
ATOM     71  C   UNL A   1      42.633  23.486  26.326  1.00  0.00     0.135 A 
ATOM     72  C   UNL A   1      42.450  22.586  28.546  1.00  0.00     0.135 A 
ATOM     73  F   UNL A   1      42.772  24.526  25.488  1.00  0.00    -0.206 F 
ATOM     74  C   UNL A   1      42.503  22.212  25.785  1.00  0.00     0.059 A 
ATOM     75  C   UNL A   1      42.341  21.298  28.030  1.00  0.00     0.059 A 
ATOM     76  F   UNL A   1      42.434  22.738  29.879  1.00  0.00    -0.206 F 
ATOM     77  C   UNL A   1      42.360  21.122  26.647  1.00  0.00     0.060 A 
BRANCH  77  78
ATOM     78  S   UNL A   1      42.250  19.465  25.937  1.00  0.00     0.124 S 
ATOM     79  O   UNL A   1      40.822  19.358  25.662  1.00  0.00    -0.237 OA
ATOM     80  O   UNL A   1      43.119  19.571  24.769  1.00  0.00    -0.237 OA
ATOM     81  O   UNL A   1      42.754  18.610  27.007  1.00  0.00    -0.744 OA
ENDBRANCH  77  78
ENDBRANCH  45  70
BRANCH  57  82
ATOM     82  C   UNL A   1      48.049  27.334  30.112  1.00  0.00     0.058 A 
ATOM     83  C   UNL A   1      48.995  27.744  29.160  1.00  0.00     0.135 A 
ATOM     84  C   UNL A   1      48.511  26.638  31.241  1.00  0.00     0.135 A 
ATOM     85  F   UNL A   1      48.602  28.403  28.058  1.00  0.00    -0.206 F 
ATOM     86  C   UNL A   1      50.348  27.460  29.313  1.00  0.00     0.059 A 
ATOM     87  C   UNL A   1      49.863  26.364  31.425  1.00  0.00     0.059 A 
ATOM     88  F   UNL A   1      47.648  26.231  32.185  1.00  0.00    -0.206 F 
ATOM     89  C   UNL A   1      50.773  26.771  30.450  1.00  0.00     0.060 A 
BRANCH  89  90
ATOM     90  S   UNL A   1      52.536  26.442  30.656  1.00  0.00     0.124 S 
ATOM     91  O   UNL A   1      52.933  26.106  29.292  1.00  0.00    -0.237 OA
ATOM     92  O   UNL A   1      53.036  27.715  31.166  1.00  0.00    -0.237 OA
ATOM     93  O   UNL A   1      52.566  25.337  31.609  1.00  0.00    -0.744 OA
ENDBRANCH  89  90
ENDBRANCH  57  82
ENDBRANCH  31  32
ENDBRANCH  23  26
ENDBRANCH  21  22
ENDBRANCH   1  21
TORSDOF 15
ENDMDL
MODEL 3
REMARK VINA RESULT:     -11.3      2.669      3.810
REMARK SMILES C[C@H]1CC[C@@]1(C(=O)NCCCCNC(=O)c1ccc(-c2c3nc(c(-c4c(F)cc(S(=O)(=O)[O-])cc4F)c4ccc([nH]4)c(-c4c(F)cc(S(=O)(=O)[O-])cc4F)c4nc(c(-c5c(F)cc(S(=O)(=O)[O-])cc5F)c5ccc2[nH]5)C=C4)C=C3)cc1)c1cc(F)cc(F)c1
REMARK SMILES IDX 11 1 10 2 9 3 8 4 6 5 7 6 5 8 1 9 2 10 3 11 4 12 82 13 83 14
REMARK SMILES IDX 89 15 84 16 87 17 85 18 86 19 88 20 12 21 13 22 14 23 15 25
REMARK SMILES IDX 16 26 17 27 81 28 18 29 80 30 19 31 20 32 21 33 74 34 22 35
REMARK SMILES IDX 79 36 73 37 75 38 23 39 78 40 72 41 71 42 24 44 58 45 37 46
REMARK SMILES IDX 57 47 38 48 41 49 56 50 76 51 39 52 40 53 55 55 77 56 42 57
REMARK SMILES IDX 25 58 26 59 35 60 27 61 28 62 34 63 36 64 29 65 30 66 31 67
REMARK SMILES IDX 32 68 33 69 59 70 60 71 69 72 61 73 62 74 68 75 70 76 63 77
REMARK SMILES IDX 64 78 65 79 66 80 67 81 43 82 44 83 53 84 45 85 46 86 52 87
REMARK SMILES IDX 54 88 47 89 48 90 49 91 50 92 51 93
REMARK H PARENT 8 7 13 24 75 43 41 54
REMARK Flexibility Score: inf
ROOT
ATOM      1  C   UNL A   1      33.850  29.037  27.449  1.00  0.00     0.023 C 
ENDROOT
BRANCH   1   2
ATOM      2  C   UNL A   1      32.579  29.868  27.281  1.00  0.00     0.023 C 
BRANCH   2   3
ATOM      3  C   UNL A   1      31.977  29.879  25.878  1.00  0.00     0.116 C 
BRANCH   3   4
ATOM      4  N   UNL A   1      32.968  29.803  24.822  1.00  0.00    -0.355 N 
ATOM      5  C   UNL A   1      33.123  28.864  23.824  1.00  0.00     0.230 C 
ATOM      6  O   UNL A   1      34.055  29.057  23.035  1.00  0.00    -0.274 OA
ATOM      7  H   UNL A   1      33.631  30.530  24.818  1.00  0.00     0.163 HD
BRANCH   5   8
ATOM      8  C   UNL A   1      32.120  27.610  23.752  1.00  0.00     0.077 C 
ATOM      9  C   UNL A   1      31.287  25.766  21.943  1.00  0.00     0.009 C 
ATOM     10  C   UNL A   1      31.719  27.193  22.258  1.00  0.00     0.006 C 
ATOM     11  C   UNL A   1      30.536  28.182  22.375  1.00  0.00     0.006 C 
ATOM     12  C   UNL A   1      30.599  28.011  23.901  1.00  0.00     0.022 C 
BRANCH   8  13
ATOM     13  C   UNL A   1      32.739  26.410  24.674  1.00  0.00    -0.026 A 
ATOM     14  C   UNL A   1      34.067  25.950  24.539  1.00  0.00     0.044 A 
ATOM     15  C   UNL A   1      31.979  25.751  25.670  1.00  0.00     0.044 A 
ATOM     16  C   UNL A   1      34.574  24.899  25.309  1.00  0.00     0.126 A 
ATOM     17  C   UNL A   1      32.487  24.682  26.412  1.00  0.00     0.126 A 
ATOM     18  F   UNL A   1      35.845  24.517  25.137  1.00  0.00    -0.207 F 
ATOM     19  C   UNL A   1      33.786  24.245  26.238  1.00  0.00     0.078 A 
ATOM     20  F   UNL A   1      31.695  24.061  27.295  1.00  0.00    -0.207 F 
ENDBRANCH   8  13
ENDBRANCH   5   8
ENDBRANCH   3   4
ENDBRANCH   2   3
ENDBRANCH   1   2
BRANCH   1  21
ATOM     21  C   UNL A   1      35.146  29.831  27.569  1.00  0.00     0.116 C 
BRANCH  21  22
ATOM     22  N   UNL A   1      35.247  30.577  28.815  1.00  0.00    -0.352 N 
ATOM     23  C   UNL A   1      36.280  30.638  29.720  1.00  0.00     0.251 C 
ATOM     24  H   UNL A   1      34.457  31.119  29.044  1.00  0.00     0.163 HD
ATOM     25  O   UNL A   1      36.129  31.238  30.781  1.00  0.00    -0.269 OA
BRANCH  23  26
ATOM     26  C   UNL A   1      37.556  29.947  29.432  1.00  0.00     0.039 A 
ATOM     27  C   UNL A   1      37.995  29.873  28.107  1.00  0.00     0.014 A 
ATOM     28  C   UNL A   1      38.332  29.411  30.461  1.00  0.00     0.014 A 
ATOM     29  C   UNL A   1      39.262  29.356  27.827  1.00  0.00     0.010 A 
ATOM     30  C   UNL A   1      39.621  28.957  30.189  1.00  0.00     0.010 A 
ATOM     31  C   UNL A   1      40.106  28.947  28.873  1.00  0.00    -0.014 A 
BRANCH  31  32
ATOM     32  C   UNL A   1      41.521  28.573  28.621  1.00  0.00     0.031 A 
ATOM     33  C   UNL A   1      42.601  29.619  28.620  1.00  0.00     0.074 A 
ATOM     34  C   UNL A   1      41.817  27.297  28.298  1.00  0.00     0.049 A 
ATOM     35  N   UNL A   1      43.866  29.496  28.317  1.00  0.00    -0.248 NA
ATOM     36  C   UNL A   1      42.199  30.986  28.985  1.00  0.00     0.031 C 
ATOM     37  C   UNL A   1      40.849  26.201  28.216  1.00  0.00     0.029 A 
ATOM     38  N   UNL A   1      43.010  26.710  27.959  1.00  0.00    -0.354 N 
ATOM     39  C   UNL A   1      44.411  30.769  28.440  1.00  0.00     0.074 A 
ATOM     40  C   UNL A   1      43.328  31.656  28.806  1.00  0.00     0.031 C 
ATOM     41  C   UNL A   1      41.487  25.074  27.862  1.00  0.00     0.029 A 
ATOM     42  C   UNL A   1      42.900  25.374  27.652  1.00  0.00     0.049 A 
ATOM     43  H   UNL A   1      43.864  27.198  27.938  1.00  0.00     0.167 HD
ATOM     44  C   UNL A   1      45.700  31.156  28.278  1.00  0.00     0.037 A 
ATOM     45  C   UNL A   1      43.826  24.491  27.230  1.00  0.00     0.037 A 
ATOM     46  C   UNL A   1      46.776  30.263  27.933  1.00  0.00     0.049 A 
ATOM     47  C   UNL A   1      45.246  24.949  27.045  1.00  0.00     0.074 A 
ATOM     48  C   UNL A   1      48.126  30.547  27.822  1.00  0.00     0.029 A 
ATOM     49  N   UNL A   1      46.626  28.916  27.638  1.00  0.00    -0.354 N 
ATOM     50  N   UNL A   1      45.755  26.143  27.232  1.00  0.00    -0.248 NA
ATOM     51  C   UNL A   1      46.214  23.943  26.587  1.00  0.00     0.031 C 
ATOM     52  C   UNL A   1      48.787  29.382  27.417  1.00  0.00     0.029 A 
ATOM     53  C   UNL A   1      47.855  28.362  27.317  1.00  0.00     0.049 A 
ATOM     54  H   UNL A   1      45.773  28.426  27.655  1.00  0.00     0.167 HD
ATOM     55  C   UNL A   1      47.106  26.029  26.925  1.00  0.00     0.074 A 
ATOM     56  C   UNL A   1      47.338  24.647  26.559  1.00  0.00     0.031 C 
ATOM     57  C   UNL A   1      48.068  26.986  26.943  1.00  0.00     0.037 A 
BRANCH  44  58
ATOM     58  C   UNL A   1      46.018  32.611  28.478  1.00  0.00     0.058 A 
ATOM     59  C   UNL A   1      46.373  33.119  29.738  1.00  0.00     0.135 A 
ATOM     60  C   UNL A   1      46.006  33.502  27.394  1.00  0.00     0.135 A 
ATOM     61  F   UNL A   1      46.386  32.313  30.812  1.00  0.00    -0.206 F 
ATOM     62  C   UNL A   1      46.677  34.463  29.921  1.00  0.00     0.059 A 
ATOM     63  C   UNL A   1      46.331  34.847  27.548  1.00  0.00     0.059 A 
ATOM     64  F   UNL A   1      45.674  33.069  26.167  1.00  0.00    -0.206 F 
ATOM     65  C   UNL A   1      46.652  35.321  28.820  1.00  0.00     0.060 A 
BRANCH  65  66
ATOM     66  S   UNL A   1      47.052  37.063  29.073  1.00  0.00     0.124 S 
ATOM     67  O   UNL A   1      47.321  37.499  27.707  1.00  0.00    -0.237 OA
ATOM     68  O   UNL A   1      45.827  37.581  29.674  1.00  0.00    -0.237 OA
ATOM     69  O   UNL A   1      48.211  37.020  29.959  1.00  0.00    -0.744 OA
ENDBRANCH  65  66
ENDBRANCH  44  58
BRANCH  45  70
ATOM     70  C   UNL A   1      43.437  23.083  26.959  1.00  0.00     0.058 A 
ATOM     71  C   UNL A   1      43.358  22.600  25.645  1.00  0.00     0.135 A 
ATOM     72  C   UNL A   1      43.157  22.189  28.003  1.00  0.00     0.135 A 
ATOM     73  F   UNL A   1      43.610  23.420  24.613  1.00  0.00    -0.206 F 
ATOM     74  C   UNL A   1      43.006  21.282  25.373  1.00  0.00     0.059 A 
ATOM     75  C   UNL A   1      42.825  20.859  27.758  1.00  0.00     0.059 A 
ATOM     76  F   UNL A   1      43.234  22.598  29.279  1.00  0.00    -0.206 F 
ATOM     77  C   UNL A   1      42.745  20.418  26.438  1.00  0.00     0.060 A 
BRANCH  77  78
ATOM     78  S   UNL A   1      42.345  18.693  26.078  1.00  0.00     0.124 S 
ATOM     79  O   UNL A   1      42.607  18.056  27.363  1.00  0.00    -0.237 OA
ATOM     80  O   UNL A   1      40.943  18.779  25.681  1.00  0.00    -0.237 OA
ATOM     81  O   UNL A   1      43.272  18.354  25.002  1.00  0.00    -0.744 OA
ENDBRANCH  77  78
ENDBRANCH  45  70
BRANCH  57  82
ATOM     82  C   UNL A   1      49.459  26.569  26.559  1.00  0.00     0.058 A 
ATOM     83  C   UNL A   1      50.319  25.954  27.480  1.00  0.00     0.135 A 
ATOM     84  C   UNL A   1      49.921  26.745  25.245  1.00  0.00     0.135 A 
ATOM     85  F   UNL A   1      49.928  25.773  28.752  1.00  0.00    -0.206 F 
ATOM     86  C   UNL A   1      51.597  25.542  27.118  1.00  0.00     0.059 A 
ATOM     87  C   UNL A   1      51.187  26.319  24.854  1.00  0.00     0.059 A 
ATOM     88  F   UNL A   1      49.134  27.322  24.322  1.00  0.00    -0.206 F 
ATOM     89  C   UNL A   1      52.021  25.727  25.801  1.00  0.00     0.060 A 
BRANCH  89  90
ATOM     90  S   UNL A   1      53.668  25.154  25.332  1.00  0.00     0.124 S 
ATOM     91  O   UNL A   1      54.492  25.736  26.386  1.00  0.00    -0.237 OA
ATOM     92  O   UNL A   1      53.519  23.702  25.374  1.00  0.00    -0.237 OA
ATOM     93  O   UNL A   1      53.858  25.720  24.000  1.00  0.00    -0.744 OA
ENDBRANCH  89  90
ENDBRANCH  57  82
ENDBRANCH  31  32
ENDBRANCH  23  26
ENDBRANCH  21  22
ENDBRANCH   1  21
TORSDOF 15
ENDMDL
