MODEL 1
REMARK VINA RESULT:     -12.7      0.000      0.000
REMARK SMILES Cc1ccc([C@@H](C)[NH2+][C@@H](C)CCC(=O)NCCCCNC(=O)c2ccc(-c3c4nc(c(-c5c(F)cc(S(=O)(=O)[O-])cc5F)c5ccc([nH]5)c(-c5c(F)cc(S(=O)(=O)[O-])cc5F)c5nc(c(-c6c(F)cc(S(=O)(=O)[O-])cc6F)c6ccc3[nH]6)C=C5)C=C4)cc2)cc1F
REMARK SMILES IDX 16 1 15 2 13 3 14 4 12 6 11 7 9 8 10 9 8 10 6 13 7 14 5 15
REMARK SMILES IDX 1 16 2 17 3 18 90 19 4 20 89 21 91 22 17 23 18 24 19 25
REMARK SMILES IDX 20 26 21 27 22 29 23 30 24 31 88 32 25 33 87 34 26 35 27 36
REMARK SMILES IDX 28 37 81 38 29 39 86 40 80 41 82 42 30 43 85 44 79 45 78 46
REMARK SMILES IDX 31 48 65 49 44 50 64 51 45 52 48 53 63 54 83 55 46 56 47 57
REMARK SMILES IDX 62 59 84 60 49 61 32 62 33 63 42 64 34 65 35 66 41 67 43 68
REMARK SMILES IDX 36 69 37 70 38 71 39 72 40 73 66 74 67 75 76 76 68 77 69 78
REMARK SMILES IDX 75 79 77 80 70 81 71 82 72 83 73 84 74 85 50 86 51 87 60 88
REMARK SMILES IDX 52 89 53 90 59 91 61 92 54 93 55 94 56 95 57 96 58 97
REMARK H PARENT 15 5 8 11 8 12 20 28 82 47 48 58
REMARK Flexibility Score: inf
ROOT
ATOM      1  C   UNL A   1      33.674  28.363  25.009  1.00  0.00     0.116 C 
ENDROOT
BRANCH   1   2
ATOM      2  N   UNL A   1      32.823  27.840  23.961  1.00  0.00    -0.356 N 
ATOM      3  C   UNL A   1      31.716  27.054  24.072  1.00  0.00     0.220 C 
ATOM      4  O   UNL A   1      31.276  26.519  23.051  1.00  0.00    -0.275 OA
ATOM      5  H   UNL A   1      33.078  28.087  23.042  1.00  0.00     0.163 HD
BRANCH   3   6
ATOM      6  C   UNL A   1      31.026  26.859  25.413  1.00  0.00     0.106 C 
BRANCH   6   7
ATOM      7  C   UNL A   1      31.705  25.837  26.333  1.00  0.00     0.074 C 
BRANCH   7   8
ATOM      8  C   UNL A   1      31.783  24.393  25.788  1.00  0.00     0.180 C 
ATOM      9  C   UNL A   1      30.670  23.545  26.413  1.00  0.00     0.075 C 
BRANCH   8  10
ATOM     10  N   UNL A   1      33.118  23.825  26.009  1.00  0.00    -0.338 N 
ATOM     11  H   UNL A   1      33.668  24.509  26.528  1.00  0.00     0.347 HD
ATOM     12  H   UNL A   1      32.967  22.948  26.508  1.00  0.00     0.347 HD
BRANCH  10  13
ATOM     13  C   UNL A   1      33.876  23.465  24.792  1.00  0.00     0.210 C 
ATOM     14  C   UNL A   1      33.158  22.476  23.870  1.00  0.00     0.081 C 
BRANCH  13  15
ATOM     15  C   UNL A   1      35.252  22.910  25.141  1.00  0.00     0.012 A 
ATOM     16  C   UNL A   1      39.288  21.508  25.854  1.00  0.00     0.047 C 
ATOM     17  C   UNL A   1      37.890  21.998  25.637  1.00  0.00    -0.015 A 
ATOM     18  C   UNL A   1      37.536  23.321  25.916  1.00  0.00     0.007 A 
ATOM     19  C   UNL A   1      36.916  21.145  25.115  1.00  0.00     0.126 A 
ATOM     20  C   UNL A   1      36.233  23.769  25.670  1.00  0.00     0.010 A 
ATOM     21  C   UNL A   1      35.616  21.585  24.865  1.00  0.00     0.049 A 
ATOM     22  F   UNL A   1      37.232  19.873  24.824  1.00  0.00    -0.207 F 
ENDBRANCH  13  15
ENDBRANCH  10  13
ENDBRANCH   8  10
ENDBRANCH   7   8
ENDBRANCH   6   7
ENDBRANCH   3   6
ENDBRANCH   1   2
BRANCH   1  23
ATOM     23  C   UNL A   1      32.992  29.564  25.677  1.00  0.00     0.023 C 
BRANCH  23  24
ATOM     24  C   UNL A   1      33.093  29.587  27.198  1.00  0.00     0.023 C 
BRANCH  24  25
ATOM     25  C   UNL A   1      34.536  29.436  27.650  1.00  0.00     0.116 C 
BRANCH  25  26
ATOM     26  N   UNL A   1      35.014  30.612  28.380  1.00  0.00    -0.352 N 
ATOM     27  C   UNL A   1      36.083  30.622  29.273  1.00  0.00     0.251 C 
ATOM     28  H   UNL A   1      34.544  31.464  28.225  1.00  0.00     0.163 HD
ATOM     29  O   UNL A   1      36.068  31.335  30.251  1.00  0.00    -0.269 OA
BRANCH  27  30
ATOM     30  C   UNL A   1      37.185  29.694  28.930  1.00  0.00     0.039 A 
ATOM     31  C   UNL A   1      37.980  29.838  27.792  1.00  0.00     0.014 A 
ATOM     32  C   UNL A   1      37.485  28.747  29.903  1.00  0.00     0.014 A 
ATOM     33  C   UNL A   1      39.179  29.122  27.715  1.00  0.00     0.010 A 
ATOM     34  C   UNL A   1      38.717  28.165  29.902  1.00  0.00     0.010 A 
ATOM     35  C   UNL A   1      39.570  28.339  28.806  1.00  0.00    -0.014 A 
BRANCH  35  36
ATOM     36  C   UNL A   1      40.854  27.665  28.964  1.00  0.00     0.031 A 
ATOM     37  C   UNL A   1      41.065  26.267  28.547  1.00  0.00     0.074 A 
ATOM     38  C   UNL A   1      41.880  28.446  29.364  1.00  0.00     0.049 A 
ATOM     39  N   UNL A   1      42.106  25.575  28.862  1.00  0.00    -0.248 NA
ATOM     40  C   UNL A   1      40.094  25.508  27.765  1.00  0.00     0.031 C 
ATOM     41  C   UNL A   1      43.313  28.218  29.312  1.00  0.00     0.029 A 
ATOM     42  N   UNL A   1      41.761  29.628  30.084  1.00  0.00    -0.354 N 
ATOM     43  C   UNL A   1      42.084  24.407  28.131  1.00  0.00     0.074 A 
ATOM     44  C   UNL A   1      40.751  24.355  27.581  1.00  0.00     0.031 C 
ATOM     45  C   UNL A   1      43.910  29.065  30.173  1.00  0.00     0.029 A 
ATOM     46  C   UNL A   1      42.859  29.733  30.933  1.00  0.00     0.049 A 
ATOM     47  H   UNL A   1      41.027  30.280  30.005  1.00  0.00     0.167 HD
ATOM     48  C   UNL A   1      43.249  23.705  27.991  1.00  0.00     0.037 A 
ATOM     49  C   UNL A   1      42.616  29.571  32.274  1.00  0.00     0.037 A 
ATOM     50  C   UNL A   1      44.270  24.253  28.893  1.00  0.00     0.049 A 
ATOM     51  C   UNL A   1      43.176  28.276  32.826  1.00  0.00     0.074 A 
ATOM     52  C   UNL A   1      45.320  25.141  28.733  1.00  0.00     0.029 A 
ATOM     53  N   UNL A   1      44.084  24.119  30.258  1.00  0.00    -0.354 N 
ATOM     54  N   UNL A   1      43.719  27.340  32.096  1.00  0.00    -0.248 NA
ATOM     55  C   UNL A   1      43.133  27.918  34.243  1.00  0.00     0.031 C 
ATOM     56  C   UNL A   1      45.663  25.642  30.028  1.00  0.00     0.029 A 
ATOM     57  C   UNL A   1      44.853  25.024  30.966  1.00  0.00     0.049 A 
ATOM     58  H   UNL A   1      43.480  23.461  30.673  1.00  0.00     0.167 HD
ATOM     59  C   UNL A   1      44.074  26.289  32.885  1.00  0.00     0.074 A 
ATOM     60  C   UNL A   1      43.691  26.695  34.227  1.00  0.00     0.031 C 
ATOM     61  C   UNL A   1      44.646  25.151  32.400  1.00  0.00     0.037 A 
BRANCH  48  62
ATOM     62  C   UNL A   1      43.573  22.646  26.944  1.00  0.00     0.058 A 
ATOM     63  C   UNL A   1      42.862  21.421  26.944  1.00  0.00     0.135 A 
ATOM     64  C   UNL A   1      44.613  22.702  25.992  1.00  0.00     0.135 A 
ATOM     65  F   UNL A   1      41.825  21.217  27.770  1.00  0.00    -0.206 F 
ATOM     66  C   UNL A   1      43.189  20.338  26.119  1.00  0.00     0.059 A 
ATOM     67  C   UNL A   1      44.945  21.643  25.140  1.00  0.00     0.059 A 
ATOM     68  F   UNL A   1      45.398  23.772  25.845  1.00  0.00    -0.206 F 
ATOM     69  C   UNL A   1      44.244  20.453  25.225  1.00  0.00     0.060 A 
BRANCH  69  70
ATOM     70  S   UNL A   1      44.696  19.042  24.201  1.00  0.00     0.124 S 
ATOM     71  O   UNL A   1      43.770  18.018  24.672  1.00  0.00    -0.237 OA
ATOM     72  O   UNL A   1      44.456  19.549  22.853  1.00  0.00    -0.237 OA
ATOM     73  O   UNL A   1      46.099  18.813  24.537  1.00  0.00    -0.744 OA
ENDBRANCH  69  70
ENDBRANCH  48  62
BRANCH  49  74
ATOM     74  C   UNL A   1      41.307  30.196  32.674  1.00  0.00     0.058 A 
ATOM     75  C   UNL A   1      40.288  29.324  33.114  1.00  0.00     0.135 A 
ATOM     76  C   UNL A   1      41.245  31.531  33.113  1.00  0.00     0.135 A 
ATOM     77  F   UNL A   1      40.289  28.040  32.720  1.00  0.00    -0.206 F 
ATOM     78  C   UNL A   1      39.377  29.699  34.097  1.00  0.00     0.059 A 
ATOM     79  C   UNL A   1      40.329  31.930  34.092  1.00  0.00     0.059 A 
ATOM     80  F   UNL A   1      42.169  32.417  32.716  1.00  0.00    -0.206 F 
ATOM     81  C   UNL A   1      39.454  30.984  34.629  1.00  0.00     0.060 A 
BRANCH  81  82
ATOM     82  S   UNL A   1      38.519  31.325  36.142  1.00  0.00     0.124 S 
ATOM     83  O   UNL A   1      39.493  32.060  36.943  1.00  0.00    -0.237 OA
ATOM     84  O   UNL A   1      37.408  32.121  35.622  1.00  0.00    -0.237 OA
ATOM     85  O   UNL A   1      38.180  29.993  36.630  1.00  0.00    -0.744 OA
ENDBRANCH  81  82
ENDBRANCH  49  74
BRANCH  61  86
ATOM     86  C   UNL A   1      45.052  24.051  33.319  1.00  0.00     0.058 A 
ATOM     87  C   UNL A   1      44.175  22.997  33.618  1.00  0.00     0.135 A 
ATOM     88  C   UNL A   1      46.291  24.065  33.983  1.00  0.00     0.135 A 
ATOM     89  F   UNL A   1      42.958  22.940  33.051  1.00  0.00    -0.206 F 
ATOM     90  C   UNL A   1      44.531  21.974  34.489  1.00  0.00     0.059 A 
ATOM     91  C   UNL A   1      46.649  23.081  34.894  1.00  0.00     0.059 A 
ATOM     92  F   UNL A   1      47.200  25.021  33.733  1.00  0.00    -0.206 F 
ATOM     93  C   UNL A   1      45.775  22.022  35.116  1.00  0.00     0.060 A 
BRANCH  93  94
ATOM     94  S   UNL A   1      46.255  20.683  36.219  1.00  0.00     0.124 S 
ATOM     95  O   UNL A   1      45.618  19.519  35.610  1.00  0.00    -0.237 OA
ATOM     96  O   UNL A   1      47.709  20.733  36.114  1.00  0.00    -0.237 OA
ATOM     97  O   UNL A   1      45.699  21.092  37.505  1.00  0.00    -0.744 OA
ENDBRANCH  93  94
ENDBRANCH  61  86
ENDBRANCH  35  36
ENDBRANCH  27  30
ENDBRANCH  25  26
ENDBRANCH  24  25
ENDBRANCH  23  24
ENDBRANCH   1  23
TORSDOF 19
ENDMDL
MODEL 2
REMARK VINA RESULT:     -12.5      4.948     11.248
REMARK SMILES Cc1ccc([C@@H](C)[NH2+][C@@H](C)CCC(=O)NCCCCNC(=O)c2ccc(-c3c4nc(c(-c5c(F)cc(S(=O)(=O)[O-])cc5F)c5ccc([nH]5)c(-c5c(F)cc(S(=O)(=O)[O-])cc5F)c5nc(c(-c6c(F)cc(S(=O)(=O)[O-])cc6F)c6ccc3[nH]6)C=C5)C=C4)cc2)cc1F
REMARK SMILES IDX 16 1 15 2 13 3 14 4 12 6 11 7 9 8 10 9 8 10 6 13 7 14 5 15
REMARK SMILES IDX 1 16 2 17 3 18 90 19 4 20 89 21 91 22 17 23 18 24 19 25
REMARK SMILES IDX 20 26 21 27 22 29 23 30 24 31 88 32 25 33 87 34 26 35 27 36
REMARK SMILES IDX 28 37 81 38 29 39 86 40 80 41 82 42 30 43 85 44 79 45 78 46
REMARK SMILES IDX 31 48 65 49 44 50 64 51 45 52 48 53 63 54 83 55 46 56 47 57
REMARK SMILES IDX 62 59 84 60 49 61 32 62 33 63 42 64 34 65 35 66 41 67 43 68
REMARK SMILES IDX 36 69 37 70 38 71 39 72 40 73 66 74 67 75 76 76 68 77 69 78
REMARK SMILES IDX 75 79 77 80 70 81 71 82 72 83 73 84 74 85 50 86 51 87 60 88
REMARK SMILES IDX 52 89 53 90 59 91 61 92 54 93 55 94 56 95 57 96 58 97
REMARK H PARENT 15 5 8 11 8 12 20 28 82 47 48 58
REMARK Flexibility Score: inf
ROOT
ATOM      1  C   UNL A   1      35.508  24.159  24.535  1.00  0.00     0.116 C 
ENDROOT
BRANCH   1   2
ATOM      2  N   UNL A   1      34.589  24.245  23.420  1.00  0.00    -0.356 N 
ATOM      3  C   UNL A   1      33.372  24.853  23.361  1.00  0.00     0.220 C 
ATOM      4  O   UNL A   1      32.643  24.606  22.397  1.00  0.00    -0.275 OA
ATOM      5  H   UNL A   1      34.885  23.805  22.590  1.00  0.00     0.163 HD
BRANCH   3   6
ATOM      6  C   UNL A   1      32.931  25.829  24.441  1.00  0.00     0.106 C 
BRANCH   6   7
ATOM      7  C   UNL A   1      31.414  25.906  24.645  1.00  0.00     0.074 C 
BRANCH   7   8
ATOM      8  C   UNL A   1      30.941  26.087  26.105  1.00  0.00     0.180 C 
ATOM      9  C   UNL A   1      31.618  27.317  26.718  1.00  0.00     0.075 C 
BRANCH   8  10
ATOM     10  N   UNL A   1      31.175  24.865  26.883  1.00  0.00    -0.338 N 
ATOM     11  H   UNL A   1      32.181  24.772  27.023  1.00  0.00     0.347 HD
ATOM     12  H   UNL A   1      30.644  24.981  27.747  1.00  0.00     0.347 HD
BRANCH  10  13
ATOM     13  C   UNL A   1      30.684  23.610  26.278  1.00  0.00     0.210 C 
ATOM     14  C   UNL A   1      29.695  22.832  27.152  1.00  0.00     0.081 C 
BRANCH  13  15
ATOM     15  C   UNL A   1      31.838  22.691  25.895  1.00  0.00     0.012 A 
ATOM     16  C   UNL A   1      34.907  19.808  24.879  1.00  0.00     0.047 C 
ATOM     17  C   UNL A   1      33.853  20.820  25.206  1.00  0.00    -0.015 A 
ATOM     18  C   UNL A   1      32.767  21.034  24.353  1.00  0.00     0.007 A 
ATOM     19  C   UNL A   1      33.920  21.550  26.394  1.00  0.00     0.126 A 
ATOM     20  C   UNL A   1      31.773  21.958  24.696  1.00  0.00     0.010 A 
ATOM     21  C   UNL A   1      32.932  22.471  26.743  1.00  0.00     0.049 A 
ATOM     22  F   UNL A   1      34.946  21.355  27.238  1.00  0.00    -0.207 F 
ENDBRANCH  13  15
ENDBRANCH  10  13
ENDBRANCH   8  10
ENDBRANCH   7   8
ENDBRANCH   6   7
ENDBRANCH   3   6
ENDBRANCH   1   2
BRANCH   1  23
ATOM     23  C   UNL A   1      36.621  23.153  24.212  1.00  0.00     0.023 C 
BRANCH  23  24
ATOM     24  C   UNL A   1      37.433  22.694  25.417  1.00  0.00     0.023 C 
BRANCH  24  25
ATOM     25  C   UNL A   1      38.165  23.862  26.058  1.00  0.00     0.116 C 
BRANCH  25  26
ATOM     26  N   UNL A   1      39.557  23.538  26.374  1.00  0.00    -0.352 N 
ATOM     27  C   UNL A   1      40.555  24.470  26.649  1.00  0.00     0.251 C 
ATOM     28  H   UNL A   1      39.807  22.586  26.396  1.00  0.00     0.163 HD
ATOM     29  O   UNL A   1      41.698  24.276  26.303  1.00  0.00    -0.269 OA
BRANCH  27  30
ATOM     30  C   UNL A   1      40.090  25.683  27.361  1.00  0.00     0.039 A 
ATOM     31  C   UNL A   1      39.514  25.649  28.633  1.00  0.00     0.014 A 
ATOM     32  C   UNL A   1      40.407  26.889  26.746  1.00  0.00     0.014 A 
ATOM     33  C   UNL A   1      39.403  26.844  29.352  1.00  0.00     0.010 A 
ATOM     34  C   UNL A   1      40.438  28.026  27.496  1.00  0.00     0.010 A 
ATOM     35  C   UNL A   1      39.929  28.017  28.799  1.00  0.00    -0.014 A 
BRANCH  35  36
ATOM     36  C   UNL A   1      40.049  29.306  29.472  1.00  0.00     0.031 A 
ATOM     37  C   UNL A   1      38.984  30.323  29.417  1.00  0.00     0.074 A 
ATOM     38  C   UNL A   1      41.120  29.447  30.282  1.00  0.00     0.049 A 
ATOM     39  N   UNL A   1      39.137  31.541  29.811  1.00  0.00    -0.248 NA
ATOM     40  C   UNL A   1      37.656  30.065  28.870  1.00  0.00     0.031 C 
ATOM     41  C   UNL A   1      41.387  30.414  31.330  1.00  0.00     0.029 A 
ATOM     42  N   UNL A   1      42.314  28.746  30.168  1.00  0.00    -0.354 N 
ATOM     43  C   UNL A   1      37.899  32.147  29.828  1.00  0.00     0.074 A 
ATOM     44  C   UNL A   1      37.046  31.236  29.103  1.00  0.00     0.031 C 
ATOM     45  C   UNL A   1      42.712  30.422  31.575  1.00  0.00     0.029 A 
ATOM     46  C   UNL A   1      43.351  29.588  30.563  1.00  0.00     0.049 A 
ATOM     47  H   UNL A   1      42.410  27.815  29.862  1.00  0.00     0.167 HD
ATOM     48  C   UNL A   1      37.741  33.286  30.568  1.00  0.00     0.037 A 
ATOM     49  C   UNL A   1      44.190  30.034  29.573  1.00  0.00     0.037 A 
ATOM     50  C   UNL A   1      39.052  33.770  31.017  1.00  0.00     0.049 A 
ATOM     51  C   UNL A   1      44.021  31.509  29.273  1.00  0.00     0.074 A 
ATOM     52  C   UNL A   1      39.773  33.651  32.194  1.00  0.00     0.029 A 
ATOM     53  N   UNL A   1      39.944  34.237  30.066  1.00  0.00    -0.354 N 
ATOM     54  N   UNL A   1      43.094  32.264  29.795  1.00  0.00    -0.248 NA
ATOM     55  C   UNL A   1      44.865  32.241  28.330  1.00  0.00     0.031 C 
ATOM     56  C   UNL A   1      41.144  33.922  31.890  1.00  0.00     0.029 A 
ATOM     57  C   UNL A   1      41.240  34.246  30.547  1.00  0.00     0.049 A 
ATOM     58  H   UNL A   1      39.686  34.527  29.161  1.00  0.00     0.167 HD
ATOM     59  C   UNL A   1      43.183  33.522  29.284  1.00  0.00     0.074 A 
ATOM     60  C   UNL A   1      44.311  33.465  28.370  1.00  0.00     0.031 C 
ATOM     61  C   UNL A   1      42.329  34.529  29.625  1.00  0.00     0.037 A 
BRANCH  48  62
ATOM     62  C   UNL A   1      36.436  33.897  31.061  1.00  0.00     0.058 A 
ATOM     63  C   UNL A   1      35.417  34.217  30.130  1.00  0.00     0.135 A 
ATOM     64  C   UNL A   1      36.145  34.293  32.384  1.00  0.00     0.135 A 
ATOM     65  F   UNL A   1      35.526  33.884  28.835  1.00  0.00    -0.206 F 
ATOM     66  C   UNL A   1      34.251  34.913  30.471  1.00  0.00     0.059 A 
ATOM     67  C   UNL A   1      34.976  34.968  32.754  1.00  0.00     0.059 A 
ATOM     68  F   UNL A   1      36.984  34.082  33.400  1.00  0.00    -0.206 F 
ATOM     69  C   UNL A   1      34.043  35.298  31.787  1.00  0.00     0.060 A 
BRANCH  69  70
ATOM     70  S   UNL A   1      32.566  36.238  32.214  1.00  0.00     0.124 S 
ATOM     71  O   UNL A   1      32.416  37.107  31.052  1.00  0.00    -0.237 OA
ATOM     72  O   UNL A   1      31.563  35.188  32.361  1.00  0.00    -0.237 OA
ATOM     73  O   UNL A   1      32.941  36.915  33.453  1.00  0.00    -0.744 OA
ENDBRANCH  69  70
ENDBRANCH  48  62
BRANCH  49  74
ATOM     74  C   UNL A   1      44.454  28.960  28.552  1.00  0.00     0.058 A 
ATOM     75  C   UNL A   1      43.988  29.194  27.240  1.00  0.00     0.135 A 
ATOM     76  C   UNL A   1      45.529  28.066  28.702  1.00  0.00     0.135 A 
ATOM     77  F   UNL A   1      42.958  30.032  27.035  1.00  0.00    -0.206 F 
ATOM     78  C   UNL A   1      44.676  28.729  26.124  1.00  0.00     0.059 A 
ATOM     79  C   UNL A   1      46.227  27.579  27.592  1.00  0.00     0.059 A 
ATOM     80  F   UNL A   1      46.007  27.782  29.922  1.00  0.00    -0.206 F 
ATOM     81  C   UNL A   1      45.837  27.982  26.314  1.00  0.00     0.060 A 
BRANCH  81  82
ATOM     82  S   UNL A   1      46.904  27.708  24.877  1.00  0.00     0.124 S 
ATOM     83  O   UNL A   1      46.413  26.430  24.373  1.00  0.00    -0.237 OA
ATOM     84  O   UNL A   1      46.583  28.871  24.052  1.00  0.00    -0.237 OA
ATOM     85  O   UNL A   1      48.242  27.684  25.457  1.00  0.00    -0.744 OA
ENDBRANCH  81  82
ENDBRANCH  49  74
BRANCH  61  86
ATOM     86  C   UNL A   1      42.503  35.898  29.064  1.00  0.00     0.058 A 
ATOM     87  C   UNL A   1      41.947  36.248  27.825  1.00  0.00     0.135 A 
ATOM     88  C   UNL A   1      43.293  36.865  29.711  1.00  0.00     0.135 A 
ATOM     89  F   UNL A   1      41.212  35.362  27.131  1.00  0.00    -0.206 F 
ATOM     90  C   UNL A   1      42.117  37.515  27.279  1.00  0.00     0.059 A 
ATOM     91  C   UNL A   1      43.518  38.119  29.162  1.00  0.00     0.059 A 
ATOM     92  F   UNL A   1      43.839  36.621  30.914  1.00  0.00    -0.206 F 
ATOM     93  C   UNL A   1      42.899  38.446  27.960  1.00  0.00     0.060 A 
BRANCH  93  94
ATOM     94  S   UNL A   1      43.095  40.099  27.274  1.00  0.00     0.124 S 
ATOM     95  O   UNL A   1      44.039  39.884  26.181  1.00  0.00    -0.237 OA
ATOM     96  O   UNL A   1      41.726  40.406  26.872  1.00  0.00    -0.237 OA
ATOM     97  O   UNL A   1      43.612  40.870  28.399  1.00  0.00    -0.744 OA
ENDBRANCH  93  94
ENDBRANCH  61  86
ENDBRANCH  35  36
ENDBRANCH  27  30
ENDBRANCH  25  26
ENDBRANCH  24  25
ENDBRANCH  23  24
ENDBRANCH   1  23
TORSDOF 19
ENDMDL
MODEL 3
REMARK VINA RESULT:     -12.5      5.131     11.549
REMARK SMILES Cc1ccc([C@@H](C)[NH2+][C@@H](C)CCC(=O)NCCCCNC(=O)c2ccc(-c3c4nc(c(-c5c(F)cc(S(=O)(=O)[O-])cc5F)c5ccc([nH]5)c(-c5c(F)cc(S(=O)(=O)[O-])cc5F)c5nc(c(-c6c(F)cc(S(=O)(=O)[O-])cc6F)c6ccc3[nH]6)C=C5)C=C4)cc2)cc1F
REMARK SMILES IDX 16 1 15 2 13 3 14 4 12 6 11 7 9 8 10 9 8 10 6 13 7 14 5 15
REMARK SMILES IDX 1 16 2 17 3 18 90 19 4 20 89 21 91 22 17 23 18 24 19 25
REMARK SMILES IDX 20 26 21 27 22 29 23 30 24 31 88 32 25 33 87 34 26 35 27 36
REMARK SMILES IDX 28 37 81 38 29 39 86 40 80 41 82 42 30 43 85 44 79 45 78 46
REMARK SMILES IDX 31 48 65 49 44 50 64 51 45 52 48 53 63 54 83 55 46 56 47 57
REMARK SMILES IDX 62 59 84 60 49 61 32 62 33 63 42 64 34 65 35 66 41 67 43 68
REMARK SMILES IDX 36 69 37 70 38 71 39 72 40 73 66 74 67 75 76 76 68 77 69 78
REMARK SMILES IDX 75 79 77 80 70 81 71 82 72 83 73 84 74 85 50 86 51 87 60 88
REMARK SMILES IDX 52 89 53 90 59 91 61 92 54 93 55 94 56 95 57 96 58 97
REMARK H PARENT 15 5 8 11 8 12 20 28 82 47 48 58
REMARK Flexibility Score: inf
ROOT
ATOM      1  C   UNL A   1      35.347  22.093  24.246  1.00  0.00     0.116 C 
ENDROOT
BRANCH   1   2
ATOM      2  N   UNL A   1      34.925  21.460  25.478  1.00  0.00    -0.356 N 
ATOM      3  C   UNL A   1      33.766  21.629  26.171  1.00  0.00     0.220 C 
ATOM      4  O   UNL A   1      33.703  21.182  27.320  1.00  0.00    -0.275 OA
ATOM      5  H   UNL A   1      35.564  20.819  25.867  1.00  0.00     0.163 HD
BRANCH   3   6
ATOM      6  C   UNL A   1      32.572  22.329  25.541  1.00  0.00     0.106 C 
BRANCH   6   7
ATOM      7  C   UNL A   1      31.662  23.054  26.540  1.00  0.00     0.074 C 
BRANCH   7   8
ATOM      8  C   UNL A   1      31.318  24.520  26.193  1.00  0.00     0.180 C 
ATOM      9  C   UNL A   1      30.673  24.584  24.805  1.00  0.00     0.075 C 
BRANCH   8  10
ATOM     10  N   UNL A   1      32.506  25.375  26.305  1.00  0.00    -0.338 N 
ATOM     11  H   UNL A   1      32.440  25.889  27.183  1.00  0.00     0.347 HD
ATOM     12  H   UNL A   1      33.306  24.744  26.251  1.00  0.00     0.347 HD
BRANCH  10  13
ATOM     13  C   UNL A   1      32.699  26.357  25.218  1.00  0.00     0.210 C 
ATOM     14  C   UNL A   1      33.809  25.994  24.228  1.00  0.00     0.081 C 
BRANCH  13  15
ATOM     15  C   UNL A   1      32.965  27.752  25.774  1.00  0.00     0.012 A 
ATOM     16  C   UNL A   1      33.638  31.588  27.669  1.00  0.00     0.047 C 
ATOM     17  C   UNL A   1      33.431  30.265  26.997  1.00  0.00    -0.015 A 
ATOM     18  C   UNL A   1      34.342  29.219  27.165  1.00  0.00     0.007 A 
ATOM     19  C   UNL A   1      32.297  30.041  26.215  1.00  0.00     0.126 A 
ATOM     20  C   UNL A   1      34.110  27.979  26.560  1.00  0.00     0.010 A 
ATOM     21  C   UNL A   1      32.058  28.807  25.611  1.00  0.00     0.049 A 
ATOM     22  F   UNL A   1      31.398  31.024  26.049  1.00  0.00    -0.207 F 
ENDBRANCH  13  15
ENDBRANCH  10  13
ENDBRANCH   8  10
ENDBRANCH   7   8
ENDBRANCH   6   7
ENDBRANCH   3   6
ENDBRANCH   1   2
BRANCH   1  23
ATOM     23  C   UNL A   1      36.404  23.164  24.549  1.00  0.00     0.023 C 
BRANCH  23  24
ATOM     24  C   UNL A   1      37.639  22.648  25.278  1.00  0.00     0.023 C 
BRANCH  24  25
ATOM     25  C   UNL A   1      38.281  23.749  26.106  1.00  0.00     0.116 C 
BRANCH  25  26
ATOM     26  N   UNL A   1      39.701  23.497  26.361  1.00  0.00    -0.352 N 
ATOM     27  C   UNL A   1      40.664  24.479  26.575  1.00  0.00     0.251 C 
ATOM     28  H   UNL A   1      39.997  22.558  26.382  1.00  0.00     0.163 HD
ATOM     29  O   UNL A   1      41.798  24.334  26.178  1.00  0.00    -0.269 OA
BRANCH  27  30
ATOM     30  C   UNL A   1      40.175  25.678  27.294  1.00  0.00     0.039 A 
ATOM     31  C   UNL A   1      39.601  25.627  28.565  1.00  0.00     0.014 A 
ATOM     32  C   UNL A   1      40.469  26.893  26.685  1.00  0.00     0.014 A 
ATOM     33  C   UNL A   1      39.466  26.816  29.290  1.00  0.00     0.010 A 
ATOM     34  C   UNL A   1      40.478  28.027  27.440  1.00  0.00     0.010 A 
ATOM     35  C   UNL A   1      39.969  28.002  28.743  1.00  0.00    -0.014 A 
BRANCH  35  36
ATOM     36  C   UNL A   1      40.063  29.289  29.423  1.00  0.00     0.031 A 
ATOM     37  C   UNL A   1      38.987  30.294  29.356  1.00  0.00     0.074 A 
ATOM     38  C   UNL A   1      41.121  29.440  30.248  1.00  0.00     0.049 A 
ATOM     39  N   UNL A   1      39.119  31.512  29.756  1.00  0.00    -0.248 NA
ATOM     40  C   UNL A   1      37.670  30.022  28.789  1.00  0.00     0.031 C 
ATOM     41  C   UNL A   1      41.362  30.407  31.304  1.00  0.00     0.029 A 
ATOM     42  N   UNL A   1      42.325  28.755  30.149  1.00  0.00    -0.354 N 
ATOM     43  C   UNL A   1      37.873  32.102  29.758  1.00  0.00     0.074 A 
ATOM     44  C   UNL A   1      37.043  31.183  29.018  1.00  0.00     0.031 C 
ATOM     45  C   UNL A   1      42.683  30.429  31.567  1.00  0.00     0.029 A 
ATOM     46  C   UNL A   1      43.346  29.607  30.561  1.00  0.00     0.049 A 
ATOM     47  H   UNL A   1      42.437  27.826  29.841  1.00  0.00     0.167 HD
ATOM     48  C   UNL A   1      37.692  33.236  30.500  1.00  0.00     0.037 A 
ATOM     49  C   UNL A   1      44.193  30.068  29.585  1.00  0.00     0.037 A 
ATOM     50  C   UNL A   1      38.990  33.735  30.970  1.00  0.00     0.049 A 
ATOM     51  C   UNL A   1      44.010  31.542  29.288  1.00  0.00     0.074 A 
ATOM     52  C   UNL A   1      39.695  33.620  32.156  1.00  0.00     0.029 A 
ATOM     53  N   UNL A   1      39.889  34.216  30.034  1.00  0.00    -0.354 N 
ATOM     54  N   UNL A   1      43.066  32.283  29.800  1.00  0.00    -0.248 NA
ATOM     55  C   UNL A   1      44.858  32.288  28.359  1.00  0.00     0.031 C 
ATOM     56  C   UNL A   1      41.067  33.909  31.873  1.00  0.00     0.029 A 
ATOM     57  C   UNL A   1      41.178  34.239  30.532  1.00  0.00     0.049 A 
ATOM     58  H   UNL A   1      39.641  34.506  29.126  1.00  0.00     0.167 HD
ATOM     59  C   UNL A   1      43.147  33.545  29.295  1.00  0.00     0.074 A 
ATOM     60  C   UNL A   1      44.289  33.505  28.396  1.00  0.00     0.031 C 
ATOM     61  C   UNL A   1      42.276  34.539  29.627  1.00  0.00     0.037 A 
BRANCH  48  62
ATOM     62  C   UNL A   1      36.372  33.829  30.977  1.00  0.00     0.058 A 
ATOM     63  C   UNL A   1      35.403  34.237  30.026  1.00  0.00     0.135 A 
ATOM     64  C   UNL A   1      36.022  34.128  32.312  1.00  0.00     0.135 A 
ATOM     65  F   UNL A   1      35.570  34.003  28.716  1.00  0.00    -0.206 F 
ATOM     66  C   UNL A   1      34.231  34.924  30.365  1.00  0.00     0.059 A 
ATOM     67  C   UNL A   1      34.846  34.792  32.677  1.00  0.00     0.059 A 
ATOM     68  F   UNL A   1      36.809  33.825  33.346  1.00  0.00    -0.206 F 
ATOM     69  C   UNL A   1      33.964  35.210  31.695  1.00  0.00     0.060 A 
BRANCH  69  70
ATOM     70  S   UNL A   1      32.482  36.139  32.124  1.00  0.00     0.124 S 
ATOM     71  O   UNL A   1      32.199  36.846  30.880  1.00  0.00    -0.237 OA
ATOM     72  O   UNL A   1      31.546  35.078  32.482  1.00  0.00    -0.237 OA
ATOM     73  O   UNL A   1      32.918  36.982  33.234  1.00  0.00    -0.744 OA
ENDBRANCH  69  70
ENDBRANCH  48  62
BRANCH  49  74
ATOM     74  C   UNL A   1      44.485  29.001  28.564  1.00  0.00     0.058 A 
ATOM     75  C   UNL A   1      43.996  29.214  27.257  1.00  0.00     0.135 A 
ATOM     76  C   UNL A   1      45.594  28.147  28.704  1.00  0.00     0.135 A 
ATOM     77  F   UNL A   1      42.934  30.013  27.061  1.00  0.00    -0.206 F 
ATOM     78  C   UNL A   1      44.689  28.771  26.134  1.00  0.00     0.059 A 
ATOM     79  C   UNL A   1      46.297  27.683  27.588  1.00  0.00     0.059 A 
ATOM     80  F   UNL A   1      46.095  27.884  29.919  1.00  0.00    -0.206 F 
ATOM     81  C   UNL A   1      45.878  28.067  26.313  1.00  0.00     0.060 A 
BRANCH  81  82
ATOM     82  S   UNL A   1      46.939  27.828  24.865  1.00  0.00     0.124 S 
ATOM     83  O   UNL A   1      48.265  27.753  25.470  1.00  0.00    -0.237 OA
ATOM     84  O   UNL A   1      46.422  26.569  24.332  1.00  0.00    -0.237 OA
ATOM     85  O   UNL A   1      46.680  29.018  24.064  1.00  0.00    -0.744 OA
ENDBRANCH  81  82
ENDBRANCH  49  74
BRANCH  61  86
ATOM     86  C   UNL A   1      42.442  35.913  29.074  1.00  0.00     0.058 A 
ATOM     87  C   UNL A   1      41.888  36.264  27.833  1.00  0.00     0.135 A 
ATOM     88  C   UNL A   1      43.220  36.883  29.730  1.00  0.00     0.135 A 
ATOM     89  F   UNL A   1      41.165  35.375  27.132  1.00  0.00    -0.206 F 
ATOM     90  C   UNL A   1      42.050  37.535  27.295  1.00  0.00     0.059 A 
ATOM     91  C   UNL A   1      43.436  38.142  29.188  1.00  0.00     0.059 A 
ATOM     92  F   UNL A   1      43.761  36.638  30.934  1.00  0.00    -0.206 F 
ATOM     93  C   UNL A   1      42.821  38.470  27.984  1.00  0.00     0.060 A 
BRANCH  93  94
ATOM     94  S   UNL A   1      43.006  40.127  27.307  1.00  0.00     0.124 S 
ATOM     95  O   UNL A   1      43.600  40.865  28.418  1.00  0.00    -0.237 OA
ATOM     96  O   UNL A   1      43.889  39.875  26.173  1.00  0.00    -0.237 OA
ATOM     97  O   UNL A   1      41.638  40.507  26.970  1.00  0.00    -0.744 OA
ENDBRANCH  93  94
ENDBRANCH  61  86
ENDBRANCH  35  36
ENDBRANCH  27  30
ENDBRANCH  25  26
ENDBRANCH  24  25
ENDBRANCH  23  24
ENDBRANCH   1  23
TORSDOF 19
ENDMDL
