MODEL 1
REMARK VINA RESULT:     -11.3      0.000      0.000
REMARK SMILES O=C(NCCCCNC(=O)[C@H]1CCCCN1C(=O)c1cn2ccccc2n1)c1ccc(-c2c3nc(c(-c4c(F)cc(S(=O)(=O)[O-])cc4F)c4ccc([nH]4)c(-c4c(F)cc(S(=O)(=O)[O-])cc4F)c4nc(c(-c5c(F)cc(S(=O)(=O)[O-])cc5F)c5ccc2[nH]5)C=C4)C=C3)cc1
REMARK SMILES IDX 5 1 4 2 3 3 1 4 2 5 28 7 29 8 93 9 30 10 92 11 31 12 32 13
REMARK SMILES IDX 33 14 86 15 34 16 91 17 85 18 87 19 35 20 90 21 84 22 83 23
REMARK SMILES IDX 36 25 70 26 49 27 69 28 50 29 53 30 68 31 88 32 51 33 52 34
REMARK SMILES IDX 67 36 89 37 54 38 37 39 38 40 47 41 39 42 40 43 46 44 48 45
REMARK SMILES IDX 41 46 42 47 43 48 44 49 45 50 71 51 72 52 81 53 73 54 74 55
REMARK SMILES IDX 80 56 82 57 75 58 76 59 77 60 78 61 79 62 55 63 56 64 65 65
REMARK SMILES IDX 57 66 58 67 64 68 66 69 59 70 60 71 61 72 62 73 63 74 6 75
REMARK SMILES IDX 7 76 8 77 9 78 10 80 11 81 12 82 16 83 13 84 15 85 14 86
REMARK SMILES IDX 17 87 18 88 19 89 20 90 27 91 21 92 26 93 22 94 25 95 23 96
REMARK SMILES IDX 24 97
REMARK H PARENT 3 6 87 24 53 35 8 79
REMARK Flexibility Score: inf
ROOT
ATOM      1  C   UNL A   1      33.018  27.665  26.852  1.00  0.00     0.023 C 
ENDROOT
BRANCH   1   2
ATOM      2  C   UNL A   1      34.124  28.558  26.303  1.00  0.00     0.116 C 
BRANCH   2   3
ATOM      3  N   UNL A   1      33.868  29.969  26.537  1.00  0.00    -0.352 N 
ATOM      4  O   UNL A   1      34.019  31.953  27.594  1.00  0.00    -0.269 OA
ATOM      5  C   UNL A   1      34.499  30.840  27.393  1.00  0.00     0.251 C 
ATOM      6  H   UNL A   1      33.136  30.359  26.007  1.00  0.00     0.163 HD
BRANCH   5   7
ATOM      7  C   UNL A   1      35.744  30.433  28.080  1.00  0.00     0.039 A 
ATOM      8  C   UNL A   1      36.991  30.808  27.573  1.00  0.00     0.014 A 
ATOM      9  C   UNL A   1      35.664  29.691  29.262  1.00  0.00     0.014 A 
ATOM     10  C   UNL A   1      38.154  30.333  28.168  1.00  0.00     0.010 A 
ATOM     11  C   UNL A   1      36.836  29.287  29.910  1.00  0.00     0.010 A 
ATOM     12  C   UNL A   1      38.090  29.592  29.359  1.00  0.00    -0.014 A 
BRANCH  12  13
ATOM     13  C   UNL A   1      39.348  29.252  30.074  1.00  0.00     0.031 A 
ATOM     14  C   UNL A   1      39.800  30.027  31.279  1.00  0.00     0.074 A 
ATOM     15  C   UNL A   1      40.088  28.228  29.602  1.00  0.00     0.049 A 
ATOM     16  N   UNL A   1      40.890  29.877  31.986  1.00  0.00    -0.248 NA
ATOM     17  C   UNL A   1      38.925  31.112  31.751  1.00  0.00     0.031 C 
ATOM     18  C   UNL A   1      39.752  27.421  28.422  1.00  0.00     0.029 A 
ATOM     19  N   UNL A   1      41.271  27.691  30.040  1.00  0.00    -0.354 N 
ATOM     20  C   UNL A   1      40.850  30.861  32.967  1.00  0.00     0.074 A 
ATOM     21  C   UNL A   1      39.628  31.609  32.762  1.00  0.00     0.031 C 
ATOM     22  C   UNL A   1      40.694  26.486  28.244  1.00  0.00     0.029 A 
ATOM     23  C   UNL A   1      41.734  26.667  29.248  1.00  0.00     0.049 A 
ATOM     24  H   UNL A   1      41.742  28.009  30.844  1.00  0.00     0.167 HD
ATOM     25  C   UNL A   1      41.754  31.110  33.945  1.00  0.00     0.037 A 
ATOM     26  C   UNL A   1      42.888  25.975  29.294  1.00  0.00     0.037 A 
ATOM     27  C   UNL A   1      42.953  30.336  34.151  1.00  0.00     0.049 A 
ATOM     28  C   UNL A   1      43.882  26.295  30.373  1.00  0.00     0.074 A 
ATOM     29  C   UNL A   1      43.884  30.453  35.168  1.00  0.00     0.029 A 
ATOM     30  N   UNL A   1      43.396  29.317  33.320  1.00  0.00    -0.354 N 
ATOM     31  N   UNL A   1      43.788  27.176  31.341  1.00  0.00    -0.248 NA
ATOM     32  C   UNL A   1      45.140  25.539  30.364  1.00  0.00     0.031 C 
ATOM     33  C   UNL A   1      44.921  29.548  34.918  1.00  0.00     0.029 A 
ATOM     34  C   UNL A   1      44.611  28.830  33.774  1.00  0.00     0.049 A 
ATOM     35  H   UNL A   1      42.918  28.989  32.524  1.00  0.00     0.167 HD
ATOM     36  C   UNL A   1      44.973  27.076  32.058  1.00  0.00     0.074 A 
ATOM     37  C   UNL A   1      45.756  26.032  31.431  1.00  0.00     0.031 C 
ATOM     38  C   UNL A   1      45.379  27.791  33.136  1.00  0.00     0.037 A 
BRANCH  25  39
ATOM     39  C   UNL A   1      41.512  32.274  34.867  1.00  0.00     0.058 A 
ATOM     40  C   UNL A   1      42.032  33.550  34.604  1.00  0.00     0.135 A 
ATOM     41  C   UNL A   1      40.658  32.130  35.974  1.00  0.00     0.135 A 
ATOM     42  F   UNL A   1      42.861  33.742  33.566  1.00  0.00    -0.206 F 
ATOM     43  C   UNL A   1      41.718  34.642  35.408  1.00  0.00     0.059 A 
ATOM     44  C   UNL A   1      40.313  33.211  36.779  1.00  0.00     0.059 A 
ATOM     45  F   UNL A   1      40.134  30.930  36.270  1.00  0.00    -0.206 F 
ATOM     46  C   UNL A   1      40.852  34.464  36.490  1.00  0.00     0.060 A 
BRANCH  46  47
ATOM     47  S   UNL A   1      40.421  35.900  37.497  1.00  0.00     0.124 S 
ATOM     48  O   UNL A   1      41.734  36.326  37.974  1.00  0.00    -0.237 OA
ATOM     49  O   UNL A   1      39.784  36.783  36.525  1.00  0.00    -0.237 OA
ATOM     50  O   UNL A   1      39.533  35.350  38.516  1.00  0.00    -0.744 OA
ENDBRANCH  46  47
ENDBRANCH  25  39
BRANCH  26  51
ATOM     51  C   UNL A   1      43.182  24.955  28.255  1.00  0.00     0.058 A 
ATOM     52  C   UNL A   1      43.735  25.314  27.017  1.00  0.00     0.135 A 
ATOM     53  C   UNL A   1      42.918  23.594  28.483  1.00  0.00     0.135 A 
ATOM     54  F   UNL A   1      44.001  26.602  26.751  1.00  0.00    -0.206 F 
ATOM     55  C   UNL A   1      43.996  24.364  26.035  1.00  0.00     0.059 A 
ATOM     56  C   UNL A   1      43.199  22.624  27.530  1.00  0.00     0.059 A 
ATOM     57  F   UNL A   1      42.407  23.196  29.659  1.00  0.00    -0.206 F 
ATOM     58  C   UNL A   1      43.723  23.021  26.301  1.00  0.00     0.060 A 
BRANCH  58  59
ATOM     59  S   UNL A   1      44.087  21.792  25.030  1.00  0.00     0.124 S 
ATOM     60  O   UNL A   1      45.473  21.459  25.335  1.00  0.00    -0.237 OA
ATOM     61  O   UNL A   1      43.102  20.753  25.316  1.00  0.00    -0.237 OA
ATOM     62  O   UNL A   1      43.870  22.523  23.785  1.00  0.00    -0.744 OA
ENDBRANCH  58  59
ENDBRANCH  26  51
BRANCH  38  63
ATOM     63  C   UNL A   1      46.728  27.466  33.709  1.00  0.00     0.058 A 
ATOM     64  C   UNL A   1      46.888  26.458  34.672  1.00  0.00     0.135 A 
ATOM     65  C   UNL A   1      47.878  28.125  33.247  1.00  0.00     0.135 A 
ATOM     66  F   UNL A   1      45.818  25.810  35.157  1.00  0.00    -0.206 F 
ATOM     67  C   UNL A   1      48.144  26.120  35.164  1.00  0.00     0.059 A 
ATOM     68  C   UNL A   1      49.146  27.785  33.705  1.00  0.00     0.059 A 
ATOM     69  F   UNL A   1      47.778  29.094  32.323  1.00  0.00    -0.206 F 
ATOM     70  C   UNL A   1      49.268  26.783  34.669  1.00  0.00     0.060 A 
BRANCH  70  71
ATOM     71  S   UNL A   1      50.897  26.292  35.272  1.00  0.00     0.124 S 
ATOM     72  O   UNL A   1      50.939  24.884  34.895  1.00  0.00    -0.237 OA
ATOM     73  O   UNL A   1      51.786  27.176  34.524  1.00  0.00    -0.237 OA
ATOM     74  O   UNL A   1      50.822  26.557  36.705  1.00  0.00    -0.744 OA
ENDBRANCH  70  71
ENDBRANCH  38  63
ENDBRANCH  12  13
ENDBRANCH   5   7
ENDBRANCH   2   3
ENDBRANCH   1   2
BRANCH   1  75
ATOM     75  C   UNL A   1      32.458  26.639  25.867  1.00  0.00     0.023 C 
BRANCH  75  76
ATOM     76  C   UNL A   1      32.895  25.196  26.098  1.00  0.00     0.116 C 
BRANCH  76  77
ATOM     77  N   UNL A   1      31.795  24.253  26.080  1.00  0.00    -0.354 N 
ATOM     78  C   UNL A   1      31.805  22.911  25.824  1.00  0.00     0.242 C 
ATOM     79  H   UNL A   1      30.910  24.635  26.282  1.00  0.00     0.163 HD
ATOM     80  O   UNL A   1      30.721  22.323  25.894  1.00  0.00    -0.273 OA
BRANCH  78  81
ATOM     81  C   UNL A   1      33.131  22.190  25.451  1.00  0.00     0.174 C 
ATOM     82  C   UNL A   1      33.160  20.696  25.801  1.00  0.00     0.035 C 
ATOM     83  N   UNL A   1      33.446  22.339  24.013  1.00  0.00    -0.325 N 
ATOM     84  C   UNL A   1      32.212  19.889  24.921  1.00  0.00     0.004 C 
ATOM     85  C   UNL A   1      32.599  21.580  23.084  1.00  0.00     0.121 C 
ATOM     86  C   UNL A   1      32.546  20.100  23.450  1.00  0.00     0.022 C 
BRANCH  83  87
ATOM     87  C   UNL A   1      34.518  23.162  23.652  1.00  0.00     0.274 C 
ATOM     88  O   UNL A   1      34.407  24.029  22.786  1.00  0.00    -0.267 OA
BRANCH  87  89
ATOM     89  C   UNL A   1      35.781  23.010  24.383  1.00  0.00     0.147 A 
ATOM     90  C   UNL A   1      36.602  21.896  24.423  1.00  0.00     0.127 A 
ATOM     91  N   UNL A   1      36.336  24.038  25.130  1.00  0.00    -0.223 NA
ATOM     92  N   UNL A   1      37.652  22.234  25.238  1.00  0.00    -0.306 N 
ATOM     93  C   UNL A   1      37.451  23.554  25.630  1.00  0.00     0.137 A 
ATOM     94  C   UNL A   1      38.739  21.468  25.651  1.00  0.00     0.093 A 
ATOM     95  C   UNL A   1      38.434  24.138  26.477  1.00  0.00     0.048 A 
ATOM     96  C   UNL A   1      39.658  22.019  26.464  1.00  0.00     0.018 A 
ATOM     97  C   UNL A   1      39.492  23.405  26.878  1.00  0.00     0.005 A 
ENDBRANCH  87  89
ENDBRANCH  83  87
ENDBRANCH  78  81
ENDBRANCH  76  77
ENDBRANCH  75  76
ENDBRANCH   1  75
TORSDOF 16
ENDMDL
MODEL 2
REMARK VINA RESULT:     -11.2      3.250      9.207
REMARK SMILES O=C(NCCCCNC(=O)[C@H]1CCCCN1C(=O)c1cn2ccccc2n1)c1ccc(-c2c3nc(c(-c4c(F)cc(S(=O)(=O)[O-])cc4F)c4ccc([nH]4)c(-c4c(F)cc(S(=O)(=O)[O-])cc4F)c4nc(c(-c5c(F)cc(S(=O)(=O)[O-])cc5F)c5ccc2[nH]5)C=C4)C=C3)cc1
REMARK SMILES IDX 5 1 4 2 3 3 1 4 2 5 28 7 29 8 93 9 30 10 92 11 31 12 32 13
REMARK SMILES IDX 33 14 86 15 34 16 91 17 85 18 87 19 35 20 90 21 84 22 83 23
REMARK SMILES IDX 36 25 70 26 49 27 69 28 50 29 53 30 68 31 88 32 51 33 52 34
REMARK SMILES IDX 67 36 89 37 54 38 37 39 38 40 47 41 39 42 40 43 46 44 48 45
REMARK SMILES IDX 41 46 42 47 43 48 44 49 45 50 71 51 72 52 81 53 73 54 74 55
REMARK SMILES IDX 80 56 82 57 75 58 76 59 77 60 78 61 79 62 55 63 56 64 65 65
REMARK SMILES IDX 57 66 58 67 64 68 66 69 59 70 60 71 61 72 62 73 63 74 6 75
REMARK SMILES IDX 7 76 8 77 9 78 10 80 11 81 12 82 16 83 13 84 15 85 14 86
REMARK SMILES IDX 17 87 18 88 19 89 20 90 27 91 21 92 26 93 22 94 25 95 23 96
REMARK SMILES IDX 24 97
REMARK H PARENT 3 6 87 24 53 35 8 79
REMARK Flexibility Score: inf
ROOT
ATOM      1  C   UNL A   1      39.546  22.106  26.512  1.00  0.00     0.023 C 
ENDROOT
BRANCH   1   2
ATOM      2  C   UNL A   1      40.046  23.474  26.959  1.00  0.00     0.116 C 
BRANCH   2   3
ATOM      3  N   UNL A   1      40.947  24.081  25.994  1.00  0.00    -0.352 N 
ATOM      4  O   UNL A   1      42.092  25.740  24.988  1.00  0.00    -0.269 OA
ATOM      5  C   UNL A   1      41.503  25.338  25.989  1.00  0.00     0.251 C 
ATOM      6  H   UNL A   1      41.196  23.509  25.233  1.00  0.00     0.163 HD
BRANCH   5   7
ATOM      7  C   UNL A   1      41.379  26.208  27.179  1.00  0.00     0.039 A 
ATOM      8  C   UNL A   1      42.295  27.238  27.405  1.00  0.00     0.014 A 
ATOM      9  C   UNL A   1      40.315  26.011  28.065  1.00  0.00     0.014 A 
ATOM     10  C   UNL A   1      42.230  27.982  28.578  1.00  0.00     0.010 A 
ATOM     11  C   UNL A   1      40.199  26.819  29.201  1.00  0.00     0.010 A 
ATOM     12  C   UNL A   1      41.164  27.800  29.474  1.00  0.00    -0.014 A 
BRANCH  12  13
ATOM     13  C   UNL A   1      41.014  28.727  30.625  1.00  0.00     0.031 A 
ATOM     14  C   UNL A   1      41.868  28.595  31.855  1.00  0.00     0.074 A 
ATOM     15  C   UNL A   1      40.075  29.691  30.545  1.00  0.00     0.049 A 
ATOM     16  N   UNL A   1      41.831  29.300  32.956  1.00  0.00    -0.248 NA
ATOM     17  C   UNL A   1      42.891  27.536  31.856  1.00  0.00     0.031 C 
ATOM     18  C   UNL A   1      39.174  29.895  29.405  1.00  0.00     0.029 A 
ATOM     19  N   UNL A   1      39.711  30.673  31.430  1.00  0.00    -0.354 N 
ATOM     20  C   UNL A   1      42.800  28.758  33.792  1.00  0.00     0.074 A 
ATOM     21  C   UNL A   1      43.407  27.658  33.073  1.00  0.00     0.031 C 
ATOM     22  C   UNL A   1      38.378  30.943  29.652  1.00  0.00     0.029 A 
ATOM     23  C   UNL A   1      38.659  31.444  30.991  1.00  0.00     0.049 A 
ATOM     24  H   UNL A   1      40.159  30.813  32.295  1.00  0.00     0.167 HD
ATOM     25  C   UNL A   1      43.144  29.148  35.043  1.00  0.00     0.037 A 
ATOM     26  C   UNL A   1      37.966  32.417  31.610  1.00  0.00     0.037 A 
ATOM     27  C   UNL A   1      42.546  30.265  35.733  1.00  0.00     0.049 A 
ATOM     28  C   UNL A   1      38.354  32.807  33.007  1.00  0.00     0.074 A 
ATOM     29  C   UNL A   1      42.889  30.793  36.965  1.00  0.00     0.029 A 
ATOM     30  N   UNL A   1      41.474  31.010  35.263  1.00  0.00    -0.354 N 
ATOM     31  N   UNL A   1      39.327  32.335  33.750  1.00  0.00    -0.248 NA
ATOM     32  C   UNL A   1      37.549  33.849  33.655  1.00  0.00     0.031 C 
ATOM     33  C   UNL A   1      41.986  31.818  37.268  1.00  0.00     0.029 A 
ATOM     34  C   UNL A   1      41.113  31.963  36.201  1.00  0.00     0.049 A 
ATOM     35  H   UNL A   1      41.035  30.880  34.392  1.00  0.00     0.167 HD
ATOM     36  C   UNL A   1      39.253  33.027  34.952  1.00  0.00     0.074 A 
ATOM     37  C   UNL A   1      38.160  33.968  34.827  1.00  0.00     0.031 C 
ATOM     38  C   UNL A   1      40.019  32.891  36.062  1.00  0.00     0.037 A 
BRANCH  25  39
ATOM     39  C   UNL A   1      44.200  28.365  35.774  1.00  0.00     0.058 A 
ATOM     40  C   UNL A   1      45.564  28.678  35.667  1.00  0.00     0.135 A 
ATOM     41  C   UNL A   1      43.829  27.355  36.678  1.00  0.00     0.135 A 
ATOM     42  F   UNL A   1      45.975  29.627  34.811  1.00  0.00    -0.206 F 
ATOM     43  C   UNL A   1      46.523  28.014  36.427  1.00  0.00     0.059 A 
ATOM     44  C   UNL A   1      44.768  26.693  37.464  1.00  0.00     0.059 A 
ATOM     45  F   UNL A   1      42.538  27.017  36.819  1.00  0.00    -0.206 F 
ATOM     46  C   UNL A   1      46.114  27.028  37.328  1.00  0.00     0.060 A 
BRANCH  46  47
ATOM     47  S   UNL A   1      47.368  26.207  38.336  1.00  0.00     0.124 S 
ATOM     48  O   UNL A   1      47.670  25.030  37.526  1.00  0.00    -0.237 OA
ATOM     49  O   UNL A   1      48.422  27.215  38.405  1.00  0.00    -0.237 OA
ATOM     50  O   UNL A   1      46.677  25.942  39.593  1.00  0.00    -0.744 OA
ENDBRANCH  46  47
ENDBRANCH  25  39
BRANCH  26  51
ATOM     51  C   UNL A   1      36.805  33.046  30.930  1.00  0.00     0.058 A 
ATOM     52  C   UNL A   1      36.981  34.030  29.946  1.00  0.00     0.135 A 
ATOM     53  C   UNL A   1      35.489  32.668  31.249  1.00  0.00     0.135 A 
ATOM     54  F   UNL A   1      38.218  34.426  29.609  1.00  0.00    -0.206 F 
ATOM     55  C   UNL A   1      35.896  34.633  29.319  1.00  0.00     0.059 A 
ATOM     56  C   UNL A   1      34.391  33.235  30.614  1.00  0.00     0.059 A 
ATOM     57  F   UNL A   1      35.267  31.718  32.169  1.00  0.00    -0.206 F 
ATOM     58  C   UNL A   1      34.604  34.229  29.661  1.00  0.00     0.060 A 
BRANCH  58  59
ATOM     59  S   UNL A   1      33.202  34.999  28.825  1.00  0.00     0.124 S 
ATOM     60  O   UNL A   1      32.334  35.323  29.950  1.00  0.00    -0.237 OA
ATOM     61  O   UNL A   1      33.830  36.134  28.154  1.00  0.00    -0.237 OA
ATOM     62  O   UNL A   1      32.721  33.945  27.937  1.00  0.00    -0.744 OA
ENDBRANCH  58  59
ENDBRANCH  26  51
BRANCH  38  63
ATOM     63  C   UNL A   1      39.705  33.781  37.229  1.00  0.00     0.058 A 
ATOM     64  C   UNL A   1      38.863  33.354  38.267  1.00  0.00     0.135 A 
ATOM     65  C   UNL A   1      40.301  35.047  37.343  1.00  0.00     0.135 A 
ATOM     66  F   UNL A   1      38.257  32.158  38.198  1.00  0.00    -0.206 F 
ATOM     67  C   UNL A   1      38.614  34.156  39.375  1.00  0.00     0.059 A 
ATOM     68  C   UNL A   1      40.088  35.855  38.455  1.00  0.00     0.059 A 
ATOM     69  F   UNL A   1      41.118  35.499  36.379  1.00  0.00    -0.206 F 
ATOM     70  C   UNL A   1      39.238  35.402  39.464  1.00  0.00     0.060 A 
BRANCH  70  71
ATOM     71  S   UNL A   1      38.954  36.407  40.936  1.00  0.00     0.124 S 
ATOM     72  O   UNL A   1      37.904  35.652  41.610  1.00  0.00    -0.237 OA
ATOM     73  O   UNL A   1      40.262  36.389  41.583  1.00  0.00    -0.237 OA
ATOM     74  O   UNL A   1      38.549  37.699  40.392  1.00  0.00    -0.744 OA
ENDBRANCH  70  71
ENDBRANCH  38  63
ENDBRANCH  12  13
ENDBRANCH   5   7
ENDBRANCH   2   3
ENDBRANCH   1   2
BRANCH   1  75
ATOM     75  C   UNL A   1      38.146  22.092  25.898  1.00  0.00     0.023 C 
BRANCH  75  76
ATOM     76  C   UNL A   1      37.586  23.454  25.500  1.00  0.00     0.116 C 
BRANCH  76  77
ATOM     77  N   UNL A   1      36.914  23.446  24.217  1.00  0.00    -0.354 N 
ATOM     78  C   UNL A   1      35.602  23.690  23.921  1.00  0.00     0.242 C 
ATOM     79  H   UNL A   1      37.487  23.234  23.444  1.00  0.00     0.163 HD
ATOM     80  O   UNL A   1      35.284  23.641  22.729  1.00  0.00    -0.273 OA
BRANCH  78  81
ATOM     81  C   UNL A   1      34.584  23.996  25.054  1.00  0.00     0.174 C 
ATOM     82  C   UNL A   1      34.465  25.483  25.414  1.00  0.00     0.035 C 
ATOM     83  N   UNL A   1      33.234  23.486  24.726  1.00  0.00    -0.325 N 
ATOM     84  C   UNL A   1      33.805  26.286  24.298  1.00  0.00     0.004 C 
ATOM     85  C   UNL A   1      32.507  24.209  23.674  1.00  0.00     0.121 C 
ATOM     86  C   UNL A   1      32.437  25.705  23.965  1.00  0.00     0.022 C 
BRANCH  83  87
ATOM     87  C   UNL A   1      32.752  22.383  25.440  1.00  0.00     0.274 C 
ATOM     88  O   UNL A   1      32.084  22.517  26.466  1.00  0.00    -0.267 OA
BRANCH  87  89
ATOM     89  C   UNL A   1      33.012  21.045  24.900  1.00  0.00     0.147 A 
ATOM     90  C   UNL A   1      32.263  20.355  23.962  1.00  0.00     0.127 A 
ATOM     91  N   UNL A   1      34.119  20.297  25.270  1.00  0.00    -0.223 NA
ATOM     92  N   UNL A   1      32.899  19.153  23.787  1.00  0.00    -0.306 N 
ATOM     93  C   UNL A   1      34.032  19.173  24.593  1.00  0.00     0.137 A 
ATOM     94  C   UNL A   1      32.545  18.068  22.989  1.00  0.00     0.093 A 
ATOM     95  C   UNL A   1      34.872  18.024  24.565  1.00  0.00     0.048 A 
ATOM     96  C   UNL A   1      33.333  16.978  22.976  1.00  0.00     0.018 A 
ATOM     97  C   UNL A   1      34.540  16.972  23.792  1.00  0.00     0.005 A 
ENDBRANCH  87  89
ENDBRANCH  83  87
ENDBRANCH  78  81
ENDBRANCH  76  77
ENDBRANCH  75  76
ENDBRANCH   1  75
TORSDOF 16
ENDMDL
MODEL 3
REMARK VINA RESULT:     -11.2      4.915      8.166
REMARK SMILES O=C(NCCCCNC(=O)[C@H]1CCCCN1C(=O)c1cn2ccccc2n1)c1ccc(-c2c3nc(c(-c4c(F)cc(S(=O)(=O)[O-])cc4F)c4ccc([nH]4)c(-c4c(F)cc(S(=O)(=O)[O-])cc4F)c4nc(c(-c5c(F)cc(S(=O)(=O)[O-])cc5F)c5ccc2[nH]5)C=C4)C=C3)cc1
REMARK SMILES IDX 5 1 4 2 3 3 1 4 2 5 28 7 29 8 93 9 30 10 92 11 31 12 32 13
REMARK SMILES IDX 33 14 86 15 34 16 91 17 85 18 87 19 35 20 90 21 84 22 83 23
REMARK SMILES IDX 36 25 70 26 49 27 69 28 50 29 53 30 68 31 88 32 51 33 52 34
REMARK SMILES IDX 67 36 89 37 54 38 37 39 38 40 47 41 39 42 40 43 46 44 48 45
REMARK SMILES IDX 41 46 42 47 43 48 44 49 45 50 71 51 72 52 81 53 73 54 74 55
REMARK SMILES IDX 80 56 82 57 75 58 76 59 77 60 78 61 79 62 55 63 56 64 65 65
REMARK SMILES IDX 57 66 58 67 64 68 66 69 59 70 60 71 61 72 62 73 63 74 6 75
REMARK SMILES IDX 7 76 8 77 9 78 10 80 11 81 12 82 16 83 13 84 15 85 14 86
REMARK SMILES IDX 17 87 18 88 19 89 20 90 27 91 21 92 26 93 22 94 25 95 23 96
REMARK SMILES IDX 24 97
REMARK H PARENT 3 6 87 24 53 35 8 79
REMARK Flexibility Score: inf
ROOT
ATOM      1  C   UNL A   1      38.051  19.722  24.906  1.00  0.00     0.023 C 
ENDROOT
BRANCH   1   2
ATOM      2  C   UNL A   1      39.207  20.187  25.783  1.00  0.00     0.116 C 
BRANCH   2   3
ATOM      3  N   UNL A   1      40.241  19.174  25.924  1.00  0.00    -0.352 N 
ATOM      4  O   UNL A   1      42.337  18.356  26.024  1.00  0.00    -0.269 OA
ATOM      5  C   UNL A   1      41.593  19.329  26.119  1.00  0.00     0.251 C 
ATOM      6  H   UNL A   1      39.928  18.243  25.871  1.00  0.00     0.163 HD
BRANCH   5   7
ATOM      7  C   UNL A   1      42.150  20.665  26.428  1.00  0.00     0.039 A 
ATOM      8  C   UNL A   1      42.489  21.548  25.400  1.00  0.00     0.014 A 
ATOM      9  C   UNL A   1      42.308  21.050  27.762  1.00  0.00     0.014 A 
ATOM     10  C   UNL A   1      43.106  22.757  25.698  1.00  0.00     0.010 A 
ATOM     11  C   UNL A   1      42.848  22.304  28.064  1.00  0.00     0.010 A 
ATOM     12  C   UNL A   1      43.266  23.161  27.033  1.00  0.00    -0.014 A 
BRANCH  12  13
ATOM     13  C   UNL A   1      43.761  24.531  27.326  1.00  0.00     0.031 A 
ATOM     14  C   UNL A   1      42.829  25.624  27.769  1.00  0.00     0.074 A 
ATOM     15  C   UNL A   1      45.077  24.777  27.170  1.00  0.00     0.049 A 
ATOM     16  N   UNL A   1      43.100  26.878  28.023  1.00  0.00    -0.248 NA
ATOM     17  C   UNL A   1      41.410  25.272  27.942  1.00  0.00     0.031 C 
ATOM     18  C   UNL A   1      46.069  23.792  26.722  1.00  0.00     0.029 A 
ATOM     19  N   UNL A   1      45.812  25.919  27.359  1.00  0.00    -0.354 N 
ATOM     20  C   UNL A   1      41.890  27.473  28.360  1.00  0.00     0.074 A 
ATOM     21  C   UNL A   1      40.877  26.442  28.272  1.00  0.00     0.031 C 
ATOM     22  C   UNL A   1      47.279  24.367  26.689  1.00  0.00     0.029 A 
ATOM     23  C   UNL A   1      47.143  25.773  27.044  1.00  0.00     0.049 A 
ATOM     24  H   UNL A   1      45.424  26.761  27.689  1.00  0.00     0.167 HD
ATOM     25  C   UNL A   1      41.656  28.760  28.709  1.00  0.00     0.037 A 
ATOM     26  C   UNL A   1      48.138  26.678  27.001  1.00  0.00     0.037 A 
ATOM     27  C   UNL A   1      42.683  29.766  28.819  1.00  0.00     0.049 A 
ATOM     28  C   UNL A   1      47.839  28.103  27.366  1.00  0.00     0.074 A 
ATOM     29  C   UNL A   1      42.557  31.075  29.252  1.00  0.00     0.029 A 
ATOM     30  N   UNL A   1      44.015  29.585  28.476  1.00  0.00    -0.354 N 
ATOM     31  N   UNL A   1      46.703  28.628  27.761  1.00  0.00    -0.248 NA
ATOM     32  C   UNL A   1      48.947  29.061  27.273  1.00  0.00     0.031 C 
ATOM     33  C   UNL A   1      43.800  31.702  29.114  1.00  0.00     0.029 A 
ATOM     34  C   UNL A   1      44.712  30.771  28.644  1.00  0.00     0.049 A 
ATOM     35  H   UNL A   1      44.407  28.740  28.160  1.00  0.00     0.167 HD
ATOM     36  C   UNL A   1      46.962  29.976  27.966  1.00  0.00     0.074 A 
ATOM     37  C   UNL A   1      48.367  30.182  27.680  1.00  0.00     0.031 C 
ATOM     38  C   UNL A   1      46.111  30.958  28.351  1.00  0.00     0.037 A 
BRANCH  25  39
ATOM     39  C   UNL A   1      40.238  29.182  28.985  1.00  0.00     0.058 A 
ATOM     40  C   UNL A   1      39.767  29.394  30.289  1.00  0.00     0.135 A 
ATOM     41  C   UNL A   1      39.373  29.482  27.919  1.00  0.00     0.135 A 
ATOM     42  F   UNL A   1      40.547  29.114  31.345  1.00  0.00    -0.206 F 
ATOM     43  C   UNL A   1      38.485  29.883  30.527  1.00  0.00     0.059 A 
ATOM     44  C   UNL A   1      38.095  29.992  28.132  1.00  0.00     0.059 A 
ATOM     45  F   UNL A   1      39.774  29.297  26.651  1.00  0.00    -0.206 F 
ATOM     46  C   UNL A   1      37.659  30.186  29.442  1.00  0.00     0.060 A 
BRANCH  46  47
ATOM     47  S   UNL A   1      36.016  30.860  29.770  1.00  0.00     0.124 S 
ATOM     48  O   UNL A   1      35.254  30.335  28.640  1.00  0.00    -0.237 OA
ATOM     49  O   UNL A   1      35.696  30.282  31.071  1.00  0.00    -0.237 OA
ATOM     50  O   UNL A   1      36.231  32.304  29.764  1.00  0.00    -0.744 OA
ENDBRANCH  46  47
ENDBRANCH  25  39
BRANCH  26  51
ATOM     51  C   UNL A   1      49.491  26.268  26.544  1.00  0.00     0.058 A 
ATOM     52  C   UNL A   1      50.443  25.766  27.443  1.00  0.00     0.135 A 
ATOM     53  C   UNL A   1      49.857  26.366  25.191  1.00  0.00     0.135 A 
ATOM     54  F   UNL A   1      50.142  25.656  28.746  1.00  0.00    -0.206 F 
ATOM     55  C   UNL A   1      51.716  25.397  27.022  1.00  0.00     0.059 A 
ATOM     56  C   UNL A   1      51.112  25.975  24.742  1.00  0.00     0.059 A 
ATOM     57  F   UNL A   1      48.976  26.822  24.287  1.00  0.00    -0.206 F 
ATOM     58  C   UNL A   1      52.042  25.506  25.669  1.00  0.00     0.060 A 
BRANCH  58  59
ATOM     59  S   UNL A   1      53.687  25.002  25.127  1.00  0.00     0.124 S 
ATOM     60  O   UNL A   1      54.512  25.448  26.243  1.00  0.00    -0.237 OA
ATOM     61  O   UNL A   1      53.535  23.557  24.982  1.00  0.00    -0.237 OA
ATOM     62  O   UNL A   1      53.867  25.733  23.875  1.00  0.00    -0.744 OA
ENDBRANCH  58  59
ENDBRANCH  26  51
BRANCH  38  63
ATOM     63  C   UNL A   1      46.674  32.344  28.490  1.00  0.00     0.058 A 
ATOM     64  C   UNL A   1      46.614  33.265  27.433  1.00  0.00     0.135 A 
ATOM     65  C   UNL A   1      47.220  32.774  29.710  1.00  0.00     0.135 A 
ATOM     66  F   UNL A   1      46.115  32.897  26.243  1.00  0.00    -0.206 F 
ATOM     67  C   UNL A   1      47.086  34.565  27.578  1.00  0.00     0.059 A 
ATOM     68  C   UNL A   1      47.673  34.077  29.885  1.00  0.00     0.059 A 
ATOM     69  F   UNL A   1      47.295  31.932  30.752  1.00  0.00    -0.206 F 
ATOM     70  C   UNL A   1      47.607  34.964  28.811  1.00  0.00     0.060 A 
BRANCH  70  71
ATOM     71  S   UNL A   1      48.160  36.671  29.002  1.00  0.00     0.124 S 
ATOM     72  O   UNL A   1      49.573  36.489  29.317  1.00  0.00    -0.237 OA
ATOM     73  O   UNL A   1      47.872  37.241  27.689  1.00  0.00    -0.237 OA
ATOM     74  O   UNL A   1      47.333  37.177  30.093  1.00  0.00    -0.744 OA
ENDBRANCH  70  71
ENDBRANCH  38  63
ENDBRANCH  12  13
ENDBRANCH   5   7
ENDBRANCH   2   3
ENDBRANCH   1   2
BRANCH   1  75
ATOM     75  C   UNL A   1      36.755  20.519  25.059  1.00  0.00     0.023 C 
BRANCH  75  76
ATOM     76  C   UNL A   1      36.870  22.020  24.813  1.00  0.00     0.116 C 
BRANCH  76  77
ATOM     77  N   UNL A   1      36.151  22.466  23.637  1.00  0.00    -0.354 N 
ATOM     78  C   UNL A   1      34.969  23.145  23.547  1.00  0.00     0.242 C 
ATOM     79  H   UNL A   1      36.577  22.248  22.776  1.00  0.00     0.163 HD
ATOM     80  O   UNL A   1      34.576  23.429  22.412  1.00  0.00    -0.273 OA
BRANCH  78  81
ATOM     81  C   UNL A   1      34.173  23.514  24.830  1.00  0.00     0.174 C 
ATOM     82  C   UNL A   1      34.489  24.907  25.393  1.00  0.00     0.035 C 
ATOM     83  N   UNL A   1      32.713  23.419  24.613  1.00  0.00    -0.325 N 
ATOM     84  C   UNL A   1      33.973  26.016  24.483  1.00  0.00     0.004 C 
ATOM     85  C   UNL A   1      32.116  24.459  23.765  1.00  0.00     0.121 C 
ATOM     86  C   UNL A   1      32.475  25.860  24.254  1.00  0.00     0.022 C 
BRANCH  83  87
ATOM     87  C   UNL A   1      32.018  22.375  25.233  1.00  0.00     0.274 C 
ATOM     88  O   UNL A   1      31.118  22.587  26.046  1.00  0.00    -0.267 OA
BRANCH  87  89
ATOM     89  C   UNL A   1      32.347  21.001  24.842  1.00  0.00     0.147 A 
ATOM     90  C   UNL A   1      32.396  20.477  23.561  1.00  0.00     0.127 A 
ATOM     91  N   UNL A   1      32.697  20.029  25.767  1.00  0.00    -0.223 NA
ATOM     92  N   UNL A   1      32.740  19.158  23.709  1.00  0.00    -0.306 N 
ATOM     93  C   UNL A   1      32.928  18.939  25.069  1.00  0.00     0.137 A 
ATOM     94  C   UNL A   1      32.885  18.164  22.744  1.00  0.00     0.093 A 
ATOM     95  C   UNL A   1      33.313  17.628  25.470  1.00  0.00     0.048 A 
ATOM     96  C   UNL A   1      33.235  16.923  23.129  1.00  0.00     0.018 A 
ATOM     97  C   UNL A   1      33.460  16.661  24.544  1.00  0.00     0.005 A 
ENDBRANCH  87  89
ENDBRANCH  83  87
ENDBRANCH  78  81
ENDBRANCH  76  77
ENDBRANCH  75  76
ENDBRANCH   1  75
TORSDOF 16
ENDMDL
