MODEL 1
REMARK VINA RESULT:     -12.1      0.000      0.000
REMARK SMILES O=CN[C@@H](CCS[C@@H]1CCO[C@]2(CCOC2)C1)C(=O)NCCCCNC(=O)c1ccc(-c2c3nc(c(-c4c(F)cc(S(=O)(=O)[O-])cc4F)c4ccc([nH]4)c(-c4c(F)cc(S(=O)(=O)[O-])cc4F)c4nc(c(-c5c(F)cc(S(=O)(=O)[O-])cc5F)c5ccc2[nH]5)C=C4)C=C3)cc1
REMARK SMILES IDX 22 1 21 2 20 3 18 4 19 5 4 7 3 8 1 9 2 10 5 12 6 13 7 14
REMARK SMILES IDX 8 15 9 16 17 17 10 18 12 19 11 20 13 21 16 22 14 23 15 24
REMARK SMILES IDX 23 25 24 26 25 27 26 28 27 30 28 31 29 32 93 33 30 34 92 35
REMARK SMILES IDX 31 36 32 37 33 38 86 39 34 40 91 41 85 42 87 43 35 44 90 45
REMARK SMILES IDX 84 46 83 47 36 49 70 50 49 51 69 52 50 53 53 54 68 55 88 56
REMARK SMILES IDX 51 57 52 58 67 60 89 61 54 62 37 63 38 64 47 65 39 66 40 67
REMARK SMILES IDX 46 68 48 69 41 70 42 71 43 72 44 73 45 74 71 75 72 76 81 77
REMARK SMILES IDX 73 78 74 79 80 80 82 81 75 82 76 83 77 84 78 85 79 86 55 87
REMARK SMILES IDX 56 88 65 89 57 90 58 91 64 92 66 93 59 94 60 95 61 96 62 97
REMARK SMILES IDX 63 98
REMARK H PARENT 20 6 3 11 25 29 87 48 53 59
REMARK Flexibility Score: inf
ROOT
ATOM      1  C   UNL A   1      37.891  22.862  25.302  1.00  0.00     0.023 C 
ENDROOT
BRANCH   1   2
ATOM      2  C   UNL A   1      36.904  21.706  25.265  1.00  0.00     0.116 C 
BRANCH   2   3
ATOM      3  N   UNL A   1      36.071  21.695  26.436  1.00  0.00    -0.354 N 
ATOM      4  C   UNL A   1      34.731  21.463  26.517  1.00  0.00     0.242 C 
ATOM      5  O   UNL A   1      34.110  21.625  27.515  1.00  0.00    -0.273 OA
ATOM      6  H   UNL A   1      36.527  21.878  27.289  1.00  0.00     0.163 HD
BRANCH   4   7
ATOM      7  C   UNL A   1      33.909  20.839  25.460  1.00  0.00     0.171 C 
BRANCH   7   8
ATOM      8  N   UNL A   1      33.209  19.778  26.138  1.00  0.00    -0.347 N 
ATOM      9  O   UNL A   1      32.264  17.686  25.879  1.00  0.00    -0.279 OA
ATOM     10  C   UNL A   1      32.792  18.674  25.393  1.00  0.00     0.337 C 
ATOM     11  H   UNL A   1      33.028  19.831  27.104  1.00  0.00     0.164 HD
ENDBRANCH   7   8
BRANCH   7  12
ATOM     12  C   UNL A   1      33.318  22.054  24.718  1.00  0.00     0.046 C 
BRANCH  12  13
ATOM     13  C   UNL A   1      31.790  22.447  24.979  1.00  0.00     0.072 C 
BRANCH  13  14
ATOM     14  S   UNL A   1      31.284  23.825  26.215  1.00  0.00    -0.158 SA
BRANCH  14  15
ATOM     15  C   UNL A   1      32.364  25.520  26.132  1.00  0.00     0.052 C 
ATOM     16  C   UNL A   1      31.276  26.612  26.310  1.00  0.00     0.043 C 
ATOM     17  C   UNL A   1      33.150  26.126  24.893  1.00  0.00     0.052 C 
ATOM     18  C   UNL A   1      30.449  26.712  25.021  1.00  0.00     0.162 C 
ATOM     19  C   UNL A   1      32.320  26.329  23.583  1.00  0.00     0.095 C 
ATOM     20  O   UNL A   1      31.239  27.213  23.930  1.00  0.00    -0.372 OA
ATOM     21  C   UNL A   1      31.776  25.170  22.728  1.00  0.00     0.066 C 
ATOM     22  C   UNL A   1      33.231  26.956  22.509  1.00  0.00     0.195 C 
ATOM     23  C   UNL A   1      32.891  24.799  21.759  1.00  0.00     0.163 C 
ATOM     24  O   UNL A   1      33.827  25.880  21.759  1.00  0.00    -0.378 OA
ENDBRANCH  14  15
ENDBRANCH  13  14
ENDBRANCH  12  13
ENDBRANCH   7  12
ENDBRANCH   4   7
ENDBRANCH   2   3
ENDBRANCH   1   2
BRANCH   1  25
ATOM     25  C   UNL A   1      38.240  23.385  26.691  1.00  0.00     0.023 C 
BRANCH  25  26
ATOM     26  C   UNL A   1      39.728  23.444  27.021  1.00  0.00     0.116 C 
BRANCH  26  27
ATOM     27  N   UNL A   1      40.519  24.154  26.023  1.00  0.00    -0.352 N 
ATOM     28  C   UNL A   1      41.185  25.348  26.098  1.00  0.00     0.251 C 
ATOM     29  H   UNL A   1      40.584  23.701  25.152  1.00  0.00     0.163 HD
ATOM     30  O   UNL A   1      41.741  25.803  25.105  1.00  0.00    -0.269 OA
BRANCH  28  31
ATOM     31  C   UNL A   1      41.174  26.094  27.363  1.00  0.00     0.039 A 
ATOM     32  C   UNL A   1      42.222  26.980  27.609  1.00  0.00     0.014 A 
ATOM     33  C   UNL A   1      40.105  25.970  28.252  1.00  0.00     0.014 A 
ATOM     34  C   UNL A   1      42.158  27.812  28.722  1.00  0.00     0.010 A 
ATOM     35  C   UNL A   1      40.005  26.855  29.317  1.00  0.00     0.010 A 
ATOM     36  C   UNL A   1      41.026  27.788  29.554  1.00  0.00    -0.014 A 
BRANCH  36  37
ATOM     37  C   UNL A   1      40.887  28.762  30.658  1.00  0.00     0.031 A 
ATOM     38  C   UNL A   1      41.771  28.658  31.866  1.00  0.00     0.074 A 
ATOM     39  C   UNL A   1      39.927  29.705  30.583  1.00  0.00     0.049 A 
ATOM     40  N   UNL A   1      41.778  29.393  32.945  1.00  0.00    -0.248 NA
ATOM     41  C   UNL A   1      42.763  27.569  31.872  1.00  0.00     0.031 C 
ATOM     42  C   UNL A   1      38.983  29.862  29.473  1.00  0.00     0.029 A 
ATOM     43  N   UNL A   1      39.582  30.704  31.455  1.00  0.00    -0.354 N 
ATOM     44  C   UNL A   1      42.768  28.858  33.759  1.00  0.00     0.074 A 
ATOM     45  C   UNL A   1      43.301  27.701  33.075  1.00  0.00     0.031 C 
ATOM     46  C   UNL A   1      38.186  30.914  29.720  1.00  0.00     0.029 A 
ATOM     47  C   UNL A   1      38.530  31.476  31.021  1.00  0.00     0.049 A 
ATOM     48  H   UNL A   1      40.043  30.857  32.311  1.00  0.00     0.167 HD
ATOM     49  C   UNL A   1      43.205  29.309  34.958  1.00  0.00     0.037 A 
ATOM     50  C   UNL A   1      37.906  32.513  31.613  1.00  0.00     0.037 A 
ATOM     51  C   UNL A   1      42.670  30.470  35.618  1.00  0.00     0.049 A 
ATOM     52  C   UNL A   1      38.392  32.976  32.958  1.00  0.00     0.074 A 
ATOM     53  C   UNL A   1      43.081  31.051  36.804  1.00  0.00     0.029 A 
ATOM     54  N   UNL A   1      41.598  31.221  35.155  1.00  0.00    -0.354 N 
ATOM     55  N   UNL A   1      39.385  32.510  33.679  1.00  0.00    -0.248 NA
ATOM     56  C   UNL A   1      37.677  34.100  33.574  1.00  0.00     0.031 C 
ATOM     57  C   UNL A   1      42.221  32.116  37.088  1.00  0.00     0.029 A 
ATOM     58  C   UNL A   1      41.308  32.236  36.052  1.00  0.00     0.049 A 
ATOM     59  H   UNL A   1      41.115  31.057  34.313  1.00  0.00     0.167 HD
ATOM     60  C   UNL A   1      39.420  33.291  34.828  1.00  0.00     0.074 A 
ATOM     61  C   UNL A   1      38.366  34.277  34.693  1.00  0.00     0.031 C 
ATOM     62  C   UNL A   1      40.245  33.200  35.901  1.00  0.00     0.037 A 
BRANCH  49  63
ATOM     63  C   UNL A   1      44.312  28.544  35.629  1.00  0.00     0.058 A 
ATOM     64  C   UNL A   1      44.047  27.502  36.534  1.00  0.00     0.135 A 
ATOM     65  C   UNL A   1      45.656  28.833  35.342  1.00  0.00     0.135 A 
ATOM     66  F   UNL A   1      42.781  27.194  36.859  1.00  0.00    -0.206 F 
ATOM     67  C   UNL A   1      45.074  26.794  37.151  1.00  0.00     0.059 A 
ATOM     68  C   UNL A   1      46.699  28.118  35.924  1.00  0.00     0.059 A 
ATOM     69  F   UNL A   1      45.967  29.821  34.489  1.00  0.00    -0.206 F 
ATOM     70  C   UNL A   1      46.397  27.109  36.839  1.00  0.00     0.060 A 
BRANCH  70  71
ATOM     71  S   UNL A   1      47.715  26.175  37.643  1.00  0.00     0.124 S 
ATOM     72  O   UNL A   1      48.664  26.009  36.546  1.00  0.00    -0.237 OA
ATOM     73  O   UNL A   1      48.132  27.081  38.709  1.00  0.00    -0.237 OA
ATOM     74  O   UNL A   1      47.048  24.955  38.084  1.00  0.00    -0.744 OA
ENDBRANCH  70  71
ENDBRANCH  49  63
BRANCH  50  75
ATOM     75  C   UNL A   1      36.763  33.179  30.934  1.00  0.00     0.058 A 
ATOM     76  C   UNL A   1      35.447  32.994  31.384  1.00  0.00     0.135 A 
ATOM     77  C   UNL A   1      36.963  34.031  29.836  1.00  0.00     0.135 A 
ATOM     78  F   UNL A   1      35.202  32.185  32.426  1.00  0.00    -0.206 F 
ATOM     79  C   UNL A   1      34.370  33.617  30.762  1.00  0.00     0.059 A 
ATOM     80  C   UNL A   1      35.905  34.687  29.215  1.00  0.00     0.059 A 
ATOM     81  F   UNL A   1      38.204  34.257  29.377  1.00  0.00    -0.206 F 
ATOM     82  C   UNL A   1      34.610  34.467  29.680  1.00  0.00     0.060 A 
BRANCH  82  83
ATOM     83  S   UNL A   1      33.209  35.310  28.913  1.00  0.00     0.124 S 
ATOM     84  O   UNL A   1      33.877  36.379  28.178  1.00  0.00    -0.237 OA
ATOM     85  O   UNL A   1      32.621  34.249  28.104  1.00  0.00    -0.237 OA
ATOM     86  O   UNL A   1      32.408  35.735  30.057  1.00  0.00    -0.744 OA
ENDBRANCH  82  83
ENDBRANCH  50  75
BRANCH  62  87
ATOM     87  C   UNL A   1      40.040  34.189  37.014  1.00  0.00     0.058 A 
ATOM     88  C   UNL A   1      40.569  35.488  36.947  1.00  0.00     0.135 A 
ATOM     89  C   UNL A   1      39.255  33.857  38.130  1.00  0.00     0.135 A 
ATOM     90  F   UNL A   1      41.335  35.852  35.906  1.00  0.00    -0.206 F 
ATOM     91  C   UNL A   1      40.342  36.418  37.955  1.00  0.00     0.059 A 
ATOM     92  C   UNL A   1      38.989  34.781  39.136  1.00  0.00     0.059 A 
ATOM     93  F   UNL A   1      38.718  32.632  38.240  1.00  0.00    -0.206 F 
ATOM     94  C   UNL A   1      39.545  36.056  39.043  1.00  0.00     0.060 A 
BRANCH  94  95
ATOM     95  S   UNL A   1      39.220  37.289  40.320  1.00  0.00     0.124 S 
ATOM     96  O   UNL A   1      40.573  37.666  40.715  1.00  0.00    -0.237 OA
ATOM     97  O   UNL A   1      38.469  38.304  39.588  1.00  0.00    -0.237 OA
ATOM     98  O   UNL A   1      38.456  36.552  41.320  1.00  0.00    -0.744 OA
ENDBRANCH  94  95
ENDBRANCH  62  87
ENDBRANCH  36  37
ENDBRANCH  28  31
ENDBRANCH  26  27
ENDBRANCH  25  26
ENDBRANCH   1  25
TORSDOF 19
ENDMDL
MODEL 2
REMARK VINA RESULT:     -11.9      6.635     12.025
REMARK SMILES O=CN[C@@H](CCS[C@@H]1CCO[C@]2(CCOC2)C1)C(=O)NCCCCNC(=O)c1ccc(-c2c3nc(c(-c4c(F)cc(S(=O)(=O)[O-])cc4F)c4ccc([nH]4)c(-c4c(F)cc(S(=O)(=O)[O-])cc4F)c4nc(c(-c5c(F)cc(S(=O)(=O)[O-])cc5F)c5ccc2[nH]5)C=C4)C=C3)cc1
REMARK SMILES IDX 22 1 21 2 20 3 18 4 19 5 4 7 3 8 1 9 2 10 5 12 6 13 7 14
REMARK SMILES IDX 8 15 9 16 17 17 10 18 12 19 11 20 13 21 16 22 14 23 15 24
REMARK SMILES IDX 23 25 24 26 25 27 26 28 27 30 28 31 29 32 93 33 30 34 92 35
REMARK SMILES IDX 31 36 32 37 33 38 86 39 34 40 91 41 85 42 87 43 35 44 90 45
REMARK SMILES IDX 84 46 83 47 36 49 70 50 49 51 69 52 50 53 53 54 68 55 88 56
REMARK SMILES IDX 51 57 52 58 67 60 89 61 54 62 37 63 38 64 47 65 39 66 40 67
REMARK SMILES IDX 46 68 48 69 41 70 42 71 43 72 44 73 45 74 71 75 72 76 81 77
REMARK SMILES IDX 73 78 74 79 80 80 82 81 75 82 76 83 77 84 78 85 79 86 55 87
REMARK SMILES IDX 56 88 65 89 57 90 58 91 64 92 66 93 59 94 60 95 61 96 62 97
REMARK SMILES IDX 63 98
REMARK H PARENT 20 6 3 11 25 29 87 48 53 59
REMARK Flexibility Score: inf
ROOT
ATOM      1  C   UNL A   1      32.631  29.770  26.968  1.00  0.00     0.023 C 
ENDROOT
BRANCH   1   2
ATOM      2  C   UNL A   1      32.118  29.720  25.538  1.00  0.00     0.116 C 
BRANCH   2   3
ATOM      3  N   UNL A   1      33.203  29.695  24.596  1.00  0.00    -0.354 N 
ATOM      4  C   UNL A   1      33.333  28.928  23.478  1.00  0.00     0.242 C 
ATOM      5  O   UNL A   1      34.338  28.875  22.848  1.00  0.00    -0.273 OA
ATOM      6  H   UNL A   1      33.948  30.312  24.783  1.00  0.00     0.163 HD
BRANCH   4   7
ATOM      7  C   UNL A   1      32.233  28.203  22.809  1.00  0.00     0.171 C 
BRANCH   7   8
ATOM      8  N   UNL A   1      31.549  29.220  22.051  1.00  0.00    -0.347 N 
ATOM      9  O   UNL A   1      29.478  30.097  21.526  1.00  0.00    -0.279 OA
ATOM     10  C   UNL A   1      30.155  29.235  22.066  1.00  0.00     0.337 C 
ATOM     11  H   UNL A   1      32.055  29.888  21.534  1.00  0.00     0.164 HD
ENDBRANCH   7   8
BRANCH   7  12
ATOM     12  C   UNL A   1      32.925  26.926  22.292  1.00  0.00     0.046 C 
BRANCH  12  13
ATOM     13  C   UNL A   1      32.270  25.506  22.628  1.00  0.00     0.072 C 
BRANCH  13  14
ATOM     14  S   UNL A   1      32.443  24.681  24.351  1.00  0.00    -0.158 SA
BRANCH  14  15
ATOM     15  C   UNL A   1      32.748  22.693  24.346  1.00  0.00     0.052 C 
ATOM     16  C   UNL A   1      32.164  22.268  25.720  1.00  0.00     0.043 C 
ATOM     17  C   UNL A   1      34.129  21.909  24.390  1.00  0.00     0.052 C 
ATOM     18  C   UNL A   1      33.117  22.721  26.834  1.00  0.00     0.162 C 
ATOM     19  C   UNL A   1      35.093  22.278  25.564  1.00  0.00     0.095 C 
ATOM     20  O   UNL A   1      34.366  22.011  26.776  1.00  0.00    -0.372 OA
ATOM     21  C   UNL A   1      35.809  23.636  25.687  1.00  0.00     0.066 C 
ATOM     22  C   UNL A   1      36.355  21.397  25.466  1.00  0.00     0.195 C 
ATOM     23  C   UNL A   1      37.103  23.506  24.893  1.00  0.00     0.163 C 
ATOM     24  O   UNL A   1      37.325  22.110  24.674  1.00  0.00    -0.378 OA
ENDBRANCH  14  15
ENDBRANCH  13  14
ENDBRANCH  12  13
ENDBRANCH   7  12
ENDBRANCH   4   7
ENDBRANCH   2   3
ENDBRANCH   1   2
BRANCH   1  25
ATOM     25  C   UNL A   1      33.718  28.758  27.313  1.00  0.00     0.023 C 
BRANCH  25  26
ATOM     26  C   UNL A   1      35.109  29.336  27.550  1.00  0.00     0.116 C 
BRANCH  26  27
ATOM     27  N   UNL A   1      35.209  30.136  28.765  1.00  0.00    -0.352 N 
ATOM     28  C   UNL A   1      36.266  30.350  29.608  1.00  0.00     0.251 C 
ATOM     29  H   UNL A   1      34.378  30.598  29.023  1.00  0.00     0.163 HD
ATOM     30  O   UNL A   1      36.114  31.013  30.627  1.00  0.00    -0.269 OA
BRANCH  28  31
ATOM     31  C   UNL A   1      37.561  29.729  29.302  1.00  0.00     0.039 A 
ATOM     32  C   UNL A   1      38.017  29.779  27.986  1.00  0.00     0.014 A 
ATOM     33  C   UNL A   1      38.340  29.173  30.319  1.00  0.00     0.014 A 
ATOM     34  C   UNL A   1      39.305  29.340  27.698  1.00  0.00     0.010 A 
ATOM     35  C   UNL A   1      39.651  28.808  30.043  1.00  0.00     0.010 A 
ATOM     36  C   UNL A   1      40.145  28.898  28.733  1.00  0.00    -0.014 A 
BRANCH  36  37
ATOM     37  C   UNL A   1      41.558  28.558  28.458  1.00  0.00     0.031 A 
ATOM     38  C   UNL A   1      42.608  29.629  28.492  1.00  0.00     0.074 A 
ATOM     39  C   UNL A   1      41.874  27.290  28.129  1.00  0.00     0.049 A 
ATOM     40  N   UNL A   1      43.888  29.533  28.246  1.00  0.00    -0.248 NA
ATOM     41  C   UNL A   1      42.157  30.991  28.821  1.00  0.00     0.031 C 
ATOM     42  C   UNL A   1      40.920  26.182  28.021  1.00  0.00     0.029 A 
ATOM     43  N   UNL A   1      43.081  26.717  27.822  1.00  0.00    -0.354 N 
ATOM     44  C   UNL A   1      44.395  30.818  28.389  1.00  0.00     0.074 A 
ATOM     45  C   UNL A   1      43.276  31.686  28.684  1.00  0.00     0.031 C 
ATOM     46  C   UNL A   1      41.583  25.060  27.700  1.00  0.00     0.029 A 
ATOM     47  C   UNL A   1      42.998  25.375  27.535  1.00  0.00     0.049 A 
ATOM     48  H   UNL A   1      43.928  27.218  27.808  1.00  0.00     0.167 HD
ATOM     49  C   UNL A   1      45.682  31.228  28.303  1.00  0.00     0.037 A 
ATOM     50  C   UNL A   1      43.954  24.501  27.168  1.00  0.00     0.037 A 
ATOM     51  C   UNL A   1      46.783  30.347  28.020  1.00  0.00     0.049 A 
ATOM     52  C   UNL A   1      45.372  24.987  27.051  1.00  0.00     0.074 A 
ATOM     53  C   UNL A   1      48.133  30.645  27.970  1.00  0.00     0.029 A 
ATOM     54  N   UNL A   1      46.662  28.996  27.723  1.00  0.00    -0.354 N 
ATOM     55  N   UNL A   1      45.849  26.190  27.269  1.00  0.00    -0.248 NA
ATOM     56  C   UNL A   1      46.381  24.005  26.636  1.00  0.00     0.031 C 
ATOM     57  C   UNL A   1      48.821  29.490  27.588  1.00  0.00     0.029 A 
ATOM     58  C   UNL A   1      47.908  28.456  27.452  1.00  0.00     0.049 A 
ATOM     59  H   UNL A   1      45.814  28.495  27.709  1.00  0.00     0.167 HD
ATOM     60  C   UNL A   1      47.216  26.107  27.029  1.00  0.00     0.074 A 
ATOM     61  C   UNL A   1      47.492  24.729  26.675  1.00  0.00     0.031 C 
ATOM     62  C   UNL A   1      48.157  27.082  27.091  1.00  0.00     0.037 A 
BRANCH  49  63
ATOM     63  C   UNL A   1      45.964  32.690  28.516  1.00  0.00     0.058 A 
ATOM     64  C   UNL A   1      45.964  33.605  27.450  1.00  0.00     0.135 A 
ATOM     65  C   UNL A   1      46.207  33.189  29.806  1.00  0.00     0.135 A 
ATOM     66  F   UNL A   1      45.755  33.181  26.194  1.00  0.00    -0.206 F 
ATOM     67  C   UNL A   1      46.222  34.957  27.651  1.00  0.00     0.059 A 
ATOM     68  C   UNL A   1      46.438  34.543  30.034  1.00  0.00     0.059 A 
ATOM     69  F   UNL A   1      46.224  32.359  30.860  1.00  0.00    -0.206 F 
ATOM     70  C   UNL A   1      46.457  35.417  28.948  1.00  0.00     0.060 A 
BRANCH  70  71
ATOM     71  S   UNL A   1      46.783  37.176  29.190  1.00  0.00     0.124 S 
ATOM     72  O   UNL A   1      45.635  37.778  28.519  1.00  0.00    -0.237 OA
ATOM     73  O   UNL A   1      46.799  37.291  30.645  1.00  0.00    -0.237 OA
ATOM     74  O   UNL A   1      48.070  37.378  28.533  1.00  0.00    -0.744 OA
ENDBRANCH  70  71
ENDBRANCH  49  63
BRANCH  50  75
ATOM     75  C   UNL A   1      43.600  23.083  26.891  1.00  0.00     0.058 A 
ATOM     76  C   UNL A   1      43.251  22.208  27.930  1.00  0.00     0.135 A 
ATOM     77  C   UNL A   1      43.583  22.578  25.581  1.00  0.00     0.135 A 
ATOM     78  F   UNL A   1      43.258  22.640  29.201  1.00  0.00    -0.206 F 
ATOM     79  C   UNL A   1      42.912  20.881  27.684  1.00  0.00     0.059 A 
ATOM     80  C   UNL A   1      43.220  21.264  25.306  1.00  0.00     0.059 A 
ATOM     81  F   UNL A   1      43.891  23.379  24.548  1.00  0.00    -0.206 F 
ATOM     82  C   UNL A   1      42.895  20.420  26.366  1.00  0.00     0.060 A 
BRANCH  82  83
ATOM     83  S   UNL A   1      42.402  18.711  26.053  1.00  0.00     0.124 S 
ATOM     84  O   UNL A   1      41.004  18.873  25.671  1.00  0.00    -0.237 OA
ATOM     85  O   UNL A   1      43.316  18.322  24.984  1.00  0.00    -0.237 OA
ATOM     86  O   UNL A   1      42.634  18.055  27.337  1.00  0.00    -0.744 OA
ENDBRANCH  82  83
ENDBRANCH  50  75
BRANCH  62  87
ATOM     87  C   UNL A   1      49.573  26.693  26.766  1.00  0.00     0.058 A 
ATOM     88  C   UNL A   1      50.043  26.682  25.443  1.00  0.00     0.135 A 
ATOM     89  C   UNL A   1      50.484  26.389  27.789  1.00  0.00     0.135 A 
ATOM     90  F   UNL A   1      49.208  26.955  24.427  1.00  0.00    -0.206 F 
ATOM     91  C   UNL A   1      51.364  26.366  25.145  1.00  0.00     0.059 A 
ATOM     92  C   UNL A   1      51.818  26.101  27.517  1.00  0.00     0.059 A 
ATOM     93  F   UNL A   1      50.088  26.394  29.072  1.00  0.00    -0.206 F 
ATOM     94  C   UNL A   1      52.245  26.083  26.190  1.00  0.00     0.060 A 
BRANCH  94  95
ATOM     95  S   UNL A   1      53.967  25.722  25.790  1.00  0.00     0.124 S 
ATOM     96  O   UNL A   1      53.836  25.054  24.500  1.00  0.00    -0.237 OA
ATOM     97  O   UNL A   1      54.564  27.054  25.755  1.00  0.00    -0.237 OA
ATOM     98  O   UNL A   1      54.404  24.875  26.895  1.00  0.00    -0.744 OA
ENDBRANCH  94  95
ENDBRANCH  62  87
ENDBRANCH  36  37
ENDBRANCH  28  31
ENDBRANCH  26  27
ENDBRANCH  25  26
ENDBRANCH   1  25
TORSDOF 19
ENDMDL
MODEL 3
REMARK VINA RESULT:     -11.7      6.140      8.335
REMARK SMILES O=CN[C@@H](CCS[C@@H]1CCO[C@]2(CCOC2)C1)C(=O)NCCCCNC(=O)c1ccc(-c2c3nc(c(-c4c(F)cc(S(=O)(=O)[O-])cc4F)c4ccc([nH]4)c(-c4c(F)cc(S(=O)(=O)[O-])cc4F)c4nc(c(-c5c(F)cc(S(=O)(=O)[O-])cc5F)c5ccc2[nH]5)C=C4)C=C3)cc1
REMARK SMILES IDX 22 1 21 2 20 3 18 4 19 5 4 7 3 8 1 9 2 10 5 12 6 13 7 14
REMARK SMILES IDX 8 15 9 16 17 17 10 18 12 19 11 20 13 21 16 22 14 23 15 24
REMARK SMILES IDX 23 25 24 26 25 27 26 28 27 30 28 31 29 32 93 33 30 34 92 35
REMARK SMILES IDX 31 36 32 37 33 38 86 39 34 40 91 41 85 42 87 43 35 44 90 45
REMARK SMILES IDX 84 46 83 47 36 49 70 50 49 51 69 52 50 53 53 54 68 55 88 56
REMARK SMILES IDX 51 57 52 58 67 60 89 61 54 62 37 63 38 64 47 65 39 66 40 67
REMARK SMILES IDX 46 68 48 69 41 70 42 71 43 72 44 73 45 74 71 75 72 76 81 77
REMARK SMILES IDX 73 78 74 79 80 80 82 81 75 82 76 83 77 84 78 85 79 86 55 87
REMARK SMILES IDX 56 88 65 89 57 90 58 91 64 92 66 93 59 94 60 95 61 96 62 97
REMARK SMILES IDX 63 98
REMARK H PARENT 20 6 3 11 25 29 87 48 53 59
REMARK Flexibility Score: inf
ROOT
ATOM      1  C   UNL A   1      37.304  20.476  25.002  1.00  0.00     0.023 C 
ENDROOT
BRANCH   1   2
ATOM      2  C   UNL A   1      36.100  21.403  25.018  1.00  0.00     0.116 C 
BRANCH   2   3
ATOM      3  N   UNL A   1      35.529  21.493  26.333  1.00  0.00    -0.354 N 
ATOM      4  C   UNL A   1      34.216  21.423  26.691  1.00  0.00     0.242 C 
ATOM      5  O   UNL A   1      33.835  21.659  27.790  1.00  0.00    -0.273 OA
ATOM      6  H   UNL A   1      36.168  21.621  27.071  1.00  0.00     0.163 HD
BRANCH   4   7
ATOM      7  C   UNL A   1      33.128  20.900  25.839  1.00  0.00     0.171 C 
BRANCH   7   8
ATOM      8  N   UNL A   1      32.904  19.565  26.333  1.00  0.00    -0.347 N 
ATOM      9  O   UNL A   1      32.836  17.333  25.744  1.00  0.00    -0.279 OA
ATOM     10  C   UNL A   1      32.932  18.508  25.424  1.00  0.00     0.337 C 
ATOM     11  H   UNL A   1      32.733  19.404  27.289  1.00  0.00     0.164 HD
ENDBRANCH   7   8
BRANCH   7  12
ATOM     12  C   UNL A   1      32.136  22.079  25.783  1.00  0.00     0.046 C 
BRANCH  12  13
ATOM     13  C   UNL A   1      32.455  23.308  24.811  1.00  0.00     0.072 C 
BRANCH  13  14
ATOM     14  S   UNL A   1      32.959  25.036  25.475  1.00  0.00    -0.158 SA
BRANCH  14  15
ATOM     15  C   UNL A   1      31.484  26.125  26.302  1.00  0.00     0.052 C 
ATOM     16  C   UNL A   1      30.614  26.488  25.069  1.00  0.00     0.043 C 
ATOM     17  C   UNL A   1      31.582  27.553  26.989  1.00  0.00     0.052 C 
ATOM     18  C   UNL A   1      31.345  27.548  24.233  1.00  0.00     0.162 C 
ATOM     19  C   UNL A   1      32.241  28.685  26.136  1.00  0.00     0.095 C 
ATOM     20  O   UNL A   1      31.447  28.795  24.940  1.00  0.00    -0.372 OA
ATOM     21  C   UNL A   1      33.733  28.713  25.760  1.00  0.00     0.066 C 
ATOM     22  C   UNL A   1      32.215  29.997  26.945  1.00  0.00     0.195 C 
ATOM     23  C   UNL A   1      34.447  29.406  26.915  1.00  0.00     0.163 C 
ATOM     24  O   UNL A   1      33.447  30.077  27.687  1.00  0.00    -0.378 OA
ENDBRANCH  14  15
ENDBRANCH  13  14
ENDBRANCH  12  13
ENDBRANCH   7  12
ENDBRANCH   4   7
ENDBRANCH   2   3
ENDBRANCH   1   2
BRANCH   1  25
ATOM     25  C   UNL A   1      38.655  21.148  25.226  1.00  0.00     0.023 C 
BRANCH  25  26
ATOM     26  C   UNL A   1      39.432  20.680  26.452  1.00  0.00     0.116 C 
BRANCH  26  27
ATOM     27  N   UNL A   1      40.371  19.601  26.170  1.00  0.00    -0.352 N 
ATOM     28  C   UNL A   1      41.738  19.605  26.099  1.00  0.00     0.251 C 
ATOM     29  H   UNL A   1      39.954  18.725  26.004  1.00  0.00     0.163 HD
ATOM     30  O   UNL A   1      42.338  18.586  25.777  1.00  0.00    -0.269 OA
BRANCH  28  31
ATOM     31  C   UNL A   1      42.464  20.855  26.358  1.00  0.00     0.039 A 
ATOM     32  C   UNL A   1      42.852  21.626  25.264  1.00  0.00     0.014 A 
ATOM     33  C   UNL A   1      42.689  21.287  27.666  1.00  0.00     0.014 A 
ATOM     34  C   UNL A   1      43.400  22.885  25.483  1.00  0.00     0.010 A 
ATOM     35  C   UNL A   1      43.164  22.575  27.881  1.00  0.00     0.010 A 
ATOM     36  C   UNL A   1      43.513  23.385  26.791  1.00  0.00    -0.014 A 
BRANCH  36  37
ATOM     37  C   UNL A   1      43.967  24.774  27.026  1.00  0.00     0.031 A 
ATOM     38  C   UNL A   1      45.407  25.138  26.814  1.00  0.00     0.074 A 
ATOM     39  C   UNL A   1      43.082  25.684  27.477  1.00  0.00     0.049 A 
ATOM     40  N   UNL A   1      45.999  26.287  26.999  1.00  0.00    -0.248 NA
ATOM     41  C   UNL A   1      46.304  24.063  26.359  1.00  0.00     0.031 C 
ATOM     42  C   UNL A   1      41.669  25.420  27.760  1.00  0.00     0.029 A 
ATOM     43  N   UNL A   1      43.238  27.011  27.781  1.00  0.00    -0.354 N 
ATOM     44  C   UNL A   1      47.336  26.076  26.685  1.00  0.00     0.074 A 
ATOM     45  C   UNL A   1      47.479  24.675  26.356  1.00  0.00     0.031 C 
ATOM     46  C   UNL A   1      41.082  26.556  28.170  1.00  0.00     0.029 A 
ATOM     47  C   UNL A   1      42.084  27.615  28.222  1.00  0.00     0.049 A 
ATOM     48  H   UNL A   1      44.094  27.488  27.692  1.00  0.00     0.167 HD
ATOM     49  C   UNL A   1      48.344  26.978  26.655  1.00  0.00     0.037 A 
ATOM     50  C   UNL A   1      41.863  28.879  28.631  1.00  0.00     0.037 A 
ATOM     51  C   UNL A   1      48.180  28.371  26.976  1.00  0.00     0.049 A 
ATOM     52  C   UNL A   1      43.007  29.855  28.616  1.00  0.00     0.074 A 
ATOM     53  C   UNL A   1      49.120  29.384  26.918  1.00  0.00     0.029 A 
ATOM     54  N   UNL A   1      47.000  28.946  27.428  1.00  0.00    -0.354 N 
ATOM     55  N   UNL A   1      44.248  29.660  28.238  1.00  0.00    -0.248 NA
ATOM     56  C   UNL A   1      42.726  31.218  29.083  1.00  0.00     0.031 C 
ATOM     57  C   UNL A   1      48.526  30.557  27.390  1.00  0.00     0.029 A 
ATOM     58  C   UNL A   1      47.199  30.291  27.691  1.00  0.00     0.049 A 
ATOM     59  H   UNL A   1      46.148  28.468  27.545  1.00  0.00     0.167 HD
ATOM     60  C   UNL A   1      44.894  30.878  28.412  1.00  0.00     0.074 A 
ATOM     61  C   UNL A   1      43.899  31.810  28.903  1.00  0.00     0.031 C 
ATOM     62  C   UNL A   1      46.194  31.198  28.190  1.00  0.00     0.037 A 
BRANCH  49  63
ATOM     63  C   UNL A   1      49.710  26.484  26.264  1.00  0.00     0.058 A 
ATOM     64  C   UNL A   1      50.217  26.664  24.966  1.00  0.00     0.135 A 
ATOM     65  C   UNL A   1      50.536  25.851  27.206  1.00  0.00     0.135 A 
ATOM     66  F   UNL A   1      49.464  27.247  24.020  1.00  0.00    -0.206 F 
ATOM     67  C   UNL A   1      51.482  26.208  24.609  1.00  0.00     0.059 A 
ATOM     68  C   UNL A   1      51.817  25.414  26.880  1.00  0.00     0.059 A 
ATOM     69  F   UNL A   1      50.101  25.648  28.459  1.00  0.00    -0.206 F 
ATOM     70  C   UNL A   1      52.275  25.585  25.574  1.00  0.00     0.060 A 
BRANCH  70  71
ATOM     71  S   UNL A   1      53.917  25.008  25.094  1.00  0.00     0.124 S 
ATOM     72  O   UNL A   1      53.684  23.576  24.929  1.00  0.00    -0.237 OA
ATOM     73  O   UNL A   1      54.162  25.756  23.866  1.00  0.00    -0.237 OA
ATOM     74  O   UNL A   1      54.754  25.378  26.230  1.00  0.00    -0.744 OA
ENDBRANCH  70  71
ENDBRANCH  49  63
BRANCH  50  75
ATOM     75  C   UNL A   1      40.506  29.288  29.085  1.00  0.00     0.058 A 
ATOM     76  C   UNL A   1      40.229  29.493  30.444  1.00  0.00     0.135 A 
ATOM     77  C   UNL A   1      39.465  29.503  28.167  1.00  0.00     0.135 A 
ATOM     78  F   UNL A   1      41.188  29.295  31.361  1.00  0.00    -0.206 F 
ATOM     79  C   UNL A   1      38.966  29.882  30.880  1.00  0.00     0.059 A 
ATOM     80  C   UNL A   1      38.202  29.919  28.575  1.00  0.00     0.059 A 
ATOM     81  F   UNL A   1      39.683  29.339  26.852  1.00  0.00    -0.206 F 
ATOM     82  C   UNL A   1      37.959  30.097  29.936  1.00  0.00     0.060 A 
BRANCH  82  83
ATOM     83  S   UNL A   1      36.339  30.652  30.509  1.00  0.00     0.124 S 
ATOM     84  O   UNL A   1      35.606  29.393  30.580  1.00  0.00    -0.237 OA
ATOM     85  O   UNL A   1      36.666  31.275  31.787  1.00  0.00    -0.237 OA
ATOM     86  O   UNL A   1      35.912  31.574  29.461  1.00  0.00    -0.744 OA
ENDBRANCH  82  83
ENDBRANCH  50  75
BRANCH  62  87
ATOM     87  C   UNL A   1      46.614  32.612  28.480  1.00  0.00     0.058 A 
ATOM     88  C   UNL A   1      46.515  33.619  27.507  1.00  0.00     0.135 A 
ATOM     89  C   UNL A   1      47.063  32.977  29.759  1.00  0.00     0.135 A 
ATOM     90  F   UNL A   1      46.101  33.320  26.265  1.00  0.00    -0.206 F 
ATOM     91  C   UNL A   1      46.861  34.936  27.787  1.00  0.00     0.059 A 
ATOM     92  C   UNL A   1      47.386  34.294  30.071  1.00  0.00     0.059 A 
ATOM     93  F   UNL A   1      47.170  32.054  30.728  1.00  0.00    -0.206 F 
ATOM     94  C   UNL A   1      47.290  35.264  29.075  1.00  0.00     0.060 A 
BRANCH  94  95
ATOM     95  S   UNL A   1      47.690  36.987  29.436  1.00  0.00     0.124 S 
ATOM     96  O   UNL A   1      48.768  37.243  28.487  1.00  0.00    -0.237 OA
ATOM     97  O   UNL A   1      46.428  37.664  29.158  1.00  0.00    -0.237 OA
ATOM     98  O   UNL A   1      48.083  36.958  30.841  1.00  0.00    -0.744 OA
ENDBRANCH  94  95
ENDBRANCH  62  87
ENDBRANCH  36  37
ENDBRANCH  28  31
ENDBRANCH  26  27
ENDBRANCH  25  26
ENDBRANCH   1  25
TORSDOF 19
ENDMDL
