MODEL 1
REMARK VINA RESULT:     -12.6      0.000      0.000
REMARK SMILES O=C(NCCCCNC(=O)[C@H]1C[C@H]2CCCC[C@@H]2[N@@H+]1C1CCS(=O)(=O)CC1)c1ccc(-c2c3nc(c(-c4c(F)cc(S(=O)(=O)[O-])cc4F)c4ccc([nH]4)c(-c4c(F)cc(S(=O)(=O)[O-])cc4F)c4nc(c(-c5c(F)cc(S(=O)(=O)[O-])cc5F)c5ccc2[nH]5)C=C4)C=C3)cc1
REMARK SMILES IDX 4 1 3 2 1 3 2 4 28 6 29 7 93 8 30 9 92 10 31 11 32 12 33 13
REMARK SMILES IDX 86 14 34 15 91 16 85 17 87 18 35 19 90 20 84 21 83 22 36 24
REMARK SMILES IDX 70 25 49 26 69 27 50 28 53 29 68 30 88 31 51 32 52 33 67 35
REMARK SMILES IDX 89 36 54 37 37 38 38 39 47 40 39 41 40 42 46 43 48 44 41 45
REMARK SMILES IDX 42 46 43 47 44 48 45 49 71 50 72 51 81 52 73 53 74 54 80 55
REMARK SMILES IDX 82 56 75 57 76 58 77 59 78 60 79 61 55 62 56 63 65 64 57 65
REMARK SMILES IDX 58 66 64 67 66 68 59 69 60 70 61 71 62 72 63 73 5 74 6 75
REMARK SMILES IDX 7 76 8 77 9 78 10 80 11 81 12 82 19 83 13 84 18 85 14 87
REMARK SMILES IDX 17 88 15 89 16 90 20 91 21 92 27 93 22 94 26 95 23 96 24 97
REMARK SMILES IDX 25 98
REMARK H PARENT 3 5 87 23 53 34 8 79 19 86
REMARK Flexibility Score: inf
ROOT
ATOM      1  C   UNL A   1      35.212  29.321  27.605  1.00  0.00     0.116 C 
ENDROOT
BRANCH   1   2
ATOM      2  N   UNL A   1      35.243  29.966  28.912  1.00  0.00    -0.352 N 
ATOM      3  O   UNL A   1      36.206  30.573  30.879  1.00  0.00    -0.269 OA
ATOM      4  C   UNL A   1      36.325  30.085  29.762  1.00  0.00     0.251 C 
ATOM      5  H   UNL A   1      34.397  30.361  29.225  1.00  0.00     0.163 HD
BRANCH   4   6
ATOM      6  C   UNL A   1      37.625  29.562  29.294  1.00  0.00     0.039 A 
ATOM      7  C   UNL A   1      38.508  29.015  30.225  1.00  0.00     0.014 A 
ATOM      8  C   UNL A   1      38.018  29.760  27.970  1.00  0.00     0.014 A 
ATOM      9  C   UNL A   1      39.843  28.888  29.892  1.00  0.00     0.010 A 
ATOM     10  C   UNL A   1      39.334  29.473  27.598  1.00  0.00     0.010 A 
ATOM     11  C   UNL A   1      40.269  29.073  28.564  1.00  0.00    -0.014 A 
BRANCH  11  12
ATOM     12  C   UNL A   1      41.678  28.745  28.227  1.00  0.00     0.031 A 
ATOM     13  C   UNL A   1      42.769  29.781  28.258  1.00  0.00     0.074 A 
ATOM     14  C   UNL A   1      41.967  27.459  27.940  1.00  0.00     0.049 A 
ATOM     15  N   UNL A   1      44.042  29.635  27.993  1.00  0.00    -0.248 NA
ATOM     16  C   UNL A   1      42.389  31.156  28.620  1.00  0.00     0.031 C 
ATOM     17  C   UNL A   1      40.981  26.372  27.869  1.00  0.00     0.029 A 
ATOM     18  N   UNL A   1      43.158  26.834  27.684  1.00  0.00    -0.354 N 
ATOM     19  C   UNL A   1      44.614  30.893  28.143  1.00  0.00     0.074 A 
ATOM     20  C   UNL A   1      43.542  31.801  28.490  1.00  0.00     0.031 C 
ATOM     21  C   UNL A   1      41.613  25.212  27.658  1.00  0.00     0.029 A 
ATOM     22  C   UNL A   1      43.030  25.482  27.472  1.00  0.00     0.049 A 
ATOM     23  H   UNL A   1      44.020  27.307  27.654  1.00  0.00     0.167 HD
ATOM     24  C   UNL A   1      45.917  31.249  28.014  1.00  0.00     0.037 A 
ATOM     25  C   UNL A   1      43.943  24.558  27.124  1.00  0.00     0.037 A 
ATOM     26  C   UNL A   1      46.973  30.329  27.668  1.00  0.00     0.049 A 
ATOM     27  C   UNL A   1      45.366  24.991  26.945  1.00  0.00     0.074 A 
ATOM     28  C   UNL A   1      48.324  30.587  27.510  1.00  0.00     0.029 A 
ATOM     29  N   UNL A   1      46.800  28.972  27.429  1.00  0.00    -0.354 N 
ATOM     30  N   UNL A   1      45.887  26.186  27.098  1.00  0.00    -0.248 NA
ATOM     31  C   UNL A   1      46.325  23.957  26.543  1.00  0.00     0.031 C 
ATOM     32  C   UNL A   1      48.959  29.399  27.130  1.00  0.00     0.029 A 
ATOM     33  C   UNL A   1      48.016  28.385  27.110  1.00  0.00     0.049 A 
ATOM     34  H   UNL A   1      45.940  28.495  27.479  1.00  0.00     0.167 HD
ATOM     35  C   UNL A   1      47.241  26.042  26.829  1.00  0.00     0.074 A 
ATOM     36  C   UNL A   1      47.460  24.641  26.533  1.00  0.00     0.031 C 
ATOM     37  C   UNL A   1      48.215  26.986  26.821  1.00  0.00     0.037 A 
BRANCH  24  38
ATOM     38  C   UNL A   1      46.281  32.695  28.237  1.00  0.00     0.058 A 
ATOM     39  C   UNL A   1      46.672  33.171  29.500  1.00  0.00     0.135 A 
ATOM     40  C   UNL A   1      46.304  33.604  27.165  1.00  0.00     0.135 A 
ATOM     41  F   UNL A   1      46.657  32.354  30.564  1.00  0.00    -0.206 F 
ATOM     42  C   UNL A   1      47.052  34.496  29.694  1.00  0.00     0.059 A 
ATOM     43  C   UNL A   1      46.708  34.926  27.330  1.00  0.00     0.059 A 
ATOM     44  F   UNL A   1      45.943  33.205  25.934  1.00  0.00    -0.206 F 
ATOM     45  C   UNL A   1      47.070  35.366  28.603  1.00  0.00     0.060 A 
BRANCH  45  46
ATOM     46  S   UNL A   1      47.582  37.077  28.873  1.00  0.00     0.124 S 
ATOM     47  O   UNL A   1      46.439  37.610  29.608  1.00  0.00    -0.237 OA
ATOM     48  O   UNL A   1      48.810  36.915  29.644  1.00  0.00    -0.237 OA
ATOM     49  O   UNL A   1      47.756  37.600  27.522  1.00  0.00    -0.744 OA
ENDBRANCH  45  46
ENDBRANCH  24  38
BRANCH  25  50
ATOM     50  C   UNL A   1      43.520  23.154  26.884  1.00  0.00     0.058 A 
ATOM     51  C   UNL A   1      43.166  22.307  27.943  1.00  0.00     0.135 A 
ATOM     52  C   UNL A   1      43.455  22.633  25.580  1.00  0.00     0.135 A 
ATOM     53  F   UNL A   1      43.208  22.758  29.206  1.00  0.00    -0.206 F 
ATOM     54  C   UNL A   1      42.794  20.986  27.724  1.00  0.00     0.059 A 
ATOM     55  C   UNL A   1      43.049  21.327  25.333  1.00  0.00     0.059 A 
ATOM     56  F   UNL A   1      43.758  23.409  24.527  1.00  0.00    -0.206 F 
ATOM     57  C   UNL A   1      42.741  20.505  26.414  1.00  0.00     0.060 A 
BRANCH  57  58
ATOM     58  S   UNL A   1      42.247  18.791  26.138  1.00  0.00     0.124 S 
ATOM     59  O   UNL A   1      42.460  18.211  27.458  1.00  0.00    -0.237 OA
ATOM     60  O   UNL A   1      40.856  18.937  25.720  1.00  0.00    -0.237 OA
ATOM     61  O   UNL A   1      43.163  18.342  25.094  1.00  0.00    -0.744 OA
ENDBRANCH  57  58
ENDBRANCH  25  50
BRANCH  37  62
ATOM     62  C   UNL A   1      49.612  26.517  26.520  1.00  0.00     0.058 A 
ATOM     63  C   UNL A   1      50.465  26.040  27.527  1.00  0.00     0.135 A 
ATOM     64  C   UNL A   1      50.097  26.537  25.204  1.00  0.00     0.135 A 
ATOM     65  F   UNL A   1      50.056  26.011  28.805  1.00  0.00    -0.206 F 
ATOM     66  C   UNL A   1      51.765  25.631  27.244  1.00  0.00     0.059 A 
ATOM     67  C   UNL A   1      51.381  26.100  24.892  1.00  0.00     0.059 A 
ATOM     68  F   UNL A   1      49.320  26.976  24.201  1.00  0.00    -0.206 F 
ATOM     69  C   UNL A   1      52.213  25.665  25.922  1.00  0.00     0.060 A 
BRANCH  69  70
ATOM     70  S   UNL A   1      53.895  25.118  25.567  1.00  0.00     0.124 S 
ATOM     71  O   UNL A   1      54.161  25.787  24.298  1.00  0.00    -0.237 OA
ATOM     72  O   UNL A   1      54.636  25.621  26.718  1.00  0.00    -0.237 OA
ATOM     73  O   UNL A   1      53.771  23.664  25.495  1.00  0.00    -0.744 OA
ENDBRANCH  69  70
ENDBRANCH  37  62
ENDBRANCH  11  12
ENDBRANCH   4   6
ENDBRANCH   1   2
BRANCH   1  74
ATOM     74  C   UNL A   1      33.821  29.069  27.074  1.00  0.00     0.023 C 
BRANCH  74  75
ATOM     75  C   UNL A   1      33.634  27.699  26.457  1.00  0.00     0.023 C 
BRANCH  75  76
ATOM     76  C   UNL A   1      32.183  27.296  26.179  1.00  0.00     0.116 C 
BRANCH  76  77
ATOM     77  N   UNL A   1      31.820  26.103  26.924  1.00  0.00    -0.351 N 
ATOM     78  C   UNL A   1      32.051  24.779  26.659  1.00  0.00     0.278 C 
ATOM     79  H   UNL A   1      31.324  26.274  27.757  1.00  0.00     0.163 HD
ATOM     80  O   UNL A   1      31.594  23.952  27.451  1.00  0.00    -0.268 OA
BRANCH  78  81
ATOM     81  C   UNL A   1      32.928  24.373  25.449  1.00  0.00     0.275 C 
ATOM     82  C   UNL A   1      34.304  23.913  25.977  1.00  0.00     0.085 C 
ATOM     83  N   UNL A   1      32.336  23.216  24.712  1.00  0.00    -0.320 N 
ATOM     84  C   UNL A   1      34.555  22.632  25.209  1.00  0.00     0.054 C 
ATOM     85  C   UNL A   1      33.149  22.049  25.114  1.00  0.00     0.188 C 
ATOM     86  H   UNL A   1      31.358  23.151  24.994  1.00  0.00     0.349 HD
ATOM     87  C   UNL A   1      35.541  21.645  25.814  1.00  0.00     0.010 C 
ATOM     88  C   UNL A   1      33.126  20.750  24.302  1.00  0.00     0.065 C 
ATOM     89  C   UNL A   1      35.547  20.359  24.982  1.00  0.00     0.001 C 
ATOM     90  C   UNL A   1      34.148  19.750  24.853  1.00  0.00     0.006 C 
BRANCH  83  91
ATOM     91  C   UNL A   1      31.970  23.306  23.288  1.00  0.00     0.186 C 
ATOM     92  C   UNL A   1      30.619  23.997  23.012  1.00  0.00     0.081 C 
ATOM     93  C   UNL A   1      33.023  23.802  22.271  1.00  0.00     0.081 C 
ATOM     94  C   UNL A   1      30.653  25.502  23.076  1.00  0.00     0.143 C 
ATOM     95  C   UNL A   1      33.336  25.284  22.308  1.00  0.00     0.143 C 
ATOM     96  S   UNL A   1      31.884  26.279  22.074  1.00  0.00     0.150 S 
ATOM     97  O   UNL A   1      32.157  27.578  22.657  1.00  0.00    -0.229 OA
ATOM     98  O   UNL A   1      31.476  26.151  20.686  1.00  0.00    -0.229 OA
ENDBRANCH  83  91
ENDBRANCH  78  81
ENDBRANCH  76  77
ENDBRANCH  75  76
ENDBRANCH  74  75
ENDBRANCH   1  74
TORSDOF 15
ENDMDL
MODEL 2
REMARK VINA RESULT:     -12.5      2.270      8.545
REMARK SMILES O=C(NCCCCNC(=O)[C@H]1C[C@H]2CCCC[C@@H]2[N@@H+]1C1CCS(=O)(=O)CC1)c1ccc(-c2c3nc(c(-c4c(F)cc(S(=O)(=O)[O-])cc4F)c4ccc([nH]4)c(-c4c(F)cc(S(=O)(=O)[O-])cc4F)c4nc(c(-c5c(F)cc(S(=O)(=O)[O-])cc5F)c5ccc2[nH]5)C=C4)C=C3)cc1
REMARK SMILES IDX 4 1 3 2 1 3 2 4 28 6 29 7 93 8 30 9 92 10 31 11 32 12 33 13
REMARK SMILES IDX 86 14 34 15 91 16 85 17 87 18 35 19 90 20 84 21 83 22 36 24
REMARK SMILES IDX 70 25 49 26 69 27 50 28 53 29 68 30 88 31 51 32 52 33 67 35
REMARK SMILES IDX 89 36 54 37 37 38 38 39 47 40 39 41 40 42 46 43 48 44 41 45
REMARK SMILES IDX 42 46 43 47 44 48 45 49 71 50 72 51 81 52 73 53 74 54 80 55
REMARK SMILES IDX 82 56 75 57 76 58 77 59 78 60 79 61 55 62 56 63 65 64 57 65
REMARK SMILES IDX 58 66 64 67 66 68 59 69 60 70 61 71 62 72 63 73 5 74 6 75
REMARK SMILES IDX 7 76 8 77 9 78 10 80 11 81 12 82 19 83 13 84 18 85 14 87
REMARK SMILES IDX 17 88 15 89 16 90 20 91 21 92 27 93 22 94 26 95 23 96 24 97
REMARK SMILES IDX 25 98
REMARK H PARENT 3 5 87 23 53 34 8 79 19 86
REMARK Flexibility Score: inf
ROOT
ATOM      1  C   UNL A   1      34.164  28.491  26.920  1.00  0.00     0.116 C 
ENDROOT
BRANCH   1   2
ATOM      2  N   UNL A   1      33.992  29.763  27.610  1.00  0.00    -0.352 N 
ATOM      3  O   UNL A   1      34.644  31.472  28.958  1.00  0.00    -0.269 OA
ATOM      4  C   UNL A   1      34.934  30.451  28.349  1.00  0.00     0.251 C 
ATOM      5  H   UNL A   1      33.103  30.181  27.541  1.00  0.00     0.163 HD
BRANCH   4   6
ATOM      6  C   UNL A   1      36.297  29.885  28.417  1.00  0.00     0.039 A 
ATOM      7  C   UNL A   1      36.746  29.345  29.622  1.00  0.00     0.014 A 
ATOM      8  C   UNL A   1      37.167  30.035  27.335  1.00  0.00     0.014 A 
ATOM      9  C   UNL A   1      38.103  29.179  29.820  1.00  0.00     0.010 A 
ATOM     10  C   UNL A   1      38.516  29.709  27.493  1.00  0.00     0.010 A 
ATOM     11  C   UNL A   1      39.004  29.316  28.749  1.00  0.00    -0.014 A 
BRANCH  11  12
ATOM     12  C   UNL A   1      40.425  28.947  28.975  1.00  0.00     0.031 A 
ATOM     13  C   UNL A   1      40.968  27.595  28.601  1.00  0.00     0.074 A 
ATOM     14  C   UNL A   1      41.242  29.893  29.483  1.00  0.00     0.049 A 
ATOM     15  N   UNL A   1      42.187  27.137  28.735  1.00  0.00    -0.248 NA
ATOM     16  C   UNL A   1      40.030  26.625  28.012  1.00  0.00     0.031 C 
ATOM     17  C   UNL A   1      40.816  31.238  29.894  1.00  0.00     0.029 A 
ATOM     18  N   UNL A   1      42.591  29.894  29.718  1.00  0.00    -0.354 N 
ATOM     19  C   UNL A   1      42.164  25.831  28.263  1.00  0.00     0.074 A 
ATOM     20  C   UNL A   1      40.800  25.554  27.868  1.00  0.00     0.031 C 
ATOM     21  C   UNL A   1      41.887  31.950  30.261  1.00  0.00     0.029 A 
ATOM     22  C   UNL A   1      43.057  31.087  30.216  1.00  0.00     0.049 A 
ATOM     23  H   UNL A   1      43.169  29.116  29.546  1.00  0.00     0.167 HD
ATOM     24  C   UNL A   1      43.193  24.952  28.158  1.00  0.00     0.037 A 
ATOM     25  C   UNL A   1      44.285  31.443  30.635  1.00  0.00     0.037 A 
ATOM     26  C   UNL A   1      44.548  25.247  28.557  1.00  0.00     0.049 A 
ATOM     27  C   UNL A   1      45.389  30.435  30.548  1.00  0.00     0.074 A 
ATOM     28  C   UNL A   1      45.662  24.427  28.494  1.00  0.00     0.029 A 
ATOM     29  N   UNL A   1      44.976  26.456  29.088  1.00  0.00    -0.354 N 
ATOM     30  N   UNL A   1      45.348  29.205  30.091  1.00  0.00    -0.248 NA
ATOM     31  C   UNL A   1      46.707  30.857  31.036  1.00  0.00     0.031 C 
ATOM     32  C   UNL A   1      46.751  25.123  29.032  1.00  0.00     0.029 A 
ATOM     33  C   UNL A   1      46.332  26.398  29.372  1.00  0.00     0.049 A 
ATOM     34  H   UNL A   1      44.401  27.241  29.241  1.00  0.00     0.167 HD
ATOM     35  C   UNL A   1      46.638  28.712  30.220  1.00  0.00     0.074 A 
ATOM     36  C   UNL A   1      47.441  29.787  30.769  1.00  0.00     0.031 C 
ATOM     37  C   UNL A   1      47.116  27.480  29.917  1.00  0.00     0.037 A 
BRANCH  24  38
ATOM     38  C   UNL A   1      42.899  23.582  27.601  1.00  0.00     0.058 A 
ATOM     39  C   UNL A   1      43.068  23.289  26.237  1.00  0.00     0.135 A 
ATOM     40  C   UNL A   1      42.508  22.530  28.448  1.00  0.00     0.135 A 
ATOM     41  F   UNL A   1      43.427  24.255  25.378  1.00  0.00    -0.206 F 
ATOM     42  C   UNL A   1      42.841  22.012  25.732  1.00  0.00     0.059 A 
ATOM     43  C   UNL A   1      42.303  21.239  27.969  1.00  0.00     0.059 A 
ATOM     44  F   UNL A   1      42.333  22.750  29.761  1.00  0.00    -0.206 F 
ATOM     45  C   UNL A   1      42.462  20.991  26.606  1.00  0.00     0.060 A 
BRANCH  45  46
ATOM     46  S   UNL A   1      42.188  19.338  25.934  1.00  0.00     0.124 S 
ATOM     47  O   UNL A   1      42.996  19.381  24.718  1.00  0.00    -0.237 OA
ATOM     48  O   UNL A   1      42.696  18.481  27.000  1.00  0.00    -0.237 OA
ATOM     49  O   UNL A   1      40.745  19.288  25.724  1.00  0.00    -0.744 OA
ENDBRANCH  45  46
ENDBRANCH  24  38
BRANCH  25  50
ATOM     50  C   UNL A   1      44.508  32.796  31.207  1.00  0.00     0.058 A 
ATOM     51  C   UNL A   1      44.347  33.044  32.577  1.00  0.00     0.135 A 
ATOM     52  C   UNL A   1      44.896  33.871  30.389  1.00  0.00     0.135 A 
ATOM     53  F   UNL A   1      43.981  32.050  33.401  1.00  0.00    -0.206 F 
ATOM     54  C   UNL A   1      44.531  34.314  33.112  1.00  0.00     0.059 A 
ATOM     55  C   UNL A   1      45.123  35.140  30.906  1.00  0.00     0.059 A 
ATOM     56  F   UNL A   1      45.089  33.682  29.074  1.00  0.00    -0.206 F 
ATOM     57  C   UNL A   1      44.917  35.356  32.267  1.00  0.00     0.060 A 
BRANCH  57  58
ATOM     58  S   UNL A   1      45.164  36.999  32.971  1.00  0.00     0.124 S 
ATOM     59  O   UNL A   1      44.112  37.761  32.311  1.00  0.00    -0.237 OA
ATOM     60  O   UNL A   1      44.975  36.751  34.398  1.00  0.00    -0.237 OA
ATOM     61  O   UNL A   1      46.529  37.332  32.576  1.00  0.00    -0.744 OA
ENDBRANCH  57  58
ENDBRANCH  25  50
BRANCH  37  62
ATOM     62  C   UNL A   1      48.586  27.248  30.138  1.00  0.00     0.058 A 
ATOM     63  C   UNL A   1      49.529  27.460  29.120  1.00  0.00     0.135 A 
ATOM     64  C   UNL A   1      49.054  26.819  31.389  1.00  0.00     0.135 A 
ATOM     65  F   UNL A   1      49.133  27.859  27.902  1.00  0.00    -0.206 F 
ATOM     66  C   UNL A   1      50.884  27.219  29.326  1.00  0.00     0.059 A 
ATOM     67  C   UNL A   1      50.408  26.605  31.627  1.00  0.00     0.059 A 
ATOM     68  F   UNL A   1      48.196  26.609  32.399  1.00  0.00    -0.206 F 
ATOM     69  C   UNL A   1      51.313  26.792  30.584  1.00  0.00     0.060 A 
BRANCH  69  70
ATOM     70  S   UNL A   1      53.075  26.499  30.840  1.00  0.00     0.124 S 
ATOM     71  O   UNL A   1      53.057  25.276  31.637  1.00  0.00    -0.237 OA
ATOM     72  O   UNL A   1      53.570  26.360  29.475  1.00  0.00    -0.237 OA
ATOM     73  O   UNL A   1      53.521  27.699  31.544  1.00  0.00    -0.744 OA
ENDBRANCH  69  70
ENDBRANCH  37  62
ENDBRANCH  11  12
ENDBRANCH   4   6
ENDBRANCH   1   2
BRANCH   1  74
ATOM     74  C   UNL A   1      33.075  28.176  25.922  1.00  0.00     0.023 C 
BRANCH  74  75
ATOM     75  C   UNL A   1      31.698  28.033  26.537  1.00  0.00     0.023 C 
BRANCH  75  76
ATOM     76  C   UNL A   1      30.846  26.889  25.979  1.00  0.00     0.116 C 
BRANCH  76  77
ATOM     77  N   UNL A   1      30.945  25.707  26.818  1.00  0.00    -0.351 N 
ATOM     78  C   UNL A   1      31.695  24.570  26.676  1.00  0.00     0.278 C 
ATOM     79  H   UNL A   1      30.377  25.726  27.622  1.00  0.00     0.163 HD
ATOM     80  O   UNL A   1      31.560  23.689  27.528  1.00  0.00    -0.268 OA
BRANCH  78  81
ATOM     81  C   UNL A   1      32.725  24.461  25.526  1.00  0.00     0.275 C 
ATOM     82  C   UNL A   1      34.139  24.381  26.143  1.00  0.00     0.085 C 
ATOM     83  N   UNL A   1      32.526  23.209  24.734  1.00  0.00    -0.320 N 
ATOM     84  C   UNL A   1      34.783  23.244  25.378  1.00  0.00     0.054 C 
ATOM     85  C   UNL A   1      33.603  22.300  25.177  1.00  0.00     0.188 C 
ATOM     86  H   UNL A   1      31.588  22.869  24.946  1.00  0.00     0.349 HD
ATOM     87  C   UNL A   1      35.963  22.548  26.039  1.00  0.00     0.010 C 
ATOM     88  C   UNL A   1      33.993  21.072  24.348  1.00  0.00     0.065 C 
ATOM     89  C   UNL A   1      36.379  21.341  25.192  1.00  0.00     0.001 C 
ATOM     90  C   UNL A   1      35.215  20.375  24.957  1.00  0.00     0.006 C 
BRANCH  83  91
ATOM     91  C   UNL A   1      32.242  23.241  23.289  1.00  0.00     0.186 C 
ATOM     92  C   UNL A   1      30.832  23.747  22.920  1.00  0.00     0.081 C 
ATOM     93  C   UNL A   1      33.282  23.865  22.331  1.00  0.00     0.081 C 
ATOM     94  C   UNL A   1      30.664  25.243  22.964  1.00  0.00     0.143 C 
ATOM     95  C   UNL A   1      33.396  25.375  22.365  1.00  0.00     0.143 C 
ATOM     96  S   UNL A   1      31.844  26.169  22.027  1.00  0.00     0.150 S 
ATOM     97  O   UNL A   1      31.907  27.496  22.607  1.00  0.00    -0.229 OA
ATOM     98  O   UNL A   1      31.544  25.979  20.620  1.00  0.00    -0.229 OA
ENDBRANCH  83  91
ENDBRANCH  78  81
ENDBRANCH  76  77
ENDBRANCH  75  76
ENDBRANCH  74  75
ENDBRANCH   1  74
TORSDOF 15
ENDMDL
MODEL 3
REMARK VINA RESULT:     -12.3      5.012      9.273
REMARK SMILES O=C(NCCCCNC(=O)[C@H]1C[C@H]2CCCC[C@@H]2[N@@H+]1C1CCS(=O)(=O)CC1)c1ccc(-c2c3nc(c(-c4c(F)cc(S(=O)(=O)[O-])cc4F)c4ccc([nH]4)c(-c4c(F)cc(S(=O)(=O)[O-])cc4F)c4nc(c(-c5c(F)cc(S(=O)(=O)[O-])cc5F)c5ccc2[nH]5)C=C4)C=C3)cc1
REMARK SMILES IDX 4 1 3 2 1 3 2 4 28 6 29 7 93 8 30 9 92 10 31 11 32 12 33 13
REMARK SMILES IDX 86 14 34 15 91 16 85 17 87 18 35 19 90 20 84 21 83 22 36 24
REMARK SMILES IDX 70 25 49 26 69 27 50 28 53 29 68 30 88 31 51 32 52 33 67 35
REMARK SMILES IDX 89 36 54 37 37 38 38 39 47 40 39 41 40 42 46 43 48 44 41 45
REMARK SMILES IDX 42 46 43 47 44 48 45 49 71 50 72 51 81 52 73 53 74 54 80 55
REMARK SMILES IDX 82 56 75 57 76 58 77 59 78 60 79 61 55 62 56 63 65 64 57 65
REMARK SMILES IDX 58 66 64 67 66 68 59 69 60 70 61 71 62 72 63 73 5 74 6 75
REMARK SMILES IDX 7 76 8 77 9 78 10 80 11 81 12 82 19 83 13 84 18 85 14 87
REMARK SMILES IDX 17 88 15 89 16 90 20 91 21 92 27 93 22 94 26 95 23 96 24 97
REMARK SMILES IDX 25 98
REMARK H PARENT 3 5 87 23 53 34 8 79 19 86
REMARK Flexibility Score: inf
ROOT
ATOM      1  C   UNL A   1      34.153  28.820  25.729  1.00  0.00     0.116 C 
ENDROOT
BRANCH   1   2
ATOM      2  N   UNL A   1      33.708  30.068  26.337  1.00  0.00    -0.352 N 
ATOM      3  O   UNL A   1      33.793  31.756  27.856  1.00  0.00    -0.269 OA
ATOM      4  C   UNL A   1      34.312  30.760  27.368  1.00  0.00     0.251 C 
ATOM      5  H   UNL A   1      32.884  30.463  25.971  1.00  0.00     0.163 HD
BRANCH   4   6
ATOM      6  C   UNL A   1      35.587  30.230  27.895  1.00  0.00     0.039 A 
ATOM      7  C   UNL A   1      35.570  29.465  29.061  1.00  0.00     0.014 A 
ATOM      8  C   UNL A   1      36.795  30.624  27.318  1.00  0.00     0.014 A 
ATOM      9  C   UNL A   1      36.743  29.298  29.772  1.00  0.00     0.010 A 
ATOM     10  C   UNL A   1      37.994  30.309  27.962  1.00  0.00     0.010 A 
ATOM     11  C   UNL A   1      37.977  29.678  29.215  1.00  0.00    -0.014 A 
BRANCH  11  12
ATOM     12  C   UNL A   1      39.219  29.309  29.942  1.00  0.00     0.031 A 
ATOM     13  C   UNL A   1      40.144  28.231  29.447  1.00  0.00     0.074 A 
ATOM     14  C   UNL A   1      39.528  30.018  31.048  1.00  0.00     0.049 A 
ATOM     15  N   UNL A   1      41.264  27.808  29.975  1.00  0.00    -0.248 NA
ATOM     16  C   UNL A   1      39.766  27.527  28.210  1.00  0.00     0.031 C 
ATOM     17  C   UNL A   1      38.693  31.079  31.626  1.00  0.00     0.029 A 
ATOM     18  N   UNL A   1      40.623  29.982  31.869  1.00  0.00    -0.354 N 
ATOM     19  C   UNL A   1      41.719  26.786  29.150  1.00  0.00     0.074 A 
ATOM     20  C   UNL A   1      40.735  26.628  28.100  1.00  0.00     0.031 C 
ATOM     21  C   UNL A   1      39.336  31.637  32.659  1.00  0.00     0.029 A 
ATOM     22  C   UNL A   1      40.574  30.907  32.885  1.00  0.00     0.049 A 
ATOM     23  H   UNL A   1      41.373  29.356  31.743  1.00  0.00     0.167 HD
ATOM     24  C   UNL A   1      42.859  26.059  29.256  1.00  0.00     0.037 A 
ATOM     25  C   UNL A   1      41.409  31.123  33.915  1.00  0.00     0.037 A 
ATOM     26  C   UNL A   1      43.830  26.232  30.310  1.00  0.00     0.049 A 
ATOM     27  C   UNL A   1      42.638  30.274  34.030  1.00  0.00     0.074 A 
ATOM     28  C   UNL A   1      45.016  25.547  30.510  1.00  0.00     0.029 A 
ATOM     29  N   UNL A   1      43.729  27.158  31.341  1.00  0.00    -0.354 N 
ATOM     30  N   UNL A   1      43.053  29.317  33.234  1.00  0.00    -0.248 NA
ATOM     31  C   UNL A   1      43.510  30.528  35.182  1.00  0.00     0.031 C 
ATOM     32  C   UNL A   1      45.608  26.024  31.686  1.00  0.00     0.029 A 
ATOM     33  C   UNL A   1      44.823  27.050  32.187  1.00  0.00     0.049 A 
ATOM     34  H   UNL A   1      42.989  27.797  31.455  1.00  0.00     0.167 HD
ATOM     35  C   UNL A   1      44.247  28.866  33.780  1.00  0.00     0.074 A 
ATOM     36  C   UNL A   1      44.499  29.675  34.956  1.00  0.00     0.031 C 
ATOM     37  C   UNL A   1      45.059  27.868  33.351  1.00  0.00     0.037 A 
BRANCH  24  38
ATOM     38  C   UNL A   1      43.124  25.001  28.215  1.00  0.00     0.058 A 
ATOM     39  C   UNL A   1      43.764  25.305  27.002  1.00  0.00     0.135 A 
ATOM     40  C   UNL A   1      42.796  23.656  28.457  1.00  0.00     0.135 A 
ATOM     41  F   UNL A   1      44.091  26.573  26.708  1.00  0.00    -0.206 F 
ATOM     42  C   UNL A   1      44.049  24.319  26.061  1.00  0.00     0.059 A 
ATOM     43  C   UNL A   1      43.096  22.650  27.544  1.00  0.00     0.059 A 
ATOM     44  F   UNL A   1      42.185  23.306  29.601  1.00  0.00    -0.206 F 
ATOM     45  C   UNL A   1      43.715  22.993  26.342  1.00  0.00     0.060 A 
BRANCH  45  46
ATOM     46  S   UNL A   1      44.109  21.727  25.116  1.00  0.00     0.124 S 
ATOM     47  O   UNL A   1      43.889  22.453  23.868  1.00  0.00    -0.237 OA
ATOM     48  O   UNL A   1      45.499  21.413  25.429  1.00  0.00    -0.237 OA
ATOM     49  O   UNL A   1      43.148  20.665  25.399  1.00  0.00    -0.744 OA
ENDBRANCH  45  46
ENDBRANCH  24  38
BRANCH  25  50
ATOM     50  C   UNL A   1      41.079  32.157  34.931  1.00  0.00     0.058 A 
ATOM     51  C   UNL A   1      41.591  33.459  34.840  1.00  0.00     0.135 A 
ATOM     52  C   UNL A   1      40.233  31.861  36.013  1.00  0.00     0.135 A 
ATOM     53  F   UNL A   1      42.401  33.792  33.823  1.00  0.00    -0.206 F 
ATOM     54  C   UNL A   1      41.305  34.421  35.802  1.00  0.00     0.059 A 
ATOM     55  C   UNL A   1      39.901  32.817  36.966  1.00  0.00     0.059 A 
ATOM     56  F   UNL A   1      39.695  30.638  36.134  1.00  0.00    -0.206 F 
ATOM     57  C   UNL A   1      40.459  34.089  36.862  1.00  0.00     0.060 A 
BRANCH  57  58
ATOM     58  S   UNL A   1      40.085  35.347  38.100  1.00  0.00     0.124 S 
ATOM     59  O   UNL A   1      39.851  36.518  37.264  1.00  0.00    -0.237 OA
ATOM     60  O   UNL A   1      38.909  34.787  38.760  1.00  0.00    -0.237 OA
ATOM     61  O   UNL A   1      41.294  35.385  38.917  1.00  0.00    -0.744 OA
ENDBRANCH  57  58
ENDBRANCH  25  50
BRANCH  37  62
ATOM     62  C   UNL A   1      46.316  27.629  34.141  1.00  0.00     0.058 A 
ATOM     63  C   UNL A   1      46.355  26.725  35.215  1.00  0.00     0.135 A 
ATOM     64  C   UNL A   1      47.500  28.305  33.810  1.00  0.00     0.135 A 
ATOM     65  F   UNL A   1      45.248  26.061  35.582  1.00  0.00    -0.206 F 
ATOM     66  C   UNL A   1      47.516  26.529  35.956  1.00  0.00     0.059 A 
ATOM     67  C   UNL A   1      48.681  28.097  34.515  1.00  0.00     0.059 A 
ATOM     68  F   UNL A   1      47.521  29.174  32.786  1.00  0.00    -0.206 F 
ATOM     69  C   UNL A   1      48.674  27.220  35.597  1.00  0.00     0.060 A 
BRANCH  69  70
ATOM     70  S   UNL A   1      50.177  26.942  36.557  1.00  0.00     0.124 S 
ATOM     71  O   UNL A   1      50.670  28.305  36.733  1.00  0.00    -0.237 OA
ATOM     72  O   UNL A   1      49.663  26.293  37.758  1.00  0.00    -0.237 OA
ATOM     73  O   UNL A   1      50.984  26.091  35.686  1.00  0.00    -0.744 OA
ENDBRANCH  69  70
ENDBRANCH  37  62
ENDBRANCH  11  12
ENDBRANCH   4   6
ENDBRANCH   1   2
BRANCH   1  74
ATOM     74  C   UNL A   1      33.512  27.585  26.315  1.00  0.00     0.023 C 
BRANCH  74  75
ATOM     75  C   UNL A   1      32.059  27.769  26.704  1.00  0.00     0.023 C 
BRANCH  75  76
ATOM     76  C   UNL A   1      31.096  26.708  26.162  1.00  0.00     0.116 C 
BRANCH  76  77
ATOM     77  N   UNL A   1      31.109  25.517  26.994  1.00  0.00    -0.351 N 
ATOM     78  C   UNL A   1      31.737  24.313  26.821  1.00  0.00     0.278 C 
ATOM     79  H   UNL A   1      30.576  25.587  27.820  1.00  0.00     0.163 HD
ATOM     80  O   UNL A   1      31.547  23.444  27.676  1.00  0.00    -0.268 OA
BRANCH  78  81
ATOM     81  C   UNL A   1      32.707  24.109  25.632  1.00  0.00     0.275 C 
ATOM     82  C   UNL A   1      34.104  23.768  26.196  1.00  0.00     0.085 C 
ATOM     83  N   UNL A   1      32.289  22.955  24.780  1.00  0.00    -0.320 N 
ATOM     84  C   UNL A   1      34.537  22.590  25.348  1.00  0.00     0.054 C 
ATOM     85  C   UNL A   1      33.216  21.860  25.136  1.00  0.00     0.188 C 
ATOM     86  H   UNL A   1      31.314  22.756  25.004  1.00  0.00     0.349 HD
ATOM     87  C   UNL A   1      35.606  21.677  25.929  1.00  0.00     0.010 C 
ATOM     88  C   UNL A   1      33.382  20.637  24.228  1.00  0.00     0.065 C 
ATOM     89  C   UNL A   1      35.801  20.471  25.003  1.00  0.00     0.001 C 
ATOM     90  C   UNL A   1      34.490  19.719  24.755  1.00  0.00     0.006 C 
BRANCH  83  91
ATOM     91  C   UNL A   1      31.978  23.117  23.349  1.00  0.00     0.186 C 
ATOM     92  C   UNL A   1      30.636  23.819  23.057  1.00  0.00     0.081 C 
ATOM     93  C   UNL A   1      33.067  23.669  22.401  1.00  0.00     0.081 C 
ATOM     94  C   UNL A   1      30.660  25.318  23.201  1.00  0.00     0.143 C 
ATOM     95  C   UNL A   1      33.372  25.147  22.527  1.00  0.00     0.143 C 
ATOM     96  S   UNL A   1      31.925  26.150  22.288  1.00  0.00     0.150 S 
ATOM     97  O   UNL A   1      32.169  27.417  22.948  1.00  0.00    -0.229 OA
ATOM     98  O   UNL A   1      31.571  26.093  20.881  1.00  0.00    -0.229 OA
ENDBRANCH  83  91
ENDBRANCH  78  81
ENDBRANCH  76  77
ENDBRANCH  75  76
ENDBRANCH  74  75
ENDBRANCH   1  74
TORSDOF 15
ENDMDL
