MODEL 1
REMARK VINA RESULT:     -11.6      0.000      0.000
REMARK SMILES CC[NH2+][C@]1(C(=O)NCCCCNC(=O)c2ccc(-c3c4nc(c(-c5c(F)cc(S(=O)(=O)[O-])cc5F)c5ccc([nH]5)c(-c5c(F)cc(S(=O)(=O)[O-])cc5F)c5nc(c(-c6c(F)cc(S(=O)(=O)[O-])cc6F)c6ccc3[nH]6)C=C5)C=C4)cc2)CC[C@@H](Sc2ccccc2C)C1
REMARK SMILES IDX 10 1 9 2 8 3 7 4 5 5 6 6 4 8 81 9 92 10 82 11 83 12 3 13
REMARK SMILES IDX 2 16 1 17 84 18 85 19 86 20 90 21 87 22 89 23 91 24 88 25
REMARK SMILES IDX 11 26 12 27 13 28 14 30 15 31 16 32 80 33 17 34 79 35 18 36
REMARK SMILES IDX 19 37 20 38 73 39 21 40 78 41 72 42 74 43 22 44 77 45 71 46
REMARK SMILES IDX 70 47 23 49 57 50 36 51 56 52 37 53 40 54 55 55 75 56 38 57
REMARK SMILES IDX 39 58 54 60 76 61 41 62 24 63 25 64 34 65 26 66 27 67 33 68
REMARK SMILES IDX 35 69 28 70 29 71 30 72 31 73 32 74 58 75 59 76 68 77 60 78
REMARK SMILES IDX 61 79 67 80 69 81 62 82 63 83 64 84 65 85 66 86 42 87 43 88
REMARK SMILES IDX 52 89 44 90 45 91 51 92 53 93 46 94 47 95 48 96 49 97 50 98
REMARK H PARENT 7 7 3 14 3 15 12 29 74 48 40 59
REMARK Flexibility Score: inf
ROOT
ATOM      1  C   UNL A   1      40.296  22.260  27.406  1.00  0.00     0.023 C 
ENDROOT
BRANCH   1   2
ATOM      2  C   UNL A   1      39.625  21.845  26.100  1.00  0.00     0.023 C 
BRANCH   2   3
ATOM      3  C   UNL A   1      38.216  22.380  25.886  1.00  0.00     0.116 C 
BRANCH   3   4
ATOM      4  N   UNL A   1      37.830  22.462  24.495  1.00  0.00    -0.351 N 
ATOM      5  C   UNL A   1      36.653  22.815  23.904  1.00  0.00     0.281 C 
ATOM      6  O   UNL A   1      36.660  22.835  22.665  1.00  0.00    -0.268 OA
ATOM      7  H   UNL A   1      38.544  22.221  23.862  1.00  0.00     0.163 HD
BRANCH   5   8
ATOM      8  C   UNL A   1      35.323  23.060  24.707  1.00  0.00     0.176 C 
ATOM      9  C   UNL A   1      35.488  24.095  25.838  1.00  0.00     0.080 C 
ATOM     10  C   UNL A   1      34.276  23.754  23.792  1.00  0.00     0.094 C 
ATOM     11  C   UNL A   1      34.181  24.853  25.981  1.00  0.00     0.022 C 
ATOM     12  C   UNL A   1      33.524  24.796  24.616  1.00  0.00     0.058 C 
BRANCH   8  13
ATOM     13  N   UNL A   1      34.796  21.764  25.233  1.00  0.00    -0.334 N 
ATOM     14  H   UNL A   1      33.853  21.624  24.872  1.00  0.00     0.347 HD
ATOM     15  H   UNL A   1      35.431  21.027  24.926  1.00  0.00     0.347 HD
BRANCH  13  16
ATOM     16  C   UNL A   1      34.747  21.723  26.706  1.00  0.00     0.257 C 
ATOM     17  C   UNL A   1      33.318  21.601  27.212  1.00  0.00     0.071 C 
ENDBRANCH  13  16
ENDBRANCH   8  13
BRANCH  12  18
ATOM     18  S   UNL A   1      33.269  26.418  23.779  1.00  0.00    -0.122 SA
BRANCH  18  19
ATOM     19  C   UNL A   1      32.818  27.541  25.104  1.00  0.00     0.010 A 
ATOM     20  C   UNL A   1      33.738  28.557  25.416  1.00  0.00     0.015 A 
ATOM     21  C   UNL A   1      31.694  27.367  25.937  1.00  0.00    -0.038 A 
ATOM     22  C   UNL A   1      33.532  29.417  26.498  1.00  0.00     0.001 A 
ATOM     23  C   UNL A   1      31.479  28.271  26.996  1.00  0.00     0.004 A 
ATOM     24  C   UNL A   1      30.689  26.255  25.799  1.00  0.00     0.045 C 
ATOM     25  C   UNL A   1      32.392  29.283  27.280  1.00  0.00     0.000 A 
ENDBRANCH  18  19
ENDBRANCH  12  18
ENDBRANCH   5   8
ENDBRANCH   3   4
ENDBRANCH   2   3
ENDBRANCH   1   2
BRANCH   1  26
ATOM     26  C   UNL A   1      41.605  23.032  27.269  1.00  0.00     0.116 C 
BRANCH  26  27
ATOM     27  N   UNL A   1      41.645  23.923  26.120  1.00  0.00    -0.352 N 
ATOM     28  C   UNL A   1      41.529  25.295  26.069  1.00  0.00     0.251 C 
ATOM     29  H   UNL A   1      41.773  23.481  25.251  1.00  0.00     0.163 HD
ATOM     30  O   UNL A   1      41.513  25.865  24.990  1.00  0.00    -0.269 OA
BRANCH  28  31
ATOM     31  C   UNL A   1      41.379  26.065  27.325  1.00  0.00     0.039 A 
ATOM     32  C   UNL A   1      42.419  26.913  27.714  1.00  0.00     0.014 A 
ATOM     33  C   UNL A   1      40.220  25.974  28.099  1.00  0.00     0.014 A 
ATOM     34  C   UNL A   1      42.262  27.726  28.839  1.00  0.00     0.010 A 
ATOM     35  C   UNL A   1      40.033  26.844  29.171  1.00  0.00     0.010 A 
ATOM     36  C   UNL A   1      41.052  27.729  29.553  1.00  0.00    -0.014 A 
BRANCH  36  37
ATOM     37  C   UNL A   1      40.840  28.663  30.689  1.00  0.00     0.031 A 
ATOM     38  C   UNL A   1      41.678  28.552  31.933  1.00  0.00     0.074 A 
ATOM     39  C   UNL A   1      39.858  29.584  30.614  1.00  0.00     0.049 A 
ATOM     40  N   UNL A   1      41.632  29.271  33.025  1.00  0.00    -0.248 NA
ATOM     41  C   UNL A   1      42.681  27.476  31.968  1.00  0.00     0.031 C 
ATOM     42  C   UNL A   1      38.934  29.748  29.489  1.00  0.00     0.029 A 
ATOM     43  N   UNL A   1      39.472  30.558  31.501  1.00  0.00    -0.354 N 
ATOM     44  C   UNL A   1      42.591  28.733  33.876  1.00  0.00     0.074 A 
ATOM     45  C   UNL A   1      43.158  27.587  33.199  1.00  0.00     0.031 C 
ATOM     46  C   UNL A   1      38.113  30.780  29.739  1.00  0.00     0.029 A 
ATOM     47  C   UNL A   1      38.429  31.333  31.051  1.00  0.00     0.049 A 
ATOM     48  H   UNL A   1      39.900  30.688  32.378  1.00  0.00     0.167 HD
ATOM     49  C   UNL A   1      42.983  29.169  35.097  1.00  0.00     0.037 A 
ATOM     50  C   UNL A   1      37.801  32.376  31.629  1.00  0.00     0.037 A 
ATOM     51  C   UNL A   1      42.428  30.323  35.757  1.00  0.00     0.049 A 
ATOM     52  C   UNL A   1      38.266  32.853  32.978  1.00  0.00     0.074 A 
ATOM     53  C   UNL A   1      42.795  30.880  36.969  1.00  0.00     0.029 A 
ATOM     54  N   UNL A   1      41.389  31.096  35.260  1.00  0.00    -0.354 N 
ATOM     55  N   UNL A   1      39.224  32.375  33.737  1.00  0.00    -0.248 NA
ATOM     56  C   UNL A   1      37.575  34.020  33.543  1.00  0.00     0.031 C 
ATOM     57  C   UNL A   1      41.949  31.966  37.225  1.00  0.00     0.029 A 
ATOM     58  C   UNL A   1      41.089  32.115  36.149  1.00  0.00     0.049 A 
ATOM     59  H   UNL A   1      40.931  30.942  34.402  1.00  0.00     0.167 HD
ATOM     60  C   UNL A   1      39.267  33.196  34.858  1.00  0.00     0.074 A 
ATOM     61  C   UNL A   1      38.251  34.212  34.667  1.00  0.00     0.031 C 
ATOM     62  C   UNL A   1      40.072  33.118  35.946  1.00  0.00     0.037 A 
BRANCH  49  63
ATOM     63  C   UNL A   1      44.072  28.398  35.794  1.00  0.00     0.058 A 
ATOM     64  C   UNL A   1      45.429  28.705  35.603  1.00  0.00     0.135 A 
ATOM     65  C   UNL A   1      43.757  27.360  36.686  1.00  0.00     0.135 A 
ATOM     66  F   UNL A   1      45.788  29.677  34.750  1.00  0.00    -0.206 F 
ATOM     67  C   UNL A   1      46.435  27.991  36.245  1.00  0.00     0.059 A 
ATOM     68  C   UNL A   1      44.746  26.651  37.362  1.00  0.00     0.059 A 
ATOM     69  F   UNL A   1      42.477  27.022  36.907  1.00  0.00    -0.206 F 
ATOM     70  C   UNL A   1      46.084  26.964  37.123  1.00  0.00     0.060 A 
BRANCH  70  71
ATOM     71  S   UNL A   1      47.403  26.050  37.950  1.00  0.00     0.124 S 
ATOM     72  O   UNL A   1      48.141  25.511  36.812  1.00  0.00    -0.237 OA
ATOM     73  O   UNL A   1      48.082  27.097  38.706  1.00  0.00    -0.237 OA
ATOM     74  O   UNL A   1      46.683  25.067  38.754  1.00  0.00    -0.744 OA
ENDBRANCH  70  71
ENDBRANCH  49  63
BRANCH  50  75
ATOM     75  C   UNL A   1      36.690  33.064  30.916  1.00  0.00     0.058 A 
ATOM     76  C   UNL A   1      35.356  32.873  31.304  1.00  0.00     0.135 A 
ATOM     77  C   UNL A   1      36.942  33.932  29.843  1.00  0.00     0.135 A 
ATOM     78  F   UNL A   1      35.065  32.049  32.321  1.00  0.00    -0.206 F 
ATOM     79  C   UNL A   1      34.307  33.505  30.643  1.00  0.00     0.059 A 
ATOM     80  C   UNL A   1      35.911  34.595  29.182  1.00  0.00     0.059 A 
ATOM     81  F   UNL A   1      38.202  34.164  29.445  1.00  0.00    -0.206 F 
ATOM     82  C   UNL A   1      34.596  34.366  29.583  1.00  0.00     0.060 A 
BRANCH  82  83
ATOM     83  S   UNL A   1      33.230  35.217  28.762  1.00  0.00     0.124 S 
ATOM     84  O   UNL A   1      32.616  34.129  28.010  1.00  0.00    -0.237 OA
ATOM     85  O   UNL A   1      32.462  35.727  29.893  1.00  0.00    -0.237 OA
ATOM     86  O   UNL A   1      33.904  36.237  27.963  1.00  0.00    -0.744 OA
ENDBRANCH  82  83
ENDBRANCH  50  75
BRANCH  62  87
ATOM     87  C   UNL A   1      39.906  34.178  37.000  1.00  0.00     0.058 A 
ATOM     88  C   UNL A   1      40.580  35.406  36.925  1.00  0.00     0.135 A 
ATOM     89  C   UNL A   1      39.043  33.969  38.089  1.00  0.00     0.135 A 
ATOM     90  F   UNL A   1      41.419  35.657  35.907  1.00  0.00    -0.206 F 
ATOM     91  C   UNL A   1      40.436  36.376  37.913  1.00  0.00     0.059 A 
ATOM     92  C   UNL A   1      38.861  34.936  39.072  1.00  0.00     0.059 A 
ATOM     93  F   UNL A   1      38.363  32.817  38.201  1.00  0.00    -0.206 F 
ATOM     94  C   UNL A   1      39.577  36.129  38.985  1.00  0.00     0.060 A 
BRANCH  94  95
ATOM     95  S   UNL A   1      39.395  37.394  40.260  1.00  0.00     0.124 S 
ATOM     96  O   UNL A   1      38.497  38.340  39.608  1.00  0.00    -0.237 OA
ATOM     97  O   UNL A   1      38.823  36.640  41.372  1.00  0.00    -0.237 OA
ATOM     98  O   UNL A   1      40.761  37.865  40.468  1.00  0.00    -0.744 OA
ENDBRANCH  94  95
ENDBRANCH  62  87
ENDBRANCH  36  37
ENDBRANCH  28  31
ENDBRANCH  26  27
ENDBRANCH   1  26
TORSDOF 18
ENDMDL
MODEL 2
REMARK VINA RESULT:     -11.6      1.325      2.403
REMARK SMILES CC[NH2+][C@]1(C(=O)NCCCCNC(=O)c2ccc(-c3c4nc(c(-c5c(F)cc(S(=O)(=O)[O-])cc5F)c5ccc([nH]5)c(-c5c(F)cc(S(=O)(=O)[O-])cc5F)c5nc(c(-c6c(F)cc(S(=O)(=O)[O-])cc6F)c6ccc3[nH]6)C=C5)C=C4)cc2)CC[C@@H](Sc2ccccc2C)C1
REMARK SMILES IDX 10 1 9 2 8 3 7 4 5 5 6 6 4 8 81 9 92 10 82 11 83 12 3 13
REMARK SMILES IDX 2 16 1 17 84 18 85 19 86 20 90 21 87 22 89 23 91 24 88 25
REMARK SMILES IDX 11 26 12 27 13 28 14 30 15 31 16 32 80 33 17 34 79 35 18 36
REMARK SMILES IDX 19 37 20 38 73 39 21 40 78 41 72 42 74 43 22 44 77 45 71 46
REMARK SMILES IDX 70 47 23 49 57 50 36 51 56 52 37 53 40 54 55 55 75 56 38 57
REMARK SMILES IDX 39 58 54 60 76 61 41 62 24 63 25 64 34 65 26 66 27 67 33 68
REMARK SMILES IDX 35 69 28 70 29 71 30 72 31 73 32 74 58 75 59 76 68 77 60 78
REMARK SMILES IDX 61 79 67 80 69 81 62 82 63 83 64 84 65 85 66 86 42 87 43 88
REMARK SMILES IDX 52 89 44 90 45 91 51 92 53 93 46 94 47 95 48 96 49 97 50 98
REMARK H PARENT 7 7 3 14 3 15 12 29 74 48 40 59
REMARK Flexibility Score: inf
ROOT
ATOM      1  C   UNL A   1      37.591  23.495  25.484  1.00  0.00     0.023 C 
ENDROOT
BRANCH   1   2
ATOM      2  C   UNL A   1      37.631  21.979  25.313  1.00  0.00     0.023 C 
BRANCH   2   3
ATOM      3  C   UNL A   1      36.288  21.270  25.411  1.00  0.00     0.116 C 
BRANCH   3   4
ATOM      4  N   UNL A   1      35.520  21.637  26.580  1.00  0.00    -0.351 N 
ATOM      5  C   UNL A   1      34.175  21.689  26.797  1.00  0.00     0.281 C 
ATOM      6  O   UNL A   1      33.828  21.997  27.946  1.00  0.00    -0.268 OA
ATOM      7  H   UNL A   1      36.065  21.895  27.358  1.00  0.00     0.163 HD
BRANCH   5   8
ATOM      8  C   UNL A   1      33.109  21.501  25.657  1.00  0.00     0.176 C 
ATOM      9  C   UNL A   1      31.891  22.434  25.814  1.00  0.00     0.080 C 
ATOM     10  C   UNL A   1      33.699  21.976  24.300  1.00  0.00     0.094 C 
ATOM     11  C   UNL A   1      31.397  22.806  24.428  1.00  0.00     0.022 C 
ATOM     12  C   UNL A   1      32.606  22.704  23.521  1.00  0.00     0.058 C 
BRANCH   8  13
ATOM     13  N   UNL A   1      32.685  20.070  25.582  1.00  0.00    -0.334 N 
ATOM     14  H   UNL A   1      32.867  19.627  26.482  1.00  0.00     0.347 HD
ATOM     15  H   UNL A   1      31.692  20.055  25.348  1.00  0.00     0.347 HD
BRANCH  13  16
ATOM     16  C   UNL A   1      33.399  19.316  24.534  1.00  0.00     0.257 C 
ATOM     17  C   UNL A   1      32.430  18.573  23.626  1.00  0.00     0.071 C 
ENDBRANCH  13  16
ENDBRANCH   8  13
BRANCH  12  18
ATOM     18  S   UNL A   1      33.138  24.271  22.710  1.00  0.00    -0.122 SA
BRANCH  18  19
ATOM     19  C   UNL A   1      32.457  25.567  23.750  1.00  0.00     0.010 A 
ATOM     20  C   UNL A   1      31.368  26.289  23.232  1.00  0.00     0.015 A 
ATOM     21  C   UNL A   1      33.043  25.998  24.958  1.00  0.00    -0.038 A 
ATOM     22  C   UNL A   1      30.833  27.384  23.915  1.00  0.00     0.001 A 
ATOM     23  C   UNL A   1      32.462  27.077  25.654  1.00  0.00     0.004 A 
ATOM     24  C   UNL A   1      34.280  25.400  25.573  1.00  0.00     0.045 C 
ATOM     25  C   UNL A   1      31.371  27.770  25.135  1.00  0.00     0.000 A 
ENDBRANCH  18  19
ENDBRANCH  12  18
ENDBRANCH   5   8
ENDBRANCH   3   4
ENDBRANCH   2   3
ENDBRANCH   1   2
BRANCH   1  26
ATOM     26  C   UNL A   1      38.531  24.075  26.536  1.00  0.00     0.116 C 
BRANCH  26  27
ATOM     27  N   UNL A   1      39.934  24.042  26.153  1.00  0.00    -0.352 N 
ATOM     28  C   UNL A   1      40.973  24.851  26.557  1.00  0.00     0.251 C 
ATOM     29  H   UNL A   1      40.177  23.337  25.510  1.00  0.00     0.163 HD
ATOM     30  O   UNL A   1      42.080  24.712  26.062  1.00  0.00    -0.269 OA
BRANCH  28  31
ATOM     31  C   UNL A   1      40.728  25.914  27.558  1.00  0.00     0.039 A 
ATOM     32  C   UNL A   1      39.725  25.714  28.510  1.00  0.00     0.014 A 
ATOM     33  C   UNL A   1      41.491  27.084  27.578  1.00  0.00     0.014 A 
ATOM     34  C   UNL A   1      39.541  26.654  29.527  1.00  0.00     0.010 A 
ATOM     35  C   UNL A   1      41.361  27.978  28.638  1.00  0.00     0.010 A 
ATOM     36  C   UNL A   1      40.385  27.773  29.623  1.00  0.00    -0.014 A 
BRANCH  36  37
ATOM     37  C   UNL A   1      40.262  28.724  30.758  1.00  0.00     0.031 A 
ATOM     38  C   UNL A   1      41.136  28.576  31.974  1.00  0.00     0.074 A 
ATOM     39  C   UNL A   1      39.328  29.695  30.711  1.00  0.00     0.049 A 
ATOM     40  N   UNL A   1      41.165  29.303  33.062  1.00  0.00    -0.248 NA
ATOM     41  C   UNL A   1      42.081  27.449  31.983  1.00  0.00     0.031 C 
ATOM     42  C   UNL A   1      38.375  29.900  29.617  1.00  0.00     0.029 A 
ATOM     43  N   UNL A   1      39.023  30.692  31.603  1.00  0.00    -0.354 N 
ATOM     44  C   UNL A   1      42.123  28.720  33.883  1.00  0.00     0.074 A 
ATOM     45  C   UNL A   1      42.607  27.542  33.196  1.00  0.00     0.031 C 
ATOM     46  C   UNL A   1      37.618  30.975  29.887  1.00  0.00     0.029 A 
ATOM     47  C   UNL A   1      38.007  31.518  31.183  1.00  0.00     0.049 A 
ATOM     48  H   UNL A   1      39.488  30.805  32.463  1.00  0.00     0.167 HD
ATOM     49  C   UNL A   1      42.579  29.142  35.087  1.00  0.00     0.037 A 
ATOM     50  C   UNL A   1      37.454  32.596  31.774  1.00  0.00     0.037 A 
ATOM     51  C   UNL A   1      42.108  30.327  35.756  1.00  0.00     0.049 A 
ATOM     52  C   UNL A   1      37.991  33.056  33.103  1.00  0.00     0.074 A 
ATOM     53  C   UNL A   1      42.545  30.871  36.952  1.00  0.00     0.029 A 
ATOM     54  N   UNL A   1      41.094  31.151  35.290  1.00  0.00    -0.354 N 
ATOM     55  N   UNL A   1      38.948  32.532  33.832  1.00  0.00    -0.248 NA
ATOM     56  C   UNL A   1      37.381  34.260  33.682  1.00  0.00     0.031 C 
ATOM     57  C   UNL A   1      41.767  32.002  37.228  1.00  0.00     0.029 A 
ATOM     58  C   UNL A   1      40.879  32.189  36.181  1.00  0.00     0.049 A 
ATOM     59  H   UNL A   1      40.600  31.016  34.449  1.00  0.00     0.167 HD
ATOM     60  C   UNL A   1      39.073  33.357  34.945  1.00  0.00     0.074 A 
ATOM     61  C   UNL A   1      38.105  34.424  34.781  1.00  0.00     0.031 C 
ATOM     62  C   UNL A   1      39.910  33.243  36.005  1.00  0.00     0.037 A 
BRANCH  49  63
ATOM     63  C   UNL A   1      43.650  28.319  35.752  1.00  0.00     0.058 A 
ATOM     64  C   UNL A   1      43.333  27.290  36.654  1.00  0.00     0.135 A 
ATOM     65  C   UNL A   1      45.006  28.540  35.464  1.00  0.00     0.135 A 
ATOM     66  F   UNL A   1      42.054  27.045  36.978  1.00  0.00    -0.206 F 
ATOM     67  C   UNL A   1      44.323  26.531  37.270  1.00  0.00     0.059 A 
ATOM     68  C   UNL A   1      46.012  27.774  36.047  1.00  0.00     0.059 A 
ATOM     69  F   UNL A   1      45.368  29.510  34.610  1.00  0.00    -0.206 F 
ATOM     70  C   UNL A   1      45.661  26.781  36.961  1.00  0.00     0.060 A 
BRANCH  70  71
ATOM     71  S   UNL A   1      46.932  25.784  37.768  1.00  0.00     0.124 S 
ATOM     72  O   UNL A   1      47.837  25.514  36.655  1.00  0.00    -0.237 OA
ATOM     73  O   UNL A   1      47.440  26.693  38.790  1.00  0.00    -0.237 OA
ATOM     74  O   UNL A   1      46.191  24.631  38.270  1.00  0.00    -0.744 OA
ENDBRANCH  70  71
ENDBRANCH  49  63
BRANCH  50  75
ATOM     75  C   UNL A   1      36.357  33.337  31.095  1.00  0.00     0.058 A 
ATOM     76  C   UNL A   1      36.611  34.122  29.960  1.00  0.00     0.135 A 
ATOM     77  C   UNL A   1      35.035  33.266  31.559  1.00  0.00     0.135 A 
ATOM     78  F   UNL A   1      37.860  34.225  29.482  1.00  0.00    -0.206 F 
ATOM     79  C   UNL A   1      35.597  34.826  29.319  1.00  0.00     0.059 A 
ATOM     80  C   UNL A   1      33.999  33.941  30.919  1.00  0.00     0.059 A 
ATOM     81  F   UNL A   1      34.736  32.514  32.629  1.00  0.00    -0.206 F 
ATOM     82  C   UNL A   1      34.293  34.726  29.805  1.00  0.00     0.060 A 
BRANCH  82  83
ATOM     83  S   UNL A   1      32.975  35.606  28.937  1.00  0.00     0.124 S 
ATOM     84  O   UNL A   1      32.429  34.553  28.088  1.00  0.00    -0.237 OA
ATOM     85  O   UNL A   1      32.124  36.048  30.036  1.00  0.00    -0.237 OA
ATOM     86  O   UNL A   1      33.688  36.673  28.240  1.00  0.00    -0.744 OA
ENDBRANCH  82  83
ENDBRANCH  50  75
BRANCH  62  87
ATOM     87  C   UNL A   1      39.835  34.316  37.056  1.00  0.00     0.058 A 
ATOM     88  C   UNL A   1      39.089  34.147  38.233  1.00  0.00     0.135 A 
ATOM     89  C   UNL A   1      40.538  35.521  36.893  1.00  0.00     0.135 A 
ATOM     90  F   UNL A   1      38.395  33.016  38.437  1.00  0.00    -0.206 F 
ATOM     91  C   UNL A   1      39.009  35.151  39.193  1.00  0.00     0.059 A 
ATOM     92  C   UNL A   1      40.497  36.526  37.854  1.00  0.00     0.059 A 
ATOM     93  F   UNL A   1      41.279  35.728  35.793  1.00  0.00    -0.206 F 
ATOM     94  C   UNL A   1      39.714  36.340  38.992  1.00  0.00     0.060 A 
BRANCH  94  95
ATOM     95  S   UNL A   1      39.606  37.634  40.245  1.00  0.00     0.124 S 
ATOM     96  O   UNL A   1      41.012  37.962  40.449  1.00  0.00    -0.237 OA
ATOM     97  O   UNL A   1      38.808  38.656  39.573  1.00  0.00    -0.237 OA
ATOM     98  O   UNL A   1      38.946  36.969  41.364  1.00  0.00    -0.744 OA
ENDBRANCH  94  95
ENDBRANCH  62  87
ENDBRANCH  36  37
ENDBRANCH  28  31
ENDBRANCH  26  27
ENDBRANCH   1  26
TORSDOF 18
ENDMDL
MODEL 3
REMARK VINA RESULT:     -11.4      6.171      8.533
REMARK SMILES CC[NH2+][C@]1(C(=O)NCCCCNC(=O)c2ccc(-c3c4nc(c(-c5c(F)cc(S(=O)(=O)[O-])cc5F)c5ccc([nH]5)c(-c5c(F)cc(S(=O)(=O)[O-])cc5F)c5nc(c(-c6c(F)cc(S(=O)(=O)[O-])cc6F)c6ccc3[nH]6)C=C5)C=C4)cc2)CC[C@@H](Sc2ccccc2C)C1
REMARK SMILES IDX 10 1 9 2 8 3 7 4 5 5 6 6 4 8 81 9 92 10 82 11 83 12 3 13
REMARK SMILES IDX 2 16 1 17 84 18 85 19 86 20 90 21 87 22 89 23 91 24 88 25
REMARK SMILES IDX 11 26 12 27 13 28 14 30 15 31 16 32 80 33 17 34 79 35 18 36
REMARK SMILES IDX 19 37 20 38 73 39 21 40 78 41 72 42 74 43 22 44 77 45 71 46
REMARK SMILES IDX 70 47 23 49 57 50 36 51 56 52 37 53 40 54 55 55 75 56 38 57
REMARK SMILES IDX 39 58 54 60 76 61 41 62 24 63 25 64 34 65 26 66 27 67 33 68
REMARK SMILES IDX 35 69 28 70 29 71 30 72 31 73 32 74 58 75 59 76 68 77 60 78
REMARK SMILES IDX 61 79 67 80 69 81 62 82 63 83 64 84 65 85 66 86 42 87 43 88
REMARK SMILES IDX 52 89 44 90 45 91 51 92 53 93 46 94 47 95 48 96 49 97 50 98
REMARK H PARENT 7 7 3 14 3 15 12 29 74 48 40 59
REMARK Flexibility Score: inf
ROOT
ATOM      1  C   UNL A   1      38.242  20.236  25.158  1.00  0.00     0.023 C 
ENDROOT
BRANCH   1   2
ATOM      2  C   UNL A   1      37.299  21.425  25.002  1.00  0.00     0.023 C 
BRANCH   2   3
ATOM      3  C   UNL A   1      35.814  21.105  25.100  1.00  0.00     0.116 C 
BRANCH   3   4
ATOM      4  N   UNL A   1      35.222  21.468  26.368  1.00  0.00    -0.351 N 
ATOM      5  C   UNL A   1      33.922  21.642  26.742  1.00  0.00     0.281 C 
ATOM      6  O   UNL A   1      33.738  21.905  27.938  1.00  0.00    -0.268 OA
ATOM      7  H   UNL A   1      35.874  21.616  27.091  1.00  0.00     0.163 HD
BRANCH   5   8
ATOM      8  C   UNL A   1      32.724  21.642  25.723  1.00  0.00     0.176 C 
ATOM      9  C   UNL A   1      31.624  22.657  26.091  1.00  0.00     0.080 C 
ATOM     10  C   UNL A   1      33.204  22.179  24.346  1.00  0.00     0.094 C 
ATOM     11  C   UNL A   1      31.016  23.185  24.804  1.00  0.00     0.022 C 
ATOM     12  C   UNL A   1      32.104  23.059  23.756  1.00  0.00     0.058 C 
BRANCH   8  13
ATOM     13  N   UNL A   1      32.164  20.262  25.592  1.00  0.00    -0.334 N 
ATOM     14  H   UNL A   1      32.497  19.698  26.373  1.00  0.00     0.347 HD
ATOM     15  H   UNL A   1      31.147  20.342  25.591  1.00  0.00     0.347 HD
BRANCH  13  16
ATOM     16  C   UNL A   1      32.558  19.602  24.333  1.00  0.00     0.257 C 
ATOM     17  C   UNL A   1      32.482  18.087  24.452  1.00  0.00     0.071 C 
ENDBRANCH  13  16
ENDBRANCH   8  13
BRANCH  12  18
ATOM     18  S   UNL A   1      32.686  24.639  23.009  1.00  0.00    -0.122 SA
BRANCH  18  19
ATOM     19  C   UNL A   1      32.402  25.870  24.284  1.00  0.00     0.010 A 
ATOM     20  C   UNL A   1      31.355  26.782  24.064  1.00  0.00     0.015 A 
ATOM     21  C   UNL A   1      33.253  26.070  25.390  1.00  0.00    -0.038 A 
ATOM     22  C   UNL A   1      31.119  27.842  24.942  1.00  0.00     0.001 A 
ATOM     23  C   UNL A   1      32.973  27.119  26.289  1.00  0.00     0.004 A 
ATOM     24  C   UNL A   1      34.480  25.251  25.688  1.00  0.00     0.045 C 
ATOM     25  C   UNL A   1      31.919  28.002  26.065  1.00  0.00     0.000 A 
ENDBRANCH  18  19
ENDBRANCH  12  18
ENDBRANCH   5   8
ENDBRANCH   3   4
ENDBRANCH   2   3
ENDBRANCH   1   2
BRANCH   1  26
ATOM     26  C   UNL A   1      39.442  20.450  26.075  1.00  0.00     0.116 C 
BRANCH  26  27
ATOM     27  N   UNL A   1      40.426  19.380  26.017  1.00  0.00    -0.352 N 
ATOM     28  C   UNL A   1      41.796  19.439  26.146  1.00  0.00     0.251 C 
ATOM     29  H   UNL A   1      40.058  18.481  25.862  1.00  0.00     0.163 HD
ATOM     30  O   UNL A   1      42.466  18.431  25.992  1.00  0.00    -0.269 OA
BRANCH  28  31
ATOM     31  C   UNL A   1      42.450  20.738  26.428  1.00  0.00     0.039 A 
ATOM     32  C   UNL A   1      42.869  21.520  25.350  1.00  0.00     0.014 A 
ATOM     33  C   UNL A   1      42.627  21.193  27.737  1.00  0.00     0.014 A 
ATOM     34  C   UNL A   1      43.397  22.792  25.584  1.00  0.00     0.010 A 
ATOM     35  C   UNL A   1      43.075  22.492  27.963  1.00  0.00     0.010 A 
ATOM     36  C   UNL A   1      43.465  23.306  26.890  1.00  0.00    -0.014 A 
BRANCH  36  37
ATOM     37  C   UNL A   1      43.930  24.695  27.139  1.00  0.00     0.031 A 
ATOM     38  C   UNL A   1      45.378  25.058  26.955  1.00  0.00     0.074 A 
ATOM     39  C   UNL A   1      43.050  25.619  27.574  1.00  0.00     0.049 A 
ATOM     40  N   UNL A   1      45.967  26.213  27.132  1.00  0.00    -0.248 NA
ATOM     41  C   UNL A   1      46.290  23.978  26.547  1.00  0.00     0.031 C 
ATOM     42  C   UNL A   1      41.633  25.374  27.855  1.00  0.00     0.029 A 
ATOM     43  N   UNL A   1      43.215  26.952  27.858  1.00  0.00    -0.354 N 
ATOM     44  C   UNL A   1      47.314  25.998  26.863  1.00  0.00     0.074 A 
ATOM     45  C   UNL A   1      47.466  24.589  26.574  1.00  0.00     0.031 C 
ATOM     46  C   UNL A   1      41.054  26.523  28.236  1.00  0.00     0.029 A 
ATOM     47  C   UNL A   1      42.059  27.579  28.259  1.00  0.00     0.049 A 
ATOM     48  H   UNL A   1      44.081  27.415  27.784  1.00  0.00     0.167 HD
ATOM     49  C   UNL A   1      48.328  26.897  26.833  1.00  0.00     0.037 A 
ATOM     50  C   UNL A   1      41.833  28.863  28.601  1.00  0.00     0.037 A 
ATOM     51  C   UNL A   1      48.166  28.302  27.101  1.00  0.00     0.049 A 
ATOM     52  C   UNL A   1      42.971  29.846  28.541  1.00  0.00     0.074 A 
ATOM     53  C   UNL A   1      49.118  29.305  27.041  1.00  0.00     0.029 A 
ATOM     54  N   UNL A   1      46.975  28.905  27.481  1.00  0.00    -0.354 N 
ATOM     55  N   UNL A   1      44.225  29.638  28.215  1.00  0.00    -0.248 NA
ATOM     56  C   UNL A   1      42.660  31.241  28.882  1.00  0.00     0.031 C 
ATOM     57  C   UNL A   1      48.512  30.507  27.424  1.00  0.00     0.029 A 
ATOM     58  C   UNL A   1      47.172  30.263  27.676  1.00  0.00     0.049 A 
ATOM     59  H   UNL A   1      46.117  28.436  27.596  1.00  0.00     0.167 HD
ATOM     60  C   UNL A   1      44.848  30.879  28.288  1.00  0.00     0.074 A 
ATOM     61  C   UNL A   1      43.827  31.834  28.671  1.00  0.00     0.031 C 
ATOM     62  C   UNL A   1      46.145  31.200  28.060  1.00  0.00     0.037 A 
BRANCH  49  63
ATOM     63  C   UNL A   1      49.700  26.385  26.487  1.00  0.00     0.058 A 
ATOM     64  C   UNL A   1      50.545  25.827  27.460  1.00  0.00     0.135 A 
ATOM     65  C   UNL A   1      50.168  26.425  25.163  1.00  0.00     0.135 A 
ATOM     66  F   UNL A   1      50.156  25.778  28.745  1.00  0.00    -0.206 F 
ATOM     67  C   UNL A   1      51.814  25.356  27.142  1.00  0.00     0.059 A 
ATOM     68  C   UNL A   1      51.423  25.933  24.815  1.00  0.00     0.059 A 
ATOM     69  F   UNL A   1      49.404  26.947  24.191  1.00  0.00    -0.206 F 
ATOM     70  C   UNL A   1      52.245  25.415  25.815  1.00  0.00     0.060 A 
BRANCH  70  71
ATOM     71  S   UNL A   1      53.894  24.796  25.418  1.00  0.00     0.124 S 
ATOM     72  O   UNL A   1      54.601  25.026  26.675  1.00  0.00    -0.237 OA
ATOM     73  O   UNL A   1      53.633  23.400  25.085  1.00  0.00    -0.237 OA
ATOM     74  O   UNL A   1      54.312  25.636  24.300  1.00  0.00    -0.744 OA
ENDBRANCH  70  71
ENDBRANCH  49  63
BRANCH  50  75
ATOM     75  C   UNL A   1      40.465  29.300  28.991  1.00  0.00     0.058 A 
ATOM     76  C   UNL A   1      40.130  29.509  30.337  1.00  0.00     0.135 A 
ATOM     77  C   UNL A   1      39.471  29.527  28.027  1.00  0.00     0.135 A 
ATOM     78  F   UNL A   1      41.045  29.300  31.295  1.00  0.00    -0.206 F 
ATOM     79  C   UNL A   1      38.854  29.910  30.717  1.00  0.00     0.059 A 
ATOM     80  C   UNL A   1      38.194  29.954  28.381  1.00  0.00     0.059 A 
ATOM     81  F   UNL A   1      39.745  29.360  26.724  1.00  0.00    -0.206 F 
ATOM     82  C   UNL A   1      37.893  30.132  29.730  1.00  0.00     0.060 A 
BRANCH  82  83
ATOM     83  S   UNL A   1      36.252  30.700  30.231  1.00  0.00     0.124 S 
ATOM     84  O   UNL A   1      35.479  30.473  29.015  1.00  0.00    -0.237 OA
ATOM     85  O   UNL A   1      35.952  29.818  31.354  1.00  0.00    -0.237 OA
ATOM     86  O   UNL A   1      36.476  32.099  30.585  1.00  0.00    -0.744 OA
ENDBRANCH  82  83
ENDBRANCH  50  75
BRANCH  62  87
ATOM     87  C   UNL A   1      46.526  32.649  28.190  1.00  0.00     0.058 A 
ATOM     88  C   UNL A   1      47.063  33.168  29.378  1.00  0.00     0.135 A 
ATOM     89  C   UNL A   1      46.371  33.526  27.103  1.00  0.00     0.135 A 
ATOM     90  F   UNL A   1      47.229  32.374  30.449  1.00  0.00    -0.206 F 
ATOM     91  C   UNL A   1      47.396  34.514  29.499  1.00  0.00     0.059 A 
ATOM     92  C   UNL A   1      46.726  34.868  27.192  1.00  0.00     0.059 A 
ATOM     93  F   UNL A   1      45.875  33.078  25.939  1.00  0.00    -0.206 F 
ATOM     94  C   UNL A   1      47.220  35.357  28.400  1.00  0.00     0.060 A 
BRANCH  94  95
ATOM     95  S   UNL A   1      47.658  37.100  28.566  1.00  0.00     0.124 S 
ATOM     96  O   UNL A   1      48.961  37.138  27.911  1.00  0.00    -0.237 OA
ATOM     97  O   UNL A   1      46.571  37.766  27.855  1.00  0.00    -0.237 OA
ATOM     98  O   UNL A   1      47.674  37.310  30.010  1.00  0.00    -0.744 OA
ENDBRANCH  94  95
ENDBRANCH  62  87
ENDBRANCH  36  37
ENDBRANCH  28  31
ENDBRANCH  26  27
ENDBRANCH   1  26
TORSDOF 18
ENDMDL
