MODEL 1
REMARK VINA RESULT:     -13.0      0.000      0.000
REMARK SMILES O=C(NCCCCNC(=O)c1cc(N2CCN(c3ccc(F)cc3)CC2)ccc1NC(=O)C1CCCC1)c1ccc(-c2c3nc(c(-c4c(F)cc(S(=O)(=O)[O-])cc4F)c4ccc([nH]4)c(-c4c(F)cc(S(=O)(=O)[O-])cc4F)c4nc(c(-c5c(F)cc(S(=O)(=O)[O-])cc5F)c5ccc2[nH]5)C=C4)C=C3)cc1
REMARK SMILES IDX 5 1 4 2 3 3 1 4 2 5 38 7 39 8 103 9 40 10 102 11 41 12 42 13
REMARK SMILES IDX 43 14 96 15 44 16 101 17 95 18 97 19 45 20 100 21 94 22
REMARK SMILES IDX 93 23 46 25 80 26 59 27 79 28 60 29 63 30 78 31 98 32 61 33
REMARK SMILES IDX 62 34 77 36 99 37 64 38 47 39 48 40 57 41 49 42 50 43 56 44
REMARK SMILES IDX 58 45 51 46 52 47 53 48 54 49 55 50 81 51 82 52 91 53 83 54
REMARK SMILES IDX 84 55 90 56 92 57 85 58 86 59 87 60 88 61 89 62 65 63 66 64
REMARK SMILES IDX 75 65 67 66 68 67 74 68 76 69 69 70 70 71 71 72 72 73 73 74
REMARK SMILES IDX 6 75 7 76 8 77 9 78 10 80 11 81 12 82 29 83 13 84 28 85
REMARK SMILES IDX 27 86 30 87 31 88 32 90 33 91 34 92 37 93 35 94 36 95 14 96
REMARK SMILES IDX 15 97 26 98 16 99 25 100 17 101 18 102 19 103 24 104 20 105
REMARK SMILES IDX 23 106 21 107 22 108
REMARK H PARENT 3 6 97 24 63 35 8 79 30 89
REMARK Flexibility Score: inf
ROOT
ATOM      1  C   UNL A   1      34.755  30.941  27.949  1.00  0.00     0.023 C 
ENDROOT
BRANCH   1   2
ATOM      2  C   UNL A   1      35.837  31.550  28.832  1.00  0.00     0.116 C 
BRANCH   2   3
ATOM      3  N   UNL A   1      35.674  31.209  30.236  1.00  0.00    -0.352 N 
ATOM      4  O   UNL A   1      36.157  30.157  32.174  1.00  0.00    -0.269 OA
ATOM      5  C   UNL A   1      36.527  30.514  31.066  1.00  0.00     0.251 C 
ATOM      6  H   UNL A   1      34.837  31.519  30.653  1.00  0.00     0.163 HD
BRANCH   5   7
ATOM      7  C   UNL A   1      37.889  30.187  30.587  1.00  0.00     0.039 A 
ATOM      8  C   UNL A   1      38.195  30.278  29.228  1.00  0.00     0.014 A 
ATOM      9  C   UNL A   1      38.863  29.776  31.501  1.00  0.00     0.014 A 
ATOM     10  C   UNL A   1      39.416  29.811  28.764  1.00  0.00     0.010 A 
ATOM     11  C   UNL A   1      40.131  29.405  31.042  1.00  0.00     0.010 A 
ATOM     12  C   UNL A   1      40.411  29.398  29.666  1.00  0.00    -0.014 A 
BRANCH  12  13
ATOM     13  C   UNL A   1      41.765  29.076  29.144  1.00  0.00     0.031 A 
ATOM     14  C   UNL A   1      42.858  30.108  29.091  1.00  0.00     0.074 A 
ATOM     15  C   UNL A   1      41.997  27.813  28.732  1.00  0.00     0.049 A 
ATOM     16  N   UNL A   1      44.088  29.974  28.663  1.00  0.00    -0.248 NA
ATOM     17  C   UNL A   1      42.537  31.460  29.571  1.00  0.00     0.031 C 
ATOM     18  C   UNL A   1      41.000  26.735  28.723  1.00  0.00     0.029 A 
ATOM     19  N   UNL A   1      43.133  27.212  28.255  1.00  0.00    -0.354 N 
ATOM     20  C   UNL A   1      44.682  31.223  28.802  1.00  0.00     0.074 A 
ATOM     21  C   UNL A   1      43.673  32.109  29.340  1.00  0.00     0.031 C 
ATOM     22  C   UNL A   1      41.578  25.601  28.304  1.00  0.00     0.029 A 
ATOM     23  C   UNL A   1      42.960  25.884  27.939  1.00  0.00     0.049 A 
ATOM     24  H   UNL A   1      43.989  27.686  28.147  1.00  0.00     0.167 HD
ATOM     25  C   UNL A   1      45.953  31.588  28.506  1.00  0.00     0.037 A 
ATOM     26  C   UNL A   1      43.804  24.998  27.383  1.00  0.00     0.037 A 
ATOM     27  C   UNL A   1      46.952  30.686  27.986  1.00  0.00     0.049 A 
ATOM     28  C   UNL A   1      45.197  25.443  27.041  1.00  0.00     0.074 A 
ATOM     29  C   UNL A   1      48.283  30.949  27.707  1.00  0.00     0.029 A 
ATOM     30  N   UNL A   1      46.734  29.355  27.658  1.00  0.00    -0.354 N 
ATOM     31  N   UNL A   1      45.755  26.616  27.231  1.00  0.00    -0.248 NA
ATOM     32  C   UNL A   1      46.073  24.452  26.407  1.00  0.00     0.031 C 
ATOM     33  C   UNL A   1      48.852  29.797  27.153  1.00  0.00     0.029 A 
ATOM     34  C   UNL A   1      47.894  28.796  27.145  1.00  0.00     0.049 A 
ATOM     35  H   UNL A   1      45.880  28.879  27.772  1.00  0.00     0.167 HD
ATOM     36  C   UNL A   1      47.053  26.496  26.754  1.00  0.00     0.074 A 
ATOM     37  C   UNL A   1      47.207  25.130  26.295  1.00  0.00     0.031 C 
ATOM     38  C   UNL A   1      48.031  27.433  26.696  1.00  0.00     0.037 A 
BRANCH  25  39
ATOM     39  C   UNL A   1      46.358  33.023  28.715  1.00  0.00     0.058 A 
ATOM     40  C   UNL A   1      46.917  33.469  29.922  1.00  0.00     0.135 A 
ATOM     41  C   UNL A   1      46.288  33.939  27.651  1.00  0.00     0.135 A 
ATOM     42  F   UNL A   1      46.997  32.642  30.977  1.00  0.00    -0.206 F 
ATOM     43  C   UNL A   1      47.393  34.769  30.068  1.00  0.00     0.059 A 
ATOM     44  C   UNL A   1      46.780  35.237  27.766  1.00  0.00     0.059 A 
ATOM     45  F   UNL A   1      45.761  33.567  26.474  1.00  0.00    -0.206 F 
ATOM     46  C   UNL A   1      47.330  35.643  28.981  1.00  0.00     0.060 A 
BRANCH  46  47
ATOM     47  S   UNL A   1      48.001  37.308  29.173  1.00  0.00     0.124 S 
ATOM     48  O   UNL A   1      46.783  38.105  29.279  1.00  0.00    -0.237 OA
ATOM     49  O   UNL A   1      48.788  37.188  30.395  1.00  0.00    -0.237 OA
ATOM     50  O   UNL A   1      48.775  37.509  27.950  1.00  0.00    -0.744 OA
ENDBRANCH  46  47
ENDBRANCH  25  39
BRANCH  26  51
ATOM     51  C   UNL A   1      43.342  23.617  27.078  1.00  0.00     0.058 A 
ATOM     52  C   UNL A   1      43.250  22.641  28.081  1.00  0.00     0.135 A 
ATOM     53  C   UNL A   1      42.996  23.243  25.769  1.00  0.00     0.135 A 
ATOM     54  F   UNL A   1      43.569  22.948  29.347  1.00  0.00    -0.206 F 
ATOM     55  C   UNL A   1      42.866  21.336  27.792  1.00  0.00     0.059 A 
ATOM     56  C   UNL A   1      42.575  21.955  25.461  1.00  0.00     0.059 A 
ATOM     57  F   UNL A   1      43.046  24.144  24.775  1.00  0.00    -0.206 F 
ATOM     58  C   UNL A   1      42.534  21.002  26.477  1.00  0.00     0.060 A 
BRANCH  58  59
ATOM     59  S   UNL A   1      42.038  19.305  26.111  1.00  0.00     0.124 S 
ATOM     60  O   UNL A   1      42.854  19.009  24.939  1.00  0.00    -0.237 OA
ATOM     61  O   UNL A   1      42.405  18.607  27.339  1.00  0.00    -0.237 OA
ATOM     62  O   UNL A   1      40.602  19.422  25.870  1.00  0.00    -0.744 OA
ENDBRANCH  58  59
ENDBRANCH  26  51
BRANCH  38  63
ATOM     63  C   UNL A   1      49.361  27.003  26.142  1.00  0.00     0.058 A 
ATOM     64  C   UNL A   1      50.340  26.406  26.952  1.00  0.00     0.135 A 
ATOM     65  C   UNL A   1      49.647  27.162  24.776  1.00  0.00     0.135 A 
ATOM     66  F   UNL A   1      50.122  26.242  28.266  1.00  0.00    -0.206 F 
ATOM     67  C   UNL A   1      51.567  26.008  26.433  1.00  0.00     0.059 A 
ATOM     68  C   UNL A   1      50.855  26.740  24.230  1.00  0.00     0.059 A 
ATOM     69  F   UNL A   1      48.743  27.719  23.956  1.00  0.00    -0.206 F 
ATOM     70  C   UNL A   1      51.814  26.176  25.069  1.00  0.00     0.060 A 
BRANCH  70  71
ATOM     71  S   UNL A   1      53.399  25.627  24.404  1.00  0.00     0.124 S 
ATOM     72  O   UNL A   1      53.451  24.246  24.869  1.00  0.00    -0.237 OA
ATOM     73  O   UNL A   1      53.212  25.806  22.967  1.00  0.00    -0.237 OA
ATOM     74  O   UNL A   1      54.361  26.533  25.022  1.00  0.00    -0.744 OA
ENDBRANCH  70  71
ENDBRANCH  38  63
ENDBRANCH  12  13
ENDBRANCH   5   7
ENDBRANCH   2   3
ENDBRANCH   1   2
BRANCH   1  75
ATOM     75  C   UNL A   1      35.002  29.494  27.513  1.00  0.00     0.023 C 
BRANCH  75  76
ATOM     76  C   UNL A   1      34.060  28.970  26.431  1.00  0.00     0.116 C 
BRANCH  76  77
ATOM     77  N   UNL A   1      32.896  28.312  26.998  1.00  0.00    -0.352 N 
ATOM     78  C   UNL A   1      31.956  27.513  26.410  1.00  0.00     0.253 C 
ATOM     79  H   UNL A   1      32.763  28.468  27.960  1.00  0.00     0.163 HD
ATOM     80  O   UNL A   1      30.906  27.302  27.016  1.00  0.00    -0.269 OA
BRANCH  78  81
ATOM     81  C   UNL A   1      32.156  26.842  25.104  1.00  0.00     0.065 A 
ATOM     82  C   UNL A   1      32.506  25.468  25.153  1.00  0.00     0.042 A 
ATOM     83  C   UNL A   1      32.242  27.540  23.889  1.00  0.00     0.054 A 
ATOM     84  C   UNL A   1      33.006  24.809  24.029  1.00  0.00     0.038 A 
ATOM     85  C   UNL A   1      32.917  26.945  22.847  1.00  0.00     0.029 A 
ATOM     86  C   UNL A   1      33.212  25.593  22.888  1.00  0.00     0.028 A 
BRANCH  83  87
ATOM     87  N   UNL A   1      31.702  28.813  23.685  1.00  0.00    -0.325 N 
ATOM     88  C   UNL A   1      30.428  29.211  23.388  1.00  0.00     0.227 C 
ATOM     89  H   UNL A   1      32.349  29.549  23.769  1.00  0.00     0.169 HD
ATOM     90  O   UNL A   1      30.276  30.440  23.311  1.00  0.00    -0.274 OA
BRANCH  88  91
ATOM     91  C   UNL A   1      29.189  28.302  23.151  1.00  0.00     0.079 C 
ATOM     92  C   UNL A   1      28.798  27.118  24.036  1.00  0.00     0.013 C 
ATOM     93  C   UNL A   1      27.921  29.173  23.291  1.00  0.00     0.013 C 
ATOM     94  C   UNL A   1      27.323  26.868  23.770  1.00  0.00     0.001 C 
ATOM     95  C   UNL A   1      26.735  28.225  23.455  1.00  0.00     0.001 C 
ENDBRANCH  88  91
ENDBRANCH  83  87
BRANCH  84  96
ATOM     96  N   UNL A   1      33.387  23.490  24.008  1.00  0.00    -0.368 N 
ATOM     97  C   UNL A   1      34.749  22.952  24.198  1.00  0.00     0.138 C 
ATOM     98  C   UNL A   1      32.371  22.471  23.706  1.00  0.00     0.138 C 
ATOM     99  C   UNL A   1      34.763  21.723  25.188  1.00  0.00     0.138 C 
ATOM    100  C   UNL A   1      32.301  21.496  24.883  1.00  0.00     0.138 C 
ATOM    101  N   UNL A   1      33.596  20.822  25.022  1.00  0.00    -0.368 N 
BRANCH 101 102
ATOM    102  C   UNL A   1      33.724  19.528  24.560  1.00  0.00     0.037 A 
ATOM    103  C   UNL A   1      32.732  18.968  23.745  1.00  0.00     0.029 A 
ATOM    104  C   UNL A   1      34.877  18.763  24.801  1.00  0.00     0.029 A 
ATOM    105  C   UNL A   1      32.906  17.708  23.161  1.00  0.00     0.041 A 
ATOM    106  C   UNL A   1      35.051  17.497  24.239  1.00  0.00     0.041 A 
ATOM    107  C   UNL A   1      34.065  16.986  23.413  1.00  0.00     0.123 A 
ATOM    108  F   UNL A   1      34.240  15.786  22.844  1.00  0.00    -0.207 F 
ENDBRANCH 101 102
ENDBRANCH  84  96
ENDBRANCH  78  81
ENDBRANCH  76  77
ENDBRANCH  75  76
ENDBRANCH   1  75
TORSDOF 18
ENDMDL
MODEL 2
REMARK VINA RESULT:     -12.6      2.933      9.371
REMARK SMILES O=C(NCCCCNC(=O)c1cc(N2CCN(c3ccc(F)cc3)CC2)ccc1NC(=O)C1CCCC1)c1ccc(-c2c3nc(c(-c4c(F)cc(S(=O)(=O)[O-])cc4F)c4ccc([nH]4)c(-c4c(F)cc(S(=O)(=O)[O-])cc4F)c4nc(c(-c5c(F)cc(S(=O)(=O)[O-])cc5F)c5ccc2[nH]5)C=C4)C=C3)cc1
REMARK SMILES IDX 5 1 4 2 3 3 1 4 2 5 38 7 39 8 103 9 40 10 102 11 41 12 42 13
REMARK SMILES IDX 43 14 96 15 44 16 101 17 95 18 97 19 45 20 100 21 94 22
REMARK SMILES IDX 93 23 46 25 80 26 59 27 79 28 60 29 63 30 78 31 98 32 61 33
REMARK SMILES IDX 62 34 77 36 99 37 64 38 47 39 48 40 57 41 49 42 50 43 56 44
REMARK SMILES IDX 58 45 51 46 52 47 53 48 54 49 55 50 81 51 82 52 91 53 83 54
REMARK SMILES IDX 84 55 90 56 92 57 85 58 86 59 87 60 88 61 89 62 65 63 66 64
REMARK SMILES IDX 75 65 67 66 68 67 74 68 76 69 69 70 70 71 71 72 72 73 73 74
REMARK SMILES IDX 6 75 7 76 8 77 9 78 10 80 11 81 12 82 29 83 13 84 28 85
REMARK SMILES IDX 27 86 30 87 31 88 32 90 33 91 34 92 37 93 35 94 36 95 14 96
REMARK SMILES IDX 15 97 26 98 16 99 25 100 17 101 18 102 19 103 24 104 20 105
REMARK SMILES IDX 23 106 21 107 22 108
REMARK H PARENT 3 6 97 24 63 35 8 79 30 89
REMARK Flexibility Score: inf
ROOT
ATOM      1  C   UNL A   1      37.825  20.280  25.292  1.00  0.00     0.023 C 
ENDROOT
BRANCH   1   2
ATOM      2  C   UNL A   1      39.073  20.687  26.065  1.00  0.00     0.116 C 
BRANCH   2   3
ATOM      3  N   UNL A   1      40.105  19.662  26.047  1.00  0.00    -0.352 N 
ATOM      4  O   UNL A   1      42.207  18.853  25.907  1.00  0.00    -0.269 OA
ATOM      5  C   UNL A   1      41.473  19.807  26.118  1.00  0.00     0.251 C 
ATOM      6  H   UNL A   1      39.780  18.736  25.973  1.00  0.00     0.163 HD
BRANCH   5   7
ATOM      7  C   UNL A   1      42.042  21.137  26.431  1.00  0.00     0.039 A 
ATOM      8  C   UNL A   1      42.281  22.055  25.408  1.00  0.00     0.014 A 
ATOM      9  C   UNL A   1      42.347  21.464  27.755  1.00  0.00     0.014 A 
ATOM     10  C   UNL A   1      42.967  23.230  25.682  1.00  0.00     0.010 A 
ATOM     11  C   UNL A   1      42.944  22.696  28.044  1.00  0.00     0.010 A 
ATOM     12  C   UNL A   1      43.279  23.580  27.006  1.00  0.00    -0.014 A 
BRANCH  12  13
ATOM     13  C   UNL A   1      43.851  24.925  27.278  1.00  0.00     0.031 A 
ATOM     14  C   UNL A   1      45.306  25.227  27.050  1.00  0.00     0.074 A 
ATOM     15  C   UNL A   1      43.015  25.886  27.723  1.00  0.00     0.049 A 
ATOM     16  N   UNL A   1      45.948  26.351  27.241  1.00  0.00    -0.248 NA
ATOM     17  C   UNL A   1      46.154  24.133  26.550  1.00  0.00     0.031 C 
ATOM     18  C   UNL A   1      41.585  25.697  27.996  1.00  0.00     0.029 A 
ATOM     19  N   UNL A   1      43.231  27.209  28.011  1.00  0.00    -0.354 N 
ATOM     20  C   UNL A   1      47.274  26.101  26.906  1.00  0.00     0.074 A 
ATOM     21  C   UNL A   1      47.350  24.710  26.513  1.00  0.00     0.031 C 
ATOM     22  C   UNL A   1      41.048  26.865  28.371  1.00  0.00     0.029 A 
ATOM     23  C   UNL A   1      42.103  27.867  28.443  1.00  0.00     0.049 A 
ATOM     24  H   UNL A   1      44.109  27.644  27.920  1.00  0.00     0.167 HD
ATOM     25  C   UNL A   1      48.323  26.958  26.926  1.00  0.00     0.037 A 
ATOM     26  C   UNL A   1      41.938  29.127  28.885  1.00  0.00     0.037 A 
ATOM     27  C   UNL A   1      48.224  28.347  27.303  1.00  0.00     0.049 A 
ATOM     28  C   UNL A   1      43.128  30.042  28.921  1.00  0.00     0.074 A 
ATOM     29  C   UNL A   1      49.221  29.309  27.302  1.00  0.00     0.029 A 
ATOM     30  N   UNL A   1      47.071  28.971  27.756  1.00  0.00    -0.354 N 
ATOM     31  N   UNL A   1      44.363  29.799  28.549  1.00  0.00    -0.248 NA
ATOM     32  C   UNL A   1      42.907  31.396  29.440  1.00  0.00     0.031 C 
ATOM     33  C   UNL A   1      48.686  30.496  27.812  1.00  0.00     0.029 A 
ATOM     34  C   UNL A   1      47.340  30.295  28.072  1.00  0.00     0.049 A 
ATOM     35  H   UNL A   1      46.191  28.539  27.842  1.00  0.00     0.167 HD
ATOM     36  C   UNL A   1      45.061  30.978  28.773  1.00  0.00     0.074 A 
ATOM     37  C   UNL A   1      44.107  31.939  29.286  1.00  0.00     0.031 C 
ATOM     38  C   UNL A   1      46.377  31.240  28.578  1.00  0.00     0.037 A 
BRANCH  25  39
ATOM     39  C   UNL A   1      49.684  26.439  26.545  1.00  0.00     0.058 A 
ATOM     40  C   UNL A   1      50.148  26.469  25.222  1.00  0.00     0.135 A 
ATOM     41  C   UNL A   1      50.579  26.008  27.540  1.00  0.00     0.135 A 
ATOM     42  F   UNL A   1      49.333  26.857  24.228  1.00  0.00    -0.206 F 
ATOM     43  C   UNL A   1      51.448  26.093  24.897  1.00  0.00     0.059 A 
ATOM     44  C   UNL A   1      51.892  25.651  27.243  1.00  0.00     0.059 A 
ATOM     45  F   UNL A   1      50.189  25.958  28.824  1.00  0.00    -0.206 F 
ATOM     46  C   UNL A   1      52.317  25.695  25.915  1.00  0.00     0.060 A 
BRANCH  46  47
ATOM     47  S   UNL A   1      54.016  25.263  25.482  1.00  0.00     0.124 S 
ATOM     48  O   UNL A   1      53.808  24.337  24.373  1.00  0.00    -0.237 OA
ATOM     49  O   UNL A   1      54.585  26.559  25.127  1.00  0.00    -0.237 OA
ATOM     50  O   UNL A   1      54.540  24.665  26.706  1.00  0.00    -0.744 OA
ENDBRANCH  46  47
ENDBRANCH  25  39
BRANCH  26  51
ATOM     51  C   UNL A   1      40.605  29.580  29.366  1.00  0.00     0.058 A 
ATOM     52  C   UNL A   1      40.347  29.759  30.733  1.00  0.00     0.135 A 
ATOM     53  C   UNL A   1      39.557  29.831  28.465  1.00  0.00     0.135 A 
ATOM     54  F   UNL A   1      41.314  29.534  31.634  1.00  0.00    -0.206 F 
ATOM     55  C   UNL A   1      39.089  30.135  31.191  1.00  0.00     0.059 A 
ATOM     56  C   UNL A   1      38.302  30.242  28.896  1.00  0.00     0.059 A 
ATOM     57  F   UNL A   1      39.757  29.695  27.144  1.00  0.00    -0.206 F 
ATOM     58  C   UNL A   1      38.071  30.370  30.264  1.00  0.00     0.060 A 
BRANCH  58  59
ATOM     59  S   UNL A   1      36.442  30.857  30.869  1.00  0.00     0.124 S 
ATOM     60  O   UNL A   1      36.043  29.671  31.618  1.00  0.00    -0.237 OA
ATOM     61  O   UNL A   1      36.750  32.042  31.663  1.00  0.00    -0.237 OA
ATOM     62  O   UNL A   1      35.692  31.111  29.641  1.00  0.00    -0.744 OA
ENDBRANCH  58  59
ENDBRANCH  26  51
BRANCH  38  63
ATOM     63  C   UNL A   1      46.853  32.632  28.893  1.00  0.00     0.058 A 
ATOM     64  C   UNL A   1      46.807  33.661  27.939  1.00  0.00     0.135 A 
ATOM     65  C   UNL A   1      47.331  32.946  30.176  1.00  0.00     0.135 A 
ATOM     66  F   UNL A   1      46.370  33.411  26.695  1.00  0.00    -0.206 F 
ATOM     67  C   UNL A   1      47.246  34.946  28.237  1.00  0.00     0.059 A 
ATOM     68  C   UNL A   1      47.743  34.233  30.505  1.00  0.00     0.059 A 
ATOM     69  F   UNL A   1      47.387  32.001  31.127  1.00  0.00    -0.206 F 
ATOM     70  C   UNL A   1      47.709  35.224  29.525  1.00  0.00     0.060 A 
BRANCH  70  71
ATOM     71  S   UNL A   1      48.247  36.903  29.907  1.00  0.00     0.124 S 
ATOM     72  O   UNL A   1      47.108  37.689  29.445  1.00  0.00    -0.237 OA
ATOM     73  O   UNL A   1      48.434  36.849  31.354  1.00  0.00    -0.237 OA
ATOM     74  O   UNL A   1      49.471  37.055  29.128  1.00  0.00    -0.744 OA
ENDBRANCH  70  71
ENDBRANCH  38  63
ENDBRANCH  12  13
ENDBRANCH   5   7
ENDBRANCH   2   3
ENDBRANCH   1   2
BRANCH   1  75
ATOM     75  C   UNL A   1      37.413  21.231  24.165  1.00  0.00     0.023 C 
BRANCH  75  76
ATOM     76  C   UNL A   1      36.206  22.116  24.468  1.00  0.00     0.116 C 
BRANCH  76  77
ATOM     77  N   UNL A   1      35.950  22.215  25.893  1.00  0.00    -0.352 N 
ATOM     78  C   UNL A   1      34.841  22.646  26.567  1.00  0.00     0.253 C 
ATOM     79  H   UNL A   1      36.695  21.925  26.467  1.00  0.00     0.163 HD
ATOM     80  O   UNL A   1      34.951  22.913  27.764  1.00  0.00    -0.269 OA
BRANCH  78  81
ATOM     81  C   UNL A   1      33.501  22.758  25.946  1.00  0.00     0.065 A 
ATOM     82  C   UNL A   1      33.143  24.040  25.455  1.00  0.00     0.042 A 
ATOM     83  C   UNL A   1      32.527  21.749  26.036  1.00  0.00     0.054 A 
ATOM     84  C   UNL A   1      31.821  24.345  25.125  1.00  0.00     0.038 A 
ATOM     85  C   UNL A   1      31.206  22.111  25.902  1.00  0.00     0.029 A 
ATOM     86  C   UNL A   1      30.871  23.349  25.378  1.00  0.00     0.028 A 
BRANCH  83  87
ATOM     87  N   UNL A   1      32.823  20.405  26.278  1.00  0.00    -0.325 N 
ATOM     88  C   UNL A   1      32.681  19.298  25.488  1.00  0.00     0.227 C 
ATOM     89  H   UNL A   1      33.198  20.224  27.169  1.00  0.00     0.169 HD
ATOM     90  O   UNL A   1      33.082  18.243  26.002  1.00  0.00    -0.274 OA
BRANCH  88  91
ATOM     91  C   UNL A   1      32.087  19.237  24.053  1.00  0.00     0.079 C 
ATOM     92  C   UNL A   1      32.345  20.275  22.960  1.00  0.00     0.013 C 
ATOM     93  C   UNL A   1      32.641  17.973  23.357  1.00  0.00     0.013 C 
ATOM     94  C   UNL A   1      32.031  19.583  21.644  1.00  0.00     0.001 C 
ATOM     95  C   UNL A   1      32.385  18.129  21.860  1.00  0.00     0.001 C 
ENDBRANCH  88  91
ENDBRANCH  83  87
BRANCH  84  96
ATOM     96  N   UNL A   1      31.398  25.568  24.667  1.00  0.00    -0.368 N 
ATOM     97  C   UNL A   1      32.133  26.491  23.781  1.00  0.00     0.138 C 
ATOM     98  C   UNL A   1      30.101  26.081  25.134  1.00  0.00     0.138 C 
ATOM     99  C   UNL A   1      31.217  27.055  22.627  1.00  0.00     0.138 C 
ATOM    100  C   UNL A   1      29.211  26.326  23.913  1.00  0.00     0.138 C 
ATOM    101  N   UNL A   1      29.832  27.352  23.069  1.00  0.00    -0.368 N 
BRANCH 101 102
ATOM    102  C   UNL A   1      29.332  28.638  23.111  1.00  0.00     0.037 A 
ATOM    103  C   UNL A   1      28.035  28.906  22.656  1.00  0.00     0.029 A 
ATOM    104  C   UNL A   1      30.052  29.697  23.688  1.00  0.00     0.029 A 
ATOM    105  C   UNL A   1      27.465  30.175  22.811  1.00  0.00     0.041 A 
ATOM    106  C   UNL A   1      29.500  30.971  23.830  1.00  0.00     0.041 A 
ATOM    107  C   UNL A   1      28.203  31.194  23.399  1.00  0.00     0.123 A 
ATOM    108  F   UNL A   1      27.655  32.405  23.562  1.00  0.00    -0.207 F 
ENDBRANCH 101 102
ENDBRANCH  84  96
ENDBRANCH  78  81
ENDBRANCH  76  77
ENDBRANCH  75  76
ENDBRANCH   1  75
TORSDOF 18
ENDMDL
MODEL 3
REMARK VINA RESULT:     -12.5      0.902      7.857
REMARK SMILES O=C(NCCCCNC(=O)c1cc(N2CCN(c3ccc(F)cc3)CC2)ccc1NC(=O)C1CCCC1)c1ccc(-c2c3nc(c(-c4c(F)cc(S(=O)(=O)[O-])cc4F)c4ccc([nH]4)c(-c4c(F)cc(S(=O)(=O)[O-])cc4F)c4nc(c(-c5c(F)cc(S(=O)(=O)[O-])cc5F)c5ccc2[nH]5)C=C4)C=C3)cc1
REMARK SMILES IDX 5 1 4 2 3 3 1 4 2 5 38 7 39 8 103 9 40 10 102 11 41 12 42 13
REMARK SMILES IDX 43 14 96 15 44 16 101 17 95 18 97 19 45 20 100 21 94 22
REMARK SMILES IDX 93 23 46 25 80 26 59 27 79 28 60 29 63 30 78 31 98 32 61 33
REMARK SMILES IDX 62 34 77 36 99 37 64 38 47 39 48 40 57 41 49 42 50 43 56 44
REMARK SMILES IDX 58 45 51 46 52 47 53 48 54 49 55 50 81 51 82 52 91 53 83 54
REMARK SMILES IDX 84 55 90 56 92 57 85 58 86 59 87 60 88 61 89 62 65 63 66 64
REMARK SMILES IDX 75 65 67 66 68 67 74 68 76 69 69 70 70 71 71 72 72 73 73 74
REMARK SMILES IDX 6 75 7 76 8 77 9 78 10 80 11 81 12 82 29 83 13 84 28 85
REMARK SMILES IDX 27 86 30 87 31 88 32 90 33 91 34 92 37 93 35 94 36 95 14 96
REMARK SMILES IDX 15 97 26 98 16 99 25 100 17 101 18 102 19 103 24 104 20 105
REMARK SMILES IDX 23 106 21 107 22 108
REMARK H PARENT 3 6 97 24 63 35 8 79 30 89
REMARK Flexibility Score: inf
ROOT
ATOM      1  C   UNL A   1      35.364  31.761  28.094  1.00  0.00     0.023 C 
ENDROOT
BRANCH   1   2
ATOM      2  C   UNL A   1      36.429  32.151  29.111  1.00  0.00     0.116 C 
BRANCH   2   3
ATOM      3  N   UNL A   1      36.207  31.548  30.416  1.00  0.00    -0.352 N 
ATOM      4  O   UNL A   1      36.509  30.047  32.074  1.00  0.00    -0.269 OA
ATOM      5  C   UNL A   1      36.937  30.570  31.056  1.00  0.00     0.251 C 
ATOM      6  H   UNL A   1      35.427  31.887  30.911  1.00  0.00     0.163 HD
BRANCH   5   7
ATOM      7  C   UNL A   1      38.233  30.146  30.480  1.00  0.00     0.039 A 
ATOM      8  C   UNL A   1      39.294  29.803  31.320  1.00  0.00     0.014 A 
ATOM      9  C   UNL A   1      38.392  30.100  29.092  1.00  0.00     0.014 A 
ATOM     10  C   UNL A   1      40.551  29.571  30.781  1.00  0.00     0.010 A 
ATOM     11  C   UNL A   1      39.635  29.762  28.548  1.00  0.00     0.010 A 
ATOM     12  C   UNL A   1      40.732  29.516  29.389  1.00  0.00    -0.014 A 
BRANCH  12  13
ATOM     13  C   UNL A   1      42.049  29.087  28.852  1.00  0.00     0.031 A 
ATOM     14  C   UNL A   1      42.291  27.680  28.379  1.00  0.00     0.074 A 
ATOM     15  C   UNL A   1      43.030  30.010  28.781  1.00  0.00     0.049 A 
ATOM     16  N   UNL A   1      43.386  27.160  27.886  1.00  0.00    -0.248 NA
ATOM     17  C   UNL A   1      41.170  26.732  28.474  1.00  0.00     0.031 C 
ATOM     18  C   UNL A   1      42.909  31.403  29.229  1.00  0.00     0.029 A 
ATOM     19  N   UNL A   1      44.311  29.932  28.299  1.00  0.00    -0.354 N 
ATOM     20  C   UNL A   1      43.098  25.824  27.629  1.00  0.00     0.074 A 
ATOM     21  C   UNL A   1      41.726  25.608  28.037  1.00  0.00     0.031 C 
ATOM     22  C   UNL A   1      44.049  32.054  28.964  1.00  0.00     0.029 A 
ATOM     23  C   UNL A   1      45.009  31.113  28.403  1.00  0.00     0.049 A 
ATOM     24  H   UNL A   1      44.695  29.110  27.917  1.00  0.00     0.167 HD
ATOM     25  C   UNL A   1      43.908  24.875  27.102  1.00  0.00     0.037 A 
ATOM     26  C   UNL A   1      46.291  31.403  28.114  1.00  0.00     0.037 A 
ATOM     27  C   UNL A   1      45.268  25.115  26.685  1.00  0.00     0.049 A 
ATOM     28  C   UNL A   1      47.169  30.319  27.558  1.00  0.00     0.074 A 
ATOM     29  C   UNL A   1      46.151  24.230  26.088  1.00  0.00     0.029 A 
ATOM     30  N   UNL A   1      45.947  26.316  26.827  1.00  0.00    -0.354 N 
ATOM     31  N   UNL A   1      46.860  29.076  27.273  1.00  0.00    -0.248 NA
ATOM     32  C   UNL A   1      48.567  30.672  27.289  1.00  0.00     0.031 C 
ATOM     33  C   UNL A   1      47.380  24.877  25.926  1.00  0.00     0.029 A 
ATOM     34  C   UNL A   1      47.248  26.185  26.364  1.00  0.00     0.049 A 
ATOM     35  H   UNL A   1      45.563  27.141  27.202  1.00  0.00     0.167 HD
ATOM     36  C   UNL A   1      48.023  28.504  26.775  1.00  0.00     0.074 A 
ATOM     37  C   UNL A   1      49.032  29.544  26.770  1.00  0.00     0.031 C 
ATOM     38  C   UNL A   1      48.239  27.231  26.362  1.00  0.00     0.037 A 
BRANCH  25  39
ATOM     39  C   UNL A   1      43.373  23.477  26.948  1.00  0.00     0.058 A 
ATOM     40  C   UNL A   1      43.246  22.604  28.040  1.00  0.00     0.135 A 
ATOM     41  C   UNL A   1      42.876  23.043  25.706  1.00  0.00     0.135 A 
ATOM     42  F   UNL A   1      43.716  22.959  29.246  1.00  0.00    -0.206 F 
ATOM     43  C   UNL A   1      42.645  21.356  27.908  1.00  0.00     0.059 A 
ATOM     44  C   UNL A   1      42.249  21.809  25.556  1.00  0.00     0.059 A 
ATOM     45  F   UNL A   1      42.971  23.836  24.627  1.00  0.00    -0.206 F 
ATOM     46  C   UNL A   1      42.140  20.970  26.665  1.00  0.00     0.060 A 
BRANCH  46  47
ATOM     47  S   UNL A   1      41.316  19.370  26.527  1.00  0.00     0.124 S 
ATOM     48  O   UNL A   1      41.145  19.007  27.930  1.00  0.00    -0.237 OA
ATOM     49  O   UNL A   1      40.093  19.710  25.807  1.00  0.00    -0.237 OA
ATOM     50  O   UNL A   1      42.272  18.555  25.782  1.00  0.00    -0.744 OA
ENDBRANCH  46  47
ENDBRANCH  25  39
BRANCH  26  51
ATOM     51  C   UNL A   1      46.828  32.763  28.386  1.00  0.00     0.058 A 
ATOM     52  C   UNL A   1      47.368  33.096  29.636  1.00  0.00     0.135 A 
ATOM     53  C   UNL A   1      46.798  33.763  27.399  1.00  0.00     0.135 A 
ATOM     54  F   UNL A   1      47.420  32.177  30.611  1.00  0.00    -0.206 F 
ATOM     55  C   UNL A   1      47.826  34.380  29.911  1.00  0.00     0.059 A 
ATOM     56  C   UNL A   1      47.282  35.043  27.639  1.00  0.00     0.059 A 
ATOM     57  F   UNL A   1      46.311  33.491  26.179  1.00  0.00    -0.206 F 
ATOM     58  C   UNL A   1      47.775  35.349  28.906  1.00  0.00     0.060 A 
BRANCH  58  59
ATOM     59  S   UNL A   1      48.371  37.012  29.272  1.00  0.00     0.124 S 
ATOM     60  O   UNL A   1      47.192  37.617  29.881  1.00  0.00    -0.237 OA
ATOM     61  O   UNL A   1      49.490  36.747  30.171  1.00  0.00    -0.237 OA
ATOM     62  O   UNL A   1      48.741  37.532  27.958  1.00  0.00    -0.744 OA
ENDBRANCH  58  59
ENDBRANCH  26  51
BRANCH  38  63
ATOM     63  C   UNL A   1      49.612  26.902  25.844  1.00  0.00     0.058 A 
ATOM     64  C   UNL A   1      49.987  27.177  24.520  1.00  0.00     0.135 A 
ATOM     65  C   UNL A   1      50.574  26.332  26.694  1.00  0.00     0.135 A 
ATOM     66  F   UNL A   1      49.102  27.711  23.664  1.00  0.00    -0.206 F 
ATOM     67  C   UNL A   1      51.259  26.873  24.048  1.00  0.00     0.059 A 
ATOM     68  C   UNL A   1      51.862  26.051  26.252  1.00  0.00     0.059 A 
ATOM     69  F   UNL A   1      50.270  26.056  27.972  1.00  0.00    -0.206 F 
ATOM     70  C   UNL A   1      52.192  26.313  24.923  1.00  0.00     0.060 A 
BRANCH  70  71
ATOM     71  S   UNL A   1      53.848  25.951  24.305  1.00  0.00     0.124 S 
ATOM     72  O   UNL A   1      53.638  25.991  22.862  1.00  0.00    -0.237 OA
ATOM     73  O   UNL A   1      54.635  27.048  24.862  1.00  0.00    -0.237 OA
ATOM     74  O   UNL A   1      54.139  24.634  24.860  1.00  0.00    -0.744 OA
ENDBRANCH  70  71
ENDBRANCH  38  63
ENDBRANCH  12  13
ENDBRANCH   5   7
ENDBRANCH   2   3
ENDBRANCH   1   2
BRANCH   1  75
ATOM     75  C   UNL A   1      35.313  30.274  27.735  1.00  0.00     0.023 C 
BRANCH  75  76
ATOM     76  C   UNL A   1      34.092  29.839  26.928  1.00  0.00     0.116 C 
BRANCH  76  77
ATOM     77  N   UNL A   1      33.168  29.051  27.724  1.00  0.00    -0.352 N 
ATOM     78  C   UNL A   1      32.105  28.280  27.345  1.00  0.00     0.253 C 
ATOM     79  H   UNL A   1      33.334  29.077  28.694  1.00  0.00     0.163 HD
ATOM     80  O   UNL A   1      31.295  27.937  28.206  1.00  0.00    -0.269 OA
BRANCH  78  81
ATOM     81  C   UNL A   1      31.905  27.790  25.961  1.00  0.00     0.065 A 
ATOM     82  C   UNL A   1      32.156  26.412  25.742  1.00  0.00     0.042 A 
ATOM     83  C   UNL A   1      31.717  28.648  24.864  1.00  0.00     0.054 A 
ATOM     84  C   UNL A   1      32.293  25.898  24.451  1.00  0.00     0.038 A 
ATOM     85  C   UNL A   1      32.048  28.180  23.613  1.00  0.00     0.029 A 
ATOM     86  C   UNL A   1      32.246  26.825  23.404  1.00  0.00     0.028 A 
BRANCH  83  87
ATOM     87  N   UNL A   1      31.235  29.955  24.975  1.00  0.00    -0.325 N 
ATOM     88  C   UNL A   1      30.269  30.618  24.271  1.00  0.00     0.227 C 
ATOM     89  H   UNL A   1      31.665  30.490  25.680  1.00  0.00     0.169 HD
ATOM     90  O   UNL A   1      30.055  31.779  24.655  1.00  0.00    -0.274 OA
BRANCH  88  91
ATOM     91  C   UNL A   1      29.435  30.076  23.076  1.00  0.00     0.079 C 
ATOM     92  C   UNL A   1      28.025  29.495  23.193  1.00  0.00     0.013 C 
ATOM     93  C   UNL A   1      29.163  31.249  22.108  1.00  0.00     0.013 C 
ATOM     94  C   UNL A   1      27.421  29.584  21.802  1.00  0.00     0.001 C 
ATOM     95  C   UNL A   1      28.036  30.815  21.173  1.00  0.00     0.001 C 
ENDBRANCH  88  91
ENDBRANCH  83  87
BRANCH  84  96
ATOM     96  N   UNL A   1      32.559  24.582  24.164  1.00  0.00    -0.368 N 
ATOM     97  C   UNL A   1      33.430  24.061  23.093  1.00  0.00     0.138 C 
ATOM     98  C   UNL A   1      31.874  23.541  24.946  1.00  0.00     0.138 C 
ATOM     99  C   UNL A   1      34.388  22.922  23.614  1.00  0.00     0.138 C 
ATOM    100  C   UNL A   1      32.934  22.670  25.622  1.00  0.00     0.138 C 
ATOM    101  N   UNL A   1      33.739  22.010  24.589  1.00  0.00    -0.368 N 
BRANCH 101 102
ATOM    102  C   UNL A   1      33.496  20.681  24.306  1.00  0.00     0.037 A 
ATOM    103  C   UNL A   1      32.450  20.322  23.446  1.00  0.00     0.029 A 
ATOM    104  C   UNL A   1      34.329  19.655  24.782  1.00  0.00     0.029 A 
ATOM    105  C   UNL A   1      32.271  18.994  23.045  1.00  0.00     0.041 A 
ATOM    106  C   UNL A   1      34.146  18.324  24.403  1.00  0.00     0.041 A 
ATOM    107  C   UNL A   1      33.122  18.008  23.527  1.00  0.00     0.123 A 
ATOM    108  F   UNL A   1      32.962  16.738  23.134  1.00  0.00    -0.207 F 
ENDBRANCH 101 102
ENDBRANCH  84  96
ENDBRANCH  78  81
ENDBRANCH  76  77
ENDBRANCH  75  76
ENDBRANCH   1  75
TORSDOF 18
ENDMDL
