MODEL 1
REMARK VINA RESULT:     -11.8      0.000      0.000
REMARK SMILES Cc1cccc(C[N@H+]2CC[C@@](C)(C(=O)NCCCCNC(=O)c3ccc(-c4c5nc(c(-c6c(F)cc(S(=O)(=O)[O-])cc6F)c6ccc([nH]6)c(-c6c(F)cc(S(=O)(=O)[O-])cc6F)c6nc(c(-c7c(F)cc(S(=O)(=O)[O-])cc7F)c7ccc4[nH]7)C=C6)C=C5)cc3)C2)n1
REMARK SMILES IDX 18 1 17 2 16 3 15 4 13 5 14 6 11 8 8 9 9 10 89 11 10 13
REMARK SMILES IDX 12 14 7 15 6 16 1 17 2 18 3 19 90 20 4 21 5 22 19 23 20 24
REMARK SMILES IDX 21 25 22 27 23 28 24 29 88 30 25 31 87 32 26 33 27 34 28 35
REMARK SMILES IDX 81 36 29 37 86 38 80 39 82 40 30 41 85 42 79 43 78 44 31 46
REMARK SMILES IDX 65 47 44 48 64 49 45 50 48 51 63 52 83 53 46 54 47 55 62 57
REMARK SMILES IDX 84 58 49 59 32 60 33 61 42 62 34 63 35 64 41 65 43 66 36 67
REMARK SMILES IDX 37 68 38 69 39 70 40 71 66 72 67 73 76 74 68 75 69 76 75 77
REMARK SMILES IDX 77 78 70 79 71 80 72 81 73 82 74 83 50 84 51 85 60 86 52 87
REMARK SMILES IDX 53 88 59 89 61 90 54 91 55 92 56 93 57 94 58 95
REMARK H PARENT 15 7 8 12 20 26 82 45 48 56
REMARK Flexibility Score: inf
ROOT
ATOM      1  C   UNL A   1      41.016  20.857  27.099  1.00  0.00     0.023 C 
ENDROOT
BRANCH   1   2
ATOM      2  C   UNL A   1      41.636  19.556  26.134  1.00  0.00     0.023 C 
BRANCH   2   3
ATOM      3  C   UNL A   1      43.197  18.045  26.370  1.00  0.00     0.116 C 
BRANCH   3   4
ATOM      4  N   UNL A   1      44.750  18.078  26.300  1.00  0.00    -0.355 N 
ATOM      5  C   UNL A   1      45.601  18.803  25.533  1.00  0.00     0.231 C 
ATOM      6  O   UNL A   1      46.799  18.560  25.749  1.00  0.00    -0.274 OA
ATOM      7  H   UNL A   1      45.196  17.462  26.926  1.00  0.00     0.163 HD
BRANCH   5   8
ATOM      8  C   UNL A   1      45.179  19.943  24.553  1.00  0.00     0.100 C 
ATOM      9  N   UNL A   1      44.644  22.232  25.287  1.00  0.00    -0.329 N 
ATOM     10  C   UNL A   1      46.069  22.209  24.952  1.00  0.00     0.263 C 
ATOM     11  C   UNL A   1      44.061  20.909  24.978  1.00  0.00     0.279 C 
ATOM     12  H   UNL A   1      44.211  22.937  24.692  1.00  0.00     0.348 HD
ATOM     13  C   UNL A   1      46.359  20.880  24.251  1.00  0.00     0.084 C 
ATOM     14  C   UNL A   1      44.739  19.217  23.253  1.00  0.00     0.028 C 
BRANCH   9  15
ATOM     15  C   UNL A   1      44.284  22.771  26.624  1.00  0.00     0.319 C 
BRANCH  15  16
ATOM     16  C   UNL A   1      44.110  24.294  26.699  1.00  0.00     0.095 A 
ATOM     17  C   UNL A   1      46.763  27.525  28.084  1.00  0.00     0.067 C 
ATOM     18  C   UNL A   1      45.701  26.854  27.271  1.00  0.00     0.038 A 
ATOM     19  C   UNL A   1      44.867  27.697  25.918  1.00  0.00     0.023 A 
ATOM     20  N   UNL A   1      45.361  25.163  27.602  1.00  0.00    -0.252 NA
ATOM     21  C   UNL A   1      43.562  26.835  25.018  1.00  0.00     0.004 A 
ATOM     22  C   UNL A   1      43.225  25.102  25.372  1.00  0.00     0.030 A 
ENDBRANCH  15  16
ENDBRANCH   9  15
ENDBRANCH   5   8
ENDBRANCH   3   4
ENDBRANCH   2   3
ENDBRANCH   1   2
BRANCH   1  23
ATOM     23  C   UNL A   1      40.802  22.242  26.499  1.00  0.00     0.116 C 
BRANCH  23  24
ATOM     24  N   UNL A   1      39.488  22.455  25.924  1.00  0.00    -0.352 N 
ATOM     25  C   UNL A   1      38.706  23.566  26.124  1.00  0.00     0.251 C 
ATOM     26  H   UNL A   1      39.128  21.746  25.343  1.00  0.00     0.163 HD
ATOM     27  O   UNL A   1      37.579  23.665  25.660  1.00  0.00    -0.269 OA
BRANCH  25  28
ATOM     28  C   UNL A   1      39.291  24.624  26.963  1.00  0.00     0.039 A 
ATOM     29  C   UNL A   1      40.002  25.651  26.347  1.00  0.00     0.014 A 
ATOM     30  C   UNL A   1      38.944  24.682  28.316  1.00  0.00     0.014 A 
ATOM     31  C   UNL A   1      40.381  26.753  27.105  1.00  0.00     0.010 A 
ATOM     32  C   UNL A   1      39.230  25.832  29.039  1.00  0.00     0.010 A 
ATOM     33  C   UNL A   1      39.994  26.852  28.453  1.00  0.00    -0.014 A 
BRANCH  33  34
ATOM     34  C   UNL A   1      40.498  27.963  29.290  1.00  0.00     0.031 A 
ATOM     35  C   UNL A   1      39.623  29.174  29.481  1.00  0.00     0.074 A 
ATOM     36  C   UNL A   1      41.699  27.865  29.891  1.00  0.00     0.049 A 
ATOM     37  N   UNL A   1      39.833  30.241  30.204  1.00  0.00    -0.248 NA
ATOM     38  C   UNL A   1      38.355  29.203  28.730  1.00  0.00     0.031 C 
ATOM     39  C   UNL A   1      42.631  26.745  29.739  1.00  0.00     0.029 A 
ATOM     40  N   UNL A   1      42.332  28.706  30.769  1.00  0.00    -0.354 N 
ATOM     41  C   UNL A   1      38.728  31.058  29.991  1.00  0.00     0.074 A 
ATOM     42  C   UNL A   1      37.907  30.418  28.994  1.00  0.00     0.031 C 
ATOM     43  C   UNL A   1      43.687  26.940  30.547  1.00  0.00     0.029 A 
ATOM     44  C   UNL A   1      43.525  28.213  31.240  1.00  0.00     0.049 A 
ATOM     45  H   UNL A   1      41.966  29.580  31.036  1.00  0.00     0.167 HD
ATOM     46  C   UNL A   1      38.402  32.215  30.609  1.00  0.00     0.037 A 
ATOM     47  C   UNL A   1      44.378  28.731  32.145  1.00  0.00     0.037 A 
ATOM     48  C   UNL A   1      39.229  32.824  31.614  1.00  0.00     0.049 A 
ATOM     49  C   UNL A   1      44.016  30.040  32.795  1.00  0.00     0.074 A 
ATOM     50  C   UNL A   1      39.007  33.985  32.328  1.00  0.00     0.029 A 
ATOM     51  N   UNL A   1      40.445  32.309  32.047  1.00  0.00    -0.354 N 
ATOM     52  N   UNL A   1      42.948  30.783  32.617  1.00  0.00    -0.248 NA
ATOM     53  C   UNL A   1      44.966  30.578  33.777  1.00  0.00     0.031 C 
ATOM     54  C   UNL A   1      40.120  34.206  33.146  1.00  0.00     0.029 A 
ATOM     55  C   UNL A   1      40.998  33.141  33.001  1.00  0.00     0.049 A 
ATOM     56  H   UNL A   1      40.853  31.475  31.720  1.00  0.00     0.167 HD
ATOM     57  C   UNL A   1      43.075  31.855  33.492  1.00  0.00     0.074 A 
ATOM     58  C   UNL A   1      44.323  31.656  34.205  1.00  0.00     0.031 C 
ATOM     59  C   UNL A   1      42.240  32.905  33.697  1.00  0.00     0.037 A 
BRANCH  46  60
ATOM     60  C   UNL A   1      37.112  32.879  30.202  1.00  0.00     0.058 A 
ATOM     61  C   UNL A   1      37.050  33.794  29.136  1.00  0.00     0.135 A 
ATOM     62  C   UNL A   1      35.924  32.619  30.904  1.00  0.00     0.135 A 
ATOM     63  F   UNL A   1      38.157  34.102  28.441  1.00  0.00    -0.206 F 
ATOM     64  C   UNL A   1      35.873  34.465  28.817  1.00  0.00     0.059 A 
ATOM     65  C   UNL A   1      34.726  33.248  30.575  1.00  0.00     0.059 A 
ATOM     66  F   UNL A   1      35.920  31.759  31.934  1.00  0.00    -0.206 F 
ATOM     67  C   UNL A   1      34.716  34.185  29.543  1.00  0.00     0.060 A 
BRANCH  67  68
ATOM     68  S   UNL A   1      33.203  35.075  29.125  1.00  0.00     0.124 S 
ATOM     69  O   UNL A   1      32.546  35.161  30.425  1.00  0.00    -0.237 OA
ATOM     70  O   UNL A   1      33.719  36.331  28.592  1.00  0.00    -0.237 OA
ATOM     71  O   UNL A   1      32.553  34.203  28.152  1.00  0.00    -0.744 OA
ENDBRANCH  67  68
ENDBRANCH  46  60
BRANCH  47  72
ATOM     72  C   UNL A   1      45.617  27.992  32.518  1.00  0.00     0.058 A 
ATOM     73  C   UNL A   1      45.613  27.044  33.553  1.00  0.00     0.135 A 
ATOM     74  C   UNL A   1      46.826  28.201  31.836  1.00  0.00     0.135 A 
ATOM     75  F   UNL A   1      44.485  26.806  34.240  1.00  0.00    -0.206 F 
ATOM     76  C   UNL A   1      46.761  26.342  33.908  1.00  0.00     0.059 A 
ATOM     77  C   UNL A   1      47.981  27.490  32.152  1.00  0.00     0.059 A 
ATOM     78  F   UNL A   1      46.885  29.085  30.827  1.00  0.00    -0.206 F 
ATOM     79  C   UNL A   1      47.940  26.569  33.196  1.00  0.00     0.060 A 
BRANCH  79  80
ATOM     80  S   UNL A   1      49.411  25.615  33.632  1.00  0.00     0.124 S 
ATOM     81  O   UNL A   1      48.897  24.251  33.603  1.00  0.00    -0.237 OA
ATOM     82  O   UNL A   1      50.333  25.974  32.559  1.00  0.00    -0.237 OA
ATOM     83  O   UNL A   1      49.766  26.129  34.951  1.00  0.00    -0.744 OA
ENDBRANCH  79  80
ENDBRANCH  47  72
BRANCH  59  84
ATOM     84  C   UNL A   1      42.620  33.886  34.770  1.00  0.00     0.058 A 
ATOM     85  C   UNL A   1      43.441  34.994  34.512  1.00  0.00     0.135 A 
ATOM     86  C   UNL A   1      42.101  33.741  36.068  1.00  0.00     0.135 A 
ATOM     87  F   UNL A   1      43.966  35.178  33.289  1.00  0.00    -0.206 F 
ATOM     88  C   UNL A   1      43.762  35.905  35.511  1.00  0.00     0.059 A 
ATOM     89  C   UNL A   1      42.375  34.663  37.071  1.00  0.00     0.059 A 
ATOM     90  F   UNL A   1      41.297  32.708  36.364  1.00  0.00    -0.206 F 
ATOM     91  C   UNL A   1      43.221  35.733  36.786  1.00  0.00     0.060 A 
BRANCH  91  92
ATOM     92  S   UNL A   1      43.622  36.941  38.065  1.00  0.00     0.124 S 
ATOM     93  O   UNL A   1      42.536  36.732  39.016  1.00  0.00    -0.237 OA
ATOM     94  O   UNL A   1      44.943  36.501  38.502  1.00  0.00    -0.237 OA
ATOM     95  O   UNL A   1      43.596  38.214  37.351  1.00  0.00    -0.744 OA
ENDBRANCH  91  92
ENDBRANCH  59  84
ENDBRANCH  33  34
ENDBRANCH  25  28
ENDBRANCH  23  24
ENDBRANCH   1  23
TORSDOF 16
ENDMDL
MODEL 2
REMARK VINA RESULT:     -11.7      3.450     11.537
REMARK SMILES Cc1cccc(C[N@H+]2CC[C@@](C)(C(=O)NCCCCNC(=O)c3ccc(-c4c5nc(c(-c6c(F)cc(S(=O)(=O)[O-])cc6F)c6ccc([nH]6)c(-c6c(F)cc(S(=O)(=O)[O-])cc6F)c6nc(c(-c7c(F)cc(S(=O)(=O)[O-])cc7F)c7ccc4[nH]7)C=C6)C=C5)cc3)C2)n1
REMARK SMILES IDX 18 1 17 2 16 3 15 4 13 5 14 6 11 8 8 9 9 10 89 11 10 13
REMARK SMILES IDX 12 14 7 15 6 16 1 17 2 18 3 19 90 20 4 21 5 22 19 23 20 24
REMARK SMILES IDX 21 25 22 27 23 28 24 29 88 30 25 31 87 32 26 33 27 34 28 35
REMARK SMILES IDX 81 36 29 37 86 38 80 39 82 40 30 41 85 42 79 43 78 44 31 46
REMARK SMILES IDX 65 47 44 48 64 49 45 50 48 51 63 52 83 53 46 54 47 55 62 57
REMARK SMILES IDX 84 58 49 59 32 60 33 61 42 62 34 63 35 64 41 65 43 66 36 67
REMARK SMILES IDX 37 68 38 69 39 70 40 71 66 72 67 73 76 74 68 75 69 76 75 77
REMARK SMILES IDX 77 78 70 79 71 80 72 81 73 82 74 83 50 84 51 85 60 86 52 87
REMARK SMILES IDX 53 88 59 89 61 90 54 91 55 92 56 93 57 94 58 95
REMARK H PARENT 15 7 8 12 20 26 82 45 48 56
REMARK Flexibility Score: inf
ROOT
ATOM      1  C   UNL A   1      35.168  33.672  28.922  1.00  0.00     0.023 C 
ENDROOT
BRANCH   1   2
ATOM      2  C   UNL A   1      34.090  34.902  28.344  1.00  0.00     0.023 C 
BRANCH   2   3
ATOM      3  C   UNL A   1      32.985  36.559  29.245  1.00  0.00     0.116 C 
BRANCH   3   4
ATOM      4  N   UNL A   1      33.313  37.597  30.355  1.00  0.00    -0.355 N 
ATOM      5  C   UNL A   1      33.315  37.498  31.707  1.00  0.00     0.231 C 
ATOM      6  O   UNL A   1      33.629  38.551  32.284  1.00  0.00    -0.274 OA
ATOM      7  H   UNL A   1      33.566  38.486  30.015  1.00  0.00     0.163 HD
BRANCH   5   8
ATOM      8  C   UNL A   1      33.083  36.181  32.513  1.00  0.00     0.100 C 
ATOM      9  N   UNL A   1      34.858  34.532  32.951  1.00  0.00    -0.329 N 
ATOM     10  C   UNL A   1      34.839  35.456  34.087  1.00  0.00     0.263 C 
ATOM     11  C   UNL A   1      33.759  34.888  32.028  1.00  0.00     0.279 C 
ATOM     12  H   UNL A   1      34.692  33.598  33.326  1.00  0.00     0.348 HD
ATOM     13  C   UNL A   1      33.583  36.320  33.959  1.00  0.00     0.084 C 
ATOM     14  C   UNL A   1      31.545  35.968  32.506  1.00  0.00     0.028 C 
BRANCH   9  15
ATOM     15  C   UNL A   1      36.173  34.312  32.295  1.00  0.00     0.319 C 
BRANCH  15  16
ATOM     16  C   UNL A   1      37.138  33.380  33.041  1.00  0.00     0.095 A 
ATOM     17  C   UNL A   1      37.678  29.010  33.000  1.00  0.00     0.067 C 
ATOM     18  C   UNL A   1      38.054  30.453  33.113  1.00  0.00     0.038 A 
ATOM     19  C   UNL A   1      39.762  30.975  33.336  1.00  0.00     0.023 A 
ATOM     20  N   UNL A   1      36.784  31.650  32.909  1.00  0.00    -0.252 NA
ATOM     21  C   UNL A   1      40.127  32.732  33.514  1.00  0.00     0.004 A 
ATOM     22  C   UNL A   1      38.813  33.945  33.304  1.00  0.00     0.030 A 
ENDBRANCH  15  16
ENDBRANCH   9  15
ENDBRANCH   5   8
ENDBRANCH   3   4
ENDBRANCH   2   3
ENDBRANCH   1   2
BRANCH   1  23
ATOM     23  C   UNL A   1      35.550  32.489  28.040  1.00  0.00     0.116 C 
BRANCH  23  24
ATOM     24  N   UNL A   1      34.518  31.479  27.904  1.00  0.00    -0.352 N 
ATOM     25  C   UNL A   1      34.733  30.123  27.891  1.00  0.00     0.251 C 
ATOM     26  H   UNL A   1      33.588  31.791  27.815  1.00  0.00     0.163 HD
ATOM     27  O   UNL A   1      33.830  29.318  27.714  1.00  0.00    -0.269 OA
BRANCH  25  28
ATOM     28  C   UNL A   1      36.129  29.690  28.068  1.00  0.00     0.039 A 
ATOM     29  C   UNL A   1      37.020  29.850  27.009  1.00  0.00     0.014 A 
ATOM     30  C   UNL A   1      36.567  29.327  29.345  1.00  0.00     0.014 A 
ATOM     31  C   UNL A   1      38.374  29.633  27.233  1.00  0.00     0.010 A 
ATOM     32  C   UNL A   1      37.929  29.219  29.588  1.00  0.00     0.010 A 
ATOM     33  C   UNL A   1      38.837  29.321  28.524  1.00  0.00    -0.014 A 
BRANCH  33  34
ATOM     34  C   UNL A   1      40.259  28.973  28.739  1.00  0.00     0.031 A 
ATOM     35  C   UNL A   1      41.151  29.978  29.418  1.00  0.00     0.074 A 
ATOM     36  C   UNL A   1      40.723  27.767  28.361  1.00  0.00     0.049 A 
ATOM     37  N   UNL A   1      42.409  29.876  29.753  1.00  0.00    -0.248 NA
ATOM     38  C   UNL A   1      40.555  31.289  29.735  1.00  0.00     0.031 C 
ATOM     39  C   UNL A   1      39.943  26.740  27.666  1.00  0.00     0.029 A 
ATOM     40  N   UNL A   1      41.954  27.189  28.530  1.00  0.00    -0.354 N 
ATOM     41  C   UNL A   1      42.747  31.102  30.314  1.00  0.00     0.074 A 
ATOM     42  C   UNL A   1      41.600  31.966  30.178  1.00  0.00     0.031 C 
ATOM     43  C   UNL A   1      40.696  25.637  27.525  1.00  0.00     0.029 A 
ATOM     44  C   UNL A   1      42.020  25.891  28.081  1.00  0.00     0.049 A 
ATOM     45  H   UNL A   1      42.719  27.660  28.933  1.00  0.00     0.167 HD
ATOM     46  C   UNL A   1      43.893  31.461  30.933  1.00  0.00     0.037 A 
ATOM     47  C   UNL A   1      43.036  25.008  28.134  1.00  0.00     0.037 A 
ATOM     48  C   UNL A   1      45.015  30.575  31.073  1.00  0.00     0.049 A 
ATOM     49  C   UNL A   1      44.318  25.438  28.795  1.00  0.00     0.074 A 
ATOM     50  C   UNL A   1      46.229  30.808  31.691  1.00  0.00     0.029 A 
ATOM     51  N   UNL A   1      45.054  29.276  30.582  1.00  0.00    -0.354 N 
ATOM     52  N   UNL A   1      44.611  26.588  29.360  1.00  0.00    -0.248 NA
ATOM     53  C   UNL A   1      45.405  24.453  28.837  1.00  0.00     0.031 C 
ATOM     54  C   UNL A   1      47.025  29.672  31.518  1.00  0.00     0.029 A 
ATOM     55  C   UNL A   1      46.280  28.701  30.862  1.00  0.00     0.049 A 
ATOM     56  H   UNL A   1      44.318  28.830  30.104  1.00  0.00     0.167 HD
ATOM     57  C   UNL A   1      45.901  26.451  29.861  1.00  0.00     0.074 A 
ATOM     58  C   UNL A   1      46.325  25.102  29.538  1.00  0.00     0.031 C 
ATOM     59  C   UNL A   1      46.665  27.350  30.532  1.00  0.00     0.037 A 
BRANCH  46  60
ATOM     60  C   UNL A   1      43.973  32.861  31.487  1.00  0.00     0.058 A 
ATOM     61  C   UNL A   1      43.660  33.150  32.827  1.00  0.00     0.135 A 
ATOM     62  C   UNL A   1      44.340  33.934  30.660  1.00  0.00     0.135 A 
ATOM     63  F   UNL A   1      43.279  32.169  33.661  1.00  0.00    -0.206 F 
ATOM     64  C   UNL A   1      43.656  34.455  33.311  1.00  0.00     0.059 A 
ATOM     65  C   UNL A   1      44.383  35.243  31.135  1.00  0.00     0.059 A 
ATOM     66  F   UNL A   1      44.646  33.722  29.370  1.00  0.00    -0.206 F 
ATOM     67  C   UNL A   1      44.018  35.495  32.456  1.00  0.00     0.060 A 
BRANCH  67  68
ATOM     68  S   UNL A   1      43.994  37.182  33.096  1.00  0.00     0.124 S 
ATOM     69  O   UNL A   1      45.237  37.221  33.861  1.00  0.00    -0.237 OA
ATOM     70  O   UNL A   1      43.978  37.977  31.873  1.00  0.00    -0.237 OA
ATOM     71  O   UNL A   1      42.770  37.228  33.889  1.00  0.00    -0.744 OA
ENDBRANCH  67  68
ENDBRANCH  46  60
BRANCH  47  72
ATOM     72  C   UNL A   1      42.861  23.630  27.595  1.00  0.00     0.058 A 
ATOM     73  C   UNL A   1      42.475  22.568  28.428  1.00  0.00     0.135 A 
ATOM     74  C   UNL A   1      43.054  23.349  26.233  1.00  0.00     0.135 A 
ATOM     75  F   UNL A   1      42.279  22.780  29.738  1.00  0.00    -0.206 F 
ATOM     76  C   UNL A   1      42.302  21.278  27.936  1.00  0.00     0.059 A 
ATOM     77  C   UNL A   1      42.859  22.073  25.711  1.00  0.00     0.059 A 
ATOM     78  F   UNL A   1      43.409  24.329  25.387  1.00  0.00    -0.206 F 
ATOM     79  C   UNL A   1      42.491  21.041  26.574  1.00  0.00     0.060 A 
BRANCH  79  80
ATOM     80  S   UNL A   1      42.215  19.373  25.938  1.00  0.00     0.124 S 
ATOM     81  O   UNL A   1      43.041  19.374  24.737  1.00  0.00    -0.237 OA
ATOM     82  O   UNL A   1      42.692  18.545  27.042  1.00  0.00    -0.237 OA
ATOM     83  O   UNL A   1      40.773  19.334  25.713  1.00  0.00    -0.744 OA
ENDBRANCH  79  80
ENDBRANCH  47  72
BRANCH  59  84
ATOM     84  C   UNL A   1      48.012  26.887  31.009  1.00  0.00     0.058 A 
ATOM     85  C   UNL A   1      48.192  26.284  32.263  1.00  0.00     0.135 A 
ATOM     86  C   UNL A   1      49.131  26.999  30.167  1.00  0.00     0.135 A 
ATOM     87  F   UNL A   1      47.156  26.155  33.108  1.00  0.00    -0.206 F 
ATOM     88  C   UNL A   1      49.441  25.840  32.680  1.00  0.00     0.059 A 
ATOM     89  C   UNL A   1      50.381  26.525  30.547  1.00  0.00     0.059 A 
ATOM     90  F   UNL A   1      49.010  27.554  28.951  1.00  0.00    -0.206 F 
ATOM     91  C   UNL A   1      50.529  25.961  31.812  1.00  0.00     0.060 A 
BRANCH  91  92
ATOM     92  S   UNL A   1      52.138  25.352  32.354  1.00  0.00     0.124 S 
ATOM     93  O   UNL A   1      52.260  25.977  33.667  1.00  0.00    -0.237 OA
ATOM     94  O   UNL A   1      51.937  23.906  32.355  1.00  0.00    -0.237 OA
ATOM     95  O   UNL A   1      53.054  25.852  31.333  1.00  0.00    -0.744 OA
ENDBRANCH  91  92
ENDBRANCH  59  84
ENDBRANCH  33  34
ENDBRANCH  25  28
ENDBRANCH  23  24
ENDBRANCH   1  23
TORSDOF 16
ENDMDL
MODEL 3
REMARK VINA RESULT:     -11.7      5.219     11.606
REMARK SMILES Cc1cccc(C[N@H+]2CC[C@@](C)(C(=O)NCCCCNC(=O)c3ccc(-c4c5nc(c(-c6c(F)cc(S(=O)(=O)[O-])cc6F)c6ccc([nH]6)c(-c6c(F)cc(S(=O)(=O)[O-])cc6F)c6nc(c(-c7c(F)cc(S(=O)(=O)[O-])cc7F)c7ccc4[nH]7)C=C6)C=C5)cc3)C2)n1
REMARK SMILES IDX 18 1 17 2 16 3 15 4 13 5 14 6 11 8 8 9 9 10 89 11 10 13
REMARK SMILES IDX 12 14 7 15 6 16 1 17 2 18 3 19 90 20 4 21 5 22 19 23 20 24
REMARK SMILES IDX 21 25 22 27 23 28 24 29 88 30 25 31 87 32 26 33 27 34 28 35
REMARK SMILES IDX 81 36 29 37 86 38 80 39 82 40 30 41 85 42 79 43 78 44 31 46
REMARK SMILES IDX 65 47 44 48 64 49 45 50 48 51 63 52 83 53 46 54 47 55 62 57
REMARK SMILES IDX 84 58 49 59 32 60 33 61 42 62 34 63 35 64 41 65 43 66 36 67
REMARK SMILES IDX 37 68 38 69 39 70 40 71 66 72 67 73 76 74 68 75 69 76 75 77
REMARK SMILES IDX 77 78 70 79 71 80 72 81 73 82 74 83 50 84 51 85 60 86 52 87
REMARK SMILES IDX 53 88 59 89 61 90 54 91 55 92 56 93 57 94 58 95
REMARK H PARENT 15 7 8 12 20 26 82 45 48 56
REMARK Flexibility Score: inf
ROOT
ATOM      1  C   UNL A   1      35.982  33.090  28.156  1.00  0.00     0.023 C 
ENDROOT
BRANCH   1   2
ATOM      2  C   UNL A   1      34.447  32.334  27.873  1.00  0.00     0.023 C 
BRANCH   2   3
ATOM      3  C   UNL A   1      33.775  30.341  27.279  1.00  0.00     0.116 C 
BRANCH   3   4
ATOM      4  N   UNL A   1      32.645  29.392  27.770  1.00  0.00    -0.355 N 
ATOM      5  C   UNL A   1      31.954  28.413  27.136  1.00  0.00     0.231 C 
ATOM      6  O   UNL A   1      31.106  27.857  27.851  1.00  0.00    -0.274 OA
ATOM      7  H   UNL A   1      32.385  29.525  28.711  1.00  0.00     0.163 HD
BRANCH   5   8
ATOM      8  C   UNL A   1      32.243  27.900  25.689  1.00  0.00     0.100 C 
ATOM      9  N   UNL A   1      33.541  25.863  25.210  1.00  0.00    -0.329 N 
ATOM     10  C   UNL A   1      32.132  25.471  25.273  1.00  0.00     0.263 C 
ATOM     11  C   UNL A   1      33.636  27.330  25.371  1.00  0.00     0.279 C 
ATOM     12  H   UNL A   1      33.879  25.605  24.283  1.00  0.00     0.348 HD
ATOM     13  C   UNL A   1      31.295  26.752  25.309  1.00  0.00     0.084 C 
ATOM     14  C   UNL A   1      31.986  29.122  24.768  1.00  0.00     0.028 C 
BRANCH   9  15
ATOM     15  C   UNL A   1      34.486  25.084  26.051  1.00  0.00     0.319 C 
BRANCH  15  16
ATOM     16  C   UNL A   1      35.204  23.927  25.343  1.00  0.00     0.095 A 
ATOM     17  C   UNL A   1      39.095  21.981  26.022  1.00  0.00     0.067 C 
ATOM     18  C   UNL A   1      37.659  22.109  25.625  1.00  0.00     0.038 A 
ATOM     19  C   UNL A   1      36.691  20.689  25.091  1.00  0.00     0.023 A 
ATOM     20  N   UNL A   1      36.896  23.682  25.803  1.00  0.00    -0.252 NA
ATOM     21  C   UNL A   1      34.979  20.936  24.581  1.00  0.00     0.004 A 
ATOM     22  C   UNL A   1      34.213  22.555  24.767  1.00  0.00     0.030 A 
ENDBRANCH  15  16
ENDBRANCH   9  15
ENDBRANCH   5   8
ENDBRANCH   3   4
ENDBRANCH   2   3
ENDBRANCH   1   2
BRANCH   1  23
ATOM     23  C   UNL A   1      36.854  32.673  29.336  1.00  0.00     0.116 C 
BRANCH  23  24
ATOM     24  N   UNL A   1      36.240  31.708  30.228  1.00  0.00    -0.352 N 
ATOM     25  C   UNL A   1      36.786  30.498  30.583  1.00  0.00     0.251 C 
ATOM     26  H   UNL A   1      35.363  31.938  30.610  1.00  0.00     0.163 HD
ATOM     27  O   UNL A   1      36.196  29.697  31.293  1.00  0.00    -0.269 OA
BRANCH  25  28
ATOM     28  C   UNL A   1      38.117  30.203  30.027  1.00  0.00     0.039 A 
ATOM     29  C   UNL A   1      39.172  29.968  30.906  1.00  0.00     0.014 A 
ATOM     30  C   UNL A   1      38.239  29.965  28.655  1.00  0.00     0.014 A 
ATOM     31  C   UNL A   1      40.375  29.493  30.397  1.00  0.00     0.010 A 
ATOM     32  C   UNL A   1      39.404  29.389  28.170  1.00  0.00     0.010 A 
ATOM     33  C   UNL A   1      40.497  29.197  29.028  1.00  0.00    -0.014 A 
BRANCH  33  34
ATOM     34  C   UNL A   1      41.810  28.807  28.466  1.00  0.00     0.031 A 
ATOM     35  C   UNL A   1      42.906  29.837  28.420  1.00  0.00     0.074 A 
ATOM     36  C   UNL A   1      42.014  27.545  28.043  1.00  0.00     0.049 A 
ATOM     37  N   UNL A   1      44.143  29.712  28.018  1.00  0.00    -0.248 NA
ATOM     38  C   UNL A   1      42.556  31.201  28.853  1.00  0.00     0.031 C 
ATOM     39  C   UNL A   1      41.003  26.486  28.018  1.00  0.00     0.029 A 
ATOM     40  N   UNL A   1      43.147  26.932  27.575  1.00  0.00    -0.354 N 
ATOM     41  C   UNL A   1      44.707  30.976  28.150  1.00  0.00     0.074 A 
ATOM     42  C   UNL A   1      43.657  31.873  28.565  1.00  0.00     0.031 C 
ATOM     43  C   UNL A   1      41.576  25.339  27.619  1.00  0.00     0.029 A 
ATOM     44  C   UNL A   1      42.982  25.590  27.322  1.00  0.00     0.049 A 
ATOM     45  H   UNL A   1      43.997  27.407  27.433  1.00  0.00     0.167 HD
ATOM     46  C   UNL A   1      45.998  31.346  27.991  1.00  0.00     0.037 A 
ATOM     47  C   UNL A   1      43.878  24.671  26.913  1.00  0.00     0.037 A 
ATOM     48  C   UNL A   1      47.030  30.428  27.596  1.00  0.00     0.049 A 
ATOM     49  C   UNL A   1      45.303  25.110  26.704  1.00  0.00     0.074 A 
ATOM     50  C   UNL A   1      48.377  30.670  27.413  1.00  0.00     0.029 A 
ATOM     51  N   UNL A   1      46.819  29.082  27.322  1.00  0.00    -0.354 N 
ATOM     52  N   UNL A   1      45.834  26.299  26.874  1.00  0.00    -0.248 NA
ATOM     53  C   UNL A   1      46.254  24.084  26.259  1.00  0.00     0.031 C 
ATOM     54  C   UNL A   1      48.970  29.485  26.967  1.00  0.00     0.029 A 
ATOM     55  C   UNL A   1      48.008  28.484  26.949  1.00  0.00     0.049 A 
ATOM     56  H   UNL A   1      45.951  28.622  27.384  1.00  0.00     0.167 HD
ATOM     57  C   UNL A   1      47.189  26.157  26.597  1.00  0.00     0.074 A 
ATOM     58  C   UNL A   1      47.393  24.762  26.256  1.00  0.00     0.031 C 
ATOM     59  C   UNL A   1      48.176  27.088  26.625  1.00  0.00     0.037 A 
BRANCH  46  60
ATOM     60  C   UNL A   1      46.339  32.793  28.238  1.00  0.00     0.058 A 
ATOM     61  C   UNL A   1      46.722  33.260  29.508  1.00  0.00     0.135 A 
ATOM     62  C   UNL A   1      46.255  33.733  27.199  1.00  0.00     0.135 A 
ATOM     63  F   UNL A   1      46.798  32.413  30.548  1.00  0.00    -0.206 F 
ATOM     64  C   UNL A   1      46.957  34.610  29.750  1.00  0.00     0.059 A 
ATOM     65  C   UNL A   1      46.526  35.083  27.409  1.00  0.00     0.059 A 
ATOM     66  F   UNL A   1      45.890  33.349  25.966  1.00  0.00    -0.206 F 
ATOM     67  C   UNL A   1      46.855  35.514  28.693  1.00  0.00     0.060 A 
BRANCH  67  68
ATOM     68  S   UNL A   1      47.149  37.263  29.027  1.00  0.00     0.124 S 
ATOM     69  O   UNL A   1      45.870  37.853  28.643  1.00  0.00    -0.237 OA
ATOM     70  O   UNL A   1      47.442  37.260  30.456  1.00  0.00    -0.237 OA
ATOM     71  O   UNL A   1      48.274  37.591  28.158  1.00  0.00    -0.744 OA
ENDBRANCH  67  68
ENDBRANCH  46  60
BRANCH  47  72
ATOM     72  C   UNL A   1      43.465  23.252  26.727  1.00  0.00     0.058 A 
ATOM     73  C   UNL A   1      43.399  22.675  25.448  1.00  0.00     0.135 A 
ATOM     74  C   UNL A   1      43.147  22.434  27.823  1.00  0.00     0.135 A 
ATOM     75  F   UNL A   1      43.690  23.412  24.365  1.00  0.00    -0.206 F 
ATOM     76  C   UNL A   1      43.021  21.349  25.261  1.00  0.00     0.059 A 
ATOM     77  C   UNL A   1      42.795  21.096  27.665  1.00  0.00     0.059 A 
ATOM     78  F   UNL A   1      43.207  22.927  29.071  1.00  0.00    -0.206 F 
ATOM     79  C   UNL A   1      42.726  20.565  26.378  1.00  0.00     0.060 A 
BRANCH  79  80
ATOM     80  S   UNL A   1      42.286  18.832  26.126  1.00  0.00     0.124 S 
ATOM     81  O   UNL A   1      43.213  18.442  25.070  1.00  0.00    -0.237 OA
ATOM     82  O   UNL A   1      42.542  18.260  27.445  1.00  0.00    -0.237 OA
ATOM     83  O   UNL A   1      40.879  18.894  25.741  1.00  0.00    -0.744 OA
ENDBRANCH  79  80
ENDBRANCH  47  72
BRANCH  59  84
ATOM     84  C   UNL A   1      49.574  26.616  26.335  1.00  0.00     0.058 A 
ATOM     85  C   UNL A   1      50.341  25.929  27.287  1.00  0.00     0.135 A 
ATOM     86  C   UNL A   1      50.128  26.809  25.059  1.00  0.00     0.135 A 
ATOM     87  F   UNL A   1      49.860  25.721  28.524  1.00  0.00    -0.206 F 
ATOM     88  C   UNL A   1      51.623  25.479  26.995  1.00  0.00     0.059 A 
ATOM     89  C   UNL A   1      51.391  26.332  24.732  1.00  0.00     0.059 A 
ATOM     90  F   UNL A   1      49.429  27.447  24.107  1.00  0.00    -0.206 F 
ATOM     91  C   UNL A   1      52.137  25.682  25.712  1.00  0.00     0.060 A 
BRANCH  91  92
ATOM     92  S   UNL A   1      53.791  25.066  25.338  1.00  0.00     0.124 S 
ATOM     93  O   UNL A   1      53.592  23.623  25.425  1.00  0.00    -0.237 OA
ATOM     94  O   UNL A   1      54.023  25.595  23.998  1.00  0.00    -0.237 OA
ATOM     95  O   UNL A   1      54.619  25.650  26.389  1.00  0.00    -0.744 OA
ENDBRANCH  91  92
ENDBRANCH  59  84
ENDBRANCH  33  34
ENDBRANCH  25  28
ENDBRANCH  23  24
ENDBRANCH   1  23
TORSDOF 16
ENDMDL
