MODEL 1
REMARK VINA RESULT:     -11.8      0.000      0.000
REMARK SMILES O=C(C[C@H]1C[C@H]2CC[C@@H](C1)[N@H+]2C[C@@H]1CNC(=O)O1)NCCCCNC(=O)c1ccc(-c2c3nc(c(-c4c(F)cc(S(=O)(=O)[O-])cc4F)c4ccc([nH]4)c(-c4c(F)cc(S(=O)(=O)[O-])cc4F)c4nc(c(-c5c(F)cc(S(=O)(=O)[O-])cc5F)c5ccc2[nH]5)C=C4)C=C3)cc1
REMARK SMILES IDX 21 1 20 2 19 3 1 4 2 5 3 7 4 8 5 9 10 10 6 11 9 12 7 13
REMARK SMILES IDX 11 14 8 15 12 17 13 18 14 19 18 20 15 21 16 22 17 24 22 25
REMARK SMILES IDX 23 26 24 27 25 28 26 30 27 31 28 32 92 33 29 34 91 35 30 36
REMARK SMILES IDX 31 37 32 38 85 39 33 40 90 41 84 42 86 43 34 44 89 45 83 46
REMARK SMILES IDX 82 47 35 49 69 50 48 51 68 52 49 53 52 54 67 55 87 56 50 57
REMARK SMILES IDX 51 58 66 60 88 61 53 62 36 63 37 64 46 65 38 66 39 67 45 68
REMARK SMILES IDX 47 69 40 70 41 71 42 72 43 73 44 74 70 75 71 76 80 77 72 78
REMARK SMILES IDX 73 79 79 80 81 81 74 82 75 83 76 84 77 85 78 86 54 87 55 88
REMARK SMILES IDX 64 89 56 90 57 91 63 92 65 93 58 94 59 95 60 96 61 97 62 98
REMARK H PARENT 19 6 11 16 15 23 24 29 86 48 52 59
REMARK Flexibility Score: inf
ROOT
ATOM      1  C   UNL A   1      31.271  27.470  26.114  1.00  0.00     0.023 C 
ENDROOT
BRANCH   1   2
ATOM      2  C   UNL A   1      30.792  26.407  25.129  1.00  0.00     0.116 C 
BRANCH   2   3
ATOM      3  N   UNL A   1      31.874  25.673  24.507  1.00  0.00    -0.356 N 
ATOM      4  O   UNL A   1      30.547  24.412  23.112  1.00  0.00    -0.275 OA
ATOM      5  C   UNL A   1      31.658  24.795  23.465  1.00  0.00     0.220 C 
ATOM      6  H   UNL A   1      32.792  25.804  24.838  1.00  0.00     0.163 HD
BRANCH   5   7
ATOM      7  C   UNL A   1      32.923  24.402  22.731  1.00  0.00     0.104 C 
BRANCH   7   8
ATOM      8  C   UNL A   1      33.503  23.029  23.138  1.00  0.00     0.010 C 
ATOM      9  C   UNL A   1      34.399  23.079  24.404  1.00  0.00     0.069 C 
ATOM     10  C   UNL A   1      32.500  21.850  23.080  1.00  0.00     0.069 C 
ATOM     11  C   UNL A   1      34.072  22.064  25.514  1.00  0.00     0.184 C 
ATOM     12  C   UNL A   1      32.271  21.118  24.403  1.00  0.00     0.184 C 
ATOM     13  C   UNL A   1      32.842  22.552  26.289  1.00  0.00     0.071 C 
ATOM     14  N   UNL A   1      33.544  20.817  25.018  1.00  0.00    -0.327 N 
ATOM     15  C   UNL A   1      31.656  22.011  25.488  1.00  0.00     0.071 C 
ATOM     16  H   UNL A   1      33.555  20.190  25.822  1.00  0.00     0.348 HD
BRANCH  14  17
ATOM     17  C   UNL A   1      34.280  19.620  24.680  1.00  0.00     0.310 C 
BRANCH  17  18
ATOM     18  C   UNL A   1      33.677  18.212  24.499  1.00  0.00     0.252 C 
ATOM     19  C   UNL A   1      32.796  17.697  25.614  1.00  0.00     0.170 C 
ATOM     20  O   UNL A   1      34.668  17.198  24.278  1.00  0.00    -0.438 OA
ATOM     21  N   UNL A   1      33.428  16.484  25.990  1.00  0.00    -0.318 N 
ATOM     22  C   UNL A   1      34.486  16.196  25.182  1.00  0.00     0.407 C 
ATOM     23  H   UNL A   1      33.137  15.919  26.744  1.00  0.00     0.167 HD
ATOM     24  O   UNL A   1      35.187  15.206  25.280  1.00  0.00    -0.225 OA
ENDBRANCH  17  18
ENDBRANCH  14  17
ENDBRANCH   7   8
ENDBRANCH   5   7
ENDBRANCH   2   3
ENDBRANCH   1   2
BRANCH   1  25
ATOM     25  C   UNL A   1      32.734  27.915  25.969  1.00  0.00     0.023 C 
BRANCH  25  26
ATOM     26  C   UNL A   1      33.454  28.303  27.260  1.00  0.00     0.116 C 
BRANCH  26  27
ATOM     27  N   UNL A   1      33.429  29.735  27.515  1.00  0.00    -0.352 N 
ATOM     28  C   UNL A   1      34.380  30.567  28.059  1.00  0.00     0.251 C 
ATOM     29  H   UNL A   1      32.593  30.184  27.255  1.00  0.00     0.163 HD
ATOM     30  O   UNL A   1      34.071  31.720  28.350  1.00  0.00    -0.269 OA
BRANCH  28  31
ATOM     31  C   UNL A   1      35.758  30.090  28.322  1.00  0.00     0.039 A 
ATOM     32  C   UNL A   1      36.685  30.102  27.274  1.00  0.00     0.014 A 
ATOM     33  C   UNL A   1      36.136  29.593  29.571  1.00  0.00     0.014 A 
ATOM     34  C   UNL A   1      38.002  29.688  27.500  1.00  0.00     0.010 A 
ATOM     35  C   UNL A   1      37.466  29.248  29.814  1.00  0.00     0.010 A 
ATOM     36  C   UNL A   1      38.418  29.297  28.783  1.00  0.00    -0.014 A 
BRANCH  36  37
ATOM     37  C   UNL A   1      39.843  28.963  29.063  1.00  0.00     0.031 A 
ATOM     38  C   UNL A   1      40.779  29.998  29.631  1.00  0.00     0.074 A 
ATOM     39  C   UNL A   1      40.312  27.738  28.751  1.00  0.00     0.049 A 
ATOM     40  N   UNL A   1      42.061  29.904  29.882  1.00  0.00    -0.248 NA
ATOM     41  C   UNL A   1      40.204  31.317  29.937  1.00  0.00     0.031 C 
ATOM     42  C   UNL A   1      39.522  26.658  28.155  1.00  0.00     0.029 A 
ATOM     43  N   UNL A   1      41.568  27.194  28.878  1.00  0.00    -0.354 N 
ATOM     44  C   UNL A   1      42.446  31.148  30.368  1.00  0.00     0.074 A 
ATOM     45  C   UNL A   1      41.274  31.997  30.323  1.00  0.00     0.031 C 
ATOM     46  C   UNL A   1      40.304  25.580  27.986  1.00  0.00     0.029 A 
ATOM     47  C   UNL A   1      41.661  25.901  28.418  1.00  0.00     0.049 A 
ATOM     48  H   UNL A   1      42.330  27.685  29.263  1.00  0.00     0.167 HD
ATOM     49  C   UNL A   1      43.659  31.543  30.830  1.00  0.00     0.037 A 
ATOM     50  C   UNL A   1      42.718  25.069  28.338  1.00  0.00     0.037 A 
ATOM     51  C   UNL A   1      44.821  30.691  30.880  1.00  0.00     0.049 A 
ATOM     52  C   UNL A   1      44.060  25.535  28.836  1.00  0.00     0.074 A 
ATOM     53  C   UNL A   1      46.082  30.985  31.371  1.00  0.00     0.029 A 
ATOM     54  N   UNL A   1      44.871  29.384  30.415  1.00  0.00    -0.354 N 
ATOM     55  N   UNL A   1      44.390  26.696  29.350  1.00  0.00    -0.248 NA
ATOM     56  C   UNL A   1      45.171  24.578  28.750  1.00  0.00     0.031 C 
ATOM     57  C   UNL A   1      46.907  29.876  31.154  1.00  0.00     0.029 A 
ATOM     58  C   UNL A   1      46.146  28.868  30.586  1.00  0.00     0.049 A 
ATOM     59  H   UNL A   1      44.112  28.896  30.021  1.00  0.00     0.167 HD
ATOM     60  C   UNL A   1      45.739  26.598  29.675  1.00  0.00     0.074 A 
ATOM     61  C   UNL A   1      46.160  25.260  29.313  1.00  0.00     0.031 C 
ATOM     62  C   UNL A   1      46.555  27.532  30.225  1.00  0.00     0.037 A 
BRANCH  49  63
ATOM     63  C   UNL A   1      43.793  32.961  31.321  1.00  0.00     0.058 A 
ATOM     64  C   UNL A   1      44.167  34.007  30.460  1.00  0.00     0.135 A 
ATOM     65  C   UNL A   1      43.510  33.287  32.658  1.00  0.00     0.135 A 
ATOM     66  F   UNL A   1      44.463  33.754  29.176  1.00  0.00    -0.206 F 
ATOM     67  C   UNL A   1      44.289  35.316  30.914  1.00  0.00     0.059 A 
ATOM     68  C   UNL A   1      43.592  34.596  33.125  1.00  0.00     0.059 A 
ATOM     69  F   UNL A   1      43.144  32.331  33.524  1.00  0.00    -0.206 F 
ATOM     70  C   UNL A   1      44.000  35.601  32.250  1.00  0.00     0.060 A 
BRANCH  70  71
ATOM     71  S   UNL A   1      44.165  37.306  32.821  1.00  0.00     0.124 S 
ATOM     72  O   UNL A   1      43.095  37.386  33.812  1.00  0.00    -0.237 OA
ATOM     73  O   UNL A   1      45.524  37.326  33.353  1.00  0.00    -0.237 OA
ATOM     74  O   UNL A   1      43.955  38.094  31.610  1.00  0.00    -0.744 OA
ENDBRANCH  70  71
ENDBRANCH  49  63
BRANCH  50  75
ATOM     75  C   UNL A   1      42.546  23.703  27.769  1.00  0.00     0.058 A 
ATOM     76  C   UNL A   1      42.541  23.489  26.383  1.00  0.00     0.135 A 
ATOM     77  C   UNL A   1      42.401  22.583  28.602  1.00  0.00     0.135 A 
ATOM     78  F   UNL A   1      42.667  24.529  25.543  1.00  0.00    -0.206 F 
ATOM     79  C   UNL A   1      42.380  22.217  25.842  1.00  0.00     0.059 A 
ATOM     80  C   UNL A   1      42.270  21.298  28.085  1.00  0.00     0.059 A 
ATOM     81  F   UNL A   1      42.415  22.729  29.936  1.00  0.00    -0.206 F 
ATOM     82  C   UNL A   1      42.251  21.127  26.702  1.00  0.00     0.060 A 
BRANCH  82  83
ATOM     83  S   UNL A   1      42.098  19.474  25.988  1.00  0.00     0.124 S 
ATOM     84  O   UNL A   1      42.957  19.580  24.815  1.00  0.00    -0.237 OA
ATOM     85  O   UNL A   1      42.594  18.628  27.070  1.00  0.00    -0.237 OA
ATOM     86  O   UNL A   1      40.669  19.357  25.716  1.00  0.00    -0.744 OA
ENDBRANCH  82  83
ENDBRANCH  50  75
BRANCH  62  87
ATOM     87  C   UNL A   1      47.980  27.133  30.509  1.00  0.00     0.058 A 
ATOM     88  C   UNL A   1      49.012  27.360  29.585  1.00  0.00     0.135 A 
ATOM     89  C   UNL A   1      48.324  26.564  31.747  1.00  0.00     0.135 A 
ATOM     90  F   UNL A   1      48.740  27.895  28.385  1.00  0.00    -0.206 F 
ATOM     91  C   UNL A   1      50.330  27.013  29.868  1.00  0.00     0.059 A 
ATOM     92  C   UNL A   1      49.639  26.240  32.063  1.00  0.00     0.059 A 
ATOM     93  F   UNL A   1      47.377  26.334  32.672  1.00  0.00    -0.206 F 
ATOM     94  C   UNL A   1      50.635  26.457  31.112  1.00  0.00     0.060 A 
BRANCH  94  95
ATOM     95  S   UNL A   1      52.354  26.047  31.479  1.00  0.00     0.124 S 
ATOM     96  O   UNL A   1      52.231  24.681  31.976  1.00  0.00    -0.237 OA
ATOM     97  O   UNL A   1      52.994  26.192  30.176  1.00  0.00    -0.237 OA
ATOM     98  O   UNL A   1      52.738  27.044  32.474  1.00  0.00    -0.744 OA
ENDBRANCH  94  95
ENDBRANCH  62  87
ENDBRANCH  36  37
ENDBRANCH  28  31
ENDBRANCH  26  27
ENDBRANCH  25  26
ENDBRANCH   1  25
TORSDOF 17
ENDMDL
MODEL 2
REMARK VINA RESULT:     -11.6      1.681      2.259
REMARK SMILES O=C(C[C@H]1C[C@H]2CC[C@@H](C1)[N@H+]2C[C@@H]1CNC(=O)O1)NCCCCNC(=O)c1ccc(-c2c3nc(c(-c4c(F)cc(S(=O)(=O)[O-])cc4F)c4ccc([nH]4)c(-c4c(F)cc(S(=O)(=O)[O-])cc4F)c4nc(c(-c5c(F)cc(S(=O)(=O)[O-])cc5F)c5ccc2[nH]5)C=C4)C=C3)cc1
REMARK SMILES IDX 21 1 20 2 19 3 1 4 2 5 3 7 4 8 5 9 10 10 6 11 9 12 7 13
REMARK SMILES IDX 11 14 8 15 12 17 13 18 14 19 18 20 15 21 16 22 17 24 22 25
REMARK SMILES IDX 23 26 24 27 25 28 26 30 27 31 28 32 92 33 29 34 91 35 30 36
REMARK SMILES IDX 31 37 32 38 85 39 33 40 90 41 84 42 86 43 34 44 89 45 83 46
REMARK SMILES IDX 82 47 35 49 69 50 48 51 68 52 49 53 52 54 67 55 87 56 50 57
REMARK SMILES IDX 51 58 66 60 88 61 53 62 36 63 37 64 46 65 38 66 39 67 45 68
REMARK SMILES IDX 47 69 40 70 41 71 42 72 43 73 44 74 70 75 71 76 80 77 72 78
REMARK SMILES IDX 73 79 79 80 81 81 74 82 75 83 76 84 77 85 78 86 54 87 55 88
REMARK SMILES IDX 64 89 56 90 57 91 63 92 65 93 58 94 59 95 60 96 61 97 62 98
REMARK H PARENT 19 6 11 16 15 23 24 29 86 48 52 59
REMARK Flexibility Score: inf
ROOT
ATOM      1  C   UNL A   1      33.227  28.638  24.448  1.00  0.00     0.023 C 
ENDROOT
BRANCH   1   2
ATOM      2  C   UNL A   1      32.276  28.496  23.263  1.00  0.00     0.116 C 
BRANCH   2   3
ATOM      3  N   UNL A   1      32.009  27.119  22.905  1.00  0.00    -0.356 N 
ATOM      4  O   UNL A   1      33.921  26.812  21.661  1.00  0.00    -0.275 OA
ATOM      5  C   UNL A   1      32.920  26.357  22.204  1.00  0.00     0.220 C 
ATOM      6  H   UNL A   1      31.150  26.715  23.167  1.00  0.00     0.163 HD
BRANCH   5   7
ATOM      7  C   UNL A   1      32.617  24.873  22.231  1.00  0.00     0.104 C 
BRANCH   7   8
ATOM      8  C   UNL A   1      33.523  24.048  23.171  1.00  0.00     0.010 C 
ATOM      9  C   UNL A   1      33.932  24.801  24.465  1.00  0.00     0.069 C 
ATOM     10  C   UNL A   1      33.094  22.573  23.369  1.00  0.00     0.069 C 
ATOM     11  C   UNL A   1      33.704  24.056  25.792  1.00  0.00     0.184 C 
ATOM     12  C   UNL A   1      32.785  22.167  24.811  1.00  0.00     0.184 C 
ATOM     13  C   UNL A   1      32.214  24.121  26.150  1.00  0.00     0.071 C 
ATOM     14  N   UNL A   1      33.845  22.624  25.682  1.00  0.00    -0.327 N 
ATOM     15  C   UNL A   1      31.599  22.931  25.411  1.00  0.00     0.071 C 
ATOM     16  H   UNL A   1      33.857  22.288  26.644  1.00  0.00     0.348 HD
BRANCH  14  17
ATOM     17  C   UNL A   1      35.037  21.837  25.896  1.00  0.00     0.310 C 
BRANCH  17  18
ATOM     18  C   UNL A   1      36.378  22.014  25.155  1.00  0.00     0.252 C 
ATOM     19  C   UNL A   1      37.176  20.761  24.874  1.00  0.00     0.170 C 
ATOM     20  O   UNL A   1      37.277  22.912  25.822  1.00  0.00    -0.438 OA
ATOM     21  N   UNL A   1      38.423  21.025  25.496  1.00  0.00    -0.318 N 
ATOM     22  C   UNL A   1      38.473  22.287  26.007  1.00  0.00     0.407 C 
ATOM     23  H   UNL A   1      39.162  20.376  25.553  1.00  0.00     0.167 HD
ATOM     24  O   UNL A   1      39.434  22.770  26.576  1.00  0.00    -0.225 OA
ENDBRANCH  17  18
ENDBRANCH  14  17
ENDBRANCH   7   8
ENDBRANCH   5   7
ENDBRANCH   2   3
ENDBRANCH   1   2
BRANCH   1  25
ATOM     25  C   UNL A   1      32.785  27.960  25.754  1.00  0.00     0.023 C 
BRANCH  25  26
ATOM     26  C   UNL A   1      33.602  28.296  27.001  1.00  0.00     0.116 C 
BRANCH  26  27
ATOM     27  N   UNL A   1      33.514  29.699  27.375  1.00  0.00    -0.352 N 
ATOM     28  C   UNL A   1      34.414  30.513  28.023  1.00  0.00     0.251 C 
ATOM     29  H   UNL A   1      32.671  30.138  27.124  1.00  0.00     0.163 HD
ATOM     30  O   UNL A   1      34.051  31.626  28.400  1.00  0.00    -0.269 OA
BRANCH  28  31
ATOM     31  C   UNL A   1      35.800  30.065  28.294  1.00  0.00     0.039 A 
ATOM     32  C   UNL A   1      36.736  30.110  27.256  1.00  0.00     0.014 A 
ATOM     33  C   UNL A   1      36.176  29.562  29.542  1.00  0.00     0.014 A 
ATOM     34  C   UNL A   1      38.060  29.724  27.491  1.00  0.00     0.010 A 
ATOM     35  C   UNL A   1      37.511  29.245  29.794  1.00  0.00     0.010 A 
ATOM     36  C   UNL A   1      38.472  29.327  28.774  1.00  0.00    -0.014 A 
BRANCH  36  37
ATOM     37  C   UNL A   1      39.901  29.022  29.064  1.00  0.00     0.031 A 
ATOM     38  C   UNL A   1      40.805  30.068  29.661  1.00  0.00     0.074 A 
ATOM     39  C   UNL A   1      40.403  27.814  28.736  1.00  0.00     0.049 A 
ATOM     40  N   UNL A   1      42.087  30.001  29.925  1.00  0.00    -0.248 NA
ATOM     41  C   UNL A   1      40.197  31.368  29.983  1.00  0.00     0.031 C 
ATOM     42  C   UNL A   1      39.646  26.727  28.113  1.00  0.00     0.029 A 
ATOM     43  N   UNL A   1      41.670  27.298  28.869  1.00  0.00    -0.354 N 
ATOM     44  C   UNL A   1      42.437  31.245  30.437  1.00  0.00     0.074 A 
ATOM     45  C   UNL A   1      41.246  32.067  30.392  1.00  0.00     0.031 C 
ATOM     46  C   UNL A   1      40.455  25.670  27.935  1.00  0.00     0.029 A 
ATOM     47  C   UNL A   1      41.799  26.016  28.388  1.00  0.00     0.049 A 
ATOM     48  H   UNL A   1      42.415  27.800  29.271  1.00  0.00     0.167 HD
ATOM     49  C   UNL A   1      43.634  31.660  30.920  1.00  0.00     0.037 A 
ATOM     50  C   UNL A   1      42.876  25.211  28.305  1.00  0.00     0.037 A 
ATOM     51  C   UNL A   1      44.816  30.835  30.968  1.00  0.00     0.049 A 
ATOM     52  C   UNL A   1      44.201  25.699  28.827  1.00  0.00     0.074 A 
ATOM     53  C   UNL A   1      46.064  31.150  31.480  1.00  0.00     0.029 A 
ATOM     54  N   UNL A   1      44.903  29.538  30.481  1.00  0.00    -0.354 N 
ATOM     55  N   UNL A   1      44.498  26.858  29.365  1.00  0.00    -0.248 NA
ATOM     56  C   UNL A   1      45.336  24.770  28.738  1.00  0.00     0.031 C 
ATOM     57  C   UNL A   1      46.917  30.065  31.253  1.00  0.00     0.029 A 
ATOM     58  C   UNL A   1      46.187  29.049  30.658  1.00  0.00     0.049 A 
ATOM     59  H   UNL A   1      44.159  29.039  30.071  1.00  0.00     0.167 HD
ATOM     60  C   UNL A   1      45.845  26.786  29.704  1.00  0.00     0.074 A 
ATOM     61  C   UNL A   1      46.301  25.465  29.323  1.00  0.00     0.031 C 
ATOM     62  C   UNL A   1      46.632  27.729  30.280  1.00  0.00     0.037 A 
BRANCH  49  63
ATOM     63  C   UNL A   1      43.730  33.072  31.437  1.00  0.00     0.058 A 
ATOM     64  C   UNL A   1      44.072  34.144  30.595  1.00  0.00     0.135 A 
ATOM     65  C   UNL A   1      43.440  33.365  32.780  1.00  0.00     0.135 A 
ATOM     66  F   UNL A   1      44.371  33.923  29.305  1.00  0.00    -0.206 F 
ATOM     67  C   UNL A   1      44.156  35.448  31.073  1.00  0.00     0.059 A 
ATOM     68  C   UNL A   1      43.486  34.667  33.271  1.00  0.00     0.059 A 
ATOM     69  F   UNL A   1      43.104  32.383  33.629  1.00  0.00    -0.206 F 
ATOM     70  C   UNL A   1      43.863  35.699  32.414  1.00  0.00     0.060 A 
BRANCH  70  71
ATOM     71  S   UNL A   1      43.980  37.397  33.016  1.00  0.00     0.124 S 
ATOM     72  O   UNL A   1      45.326  37.412  33.584  1.00  0.00    -0.237 OA
ATOM     73  O   UNL A   1      43.800  38.175  31.794  1.00  0.00    -0.237 OA
ATOM     74  O   UNL A   1      42.892  37.492  33.984  1.00  0.00    -0.744 OA
ENDBRANCH  70  71
ENDBRANCH  49  63
BRANCH  50  75
ATOM     75  C   UNL A   1      42.744  23.851  27.711  1.00  0.00     0.058 A 
ATOM     76  C   UNL A   1      42.874  23.646  26.330  1.00  0.00     0.135 A 
ATOM     77  C   UNL A   1      42.499  22.727  28.516  1.00  0.00     0.135 A 
ATOM     78  F   UNL A   1      43.099  24.689  25.516  1.00  0.00    -0.206 F 
ATOM     79  C   UNL A   1      42.752  22.381  25.765  1.00  0.00     0.059 A 
ATOM     80  C   UNL A   1      42.403  21.448  27.978  1.00  0.00     0.059 A 
ATOM     81  F   UNL A   1      42.381  22.864  29.846  1.00  0.00    -0.206 F 
ATOM     82  C   UNL A   1      42.521  21.286  26.599  1.00  0.00     0.060 A 
BRANCH  82  83
ATOM     83  S   UNL A   1      42.418  19.641  25.860  1.00  0.00     0.124 S 
ATOM     84  O   UNL A   1      41.028  19.603  25.422  1.00  0.00    -0.237 OA
ATOM     85  O   UNL A   1      43.420  19.719  24.801  1.00  0.00    -0.237 OA
ATOM     86  O   UNL A   1      42.756  18.753  26.968  1.00  0.00    -0.744 OA
ENDBRANCH  82  83
ENDBRANCH  50  75
BRANCH  62  87
ATOM     87  C   UNL A   1      48.062  27.360  30.573  1.00  0.00     0.058 A 
ATOM     88  C   UNL A   1      48.421  26.631  31.718  1.00  0.00     0.135 A 
ATOM     89  C   UNL A   1      49.082  27.695  29.666  1.00  0.00     0.135 A 
ATOM     90  F   UNL A   1      47.489  26.290  32.622  1.00  0.00    -0.206 F 
ATOM     91  C   UNL A   1      49.742  26.270  31.966  1.00  0.00     0.059 A 
ATOM     92  C   UNL A   1      50.404  27.316  29.878  1.00  0.00     0.059 A 
ATOM     93  F   UNL A   1      48.794  28.382  28.549  1.00  0.00    -0.206 F 
ATOM     94  C   UNL A   1      50.727  26.614  31.038  1.00  0.00     0.060 A 
BRANCH  94  95
ATOM     95  S   UNL A   1      52.430  26.107  31.355  1.00  0.00     0.124 S 
ATOM     96  O   UNL A   1      52.903  27.187  32.214  1.00  0.00    -0.237 OA
ATOM     97  O   UNL A   1      52.254  24.812  32.003  1.00  0.00    -0.237 OA
ATOM     98  O   UNL A   1      53.025  26.059  30.023  1.00  0.00    -0.744 OA
ENDBRANCH  94  95
ENDBRANCH  62  87
ENDBRANCH  36  37
ENDBRANCH  28  31
ENDBRANCH  26  27
ENDBRANCH  25  26
ENDBRANCH   1  25
TORSDOF 17
ENDMDL
MODEL 3
REMARK VINA RESULT:     -11.6      3.102      3.912
REMARK SMILES O=C(C[C@H]1C[C@H]2CC[C@@H](C1)[N@H+]2C[C@@H]1CNC(=O)O1)NCCCCNC(=O)c1ccc(-c2c3nc(c(-c4c(F)cc(S(=O)(=O)[O-])cc4F)c4ccc([nH]4)c(-c4c(F)cc(S(=O)(=O)[O-])cc4F)c4nc(c(-c5c(F)cc(S(=O)(=O)[O-])cc5F)c5ccc2[nH]5)C=C4)C=C3)cc1
REMARK SMILES IDX 21 1 20 2 19 3 1 4 2 5 3 7 4 8 5 9 10 10 6 11 9 12 7 13
REMARK SMILES IDX 11 14 8 15 12 17 13 18 14 19 18 20 15 21 16 22 17 24 22 25
REMARK SMILES IDX 23 26 24 27 25 28 26 30 27 31 28 32 92 33 29 34 91 35 30 36
REMARK SMILES IDX 31 37 32 38 85 39 33 40 90 41 84 42 86 43 34 44 89 45 83 46
REMARK SMILES IDX 82 47 35 49 69 50 48 51 68 52 49 53 52 54 67 55 87 56 50 57
REMARK SMILES IDX 51 58 66 60 88 61 53 62 36 63 37 64 46 65 38 66 39 67 45 68
REMARK SMILES IDX 47 69 40 70 41 71 42 72 43 73 44 74 70 75 71 76 80 77 72 78
REMARK SMILES IDX 73 79 79 80 81 81 74 82 75 83 76 84 77 85 78 86 54 87 55 88
REMARK SMILES IDX 64 89 56 90 57 91 63 92 65 93 58 94 59 95 60 96 61 97 62 98
REMARK H PARENT 19 6 11 16 15 23 24 29 86 48 52 59
REMARK Flexibility Score: inf
ROOT
ATOM      1  C   UNL A   1      32.021  27.787  26.970  1.00  0.00     0.023 C 
ENDROOT
BRANCH   1   2
ATOM      2  C   UNL A   1      31.051  26.782  26.356  1.00  0.00     0.116 C 
BRANCH   2   3
ATOM      3  N   UNL A   1      31.329  25.412  26.735  1.00  0.00    -0.356 N 
ATOM      4  O   UNL A   1      30.707  24.470  24.728  1.00  0.00    -0.275 OA
ATOM      5  C   UNL A   1      31.223  24.370  25.837  1.00  0.00     0.220 C 
ATOM      6  H   UNL A   1      31.600  25.218  27.661  1.00  0.00     0.163 HD
BRANCH   5   7
ATOM      7  C   UNL A   1      31.880  23.091  26.313  1.00  0.00     0.104 C 
BRANCH   7   8
ATOM      8  C   UNL A   1      33.341  22.906  25.844  1.00  0.00     0.010 C 
ATOM      9  C   UNL A   1      33.472  22.167  24.486  1.00  0.00     0.069 C 
ATOM     10  C   UNL A   1      34.248  24.150  26.014  1.00  0.00     0.069 C 
ATOM     11  C   UNL A   1      34.351  22.846  23.420  1.00  0.00     0.184 C 
ATOM     12  C   UNL A   1      34.869  24.690  24.726  1.00  0.00     0.184 C 
ATOM     13  C   UNL A   1      33.563  24.001  22.788  1.00  0.00     0.071 C 
ATOM     14  N   UNL A   1      35.449  23.601  23.972  1.00  0.00    -0.327 N 
ATOM     15  C   UNL A   1      33.827  25.187  23.716  1.00  0.00     0.071 C 
ATOM     16  H   UNL A   1      36.038  23.829  23.172  1.00  0.00     0.348 HD
BRANCH  14  17
ATOM     17  C   UNL A   1      36.795  23.141  24.226  1.00  0.00     0.310 C 
BRANCH  17  18
ATOM     18  C   UNL A   1      37.377  22.780  25.608  1.00  0.00     0.252 C 
ATOM     19  C   UNL A   1      38.252  23.818  26.274  1.00  0.00     0.170 C 
ATOM     20  O   UNL A   1      38.142  21.566  25.598  1.00  0.00    -0.438 OA
ATOM     21  N   UNL A   1      39.470  23.123  26.490  1.00  0.00    -0.318 N 
ATOM     22  C   UNL A   1      39.374  21.814  26.125  1.00  0.00     0.407 C 
ATOM     23  H   UNL A   1      40.285  23.536  26.858  1.00  0.00     0.167 HD
ATOM     24  O   UNL A   1      40.270  20.996  26.223  1.00  0.00    -0.225 OA
ENDBRANCH  17  18
ENDBRANCH  14  17
ENDBRANCH   7   8
ENDBRANCH   5   7
ENDBRANCH   2   3
ENDBRANCH   1   2
BRANCH   1  25
ATOM     25  C   UNL A   1      33.495  27.637  26.566  1.00  0.00     0.023 C 
BRANCH  25  26
ATOM     26  C   UNL A   1      34.086  28.771  25.730  1.00  0.00     0.116 C 
BRANCH  26  27
ATOM     27  N   UNL A   1      33.803  30.088  26.278  1.00  0.00    -0.352 N 
ATOM     28  C   UNL A   1      34.385  30.770  27.321  1.00  0.00     0.251 C 
ATOM     29  H   UNL A   1      33.072  30.570  25.829  1.00  0.00     0.163 HD
ATOM     30  O   UNL A   1      33.858  31.803  27.729  1.00  0.00    -0.269 OA
BRANCH  28  31
ATOM     31  C   UNL A   1      35.618  30.272  27.973  1.00  0.00     0.039 A 
ATOM     32  C   UNL A   1      36.846  30.473  27.332  1.00  0.00     0.014 A 
ATOM     33  C   UNL A   1      35.576  29.572  29.181  1.00  0.00     0.014 A 
ATOM     34  C   UNL A   1      38.030  30.042  27.940  1.00  0.00     0.010 A 
ATOM     35  C   UNL A   1      36.763  29.206  29.818  1.00  0.00     0.010 A 
ATOM     36  C   UNL A   1      38.005  29.442  29.209  1.00  0.00    -0.014 A 
BRANCH  36  37
ATOM     37  C   UNL A   1      39.267  29.081  29.915  1.00  0.00     0.031 A 
ATOM     38  C   UNL A   1      39.704  29.835  31.143  1.00  0.00     0.074 A 
ATOM     39  C   UNL A   1      40.052  28.105  29.416  1.00  0.00     0.049 A 
ATOM     40  N   UNL A   1      40.798  29.701  31.851  1.00  0.00    -0.248 NA
ATOM     41  C   UNL A   1      38.806  30.895  31.627  1.00  0.00     0.031 C 
ATOM     42  C   UNL A   1      39.767  27.326  28.210  1.00  0.00     0.029 A 
ATOM     43  N   UNL A   1      41.257  27.607  29.851  1.00  0.00    -0.354 N 
ATOM     44  C   UNL A   1      40.722  30.658  32.856  1.00  0.00     0.074 A 
ATOM     45  C   UNL A   1      39.503  31.405  32.632  1.00  0.00     0.031 C 
ATOM     46  C   UNL A   1      40.755  26.439  28.012  1.00  0.00     0.029 A 
ATOM     47  C   UNL A   1      41.768  26.614  29.048  1.00  0.00     0.049 A 
ATOM     48  H   UNL A   1      41.712  27.931  30.662  1.00  0.00     0.167 HD
ATOM     49  C   UNL A   1      41.578  30.881  33.885  1.00  0.00     0.037 A 
ATOM     50  C   UNL A   1      42.925  25.928  29.125  1.00  0.00     0.037 A 
ATOM     51  C   UNL A   1      42.788  30.129  34.107  1.00  0.00     0.049 A 
ATOM     52  C   UNL A   1      43.871  26.207  30.262  1.00  0.00     0.074 A 
ATOM     53  C   UNL A   1      43.697  30.250  35.145  1.00  0.00     0.029 A 
ATOM     54  N   UNL A   1      43.264  29.123  33.278  1.00  0.00    -0.354 N 
ATOM     55  N   UNL A   1      43.753  27.074  31.239  1.00  0.00    -0.248 NA
ATOM     56  C   UNL A   1      45.105  25.411  30.313  1.00  0.00     0.031 C 
ATOM     57  C   UNL A   1      44.748  29.357  34.913  1.00  0.00     0.029 A 
ATOM     58  C   UNL A   1      44.465  28.633  33.767  1.00  0.00     0.049 A 
ATOM     59  H   UNL A   1      42.814  28.804  32.461  1.00  0.00     0.167 HD
ATOM     60  C   UNL A   1      44.881  26.908  32.035  1.00  0.00     0.074 A 
ATOM     61  C   UNL A   1      45.663  25.847  31.434  1.00  0.00     0.031 C 
ATOM     62  C   UNL A   1      45.236  27.573  33.163  1.00  0.00     0.037 A 
BRANCH  49  63
ATOM     63  C   UNL A   1      41.238  31.985  34.852  1.00  0.00     0.058 A 
ATOM     64  C   UNL A   1      41.801  33.267  34.735  1.00  0.00     0.135 A 
ATOM     65  C   UNL A   1      40.310  31.774  35.885  1.00  0.00     0.135 A 
ATOM     66  F   UNL A   1      42.703  33.525  33.774  1.00  0.00    -0.206 F 
ATOM     67  C   UNL A   1      41.484  34.287  35.626  1.00  0.00     0.059 A 
ATOM     68  C   UNL A   1      39.953  32.789  36.768  1.00  0.00     0.059 A 
ATOM     69  F   UNL A   1      39.736  30.571  36.043  1.00  0.00    -0.206 F 
ATOM     70  C   UNL A   1      40.559  34.038  36.641  1.00  0.00     0.060 A 
BRANCH  70  71
ATOM     71  S   UNL A   1      40.162  35.372  37.790  1.00  0.00     0.124 S 
ATOM     72  O   UNL A   1      41.437  35.553  38.479  1.00  0.00    -0.237 OA
ATOM     73  O   UNL A   1      39.770  36.453  36.890  1.00  0.00    -0.237 OA
ATOM     74  O   UNL A   1      39.085  34.814  38.603  1.00  0.00    -0.744 OA
ENDBRANCH  70  71
ENDBRANCH  49  63
BRANCH  50  75
ATOM     75  C   UNL A   1      43.250  24.900  28.096  1.00  0.00     0.058 A 
ATOM     76  C   UNL A   1      44.018  25.221  26.967  1.00  0.00     0.135 A 
ATOM     77  C   UNL A   1      42.811  23.574  28.230  1.00  0.00     0.135 A 
ATOM     78  F   UNL A   1      44.454  26.478  26.788  1.00  0.00    -0.206 F 
ATOM     79  C   UNL A   1      44.326  24.270  26.000  1.00  0.00     0.059 A 
ATOM     80  C   UNL A   1      43.132  22.598  27.292  1.00  0.00     0.059 A 
ATOM     81  F   UNL A   1      42.086  23.209  29.299  1.00  0.00    -0.206 F 
ATOM     82  C   UNL A   1      43.882  22.958  26.175  1.00  0.00     0.060 A 
BRANCH  82  83
ATOM     83  S   UNL A   1      44.334  21.720  24.940  1.00  0.00     0.124 S 
ATOM     84  O   UNL A   1      45.748  21.516  25.232  1.00  0.00    -0.237 OA
ATOM     85  O   UNL A   1      43.445  20.612  25.279  1.00  0.00    -0.237 OA
ATOM     86  O   UNL A   1      44.040  22.385  23.674  1.00  0.00    -0.744 OA
ENDBRANCH  82  83
ENDBRANCH  50  75
BRANCH  62  87
ATOM     87  C   UNL A   1      46.508  27.151  33.850  1.00  0.00     0.058 A 
ATOM     88  C   UNL A   1      47.741  27.760  33.567  1.00  0.00     0.135 A 
ATOM     89  C   UNL A   1      46.482  26.159  34.846  1.00  0.00     0.135 A 
ATOM     90  F   UNL A   1      47.826  28.708  32.621  1.00  0.00    -0.206 F 
ATOM     91  C   UNL A   1      48.907  27.382  34.228  1.00  0.00     0.059 A 
ATOM     92  C   UNL A   1      47.629  25.790  35.541  1.00  0.00     0.059 A 
ATOM     93  F   UNL A   1      45.328  25.551  35.163  1.00  0.00    -0.206 F 
ATOM     94  C   UNL A   1      48.840  26.398  35.216  1.00  0.00     0.060 A 
BRANCH  94  95
ATOM     95  S   UNL A   1      50.353  25.945  36.091  1.00  0.00     0.124 S 
ATOM     96  O   UNL A   1      50.466  27.028  37.063  1.00  0.00    -0.237 OA
ATOM     97  O   UNL A   1      50.017  24.635  36.638  1.00  0.00    -0.237 OA
ATOM     98  O   UNL A   1      51.366  25.939  35.039  1.00  0.00    -0.744 OA
ENDBRANCH  94  95
ENDBRANCH  62  87
ENDBRANCH  36  37
ENDBRANCH  28  31
ENDBRANCH  26  27
ENDBRANCH  25  26
ENDBRANCH   1  25
TORSDOF 17
ENDMDL
