MODEL 1
REMARK VINA RESULT:     -11.9      0.000      0.000
REMARK SMILES Cc1cc2c(c(C)c1Br)C=C(C(=O)NCCCCNC(=O)c1ccc(-c3c4nc(c(-c5c(F)cc(S(=O)(=O)[O-])cc5F)c5ccc([nH]5)c(-c5c(F)cc(S(=O)(=O)[O-])cc5F)c5nc(c(-c6c(F)cc(S(=O)(=O)[O-])cc6F)c6ccc3[nH]6)C=C5)C=C4)cc1)[C@@H](C(F)(F)F)O2
REMARK SMILES IDX 17 1 16 2 15 3 14 4 12 5 13 6 11 8 1 9 2 10 3 11 8 12 4 13
REMARK SMILES IDX 6 14 9 15 5 16 93 17 7 18 10 19 88 20 89 21 90 22 91 23
REMARK SMILES IDX 92 24 18 25 19 26 20 27 21 29 22 30 23 31 87 32 24 33 86 34
REMARK SMILES IDX 25 35 26 36 27 37 80 38 28 39 85 40 79 41 81 42 29 43 84 44
REMARK SMILES IDX 78 45 77 46 30 48 64 49 43 50 63 51 44 52 47 53 62 54 82 55
REMARK SMILES IDX 45 56 46 57 61 59 83 60 48 61 31 62 32 63 41 64 33 65 34 66
REMARK SMILES IDX 40 67 42 68 35 69 36 70 37 71 38 72 39 73 65 74 66 75 75 76
REMARK SMILES IDX 67 77 68 78 74 79 76 80 69 81 70 82 71 83 72 84 73 85 49 86
REMARK SMILES IDX 50 87 59 88 51 89 52 90 58 91 60 92 53 93 54 94 55 95 56 96
REMARK SMILES IDX 57 97
REMARK H PARENT 14 7 19 28 81 47 47 58
REMARK Flexibility Score: inf
ROOT
ATOM      1  C   UNL A   1      33.635  28.521  25.326  1.00  0.00     0.023 C 
ENDROOT
BRANCH   1   2
ATOM      2  C   UNL A   1      33.602  27.139  24.669  1.00  0.00     0.023 C 
BRANCH   2   3
ATOM      3  C   UNL A   1      32.211  26.686  24.234  1.00  0.00     0.116 C 
BRANCH   3   4
ATOM      4  N   UNL A   1      31.483  26.052  25.319  1.00  0.00    -0.352 N 
ATOM      5  C   UNL A   1      31.479  24.850  25.939  1.00  0.00     0.251 C 
ATOM      6  O   UNL A   1      30.653  24.731  26.850  1.00  0.00    -0.270 OA
ATOM      7  H   UNL A   1      30.813  26.660  25.707  1.00  0.00     0.163 HD
BRANCH   5   8
ATOM      8  C   UNL A   1      32.375  23.700  25.608  1.00  0.00     0.067 C 
ATOM      9  C   UNL A   1      37.210  19.412  24.799  1.00  0.00     0.046 C 
ATOM     10  C   UNL A   1      36.351  20.603  25.134  1.00  0.00    -0.033 A 
ATOM     11  C   UNL A   1      34.970  20.489  24.946  1.00  0.00     0.051 A 
ATOM     12  C   UNL A   1      36.875  21.824  25.610  1.00  0.00     0.024 A 
ATOM     13  C   UNL A   1      34.127  21.559  25.219  1.00  0.00     0.128 A 
ATOM     14  C   UNL A   1      36.023  22.920  25.907  1.00  0.00    -0.026 A 
ATOM     15  Br  UNL A   1      38.771  21.964  25.843  1.00  0.00    -0.050 Br
ATOM     16  C   UNL A   1      34.627  22.769  25.707  1.00  0.00     0.021 A 
ATOM     17  O   UNL A   1      32.796  21.323  25.020  1.00  0.00    -0.475 OA
ATOM     18  C   UNL A   1      36.549  24.237  26.431  1.00  0.00     0.046 C 
ATOM     19  C   UNL A   1      33.651  23.819  26.022  1.00  0.00     0.026 C 
ATOM     20  C   UNL A   1      31.953  22.490  24.832  1.00  0.00     0.314 C 
BRANCH  20  21
ATOM     21  C   UNL A   1      31.796  22.771  23.326  1.00  0.00     0.429 C 
ATOM     22  F   UNL A   1      31.904  21.619  22.617  1.00  0.00    -0.167 F 
ATOM     23  F   UNL A   1      30.589  23.299  23.017  1.00  0.00    -0.167 F 
ATOM     24  F   UNL A   1      32.733  23.624  22.855  1.00  0.00    -0.167 F 
ENDBRANCH  20  21
ENDBRANCH   5   8
ENDBRANCH   3   4
ENDBRANCH   2   3
ENDBRANCH   1   2
BRANCH   1  25
ATOM     25  C   UNL A   1      33.776  28.523  26.848  1.00  0.00     0.116 C 
BRANCH  25  26
ATOM     26  N   UNL A   1      33.596  29.837  27.449  1.00  0.00    -0.352 N 
ATOM     27  C   UNL A   1      34.505  30.566  28.180  1.00  0.00     0.251 C 
ATOM     28  H   UNL A   1      32.714  30.255  27.318  1.00  0.00     0.163 HD
ATOM     29  O   UNL A   1      34.177  31.629  28.697  1.00  0.00    -0.269 OA
BRANCH  27  30
ATOM     30  C   UNL A   1      35.865  30.027  28.364  1.00  0.00     0.039 A 
ATOM     31  C   UNL A   1      36.774  30.118  27.308  1.00  0.00     0.014 A 
ATOM     32  C   UNL A   1      36.252  29.492  29.596  1.00  0.00     0.014 A 
ATOM     33  C   UNL A   1      38.100  29.737  27.510  1.00  0.00     0.010 A 
ATOM     34  C   UNL A   1      37.586  29.166  29.812  1.00  0.00     0.010 A 
ATOM     35  C   UNL A   1      38.522  29.292  28.773  1.00  0.00    -0.014 A 
BRANCH  35  36
ATOM     36  C   UNL A   1      39.941  28.951  29.035  1.00  0.00     0.031 A 
ATOM     37  C   UNL A   1      40.861  29.983  29.622  1.00  0.00     0.074 A 
ATOM     38  C   UNL A   1      40.411  27.739  28.682  1.00  0.00     0.049 A 
ATOM     39  N   UNL A   1      42.149  29.917  29.831  1.00  0.00    -0.248 NA
ATOM     40  C   UNL A   1      40.253  31.269  30.000  1.00  0.00     0.031 C 
ATOM     41  C   UNL A   1      39.619  26.668  28.074  1.00  0.00     0.029 A 
ATOM     42  N   UNL A   1      41.672  27.207  28.776  1.00  0.00    -0.354 N 
ATOM     43  C   UNL A   1      42.510  31.153  30.351  1.00  0.00     0.074 A 
ATOM     44  C   UNL A   1      41.313  31.965  30.383  1.00  0.00     0.031 C 
ATOM     45  C   UNL A   1      40.408  25.599  27.869  1.00  0.00     0.029 A 
ATOM     46  C   UNL A   1      41.766  25.921  28.300  1.00  0.00     0.049 A 
ATOM     47  H   UNL A   1      42.437  27.699  29.151  1.00  0.00     0.167 HD
ATOM     48  C   UNL A   1      43.725  31.564  30.784  1.00  0.00     0.037 A 
ATOM     49  C   UNL A   1      42.828  25.097  28.215  1.00  0.00     0.037 A 
ATOM     50  C   UNL A   1      44.906  30.742  30.774  1.00  0.00     0.049 A 
ATOM     51  C   UNL A   1      44.165  25.575  28.706  1.00  0.00     0.074 A 
ATOM     52  C   UNL A   1      46.177  31.055  31.219  1.00  0.00     0.029 A 
ATOM     53  N   UNL A   1      44.957  29.439  30.299  1.00  0.00    -0.354 N 
ATOM     54  N   UNL A   1      44.487  26.742  29.215  1.00  0.00    -0.248 NA
ATOM     55  C   UNL A   1      45.285  24.628  28.615  1.00  0.00     0.031 C 
ATOM     56  C   UNL A   1      47.004  29.949  30.991  1.00  0.00     0.029 A 
ATOM     57  C   UNL A   1      46.239  28.936  30.435  1.00  0.00     0.049 A 
ATOM     58  H   UNL A   1      44.194  28.946  29.920  1.00  0.00     0.167 HD
ATOM     59  C   UNL A   1      45.840  26.661  29.522  1.00  0.00     0.074 A 
ATOM     60  C   UNL A   1      46.275  25.329  29.152  1.00  0.00     0.031 C 
ATOM     61  C   UNL A   1      46.651  27.605  30.062  1.00  0.00     0.037 A 
BRANCH  48  62
ATOM     62  C   UNL A   1      43.829  32.966  31.317  1.00  0.00     0.058 A 
ATOM     63  C   UNL A   1      43.612  33.249  32.674  1.00  0.00     0.135 A 
ATOM     64  C   UNL A   1      44.166  34.032  30.469  1.00  0.00     0.135 A 
ATOM     65  F   UNL A   1      43.267  32.268  33.524  1.00  0.00    -0.206 F 
ATOM     66  C   UNL A   1      43.699  34.546  33.169  1.00  0.00     0.059 A 
ATOM     67  C   UNL A   1      44.283  35.335  30.946  1.00  0.00     0.059 A 
ATOM     68  F   UNL A   1      44.378  33.815  29.161  1.00  0.00    -0.206 F 
ATOM     69  C   UNL A   1      44.034  35.582  32.296  1.00  0.00     0.060 A 
BRANCH  69  70
ATOM     70  S   UNL A   1      44.143  37.260  32.954  1.00  0.00     0.124 S 
ATOM     71  O   UNL A   1      45.474  37.251  33.552  1.00  0.00    -0.237 OA
ATOM     72  O   UNL A   1      43.993  38.077  31.754  1.00  0.00    -0.237 OA
ATOM     73  O   UNL A   1      43.030  37.328  33.898  1.00  0.00    -0.744 OA
ENDBRANCH  69  70
ENDBRANCH  48  62
BRANCH  49  74
ATOM     74  C   UNL A   1      42.656  23.724  27.676  1.00  0.00     0.058 A 
ATOM     75  C   UNL A   1      42.728  23.483  26.296  1.00  0.00     0.135 A 
ATOM     76  C   UNL A   1      42.456  22.624  28.524  1.00  0.00     0.135 A 
ATOM     77  F   UNL A   1      42.912  24.505  25.446  1.00  0.00    -0.206 F 
ATOM     78  C   UNL A   1      42.604  22.200  25.774  1.00  0.00     0.059 A 
ATOM     79  C   UNL A   1      42.347  21.329  28.026  1.00  0.00     0.059 A 
ATOM     80  F   UNL A   1      42.395  22.801  29.853  1.00  0.00    -0.206 F 
ATOM     81  C   UNL A   1      42.420  21.128  26.648  1.00  0.00     0.060 A 
BRANCH  81  82
ATOM     82  S   UNL A   1      42.334  19.459  25.962  1.00  0.00     0.124 S 
ATOM     83  O   UNL A   1      42.861  18.661  27.063  1.00  0.00    -0.237 OA
ATOM     84  O   UNL A   1      40.907  19.312  25.691  1.00  0.00    -0.237 OA
ATOM     85  O   UNL A   1      43.182  19.540  24.777  1.00  0.00    -0.744 OA
ENDBRANCH  81  82
ENDBRANCH  49  74
BRANCH  61  86
ATOM     86  C   UNL A   1      48.083  27.225  30.305  1.00  0.00     0.058 A 
ATOM     87  C   UNL A   1      49.084  27.498  29.361  1.00  0.00     0.135 A 
ATOM     88  C   UNL A   1      48.464  26.626  31.516  1.00  0.00     0.135 A 
ATOM     89  F   UNL A   1      48.768  28.065  28.186  1.00  0.00    -0.206 F 
ATOM     90  C   UNL A   1      50.414  27.172  29.602  1.00  0.00     0.059 A 
ATOM     91  C   UNL A   1      49.790  26.310  31.787  1.00  0.00     0.059 A 
ATOM     92  F   UNL A   1      47.543  26.353  32.455  1.00  0.00    -0.206 F 
ATOM     93  C   UNL A   1      50.757  26.578  30.819  1.00  0.00     0.060 A 
BRANCH  93  94
ATOM     94  S   UNL A   1      52.492  26.186  31.131  1.00  0.00     0.124 S 
ATOM     95  O   UNL A   1      52.899  27.306  31.974  1.00  0.00    -0.237 OA
ATOM     96  O   UNL A   1      52.406  24.890  31.797  1.00  0.00    -0.237 OA
ATOM     97  O   UNL A   1      53.079  26.159  29.796  1.00  0.00    -0.744 OA
ENDBRANCH  93  94
ENDBRANCH  61  86
ENDBRANCH  35  36
ENDBRANCH  27  30
ENDBRANCH  25  26
ENDBRANCH   1  25
TORSDOF 15
ENDMDL
MODEL 2
REMARK VINA RESULT:     -11.6      3.157      9.442
REMARK SMILES Cc1cc2c(c(C)c1Br)C=C(C(=O)NCCCCNC(=O)c1ccc(-c3c4nc(c(-c5c(F)cc(S(=O)(=O)[O-])cc5F)c5ccc([nH]5)c(-c5c(F)cc(S(=O)(=O)[O-])cc5F)c5nc(c(-c6c(F)cc(S(=O)(=O)[O-])cc6F)c6ccc3[nH]6)C=C5)C=C4)cc1)[C@@H](C(F)(F)F)O2
REMARK SMILES IDX 17 1 16 2 15 3 14 4 12 5 13 6 11 8 1 9 2 10 3 11 8 12 4 13
REMARK SMILES IDX 6 14 9 15 5 16 93 17 7 18 10 19 88 20 89 21 90 22 91 23
REMARK SMILES IDX 92 24 18 25 19 26 20 27 21 29 22 30 23 31 87 32 24 33 86 34
REMARK SMILES IDX 25 35 26 36 27 37 80 38 28 39 85 40 79 41 81 42 29 43 84 44
REMARK SMILES IDX 78 45 77 46 30 48 64 49 43 50 63 51 44 52 47 53 62 54 82 55
REMARK SMILES IDX 45 56 46 57 61 59 83 60 48 61 31 62 32 63 41 64 33 65 34 66
REMARK SMILES IDX 40 67 42 68 35 69 36 70 37 71 38 72 39 73 65 74 66 75 75 76
REMARK SMILES IDX 67 77 68 78 74 79 76 80 69 81 70 82 71 83 72 84 73 85 49 86
REMARK SMILES IDX 50 87 59 88 51 89 52 90 58 91 60 92 53 93 54 94 55 95 56 96
REMARK SMILES IDX 57 97
REMARK H PARENT 14 7 19 28 81 47 47 58
REMARK Flexibility Score: inf
ROOT
ATOM      1  C   UNL A   1      35.675  23.657  26.143  1.00  0.00     0.023 C 
ENDROOT
BRANCH   1   2
ATOM      2  C   UNL A   1      34.616  22.670  25.645  1.00  0.00     0.023 C 
BRANCH   2   3
ATOM      3  C   UNL A   1      33.372  23.331  25.058  1.00  0.00     0.116 C 
BRANCH   3   4
ATOM      4  N   UNL A   1      33.594  23.790  23.698  1.00  0.00    -0.352 N 
ATOM      5  C   UNL A   1      33.364  24.915  22.982  1.00  0.00     0.251 C 
ATOM      6  O   UNL A   1      33.722  24.869  21.801  1.00  0.00    -0.270 OA
ATOM      7  H   UNL A   1      34.026  23.096  23.149  1.00  0.00     0.163 HD
BRANCH   5   8
ATOM      8  C   UNL A   1      32.734  26.164  23.509  1.00  0.00     0.067 C 
ATOM      9  C   UNL A   1      31.177  31.803  26.371  1.00  0.00     0.046 C 
ATOM     10  C   UNL A   1      31.847  30.546  25.883  1.00  0.00    -0.033 A 
ATOM     11  C   UNL A   1      31.195  29.794  24.900  1.00  0.00     0.051 A 
ATOM     12  C   UNL A   1      33.086  30.088  26.381  1.00  0.00     0.024 A 
ATOM     13  C   UNL A   1      31.753  28.615  24.423  1.00  0.00     0.128 A 
ATOM     14  C   UNL A   1      33.675  28.893  25.891  1.00  0.00    -0.026 A 
ATOM     15  Br  UNL A   1      33.953  31.124  27.739  1.00  0.00    -0.050 Br
ATOM     16  C   UNL A   1      32.988  28.156  24.893  1.00  0.00     0.021 A 
ATOM     17  O   UNL A   1      31.038  27.979  23.449  1.00  0.00    -0.475 OA
ATOM     18  C   UNL A   1      35.006  28.380  26.391  1.00  0.00     0.046 C 
ATOM     19  C   UNL A   1      33.522  26.932  24.284  1.00  0.00     0.026 C 
ATOM     20  C   UNL A   1      31.311  26.565  23.264  1.00  0.00     0.314 C 
BRANCH  20  21
ATOM     21  C   UNL A   1      30.306  25.738  24.088  1.00  0.00     0.429 C 
ATOM     22  F   UNL A   1      29.921  24.637  23.395  1.00  0.00    -0.167 F 
ATOM     23  F   UNL A   1      30.830  25.293  25.253  1.00  0.00    -0.167 F 
ATOM     24  F   UNL A   1      29.188  26.433  24.396  1.00  0.00    -0.167 F 
ENDBRANCH  20  21
ENDBRANCH   5   8
ENDBRANCH   3   4
ENDBRANCH   2   3
ENDBRANCH   1   2
BRANCH   1  25
ATOM     25  C   UNL A   1      36.867  23.870  25.209  1.00  0.00     0.116 C 
BRANCH  25  26
ATOM     26  N   UNL A   1      37.936  22.899  25.395  1.00  0.00    -0.352 N 
ATOM     27  C   UNL A   1      39.117  23.059  26.081  1.00  0.00     0.251 C 
ATOM     28  H   UNL A   1      37.797  22.018  24.976  1.00  0.00     0.163 HD
ATOM     29  O   UNL A   1      39.963  22.171  26.079  1.00  0.00    -0.269 OA
BRANCH  27  30
ATOM     30  C   UNL A   1      39.363  24.331  26.784  1.00  0.00     0.039 A 
ATOM     31  C   UNL A   1      38.891  24.482  28.090  1.00  0.00     0.014 A 
ATOM     32  C   UNL A   1      40.111  25.342  26.174  1.00  0.00     0.014 A 
ATOM     33  C   UNL A   1      39.231  25.624  28.814  1.00  0.00     0.010 A 
ATOM     34  C   UNL A   1      40.496  26.453  26.916  1.00  0.00     0.010 A 
ATOM     35  C   UNL A   1      40.065  26.599  28.244  1.00  0.00    -0.014 A 
BRANCH  35  36
ATOM     36  C   UNL A   1      40.502  27.786  29.018  1.00  0.00     0.031 A 
ATOM     37  C   UNL A   1      41.857  27.798  29.665  1.00  0.00     0.074 A 
ATOM     38  C   UNL A   1      39.654  28.818  29.191  1.00  0.00     0.049 A 
ATOM     39  N   UNL A   1      42.383  28.690  30.462  1.00  0.00    -0.248 NA
ATOM     40  C   UNL A   1      42.724  26.638  29.400  1.00  0.00     0.031 C 
ATOM     41  C   UNL A   1      38.301  28.905  28.637  1.00  0.00     0.029 A 
ATOM     42  N   UNL A   1      39.802  29.990  29.888  1.00  0.00    -0.354 N 
ATOM     43  C   UNL A   1      43.635  28.196  30.804  1.00  0.00     0.074 A 
ATOM     44  C   UNL A   1      43.772  26.905  30.167  1.00  0.00     0.031 C 
ATOM     45  C   UNL A   1      37.751  30.076  29.000  1.00  0.00     0.029 A 
ATOM     46  C   UNL A   1      38.698  30.807  29.837  1.00  0.00     0.049 A 
ATOM     47  H   UNL A   1      40.622  30.225  30.380  1.00  0.00     0.167 HD
ATOM     48  C   UNL A   1      44.593  28.778  31.564  1.00  0.00     0.037 A 
ATOM     49  C   UNL A   1      38.473  32.007  30.405  1.00  0.00     0.037 A 
ATOM     50  C   UNL A   1      44.461  30.074  32.175  1.00  0.00     0.049 A 
ATOM     51  C   UNL A   1      39.553  32.635  31.240  1.00  0.00     0.074 A 
ATOM     52  C   UNL A   1      45.386  30.765  32.938  1.00  0.00     0.029 A 
ATOM     53  N   UNL A   1      43.334  30.879  32.085  1.00  0.00    -0.354 N 
ATOM     54  N   UNL A   1      40.742  32.164  31.539  1.00  0.00    -0.248 NA
ATOM     55  C   UNL A   1      39.266  33.957  31.815  1.00  0.00     0.031 C 
ATOM     56  C   UNL A   1      44.808  31.979  33.330  1.00  0.00     0.029 A 
ATOM     57  C   UNL A   1      43.537  32.057  32.783  1.00  0.00     0.049 A 
ATOM     58  H   UNL A   1      42.511  30.645  31.598  1.00  0.00     0.167 HD
ATOM     59  C   UNL A   1      41.350  33.140  32.320  1.00  0.00     0.074 A 
ATOM     60  C   UNL A   1      40.405  34.231  32.439  1.00  0.00     0.031 C 
ATOM     61  C   UNL A   1      42.582  33.132  32.888  1.00  0.00     0.037 A 
BRANCH  48  62
ATOM     62  C   UNL A   1      45.873  28.016  31.765  1.00  0.00     0.058 A 
ATOM     63  C   UNL A   1      46.954  28.158  30.880  1.00  0.00     0.135 A 
ATOM     64  C   UNL A   1      46.028  27.150  32.857  1.00  0.00     0.135 A 
ATOM     65  F   UNL A   1      46.849  28.959  29.807  1.00  0.00    -0.206 F 
ATOM     66  C   UNL A   1      48.136  27.448  31.057  1.00  0.00     0.059 A 
ATOM     67  C   UNL A   1      47.212  26.447  33.068  1.00  0.00     0.059 A 
ATOM     68  F   UNL A   1      45.023  26.973  33.729  1.00  0.00    -0.206 F 
ATOM     69  C   UNL A   1      48.255  26.593  32.154  1.00  0.00     0.060 A 
BRANCH  69  70
ATOM     70  S   UNL A   1      49.796  25.679  32.369  1.00  0.00     0.124 S 
ATOM     71  O   UNL A   1      50.051  25.214  31.009  1.00  0.00    -0.237 OA
ATOM     72  O   UNL A   1      50.703  26.708  32.868  1.00  0.00    -0.237 OA
ATOM     73  O   UNL A   1      49.443  24.639  33.332  1.00  0.00    -0.744 OA
ENDBRANCH  69  70
ENDBRANCH  48  62
BRANCH  49  74
ATOM     74  C   UNL A   1      37.184  32.707  30.168  1.00  0.00     0.058 A 
ATOM     75  C   UNL A   1      36.099  32.520  31.037  1.00  0.00     0.135 A 
ATOM     76  C   UNL A   1      37.021  33.601  29.100  1.00  0.00     0.135 A 
ATOM     77  F   UNL A   1      36.207  31.669  32.070  1.00  0.00    -0.206 F 
ATOM     78  C   UNL A   1      34.895  33.190  30.853  1.00  0.00     0.059 A 
ATOM     79  C   UNL A   1      35.833  34.298  28.906  1.00  0.00     0.059 A 
ATOM     80  F   UNL A   1      38.036  33.826  28.250  1.00  0.00    -0.206 F 
ATOM     81  C   UNL A   1      34.773  34.083  29.787  1.00  0.00     0.060 A 
BRANCH  81  82
ATOM     82  S   UNL A   1      33.230  35.003  29.603  1.00  0.00     0.124 S 
ATOM     83  O   UNL A   1      32.730  35.017  30.973  1.00  0.00    -0.237 OA
ATOM     84  O   UNL A   1      33.697  36.283  29.079  1.00  0.00    -0.237 OA
ATOM     85  O   UNL A   1      32.467  34.191  28.660  1.00  0.00    -0.744 OA
ENDBRANCH  81  82
ENDBRANCH  49  74
BRANCH  61  86
ATOM     86  C   UNL A   1      42.986  34.349  33.670  1.00  0.00     0.058 A 
ATOM     87  C   UNL A   1      42.844  34.404  35.064  1.00  0.00     0.135 A 
ATOM     88  C   UNL A   1      43.567  35.450  33.022  1.00  0.00     0.135 A 
ATOM     89  F   UNL A   1      42.289  33.378  35.729  1.00  0.00    -0.206 F 
ATOM     90  C   UNL A   1      43.247  35.520  35.790  1.00  0.00     0.059 A 
ATOM     91  C   UNL A   1      43.996  36.568  33.729  1.00  0.00     0.059 A 
ATOM     92  F   UNL A   1      43.732  35.441  31.689  1.00  0.00    -0.206 F 
ATOM     93  C   UNL A   1      43.822  36.598  35.112  1.00  0.00     0.060 A 
BRANCH  93  94
ATOM     94  S   UNL A   1      44.368  38.029  36.068  1.00  0.00     0.124 S 
ATOM     95  O   UNL A   1      44.029  39.129  35.169  1.00  0.00    -0.237 OA
ATOM     96  O   UNL A   1      43.557  37.926  37.277  1.00  0.00    -0.237 OA
ATOM     97  O   UNL A   1      45.794  37.788  36.254  1.00  0.00    -0.744 OA
ENDBRANCH  93  94
ENDBRANCH  61  86
ENDBRANCH  35  36
ENDBRANCH  27  30
ENDBRANCH  25  26
ENDBRANCH   1  25
TORSDOF 15
ENDMDL
MODEL 3
REMARK VINA RESULT:     -11.4      1.671      2.470
REMARK SMILES Cc1cc2c(c(C)c1Br)C=C(C(=O)NCCCCNC(=O)c1ccc(-c3c4nc(c(-c5c(F)cc(S(=O)(=O)[O-])cc5F)c5ccc([nH]5)c(-c5c(F)cc(S(=O)(=O)[O-])cc5F)c5nc(c(-c6c(F)cc(S(=O)(=O)[O-])cc6F)c6ccc3[nH]6)C=C5)C=C4)cc1)[C@@H](C(F)(F)F)O2
REMARK SMILES IDX 17 1 16 2 15 3 14 4 12 5 13 6 11 8 1 9 2 10 3 11 8 12 4 13
REMARK SMILES IDX 6 14 9 15 5 16 93 17 7 18 10 19 88 20 89 21 90 22 91 23
REMARK SMILES IDX 92 24 18 25 19 26 20 27 21 29 22 30 23 31 87 32 24 33 86 34
REMARK SMILES IDX 25 35 26 36 27 37 80 38 28 39 85 40 79 41 81 42 29 43 84 44
REMARK SMILES IDX 78 45 77 46 30 48 64 49 43 50 63 51 44 52 47 53 62 54 82 55
REMARK SMILES IDX 45 56 46 57 61 59 83 60 48 61 31 62 32 63 41 64 33 65 34 66
REMARK SMILES IDX 40 67 42 68 35 69 36 70 37 71 38 72 39 73 65 74 66 75 75 76
REMARK SMILES IDX 67 77 68 78 74 79 76 80 69 81 70 82 71 83 72 84 73 85 49 86
REMARK SMILES IDX 50 87 59 88 51 89 52 90 58 91 60 92 53 93 54 94 55 95 56 96
REMARK SMILES IDX 57 97
REMARK H PARENT 14 7 19 28 81 47 47 58
REMARK Flexibility Score: inf
ROOT
ATOM      1  C   UNL A   1      32.543  28.099  26.530  1.00  0.00     0.023 C 
ENDROOT
BRANCH   1   2
ATOM      2  C   UNL A   1      31.419  29.119  26.332  1.00  0.00     0.023 C 
BRANCH   2   3
ATOM      3  C   UNL A   1      31.378  29.741  24.939  1.00  0.00     0.116 C 
BRANCH   3   4
ATOM      4  N   UNL A   1      30.496  29.011  24.045  1.00  0.00    -0.352 N 
ATOM      5  C   UNL A   1      30.544  27.868  23.322  1.00  0.00     0.251 C 
ATOM      6  O   UNL A   1      29.527  27.617  22.667  1.00  0.00    -0.270 OA
ATOM      7  H   UNL A   1      29.632  29.470  23.936  1.00  0.00     0.163 HD
BRANCH   5   8
ATOM      8  C   UNL A   1      31.702  26.925  23.267  1.00  0.00     0.067 C 
ATOM      9  C   UNL A   1      36.163  22.251  24.088  1.00  0.00     0.046 C 
ATOM     10  C   UNL A   1      34.992  23.191  24.197  1.00  0.00    -0.033 A 
ATOM     11  C   UNL A   1      34.761  24.077  23.139  1.00  0.00     0.051 A 
ATOM     12  C   UNL A   1      34.133  23.229  25.317  1.00  0.00     0.024 A 
ATOM     13  C   UNL A   1      33.708  24.981  23.189  1.00  0.00     0.128 A 
ATOM     14  C   UNL A   1      33.044  24.138  25.374  1.00  0.00    -0.026 A 
ATOM     15  Br  UNL A   1      34.479  22.020  26.762  1.00  0.00    -0.050 Br
ATOM     16  C   UNL A   1      32.838  25.020  24.283  1.00  0.00     0.021 A 
ATOM     17  O   UNL A   1      33.567  25.779  22.090  1.00  0.00    -0.475 OA
ATOM     18  C   UNL A   1      32.098  24.197  26.551  1.00  0.00     0.046 C 
ATOM     19  C   UNL A   1      31.720  25.970  24.216  1.00  0.00     0.026 C 
ATOM     20  C   UNL A   1      32.822  27.012  22.275  1.00  0.00     0.314 C 
BRANCH  20  21
ATOM     21  C   UNL A   1      33.802  28.160  22.580  1.00  0.00     0.429 C 
ATOM     22  F   UNL A   1      33.179  29.359  22.457  1.00  0.00    -0.167 F 
ATOM     23  F   UNL A   1      34.288  28.109  23.842  1.00  0.00    -0.167 F 
ATOM     24  F   UNL A   1      34.867  28.171  21.747  1.00  0.00    -0.167 F 
ENDBRANCH  20  21
ENDBRANCH   5   8
ENDBRANCH   3   4
ENDBRANCH   2   3
ENDBRANCH   1   2
BRANCH   1  25
ATOM     25  C   UNL A   1      33.711  28.567  27.398  1.00  0.00     0.116 C 
BRANCH  25  26
ATOM     26  N   UNL A   1      33.614  29.961  27.806  1.00  0.00    -0.352 N 
ATOM     27  C   UNL A   1      34.594  30.753  28.358  1.00  0.00     0.251 C 
ATOM     28  H   UNL A   1      32.738  30.391  27.672  1.00  0.00     0.163 HD
ATOM     29  O   UNL A   1      34.336  31.893  28.731  1.00  0.00    -0.269 OA
BRANCH  27  30
ATOM     30  C   UNL A   1      35.947  30.193  28.531  1.00  0.00     0.039 A 
ATOM     31  C   UNL A   1      36.845  30.258  27.464  1.00  0.00     0.014 A 
ATOM     32  C   UNL A   1      36.340  29.662  29.763  1.00  0.00     0.014 A 
ATOM     33  C   UNL A   1      38.167  29.856  27.654  1.00  0.00     0.010 A 
ATOM     34  C   UNL A   1      37.671  29.315  29.966  1.00  0.00     0.010 A 
ATOM     35  C   UNL A   1      38.596  29.416  28.916  1.00  0.00    -0.014 A 
BRANCH  35  36
ATOM     36  C   UNL A   1      40.012  29.053  29.164  1.00  0.00     0.031 A 
ATOM     37  C   UNL A   1      40.951  30.069  29.749  1.00  0.00     0.074 A 
ATOM     38  C   UNL A   1      40.462  27.837  28.801  1.00  0.00     0.049 A 
ATOM     39  N   UNL A   1      42.240  29.983  29.947  1.00  0.00    -0.248 NA
ATOM     40  C   UNL A   1      40.365  31.362  30.138  1.00  0.00     0.031 C 
ATOM     41  C   UNL A   1      39.650  26.780  28.194  1.00  0.00     0.029 A 
ATOM     42  N   UNL A   1      41.715  27.286  28.882  1.00  0.00    -0.354 N 
ATOM     43  C   UNL A   1      42.623  31.211  30.470  1.00  0.00     0.074 A 
ATOM     44  C   UNL A   1      41.438  32.041  30.516  1.00  0.00     0.031 C 
ATOM     45  C   UNL A   1      40.421  25.702  27.977  1.00  0.00     0.029 A 
ATOM     46  C   UNL A   1      41.787  26.002  28.398  1.00  0.00     0.049 A 
ATOM     47  H   UNL A   1      42.491  27.765  29.253  1.00  0.00     0.167 HD
ATOM     48  C   UNL A   1      43.847  31.603  30.895  1.00  0.00     0.037 A 
ATOM     49  C   UNL A   1      42.836  25.163  28.301  1.00  0.00     0.037 A 
ATOM     50  C   UNL A   1      45.016  30.764  30.871  1.00  0.00     0.049 A 
ATOM     51  C   UNL A   1      44.185  25.619  28.783  1.00  0.00     0.074 A 
ATOM     52  C   UNL A   1      46.296  31.057  31.307  1.00  0.00     0.029 A 
ATOM     53  N   UNL A   1      45.044  29.463  30.389  1.00  0.00    -0.354 N 
ATOM     54  N   UNL A   1      44.527  26.778  29.295  1.00  0.00    -0.248 NA
ATOM     55  C   UNL A   1      45.290  24.656  28.677  1.00  0.00     0.031 C 
ATOM     56  C   UNL A   1      47.105  29.940  31.067  1.00  0.00     0.029 A 
ATOM     57  C   UNL A   1      46.321  28.941  30.512  1.00  0.00     0.049 A 
ATOM     58  H   UNL A   1      44.271  28.983  30.014  1.00  0.00     0.167 HD
ATOM     59  C   UNL A   1      45.881  26.677  29.590  1.00  0.00     0.074 A 
ATOM     60  C   UNL A   1      46.294  25.341  29.210  1.00  0.00     0.031 C 
ATOM     61  C   UNL A   1      46.710  27.607  30.128  1.00  0.00     0.037 A 
BRANCH  48  62
ATOM     62  C   UNL A   1      43.976  33.000  31.434  1.00  0.00     0.058 A 
ATOM     63  C   UNL A   1      44.241  34.088  30.587  1.00  0.00     0.135 A 
ATOM     64  C   UNL A   1      43.817  33.259  32.804  1.00  0.00     0.135 A 
ATOM     65  F   UNL A   1      44.422  33.891  29.270  1.00  0.00    -0.206 F 
ATOM     66  C   UNL A   1      44.370  35.381  31.082  1.00  0.00     0.059 A 
ATOM     67  C   UNL A   1      43.918  34.548  33.319  1.00  0.00     0.059 A 
ATOM     68  F   UNL A   1      43.569  32.253  33.657  1.00  0.00    -0.206 F 
ATOM     69  C   UNL A   1      44.208  35.600  32.451  1.00  0.00     0.060 A 
BRANCH  69  70
ATOM     70  S   UNL A   1      44.378  37.284  33.078  1.00  0.00     0.124 S 
ATOM     71  O   UNL A   1      44.574  38.036  31.842  1.00  0.00    -0.237 OA
ATOM     72  O   UNL A   1      43.102  37.497  33.754  1.00  0.00    -0.237 OA
ATOM     73  O   UNL A   1      45.543  37.204  33.955  1.00  0.00    -0.744 OA
ENDBRANCH  69  70
ENDBRANCH  48  62
BRANCH  49  74
ATOM     74  C   UNL A   1      42.641  23.795  27.756  1.00  0.00     0.058 A 
ATOM     75  C   UNL A   1      42.652  23.568  26.372  1.00  0.00     0.135 A 
ATOM     76  C   UNL A   1      42.478  22.687  28.601  1.00  0.00     0.135 A 
ATOM     77  F   UNL A   1      42.798  24.598  25.525  1.00  0.00    -0.206 F 
ATOM     78  C   UNL A   1      42.504  22.291  25.843  1.00  0.00     0.059 A 
ATOM     79  C   UNL A   1      42.347  21.397  28.096  1.00  0.00     0.059 A 
ATOM     80  F   UNL A   1      42.476  22.851  29.933  1.00  0.00    -0.206 F 
ATOM     81  C   UNL A   1      42.358  21.210  26.713  1.00  0.00     0.060 A 
BRANCH  81  82
ATOM     82  S   UNL A   1      42.241  19.547  26.015  1.00  0.00     0.124 S 
ATOM     83  O   UNL A   1      43.143  19.644  24.873  1.00  0.00    -0.237 OA
ATOM     84  O   UNL A   1      42.700  18.717  27.125  1.00  0.00    -0.237 OA
ATOM     85  O   UNL A   1      40.824  19.419  25.693  1.00  0.00    -0.744 OA
ENDBRANCH  81  82
ENDBRANCH  49  74
BRANCH  61  86
ATOM     86  C   UNL A   1      48.138  27.204  30.357  1.00  0.00     0.058 A 
ATOM     87  C   UNL A   1      49.133  27.455  29.400  1.00  0.00     0.135 A 
ATOM     88  C   UNL A   1      48.523  26.607  31.568  1.00  0.00     0.135 A 
ATOM     89  F   UNL A   1      48.813  28.020  28.225  1.00  0.00    -0.206 F 
ATOM     90  C   UNL A   1      50.460  27.109  29.628  1.00  0.00     0.059 A 
ATOM     91  C   UNL A   1      49.848  26.271  31.826  1.00  0.00     0.059 A 
ATOM     92  F   UNL A   1      47.609  26.355  32.519  1.00  0.00    -0.206 F 
ATOM     93  C   UNL A   1      50.808  26.517  30.845  1.00  0.00     0.060 A 
BRANCH  93  94
ATOM     94  S   UNL A   1      52.540  26.099  31.140  1.00  0.00     0.124 S 
ATOM     95  O   UNL A   1      53.077  26.101  29.783  1.00  0.00    -0.237 OA
ATOM     96  O   UNL A   1      52.984  27.191  32.000  1.00  0.00    -0.237 OA
ATOM     97  O   UNL A   1      52.467  24.792  31.784  1.00  0.00    -0.744 OA
ENDBRANCH  93  94
ENDBRANCH  61  86
ENDBRANCH  35  36
ENDBRANCH  27  30
ENDBRANCH  25  26
ENDBRANCH   1  25
TORSDOF 15
ENDMDL
