MODEL 1
REMARK VINA RESULT:     -11.1      0.000      0.000
REMARK SMILES CC(C)[NH2+][C@](C)(C[N@H+]1CCC(C)(C)C1)C(=O)NCCCCNC(=O)c1ccc(-c2c3nc(c(-c4c(F)cc(S(=O)(=O)[O-])cc4F)c4ccc([nH]4)c(-c4c(F)cc(S(=O)(=O)[O-])cc4F)c4nc(c(-c5c(F)cc(S(=O)(=O)[O-])cc5F)c5ccc2[nH]5)C=C4)C=C3)cc1
REMARK SMILES IDX 20 1 19 2 18 3 17 4 15 5 16 6 5 8 6 9 4 10 2 13 1 14 3 15
REMARK SMILES IDX 7 16 8 17 9 18 14 19 10 21 11 22 12 23 13 24 21 25 22 26
REMARK SMILES IDX 23 27 24 29 25 30 26 31 90 32 27 33 89 34 28 35 29 36 30 37
REMARK SMILES IDX 83 38 31 39 88 40 82 41 84 42 32 43 87 44 81 45 80 46 33 48
REMARK SMILES IDX 67 49 46 50 66 51 47 52 50 53 65 54 85 55 48 56 49 57 64 59
REMARK SMILES IDX 86 60 51 61 34 62 35 63 44 64 36 65 37 66 43 67 45 68 38 69
REMARK SMILES IDX 39 70 40 71 41 72 42 73 68 74 69 75 78 76 70 77 71 78 77 79
REMARK SMILES IDX 79 80 72 81 73 82 74 83 75 84 76 85 52 86 53 87 62 88 54 89
REMARK SMILES IDX 55 90 61 91 63 92 56 93 57 94 58 95 59 96 60 97
REMARK H PARENT 17 7 4 11 4 12 8 20 22 28 84 47 50 58
REMARK Flexibility Score: inf
ROOT
ATOM      1  C   UNL A   1      33.582  30.171  26.964  1.00  0.00     0.023 C 
ENDROOT
BRANCH   1   2
ATOM      2  C   UNL A   1      32.363  29.313  27.281  1.00  0.00     0.023 C 
BRANCH   2   3
ATOM      3  C   UNL A   1      32.552  27.810  27.096  1.00  0.00     0.116 C 
BRANCH   3   4
ATOM      4  N   UNL A   1      31.320  27.071  26.979  1.00  0.00    -0.350 N 
ATOM      5  C   UNL A   1      30.822  26.296  25.971  1.00  0.00     0.287 C 
ATOM      6  O   UNL A   1      29.839  25.615  26.300  1.00  0.00    -0.268 OA
ATOM      7  H   UNL A   1      30.732  27.137  27.766  1.00  0.00     0.163 HD
BRANCH   5   8
ATOM      8  C   UNL A   1      31.424  26.212  24.519  1.00  0.00     0.221 C 
ATOM      9  C   UNL A   1      30.540  25.163  23.768  1.00  0.00     0.097 C 
BRANCH   8  10
ATOM     10  N   UNL A   1      32.765  25.543  24.472  1.00  0.00    -0.327 N 
ATOM     11  H   UNL A   1      33.067  25.579  23.498  1.00  0.00     0.347 HD
ATOM     12  H   UNL A   1      33.289  26.065  25.175  1.00  0.00     0.347 HD
BRANCH  10  13
ATOM     13  C   UNL A   1      32.961  24.169  24.908  1.00  0.00     0.177 C 
ATOM     14  C   UNL A   1      33.823  23.466  23.850  1.00  0.00     0.075 C 
ATOM     15  C   UNL A   1      33.683  24.052  26.251  1.00  0.00     0.075 C 
ENDBRANCH  10  13
ENDBRANCH   8  10
BRANCH   8  16
ATOM     16  C   UNL A   1      31.354  27.514  23.647  1.00  0.00     0.341 C 
BRANCH  16  17
ATOM     17  N   UNL A   1      30.114  28.312  23.732  1.00  0.00    -0.329 N 
ATOM     18  C   UNL A   1      30.327  29.660  24.282  1.00  0.00     0.263 C 
ATOM     19  C   UNL A   1      29.454  28.493  22.432  1.00  0.00     0.269 C 
ATOM     20  H   UNL A   1      29.525  27.763  24.357  1.00  0.00     0.348 HD
ATOM     21  C   UNL A   1      29.535  30.637  23.421  1.00  0.00     0.073 C 
ATOM     22  C   UNL A   1      28.595  29.753  22.607  1.00  0.00     0.019 C 
ATOM     23  C   UNL A   1      27.306  29.484  23.402  1.00  0.00     0.017 C 
ATOM     24  C   UNL A   1      28.245  30.388  21.261  1.00  0.00     0.017 C 
ENDBRANCH  16  17
ENDBRANCH   8  16
ENDBRANCH   5   8
ENDBRANCH   3   4
ENDBRANCH   2   3
ENDBRANCH   1   2
BRANCH   1  25
ATOM     25  C   UNL A   1      34.850  29.822  27.734  1.00  0.00     0.116 C 
BRANCH  25  26
ATOM     26  N   UNL A   1      35.118  30.714  28.858  1.00  0.00    -0.352 N 
ATOM     27  C   UNL A   1      36.246  30.839  29.639  1.00  0.00     0.251 C 
ATOM     28  H   UNL A   1      34.380  31.320  29.095  1.00  0.00     0.163 HD
ATOM     29  O   UNL A   1      36.252  31.592  30.604  1.00  0.00    -0.269 OA
BRANCH  27  30
ATOM     30  C   UNL A   1      37.427  30.009  29.326  1.00  0.00     0.039 A 
ATOM     31  C   UNL A   1      37.891  29.968  28.010  1.00  0.00     0.014 A 
ATOM     32  C   UNL A   1      38.131  29.375  30.349  1.00  0.00     0.014 A 
ATOM     33  C   UNL A   1      39.142  29.406  27.744  1.00  0.00     0.010 A 
ATOM     34  C   UNL A   1      39.412  28.901  30.099  1.00  0.00     0.010 A 
ATOM     35  C   UNL A   1      39.943  28.940  28.800  1.00  0.00    -0.014 A 
BRANCH  35  36
ATOM     36  C   UNL A   1      41.362  28.554  28.591  1.00  0.00     0.031 A 
ATOM     37  C   UNL A   1      42.439  29.599  28.628  1.00  0.00     0.074 A 
ATOM     38  C   UNL A   1      41.662  27.284  28.250  1.00  0.00     0.049 A 
ATOM     39  N   UNL A   1      43.706  29.489  28.324  1.00  0.00    -0.248 NA
ATOM     40  C   UNL A   1      42.031  30.957  29.026  1.00  0.00     0.031 C 
ATOM     41  C   UNL A   1      40.697  26.188  28.123  1.00  0.00     0.029 A 
ATOM     42  N   UNL A   1      42.862  26.702  27.928  1.00  0.00    -0.354 N 
ATOM     43  C   UNL A   1      44.239  30.763  28.467  1.00  0.00     0.074 A 
ATOM     44  C   UNL A   1      43.151  31.639  28.841  1.00  0.00     0.031 C 
ATOM     45  C   UNL A   1      41.346  25.065  27.775  1.00  0.00     0.029 A 
ATOM     46  C   UNL A   1      42.763  25.368  27.608  1.00  0.00     0.049 A 
ATOM     47  H   UNL A   1      43.716  27.194  27.928  1.00  0.00     0.167 HD
ATOM     48  C   UNL A   1      45.525  31.162  28.321  1.00  0.00     0.037 A 
ATOM     49  C   UNL A   1      43.702  24.490  27.208  1.00  0.00     0.037 A 
ATOM     50  C   UNL A   1      46.611  30.280  27.987  1.00  0.00     0.049 A 
ATOM     51  C   UNL A   1      45.122  24.957  27.045  1.00  0.00     0.074 A 
ATOM     52  C   UNL A   1      47.961  30.570  27.906  1.00  0.00     0.029 A 
ATOM     53  N   UNL A   1      46.470  28.936  27.677  1.00  0.00    -0.354 N 
ATOM     54  N   UNL A   1      45.621  26.152  27.249  1.00  0.00    -0.248 NA
ATOM     55  C   UNL A   1      46.102  23.962  26.590  1.00  0.00     0.031 C 
ATOM     56  C   UNL A   1      48.634  29.407  27.512  1.00  0.00     0.029 A 
ATOM     57  C   UNL A   1      47.705  28.387  27.378  1.00  0.00     0.049 A 
ATOM     58  H   UNL A   1      45.617  28.444  27.670  1.00  0.00     0.167 HD
ATOM     59  C   UNL A   1      46.975  26.053  26.953  1.00  0.00     0.074 A 
ATOM     60  C   UNL A   1      47.220  24.677  26.571  1.00  0.00     0.031 C 
ATOM     61  C   UNL A   1      47.928  27.016  26.991  1.00  0.00     0.037 A 
BRANCH  48  62
ATOM     62  C   UNL A   1      45.820  32.620  28.535  1.00  0.00     0.058 A 
ATOM     63  C   UNL A   1      45.799  33.536  27.471  1.00  0.00     0.135 A 
ATOM     64  C   UNL A   1      46.127  33.107  29.814  1.00  0.00     0.135 A 
ATOM     65  F   UNL A   1      45.526  33.117  26.224  1.00  0.00    -0.206 F 
ATOM     66  C   UNL A   1      46.112  34.877  27.661  1.00  0.00     0.059 A 
ATOM     67  C   UNL A   1      46.419  34.451  30.032  1.00  0.00     0.059 A 
ATOM     68  F   UNL A   1      46.162  32.274  30.866  1.00  0.00    -0.206 F 
ATOM     69  C   UNL A   1      46.429  35.324  28.945  1.00  0.00     0.060 A 
BRANCH  69  70
ATOM     70  S   UNL A   1      46.857  37.061  29.173  1.00  0.00     0.124 S 
ATOM     71  O   UNL A   1      46.857  37.171  30.628  1.00  0.00    -0.237 OA
ATOM     72  O   UNL A   1      48.164  37.152  28.532  1.00  0.00    -0.237 OA
ATOM     73  O   UNL A   1      45.778  37.769  28.490  1.00  0.00    -0.744 OA
ENDBRANCH  69  70
ENDBRANCH  48  62
BRANCH  49  74
ATOM     74  C   UNL A   1      43.330  23.076  26.943  1.00  0.00     0.058 A 
ATOM     75  C   UNL A   1      43.314  22.575  25.633  1.00  0.00     0.135 A 
ATOM     76  C   UNL A   1      43.018  22.192  27.987  1.00  0.00     0.135 A 
ATOM     77  F   UNL A   1      43.598  23.387  24.602  1.00  0.00    -0.206 F 
ATOM     78  C   UNL A   1      43.001  21.247  25.365  1.00  0.00     0.059 A 
ATOM     79  C   UNL A   1      42.720  20.854  27.745  1.00  0.00     0.059 A 
ATOM     80  F   UNL A   1      43.035  22.620  29.258  1.00  0.00    -0.206 F 
ATOM     81  C   UNL A   1      42.709  20.392  26.430  1.00  0.00     0.060 A 
BRANCH  81  82
ATOM     82  S   UNL A   1      42.377  18.652  26.077  1.00  0.00     0.124 S 
ATOM     83  O   UNL A   1      40.963  18.689  25.724  1.00  0.00    -0.237 OA
ATOM     84  O   UNL A   1      43.302  18.376  24.983  1.00  0.00    -0.237 OA
ATOM     85  O   UNL A   1      42.697  17.990  27.338  1.00  0.00    -0.744 OA
ENDBRANCH  81  82
ENDBRANCH  49  74
BRANCH  61  86
ATOM     86  C   UNL A   1      49.325  26.620  26.609  1.00  0.00     0.058 A 
ATOM     87  C   UNL A   1      50.195  26.033  27.540  1.00  0.00     0.135 A 
ATOM     88  C   UNL A   1      49.773  26.763  25.287  1.00  0.00     0.135 A 
ATOM     89  F   UNL A   1      49.816  25.886  28.819  1.00  0.00    -0.206 F 
ATOM     90  C   UNL A   1      51.465  25.603  27.174  1.00  0.00     0.059 A 
ATOM     91  C   UNL A   1      51.032  26.323  24.894  1.00  0.00     0.059 A 
ATOM     92  F   UNL A   1      48.975  27.315  24.359  1.00  0.00    -0.206 F 
ATOM     93  C   UNL A   1      51.873  25.748  25.846  1.00  0.00     0.060 A 
BRANCH  93  94
ATOM     94  S   UNL A   1      53.501  25.130  25.368  1.00  0.00     0.124 S 
ATOM     95  O   UNL A   1      53.697  25.786  24.080  1.00  0.00    -0.237 OA
ATOM     96  O   UNL A   1      54.350  25.606  26.457  1.00  0.00    -0.237 OA
ATOM     97  O   UNL A   1      53.313  23.684  25.316  1.00  0.00    -0.744 OA
ENDBRANCH  93  94
ENDBRANCH  61  86
ENDBRANCH  35  36
ENDBRANCH  27  30
ENDBRANCH  25  26
ENDBRANCH   1  25
TORSDOF 18
ENDMDL
MODEL 2
REMARK VINA RESULT:     -11.1      2.375      3.913
REMARK SMILES CC(C)[NH2+][C@](C)(C[N@H+]1CCC(C)(C)C1)C(=O)NCCCCNC(=O)c1ccc(-c2c3nc(c(-c4c(F)cc(S(=O)(=O)[O-])cc4F)c4ccc([nH]4)c(-c4c(F)cc(S(=O)(=O)[O-])cc4F)c4nc(c(-c5c(F)cc(S(=O)(=O)[O-])cc5F)c5ccc2[nH]5)C=C4)C=C3)cc1
REMARK SMILES IDX 20 1 19 2 18 3 17 4 15 5 16 6 5 8 6 9 4 10 2 13 1 14 3 15
REMARK SMILES IDX 7 16 8 17 9 18 14 19 10 21 11 22 12 23 13 24 21 25 22 26
REMARK SMILES IDX 23 27 24 29 25 30 26 31 90 32 27 33 89 34 28 35 29 36 30 37
REMARK SMILES IDX 83 38 31 39 88 40 82 41 84 42 32 43 87 44 81 45 80 46 33 48
REMARK SMILES IDX 67 49 46 50 66 51 47 52 50 53 65 54 85 55 48 56 49 57 64 59
REMARK SMILES IDX 86 60 51 61 34 62 35 63 44 64 36 65 37 66 43 67 45 68 38 69
REMARK SMILES IDX 39 70 40 71 41 72 42 73 68 74 69 75 78 76 70 77 71 78 77 79
REMARK SMILES IDX 79 80 72 81 73 82 74 83 75 84 76 85 52 86 53 87 62 88 54 89
REMARK SMILES IDX 55 90 61 91 63 92 56 93 57 94 58 95 59 96 60 97
REMARK H PARENT 17 7 4 11 4 12 8 20 22 28 84 47 50 58
REMARK Flexibility Score: inf
ROOT
ATOM      1  C   UNL A   1      32.153  29.135  26.692  1.00  0.00     0.023 C 
ENDROOT
BRANCH   1   2
ATOM      2  C   UNL A   1      31.576  27.821  27.210  1.00  0.00     0.023 C 
BRANCH   2   3
ATOM      3  C   UNL A   1      31.767  26.616  26.295  1.00  0.00     0.116 C 
BRANCH   3   4
ATOM      4  N   UNL A   1      31.337  25.366  26.870  1.00  0.00    -0.350 N 
ATOM      5  C   UNL A   1      31.392  24.085  26.399  1.00  0.00     0.287 C 
ATOM      6  O   UNL A   1      31.148  23.224  27.256  1.00  0.00    -0.268 OA
ATOM      7  H   UNL A   1      30.929  25.450  27.763  1.00  0.00     0.163 HD
BRANCH   5   8
ATOM      8  C   UNL A   1      31.761  23.686  24.921  1.00  0.00     0.221 C 
ATOM      9  C   UNL A   1      30.680  24.378  24.027  1.00  0.00     0.097 C 
BRANCH   8  10
ATOM     10  N   UNL A   1      31.503  22.241  24.617  1.00  0.00    -0.327 N 
ATOM     11  H   UNL A   1      31.354  21.783  25.517  1.00  0.00     0.347 HD
ATOM     12  H   UNL A   1      30.731  22.297  23.954  1.00  0.00     0.347 HD
BRANCH  10  13
ATOM     13  C   UNL A   1      32.461  21.418  23.896  1.00  0.00     0.177 C 
ATOM     14  C   UNL A   1      32.551  20.068  24.622  1.00  0.00     0.075 C 
ATOM     15  C   UNL A   1      32.059  21.141  22.446  1.00  0.00     0.075 C 
ENDBRANCH  10  13
ENDBRANCH   8  10
BRANCH   8  16
ATOM     16  C   UNL A   1      33.139  24.195  24.373  1.00  0.00     0.341 C 
BRANCH  16  17
ATOM     17  N   UNL A   1      34.300  23.296  24.535  1.00  0.00    -0.329 N 
ATOM     18  C   UNL A   1      35.151  23.224  23.338  1.00  0.00     0.263 C 
ATOM     19  C   UNL A   1      35.178  23.680  25.649  1.00  0.00     0.269 C 
ATOM     20  H   UNL A   1      33.869  22.389  24.718  1.00  0.00     0.348 HD
ATOM     21  C   UNL A   1      36.602  23.300  23.803  1.00  0.00     0.073 C 
ATOM     22  C   UNL A   1      36.534  23.050  25.306  1.00  0.00     0.019 C 
ATOM     23  C   UNL A   1      36.573  21.539  25.590  1.00  0.00     0.017 C 
ATOM     24  C   UNL A   1      37.680  23.740  26.047  1.00  0.00     0.017 C 
ENDBRANCH  16  17
ENDBRANCH   8  16
ENDBRANCH   5   8
ENDBRANCH   3   4
ENDBRANCH   2   3
ENDBRANCH   1   2
BRANCH   1  25
ATOM     25  C   UNL A   1      33.582  29.441  27.123  1.00  0.00     0.116 C 
BRANCH  25  26
ATOM     26  N   UNL A   1      33.698  30.618  27.978  1.00  0.00    -0.352 N 
ATOM     27  C   UNL A   1      34.745  31.037  28.768  1.00  0.00     0.251 C 
ATOM     28  H   UNL A   1      32.907  31.204  27.991  1.00  0.00     0.163 HD
ATOM     29  O   UNL A   1      34.623  32.019  29.491  1.00  0.00    -0.269 OA
BRANCH  27  30
ATOM     30  C   UNL A   1      35.997  30.253  28.773  1.00  0.00     0.039 A 
ATOM     31  C   UNL A   1      36.775  30.222  27.615  1.00  0.00     0.014 A 
ATOM     32  C   UNL A   1      36.445  29.653  29.949  1.00  0.00     0.014 A 
ATOM     33  C   UNL A   1      38.072  29.707  27.678  1.00  0.00     0.010 A 
ATOM     34  C   UNL A   1      37.765  29.228  30.033  1.00  0.00     0.010 A 
ATOM     35  C   UNL A   1      38.601  29.280  28.907  1.00  0.00    -0.014 A 
BRANCH  35  36
ATOM     36  C   UNL A   1      40.040  28.949  29.064  1.00  0.00     0.031 A 
ATOM     37  C   UNL A   1      41.015  30.009  29.488  1.00  0.00     0.074 A 
ATOM     38  C   UNL A   1      40.483  27.725  28.708  1.00  0.00     0.049 A 
ATOM     39  N   UNL A   1      42.320  29.959  29.536  1.00  0.00    -0.248 NA
ATOM     40  C   UNL A   1      40.448  31.312  29.877  1.00  0.00     0.031 C 
ATOM     41  C   UNL A   1      39.644  26.626  28.224  1.00  0.00     0.029 A 
ATOM     42  N   UNL A   1      41.753  27.205  28.680  1.00  0.00    -0.354 N 
ATOM     43  C   UNL A   1      42.732  31.224  29.932  1.00  0.00     0.074 A 
ATOM     44  C   UNL A   1      41.541  32.034  30.068  1.00  0.00     0.031 C 
ATOM     45  C   UNL A   1      40.417  25.557  27.971  1.00  0.00     0.029 A 
ATOM     46  C   UNL A   1      41.810  25.907  28.228  1.00  0.00     0.049 A 
ATOM     47  H   UNL A   1      42.550  27.714  28.958  1.00  0.00     0.167 HD
ATOM     48  C   UNL A   1      43.988  31.665  30.183  1.00  0.00     0.037 A 
ATOM     49  C   UNL A   1      42.865  25.094  28.027  1.00  0.00     0.037 A 
ATOM     50  C   UNL A   1      45.165  30.844  30.084  1.00  0.00     0.049 A 
ATOM     51  C   UNL A   1      44.250  25.607  28.304  1.00  0.00     0.074 A 
ATOM     52  C   UNL A   1      46.471  31.171  30.404  1.00  0.00     0.029 A 
ATOM     53  N   UNL A   1      45.179  29.534  29.631  1.00  0.00    -0.354 N 
ATOM     54  N   UNL A   1      44.616  26.788  28.741  1.00  0.00    -0.248 NA
ATOM     55  C   UNL A   1      45.364  24.684  28.050  1.00  0.00     0.031 C 
ATOM     56  C   UNL A   1      47.281  30.068  30.110  1.00  0.00     0.029 A 
ATOM     57  C   UNL A   1      46.475  29.045  29.636  1.00  0.00     0.049 A 
ATOM     58  H   UNL A   1      44.386  29.026  29.345  1.00  0.00     0.167 HD
ATOM     59  C   UNL A   1      46.002  26.749  28.822  1.00  0.00     0.074 A 
ATOM     60  C   UNL A   1      46.410  25.422  28.403  1.00  0.00     0.031 C 
ATOM     61  C   UNL A   1      46.861  27.724  29.207  1.00  0.00     0.037 A 
BRANCH  48  62
ATOM     62  C   UNL A   1      44.142  33.100  30.597  1.00  0.00     0.058 A 
ATOM     63  C   UNL A   1      44.069  33.486  31.945  1.00  0.00     0.135 A 
ATOM     64  C   UNL A   1      44.364  34.102  29.639  1.00  0.00     0.135 A 
ATOM     65  F   UNL A   1      43.842  32.568  32.899  1.00  0.00    -0.206 F 
ATOM     66  C   UNL A   1      44.169  34.820  32.326  1.00  0.00     0.059 A 
ATOM     67  C   UNL A   1      44.493  35.440  30.000  1.00  0.00     0.059 A 
ATOM     68  F   UNL A   1      44.442  33.787  28.337  1.00  0.00    -0.206 F 
ATOM     69  C   UNL A   1      44.374  35.791  31.344  1.00  0.00     0.060 A 
BRANCH  69  70
ATOM     70  S   UNL A   1      44.479  37.519  31.850  1.00  0.00     0.124 S 
ATOM     71  O   UNL A   1      45.923  37.725  31.882  1.00  0.00    -0.237 OA
ATOM     72  O   UNL A   1      43.766  38.206  30.777  1.00  0.00    -0.237 OA
ATOM     73  O   UNL A   1      43.812  37.534  33.148  1.00  0.00    -0.744 OA
ENDBRANCH  69  70
ENDBRANCH  48  62
BRANCH  49  74
ATOM     74  C   UNL A   1      42.647  23.705  27.546  1.00  0.00     0.058 A 
ATOM     75  C   UNL A   1      42.643  23.417  26.174  1.00  0.00     0.135 A 
ATOM     76  C   UNL A   1      42.476  22.637  28.441  1.00  0.00     0.135 A 
ATOM     77  F   UNL A   1      42.796  24.408  25.281  1.00  0.00    -0.206 F 
ATOM     78  C   UNL A   1      42.475  22.119  25.702  1.00  0.00     0.059 A 
ATOM     79  C   UNL A   1      42.325  21.328  27.994  1.00  0.00     0.059 A 
ATOM     80  F   UNL A   1      42.488  22.861  29.763  1.00  0.00    -0.206 F 
ATOM     81  C   UNL A   1      42.321  21.080  26.622  1.00  0.00     0.060 A 
BRANCH  81  82
ATOM     82  S   UNL A   1      42.178  19.389  26.001  1.00  0.00     0.124 S 
ATOM     83  O   UNL A   1      40.751  19.299  25.721  1.00  0.00    -0.237 OA
ATOM     84  O   UNL A   1      43.058  19.412  24.838  1.00  0.00    -0.237 OA
ATOM     85  O   UNL A   1      42.656  18.583  27.121  1.00  0.00    -0.744 OA
ENDBRANCH  81  82
ENDBRANCH  49  74
BRANCH  61  86
ATOM     86  C   UNL A   1      48.327  27.400  29.191  1.00  0.00     0.058 A 
ATOM     87  C   UNL A   1      49.108  27.621  28.047  1.00  0.00     0.135 A 
ATOM     88  C   UNL A   1      48.969  26.932  30.347  1.00  0.00     0.135 A 
ATOM     89  F   UNL A   1      48.538  28.057  26.913  1.00  0.00    -0.206 F 
ATOM     90  C   UNL A   1      50.478  27.385  28.048  1.00  0.00     0.059 A 
ATOM     91  C   UNL A   1      50.341  26.708  30.378  1.00  0.00     0.059 A 
ATOM     92  F   UNL A   1      48.264  26.710  31.468  1.00  0.00    -0.206 F 
ATOM     93  C   UNL A   1      51.087  26.933  29.221  1.00  0.00     0.060 A 
BRANCH  93  94
ATOM     94  S   UNL A   1      52.876  26.689  29.230  1.00  0.00     0.124 S 
ATOM     95  O   UNL A   1      53.077  25.945  27.991  1.00  0.00    -0.237 OA
ATOM     96  O   UNL A   1      53.380  28.059  29.235  1.00  0.00    -0.237 OA
ATOM     97  O   UNL A   1      53.109  25.938  30.460  1.00  0.00    -0.744 OA
ENDBRANCH  93  94
ENDBRANCH  61  86
ENDBRANCH  35  36
ENDBRANCH  27  30
ENDBRANCH  25  26
ENDBRANCH   1  25
TORSDOF 18
ENDMDL
MODEL 3
REMARK VINA RESULT:     -11.0      2.600      4.499
REMARK SMILES CC(C)[NH2+][C@](C)(C[N@H+]1CCC(C)(C)C1)C(=O)NCCCCNC(=O)c1ccc(-c2c3nc(c(-c4c(F)cc(S(=O)(=O)[O-])cc4F)c4ccc([nH]4)c(-c4c(F)cc(S(=O)(=O)[O-])cc4F)c4nc(c(-c5c(F)cc(S(=O)(=O)[O-])cc5F)c5ccc2[nH]5)C=C4)C=C3)cc1
REMARK SMILES IDX 20 1 19 2 18 3 17 4 15 5 16 6 5 8 6 9 4 10 2 13 1 14 3 15
REMARK SMILES IDX 7 16 8 17 9 18 14 19 10 21 11 22 12 23 13 24 21 25 22 26
REMARK SMILES IDX 23 27 24 29 25 30 26 31 90 32 27 33 89 34 28 35 29 36 30 37
REMARK SMILES IDX 83 38 31 39 88 40 82 41 84 42 32 43 87 44 81 45 80 46 33 48
REMARK SMILES IDX 67 49 46 50 66 51 47 52 50 53 65 54 85 55 48 56 49 57 64 59
REMARK SMILES IDX 86 60 51 61 34 62 35 63 44 64 36 65 37 66 43 67 45 68 38 69
REMARK SMILES IDX 39 70 40 71 41 72 42 73 68 74 69 75 78 76 70 77 71 78 77 79
REMARK SMILES IDX 79 80 72 81 73 82 74 83 75 84 76 85 52 86 53 87 62 88 54 89
REMARK SMILES IDX 55 90 61 91 63 92 56 93 57 94 58 95 59 96 60 97
REMARK H PARENT 17 7 4 11 4 12 8 20 22 28 84 47 50 58
REMARK Flexibility Score: inf
ROOT
ATOM      1  C   UNL A   1      32.310  28.340  27.612  1.00  0.00     0.023 C 
ENDROOT
BRANCH   1   2
ATOM      2  C   UNL A   1      31.711  27.342  26.627  1.00  0.00     0.023 C 
BRANCH   2   3
ATOM      3  C   UNL A   1      32.656  26.245  26.147  1.00  0.00     0.116 C 
BRANCH   3   4
ATOM      4  N   UNL A   1      32.164  24.907  26.360  1.00  0.00    -0.350 N 
ATOM      5  C   UNL A   1      32.449  23.727  25.735  1.00  0.00     0.287 C 
ATOM      6  O   UNL A   1      32.021  22.727  26.331  1.00  0.00    -0.268 OA
ATOM      7  H   UNL A   1      31.503  24.830  27.086  1.00  0.00     0.163 HD
BRANCH   5   8
ATOM      8  C   UNL A   1      33.271  23.592  24.399  1.00  0.00     0.221 C 
ATOM      9  C   UNL A   1      34.332  24.739  24.453  1.00  0.00     0.097 C 
BRANCH   8  10
ATOM     10  N   UNL A   1      32.487  23.984  23.181  1.00  0.00    -0.327 N 
ATOM     11  H   UNL A   1      32.925  23.501  22.395  1.00  0.00     0.347 HD
ATOM     12  H   UNL A   1      31.536  23.735  23.451  1.00  0.00     0.347 HD
BRANCH  10  13
ATOM     13  C   UNL A   1      32.333  25.370  22.772  1.00  0.00     0.177 C 
ATOM     14  C   UNL A   1      32.638  25.447  21.269  1.00  0.00     0.075 C 
ATOM     15  C   UNL A   1      30.922  25.919  22.990  1.00  0.00     0.075 C 
ENDBRANCH  10  13
ENDBRANCH   8  10
BRANCH   8  16
ATOM     16  C   UNL A   1      34.095  22.273  24.204  1.00  0.00     0.341 C 
BRANCH  16  17
ATOM     17  N   UNL A   1      33.432  21.006  24.574  1.00  0.00    -0.329 N 
ATOM     18  C   UNL A   1      32.383  20.601  23.626  1.00  0.00     0.263 C 
ATOM     19  C   UNL A   1      34.364  19.874  24.672  1.00  0.00     0.269 C 
ATOM     20  H   UNL A   1      33.025  21.213  25.486  1.00  0.00     0.348 HD
ATOM     21  C   UNL A   1      32.547  19.107  23.371  1.00  0.00     0.073 C 
ATOM     22  C   UNL A   1      33.484  18.632  24.478  1.00  0.00     0.019 C 
ATOM     23  C   UNL A   1      32.673  18.279  25.736  1.00  0.00     0.017 C 
ATOM     24  C   UNL A   1      34.308  17.420  24.041  1.00  0.00     0.017 C 
ENDBRANCH  16  17
ENDBRANCH   8  16
ENDBRANCH   5   8
ENDBRANCH   3   4
ENDBRANCH   2   3
ENDBRANCH   1   2
BRANCH   1  25
ATOM     25  C   UNL A   1      33.417  29.228  27.056  1.00  0.00     0.116 C 
BRANCH  25  26
ATOM     26  N   UNL A   1      33.556  30.500  27.758  1.00  0.00    -0.352 N 
ATOM     27  C   UNL A   1      34.620  31.003  28.474  1.00  0.00     0.251 C 
ATOM     28  H   UNL A   1      32.770  31.090  27.712  1.00  0.00     0.163 HD
ATOM     29  O   UNL A   1      34.517  32.066  29.073  1.00  0.00    -0.269 OA
BRANCH  27  30
ATOM     30  C   UNL A   1      35.865  30.213  28.555  1.00  0.00     0.039 A 
ATOM     31  C   UNL A   1      36.721  30.192  27.453  1.00  0.00     0.014 A 
ATOM     32  C   UNL A   1      36.231  29.598  29.752  1.00  0.00     0.014 A 
ATOM     33  C   UNL A   1      38.009  29.671  27.597  1.00  0.00     0.010 A 
ATOM     34  C   UNL A   1      37.540  29.167  29.921  1.00  0.00     0.010 A 
ATOM     35  C   UNL A   1      38.451  29.228  28.855  1.00  0.00    -0.014 A 
BRANCH  35  36
ATOM     36  C   UNL A   1      39.875  28.889  29.106  1.00  0.00     0.031 A 
ATOM     37  C   UNL A   1      40.818  29.936  29.623  1.00  0.00     0.074 A 
ATOM     38  C   UNL A   1      40.341  27.673  28.753  1.00  0.00     0.049 A 
ATOM     39  N   UNL A   1      42.117  29.881  29.762  1.00  0.00    -0.248 NA
ATOM     40  C   UNL A   1      40.227  31.231  30.001  1.00  0.00     0.031 C 
ATOM     41  C   UNL A   1      39.537  26.588  28.185  1.00  0.00     0.029 A 
ATOM     42  N   UNL A   1      41.609  27.150  28.803  1.00  0.00    -0.354 N 
ATOM     43  C   UNL A   1      42.501  31.136  30.217  1.00  0.00     0.074 A 
ATOM     44  C   UNL A   1      41.305  31.946  30.286  1.00  0.00     0.031 C 
ATOM     45  C   UNL A   1      40.324  25.523  27.962  1.00  0.00     0.029 A 
ATOM     46  C   UNL A   1      41.696  25.863  28.325  1.00  0.00     0.049 A 
ATOM     47  H   UNL A   1      42.384  27.650  29.149  1.00  0.00     0.167 HD
ATOM     48  C   UNL A   1      43.737  31.567  30.566  1.00  0.00     0.037 A 
ATOM     49  C   UNL A   1      42.761  25.052  28.180  1.00  0.00     0.037 A 
ATOM     50  C   UNL A   1      44.917  30.745  30.532  1.00  0.00     0.049 A 
ATOM     51  C   UNL A   1      44.124  25.554  28.567  1.00  0.00     0.074 A 
ATOM     52  C   UNL A   1      46.197  31.061  30.951  1.00  0.00     0.029 A 
ATOM     53  N   UNL A   1      44.962  29.446  30.049  1.00  0.00    -0.354 N 
ATOM     54  N   UNL A   1      44.460  26.723  29.057  1.00  0.00    -0.248 NA
ATOM     55  C   UNL A   1      45.253  24.634  28.371  1.00  0.00     0.031 C 
ATOM     56  C   UNL A   1      47.025  29.962  30.689  1.00  0.00     0.029 A 
ATOM     57  C   UNL A   1      46.253  28.953  30.135  1.00  0.00     0.049 A 
ATOM     58  H   UNL A   1      44.190  28.947  29.696  1.00  0.00     0.167 HD
ATOM     59  C   UNL A   1      45.837  26.678  29.235  1.00  0.00     0.074 A 
ATOM     60  C   UNL A   1      46.271  25.361  28.815  1.00  0.00     0.031 C 
ATOM     61  C   UNL A   1      46.667  27.642  29.703  1.00  0.00     0.037 A 
BRANCH  48  62
ATOM     62  C   UNL A   1      43.863  32.991  31.024  1.00  0.00     0.058 A 
ATOM     63  C   UNL A   1      43.673  33.349  32.368  1.00  0.00     0.135 A 
ATOM     64  C   UNL A   1      44.175  34.011  30.112  1.00  0.00     0.135 A 
ATOM     65  F   UNL A   1      43.356  32.412  33.278  1.00  0.00    -0.206 F 
ATOM     66  C   UNL A   1      43.748  34.673  32.786  1.00  0.00     0.059 A 
ATOM     67  C   UNL A   1      44.280  35.340  30.513  1.00  0.00     0.059 A 
ATOM     68  F   UNL A   1      44.366  33.725  28.815  1.00  0.00    -0.206 F 
ATOM     69  C   UNL A   1      44.045  35.663  31.849  1.00  0.00     0.060 A 
BRANCH  69  70
ATOM     70  S   UNL A   1      44.116  37.379  32.400  1.00  0.00     0.124 S 
ATOM     71  O   UNL A   1      43.742  38.091  31.181  1.00  0.00    -0.237 OA
ATOM     72  O   UNL A   1      43.129  37.407  33.475  1.00  0.00    -0.237 OA
ATOM     73  O   UNL A   1      45.503  37.542  32.823  1.00  0.00    -0.744 OA
ENDBRANCH  69  70
ENDBRANCH  48  62
BRANCH  49  74
ATOM     74  C   UNL A   1      42.577  23.675  27.652  1.00  0.00     0.058 A 
ATOM     75  C   UNL A   1      42.581  23.433  26.271  1.00  0.00     0.135 A 
ATOM     76  C   UNL A   1      42.429  22.574  28.510  1.00  0.00     0.135 A 
ATOM     77  F   UNL A   1      42.712  24.457  25.412  1.00  0.00    -0.206 F 
ATOM     78  C   UNL A   1      42.444  22.149  25.756  1.00  0.00     0.059 A 
ATOM     79  C   UNL A   1      42.309  21.278  28.019  1.00  0.00     0.059 A 
ATOM     80  F   UNL A   1      42.435  22.753  29.840  1.00  0.00    -0.206 F 
ATOM     81  C   UNL A   1      42.313  21.076  26.639  1.00  0.00     0.060 A 
BRANCH  81  82
ATOM     82  S   UNL A   1      42.210  19.404  25.962  1.00  0.00     0.124 S 
ATOM     83  O   UNL A   1      43.071  19.509  24.790  1.00  0.00    -0.237 OA
ATOM     84  O   UNL A   1      42.724  18.594  27.062  1.00  0.00    -0.237 OA
ATOM     85  O   UNL A   1      40.785  19.243  25.689  1.00  0.00    -0.744 OA
ENDBRANCH  81  82
ENDBRANCH  49  74
BRANCH  61  86
ATOM     86  C   UNL A   1      48.130  27.313  29.783  1.00  0.00     0.058 A 
ATOM     87  C   UNL A   1      48.987  27.541  28.696  1.00  0.00     0.135 A 
ATOM     88  C   UNL A   1      48.692  26.835  30.977  1.00  0.00     0.135 A 
ATOM     89  F   UNL A   1      48.495  27.987  27.530  1.00  0.00    -0.206 F 
ATOM     90  C   UNL A   1      50.353  27.302  28.788  1.00  0.00     0.059 A 
ATOM     91  C   UNL A   1      50.058  26.607  31.098  1.00  0.00     0.059 A 
ATOM     92  F   UNL A   1      47.912  26.607  32.046  1.00  0.00    -0.206 F 
ATOM     93  C   UNL A   1      50.880  26.839  29.996  1.00  0.00     0.060 A 
BRANCH  93  94
ATOM     94  S   UNL A   1      52.664  26.591  30.123  1.00  0.00     0.124 S 
ATOM     95  O   UNL A   1      53.116  27.912  30.545  1.00  0.00    -0.237 OA
ATOM     96  O   UNL A   1      52.764  25.537  31.129  1.00  0.00    -0.237 OA
ATOM     97  O   UNL A   1      53.049  26.196  28.772  1.00  0.00    -0.744 OA
ENDBRANCH  93  94
ENDBRANCH  61  86
ENDBRANCH  35  36
ENDBRANCH  27  30
ENDBRANCH  25  26
ENDBRANCH   1  25
TORSDOF 18
ENDMDL
