MODEL 1
REMARK VINA RESULT:     -13.8      0.000      0.000
REMARK SMILES COc1ccc(-c2c(C(=O)NCCCCNC(=O)c3ccc(-c4c5nc(c(-c6c(F)cc(S(=O)(=O)[O-])cc6F)c6ccc([nH]6)c(-c6c(F)cc(S(=O)(=O)[O-])cc6F)c6nc(c(-c7c(F)cc(S(=O)(=O)[O-])cc7F)c7ccc4[nH]7)C=C6)C=C5)cc3)sc3c2N=C(O)C[C@H]3c2ccc(OC)c(OC)c2)cc1
REMARK SMILES IDX 14 1 13 2 12 3 11 4 9 5 10 6 8 8 7 9 87 10 85 11 86 12 88 13
REMARK SMILES IDX 92 14 89 15 91 16 6 17 3 18 4 19 104 20 5 21 103 22 2 23
REMARK SMILES IDX 1 24 93 25 94 26 102 27 95 28 99 29 96 30 100 31 101 32
REMARK SMILES IDX 97 33 98 34 90 35 15 37 16 38 17 39 18 41 19 42 20 43 84 44
REMARK SMILES IDX 21 45 83 46 22 47 23 48 24 49 77 50 25 51 82 52 76 53 78 54
REMARK SMILES IDX 26 55 81 56 75 57 74 58 27 60 61 61 40 62 60 63 41 64 44 65
REMARK SMILES IDX 59 66 79 67 42 68 43 69 58 71 80 72 45 73 28 74 29 75 38 76
REMARK SMILES IDX 30 77 31 78 37 79 39 80 32 81 33 82 34 83 35 84 36 85 62 86
REMARK SMILES IDX 63 87 72 88 64 89 65 90 71 91 73 92 66 93 67 94 68 95 69 96
REMARK SMILES IDX 70 97 46 98 47 99 56 100 48 101 49 102 55 103 57 104 50 105
REMARK SMILES IDX 51 106 52 107 53 108 54 109
REMARK H PARENT 11 7 90 36 16 40 78 59 44 70
REMARK Flexibility Score: inf
ROOT
ATOM      1  C   UNL A   1      33.452  28.377  25.640  1.00  0.00     0.023 C 
ENDROOT
BRANCH   1   2
ATOM      2  C   UNL A   1      34.377  28.369  24.423  1.00  0.00     0.023 C 
BRANCH   2   3
ATOM      3  C   UNL A   1      33.827  28.894  23.099  1.00  0.00     0.116 C 
BRANCH   3   4
ATOM      4  N   UNL A   1      33.751  27.960  22.011  1.00  0.00    -0.351 N 
ATOM      5  C   UNL A   1      33.237  26.680  21.918  1.00  0.00     0.262 C 
ATOM      6  O   UNL A   1      33.379  26.223  20.773  1.00  0.00    -0.268 OA
ATOM      7  H   UNL A   1      34.139  28.294  21.171  1.00  0.00     0.163 HD
BRANCH   5   8
ATOM      8  C   UNL A   1      32.631  25.869  23.005  1.00  0.00     0.102 A 
ATOM      9  C   UNL A   1      31.432  25.767  23.730  1.00  0.00     0.031 A 
ATOM     10  C   UNL A   1      31.482  24.733  24.724  1.00  0.00     0.090 A 
ATOM     11  S   UNL A   1      33.745  24.636  23.614  1.00  0.00    -0.131 S 
ATOM     12  C   UNL A   1      32.677  24.092  24.804  1.00  0.00     0.040 A 
ATOM     13  N   UNL A   1      30.406  24.473  25.587  1.00  0.00    -0.216 NA
ATOM     14  C   UNL A   1      33.035  23.090  25.847  1.00  0.00     0.071 C 
ATOM     15  C   UNL A   1      30.665  23.695  26.579  1.00  0.00     0.186 C 
ATOM     16  C   UNL A   1      31.984  23.080  26.969  1.00  0.00     0.111 C 
BRANCH   9  17
ATOM     17  C   UNL A   1      30.305  26.684  23.693  1.00  0.00    -0.014 A 
ATOM     18  C   UNL A   1      28.244  28.540  23.346  1.00  0.00     0.118 A 
ATOM     19  C   UNL A   1      27.955  27.206  23.668  1.00  0.00     0.047 A 
ATOM     20  C   UNL A   1      29.568  28.968  23.302  1.00  0.00     0.047 A 
ATOM     21  C   UNL A   1      28.982  26.269  23.840  1.00  0.00     0.012 A 
ATOM     22  C   UNL A   1      30.593  28.047  23.489  1.00  0.00     0.012 A 
BRANCH  18  23
ATOM     23  O   UNL A   1      27.165  29.341  23.091  1.00  0.00    -0.497 OA
ATOM     24  C   UNL A   1      27.331  30.720  23.414  1.00  0.00     0.278 C 
ENDBRANCH  18  23
ENDBRANCH   9  17
BRANCH  14  25
ATOM     25  C   UNL A   1      33.276  21.686  25.321  1.00  0.00    -0.035 A 
ATOM     26  C   UNL A   1      32.235  20.858  24.899  1.00  0.00     0.008 A 
ATOM     27  C   UNL A   1      34.590  21.178  25.315  1.00  0.00     0.054 A 
ATOM     28  C   UNL A   1      32.508  19.551  24.495  1.00  0.00     0.051 A 
ATOM     29  C   UNL A   1      34.876  19.864  24.916  1.00  0.00     0.161 A 
ATOM     30  C   UNL A   1      33.816  19.041  24.502  1.00  0.00     0.160 A 
BRANCH  29  31
ATOM     31  O   UNL A   1      36.141  19.338  24.958  1.00  0.00    -0.493 OA
ATOM     32  C   UNL A   1      37.242  20.225  24.808  1.00  0.00     0.278 C 
ENDBRANCH  29  31
BRANCH  30  33
ATOM     33  O   UNL A   1      33.864  17.727  24.115  1.00  0.00    -0.493 OA
ATOM     34  C   UNL A   1      33.842  16.728  25.123  1.00  0.00     0.278 C 
ENDBRANCH  30  33
ENDBRANCH  14  25
BRANCH  15  35
ATOM     35  O   UNL A   1      29.668  23.438  27.454  1.00  0.00    -0.496 OA
ATOM     36  H   UNL A   1      28.894  22.997  27.165  1.00  0.00     0.294 HD
ENDBRANCH  15  35
ENDBRANCH   5   8
ENDBRANCH   3   4
ENDBRANCH   2   3
ENDBRANCH   1   2
BRANCH   1  37
ATOM     37  C   UNL A   1      33.993  29.081  26.879  1.00  0.00     0.116 C 
BRANCH  37  38
ATOM     38  N   UNL A   1      34.146  30.531  26.744  1.00  0.00    -0.352 N 
ATOM     39  C   UNL A   1      35.001  31.352  27.480  1.00  0.00     0.251 C 
ATOM     40  H   UNL A   1      33.588  30.973  26.064  1.00  0.00     0.163 HD
ATOM     41  O   UNL A   1      34.815  32.544  27.586  1.00  0.00    -0.269 OA
BRANCH  39  42
ATOM     42  C   UNL A   1      36.141  30.692  28.148  1.00  0.00     0.039 A 
ATOM     43  C   UNL A   1      36.510  29.374  27.860  1.00  0.00     0.014 A 
ATOM     44  C   UNL A   1      36.935  31.505  28.941  1.00  0.00     0.014 A 
ATOM     45  C   UNL A   1      37.766  28.923  28.270  1.00  0.00     0.010 A 
ATOM     46  C   UNL A   1      38.228  31.122  29.179  1.00  0.00     0.010 A 
ATOM     47  C   UNL A   1      38.641  29.818  28.896  1.00  0.00    -0.014 A 
BRANCH  47  48
ATOM     48  C   UNL A   1      40.026  29.468  29.215  1.00  0.00     0.031 A 
ATOM     49  C   UNL A   1      40.389  29.284  30.659  1.00  0.00     0.074 A 
ATOM     50  C   UNL A   1      40.834  28.989  28.243  1.00  0.00     0.049 A 
ATOM     51  N   UNL A   1      41.353  29.838  31.325  1.00  0.00    -0.248 NA
ATOM     52  C   UNL A   1      39.549  28.400  31.484  1.00  0.00     0.031 C 
ATOM     53  C   UNL A   1      40.525  28.774  26.820  1.00  0.00     0.029 A 
ATOM     54  N   UNL A   1      42.057  28.415  28.368  1.00  0.00    -0.354 N 
ATOM     55  C   UNL A   1      41.342  29.275  32.605  1.00  0.00     0.074 A 
ATOM     56  C   UNL A   1      40.139  28.484  32.678  1.00  0.00     0.031 C 
ATOM     57  C   UNL A   1      41.391  27.879  26.304  1.00  0.00     0.029 A 
ATOM     58  C   UNL A   1      42.422  27.624  27.290  1.00  0.00     0.049 A 
ATOM     59  H   UNL A   1      42.633  28.548  29.154  1.00  0.00     0.167 HD
ATOM     60  C   UNL A   1      42.397  29.381  33.467  1.00  0.00     0.037 A 
ATOM     61  C   UNL A   1      43.478  26.781  27.226  1.00  0.00     0.037 A 
ATOM     62  C   UNL A   1      43.365  30.335  32.996  1.00  0.00     0.049 A 
ATOM     63  C   UNL A   1      44.438  27.218  28.275  1.00  0.00     0.074 A 
ATOM     64  C   UNL A   1      43.352  31.695  32.762  1.00  0.00     0.029 A 
ATOM     65  N   UNL A   1      44.476  29.853  32.344  1.00  0.00    -0.354 N 
ATOM     66  N   UNL A   1      45.046  28.376  28.264  1.00  0.00    -0.248 NA
ATOM     67  C   UNL A   1      44.380  26.565  29.574  1.00  0.00     0.031 C 
ATOM     68  C   UNL A   1      44.146  31.871  31.593  1.00  0.00     0.029 A 
ATOM     69  C   UNL A   1      44.635  30.618  31.216  1.00  0.00     0.049 A 
ATOM     70  H   UNL A   1      45.049  29.105  32.632  1.00  0.00     0.167 HD
ATOM     71  C   UNL A   1      45.080  28.782  29.592  1.00  0.00     0.074 A 
ATOM     72  C   UNL A   1      44.754  27.580  30.358  1.00  0.00     0.031 C 
ATOM     73  C   UNL A   1      45.088  30.106  29.938  1.00  0.00     0.037 A 
BRANCH  60  74
ATOM     74  C   UNL A   1      42.720  28.452  34.616  1.00  0.00     0.058 A 
ATOM     75  C   UNL A   1      42.866  28.971  35.922  1.00  0.00     0.135 A 
ATOM     76  C   UNL A   1      43.151  27.121  34.442  1.00  0.00     0.135 A 
ATOM     77  F   UNL A   1      42.486  30.228  36.206  1.00  0.00    -0.206 F 
ATOM     78  C   UNL A   1      43.467  28.249  36.957  1.00  0.00     0.059 A 
ATOM     79  C   UNL A   1      43.706  26.364  35.473  1.00  0.00     0.059 A 
ATOM     80  F   UNL A   1      43.145  26.532  33.239  1.00  0.00    -0.206 F 
ATOM     81  C   UNL A   1      43.905  26.952  36.714  1.00  0.00     0.060 A 
BRANCH  81  82
ATOM     82  S   UNL A   1      44.809  26.067  38.000  1.00  0.00     0.124 S 
ATOM     83  O   UNL A   1      46.156  26.601  37.828  1.00  0.00    -0.237 OA
ATOM     84  O   UNL A   1      44.107  26.479  39.211  1.00  0.00    -0.237 OA
ATOM     85  O   UNL A   1      44.633  24.666  37.628  1.00  0.00    -0.744 OA
ENDBRANCH  81  82
ENDBRANCH  60  74
BRANCH  61  86
ATOM     86  C   UNL A   1      43.528  25.480  26.516  1.00  0.00     0.058 A 
ATOM     87  C   UNL A   1      44.328  25.294  25.380  1.00  0.00     0.135 A 
ATOM     88  C   UNL A   1      42.958  24.312  27.074  1.00  0.00     0.135 A 
ATOM     89  F   UNL A   1      44.933  26.345  24.805  1.00  0.00    -0.206 F 
ATOM     90  C   UNL A   1      44.572  24.026  24.841  1.00  0.00     0.059 A 
ATOM     91  C   UNL A   1      43.173  23.041  26.547  1.00  0.00     0.059 A 
ATOM     92  F   UNL A   1      42.237  24.366  28.206  1.00  0.00    -0.206 F 
ATOM     93  C   UNL A   1      44.001  22.903  25.441  1.00  0.00     0.060 A 
BRANCH  93  94
ATOM     94  S   UNL A   1      44.447  21.255  24.844  1.00  0.00     0.124 S 
ATOM     95  O   UNL A   1      44.607  21.487  23.412  1.00  0.00    -0.237 OA
ATOM     96  O   UNL A   1      45.673  20.983  25.587  1.00  0.00    -0.237 OA
ATOM     97  O   UNL A   1      43.300  20.435  25.221  1.00  0.00    -0.744 OA
ENDBRANCH  93  94
ENDBRANCH  61  86
BRANCH  73  98
ATOM     98  C   UNL A   1      45.298  31.139  28.855  1.00  0.00     0.058 A 
ATOM     99  C   UNL A   1      44.245  31.762  28.163  1.00  0.00     0.135 A 
ATOM    100  C   UNL A   1      46.579  31.680  28.675  1.00  0.00     0.135 A 
ATOM    101  F   UNL A   1      42.978  31.389  28.358  1.00  0.00    -0.206 F 
ATOM    102  C   UNL A   1      44.451  32.850  27.316  1.00  0.00     0.059 A 
ATOM    103  C   UNL A   1      46.806  32.787  27.859  1.00  0.00     0.059 A 
ATOM    104  F   UNL A   1      47.620  31.179  29.361  1.00  0.00    -0.206 F 
ATOM    105  C   UNL A   1      45.737  33.366  27.177  1.00  0.00     0.060 A 
BRANCH 105 106
ATOM    106  S   UNL A   1      45.975  34.858  26.189  1.00  0.00     0.124 S 
ATOM    107  O   UNL A   1      44.999  35.771  26.774  1.00  0.00    -0.237 OA
ATOM    108  O   UNL A   1      47.377  35.186  26.436  1.00  0.00    -0.237 OA
ATOM    109  O   UNL A   1      45.681  34.415  24.828  1.00  0.00    -0.744 OA
ENDBRANCH 105 106
ENDBRANCH  73  98
ENDBRANCH  47  48
ENDBRANCH  39  42
ENDBRANCH  37  38
ENDBRANCH   1  37
TORSDOF 20
ENDMDL
MODEL 2
REMARK VINA RESULT:     -12.8      2.836      7.362
REMARK SMILES COc1ccc(-c2c(C(=O)NCCCCNC(=O)c3ccc(-c4c5nc(c(-c6c(F)cc(S(=O)(=O)[O-])cc6F)c6ccc([nH]6)c(-c6c(F)cc(S(=O)(=O)[O-])cc6F)c6nc(c(-c7c(F)cc(S(=O)(=O)[O-])cc7F)c7ccc4[nH]7)C=C6)C=C5)cc3)sc3c2N=C(O)C[C@H]3c2ccc(OC)c(OC)c2)cc1
REMARK SMILES IDX 14 1 13 2 12 3 11 4 9 5 10 6 8 8 7 9 87 10 85 11 86 12 88 13
REMARK SMILES IDX 92 14 89 15 91 16 6 17 3 18 4 19 104 20 5 21 103 22 2 23
REMARK SMILES IDX 1 24 93 25 94 26 102 27 95 28 99 29 96 30 100 31 101 32
REMARK SMILES IDX 97 33 98 34 90 35 15 37 16 38 17 39 18 41 19 42 20 43 84 44
REMARK SMILES IDX 21 45 83 46 22 47 23 48 24 49 77 50 25 51 82 52 76 53 78 54
REMARK SMILES IDX 26 55 81 56 75 57 74 58 27 60 61 61 40 62 60 63 41 64 44 65
REMARK SMILES IDX 59 66 79 67 42 68 43 69 58 71 80 72 45 73 28 74 29 75 38 76
REMARK SMILES IDX 30 77 31 78 37 79 39 80 32 81 33 82 34 83 35 84 36 85 62 86
REMARK SMILES IDX 63 87 72 88 64 89 65 90 71 91 73 92 66 93 67 94 68 95 69 96
REMARK SMILES IDX 70 97 46 98 47 99 56 100 48 101 49 102 55 103 57 104 50 105
REMARK SMILES IDX 51 106 52 107 53 108 54 109
REMARK H PARENT 11 7 90 36 16 40 78 59 44 70
REMARK Flexibility Score: inf
ROOT
ATOM      1  C   UNL A   1      33.016  29.057  26.202  1.00  0.00     0.023 C 
ENDROOT
BRANCH   1   2
ATOM      2  C   UNL A   1      33.995  28.578  25.130  1.00  0.00     0.023 C 
BRANCH   2   3
ATOM      3  C   UNL A   1      33.939  29.244  23.756  1.00  0.00     0.116 C 
BRANCH   3   4
ATOM      4  N   UNL A   1      33.966  28.377  22.612  1.00  0.00    -0.351 N 
ATOM      5  C   UNL A   1      33.462  27.107  22.395  1.00  0.00     0.262 C 
ATOM      6  O   UNL A   1      33.712  26.718  21.244  1.00  0.00    -0.268 OA
ATOM      7  H   UNL A   1      34.432  28.758  21.834  1.00  0.00     0.163 HD
BRANCH   5   8
ATOM      8  C   UNL A   1      32.756  26.237  23.370  1.00  0.00     0.102 A 
ATOM      9  C   UNL A   1      31.486  26.081  23.948  1.00  0.00     0.031 A 
ATOM     10  C   UNL A   1      31.446  25.004  24.897  1.00  0.00     0.090 A 
ATOM     11  S   UNL A   1      33.822  24.998  24.049  1.00  0.00    -0.131 S 
ATOM     12  C   UNL A   1      32.640  24.381  25.084  1.00  0.00     0.040 A 
ATOM     13  N   UNL A   1      30.286  24.686  25.619  1.00  0.00    -0.216 NA
ATOM     14  C   UNL A   1      32.900  23.339  26.117  1.00  0.00     0.071 C 
ATOM     15  C   UNL A   1      30.449  23.868  26.600  1.00  0.00     0.186 C 
ATOM     16  C   UNL A   1      31.729  23.259  27.111  1.00  0.00     0.111 C 
BRANCH   9  17
ATOM     17  C   UNL A   1      30.350  26.978  23.823  1.00  0.00    -0.014 A 
ATOM     18  C   UNL A   1      28.308  28.824  23.335  1.00  0.00     0.118 A 
ATOM     19  C   UNL A   1      28.015  27.461  23.484  1.00  0.00     0.047 A 
ATOM     20  C   UNL A   1      29.610  29.276  23.536  1.00  0.00     0.047 A 
ATOM     21  C   UNL A   1      29.033  26.529  23.724  1.00  0.00     0.012 A 
ATOM     22  C   UNL A   1      30.623  28.359  23.793  1.00  0.00     0.012 A 
BRANCH  18  23
ATOM     23  O   UNL A   1      27.256  29.628  22.991  1.00  0.00    -0.497 OA
ATOM     24  C   UNL A   1      27.564  30.702  22.105  1.00  0.00     0.278 C 
ENDBRANCH  18  23
ENDBRANCH   9  17
BRANCH  14  25
ATOM     25  C   UNL A   1      33.231  21.965  25.563  1.00  0.00    -0.035 A 
ATOM     26  C   UNL A   1      32.243  21.044  25.211  1.00  0.00     0.008 A 
ATOM     27  C   UNL A   1      34.582  21.583  25.455  1.00  0.00     0.054 A 
ATOM     28  C   UNL A   1      32.606  19.769  24.776  1.00  0.00     0.051 A 
ATOM     29  C   UNL A   1      34.960  20.302  25.024  1.00  0.00     0.161 A 
ATOM     30  C   UNL A   1      33.953  19.384  24.682  1.00  0.00     0.160 A 
BRANCH  29  31
ATOM     31  O   UNL A   1      36.268  19.896  24.968  1.00  0.00    -0.493 OA
ATOM     32  C   UNL A   1      37.265  20.882  24.732  1.00  0.00     0.278 C 
ENDBRANCH  29  31
BRANCH  30  33
ATOM     33  O   UNL A   1      34.094  18.081  24.280  1.00  0.00    -0.493 OA
ATOM     34  C   UNL A   1      33.185  17.573  23.315  1.00  0.00     0.278 C 
ENDBRANCH  30  33
ENDBRANCH  14  25
BRANCH  15  35
ATOM     35  O   UNL A   1      29.365  23.554  27.343  1.00  0.00    -0.496 OA
ATOM     36  H   UNL A   1      28.661  24.166  27.427  1.00  0.00     0.294 HD
ENDBRANCH  15  35
ENDBRANCH   5   8
ENDBRANCH   3   4
ENDBRANCH   2   3
ENDBRANCH   1   2
BRANCH   1  37
ATOM     37  C   UNL A   1      33.511  30.189  27.094  1.00  0.00     0.116 C 
BRANCH  37  38
ATOM     38  N   UNL A   1      32.841  31.474  26.884  1.00  0.00    -0.352 N 
ATOM     39  C   UNL A   1      33.044  32.649  27.610  1.00  0.00     0.251 C 
ATOM     40  H   UNL A   1      32.179  31.514  26.157  1.00  0.00     0.163 HD
ATOM     41  O   UNL A   1      32.220  33.536  27.641  1.00  0.00    -0.269 OA
BRANCH  39  42
ATOM     42  C   UNL A   1      34.310  32.752  28.363  1.00  0.00     0.039 A 
ATOM     43  C   UNL A   1      34.445  32.253  29.662  1.00  0.00     0.014 A 
ATOM     44  C   UNL A   1      35.407  33.208  27.649  1.00  0.00     0.014 A 
ATOM     45  C   UNL A   1      35.728  32.089  30.189  1.00  0.00     0.010 A 
ATOM     46  C   UNL A   1      36.658  32.876  28.094  1.00  0.00     0.010 A 
ATOM     47  C   UNL A   1      36.837  32.365  29.382  1.00  0.00    -0.014 A 
BRANCH  47  48
ATOM     48  C   UNL A   1      38.207  32.071  29.804  1.00  0.00     0.031 A 
ATOM     49  C   UNL A   1      38.758  30.709  29.504  1.00  0.00     0.074 A 
ATOM     50  C   UNL A   1      39.040  33.087  30.120  1.00  0.00     0.049 A 
ATOM     51  N   UNL A   1      39.315  29.867  30.317  1.00  0.00    -0.248 NA
ATOM     52  C   UNL A   1      38.639  30.193  28.129  1.00  0.00     0.031 C 
ATOM     53  C   UNL A   1      38.758  34.532  30.130  1.00  0.00     0.029 A 
ATOM     54  N   UNL A   1      40.381  33.050  30.322  1.00  0.00    -0.354 N 
ATOM     55  C   UNL A   1      39.750  28.783  29.549  1.00  0.00     0.074 A 
ATOM     56  C   UNL A   1      39.202  28.987  28.231  1.00  0.00     0.031 C 
ATOM     57  C   UNL A   1      39.916  35.216  30.037  1.00  0.00     0.029 A 
ATOM     58  C   UNL A   1      41.010  34.275  30.170  1.00  0.00     0.049 A 
ATOM     59  H   UNL A   1      40.864  32.225  30.555  1.00  0.00     0.167 HD
ATOM     60  C   UNL A   1      40.651  27.865  30.010  1.00  0.00     0.037 A 
ATOM     61  C   UNL A   1      42.343  34.498  30.112  1.00  0.00     0.037 A 
ATOM     62  C   UNL A   1      40.873  28.014  31.424  1.00  0.00     0.049 A 
ATOM     63  C   UNL A   1      43.002  33.319  30.737  1.00  0.00     0.074 A 
ATOM     64  C   UNL A   1      40.084  27.883  32.549  1.00  0.00     0.029 A 
ATOM     65  N   UNL A   1      41.990  28.705  31.829  1.00  0.00    -0.354 N 
ATOM     66  N   UNL A   1      42.860  32.992  31.994  1.00  0.00    -0.248 NA
ATOM     67  C   UNL A   1      43.450  32.243  29.866  1.00  0.00     0.031 C 
ATOM     68  C   UNL A   1      40.521  28.918  33.424  1.00  0.00     0.029 A 
ATOM     69  C   UNL A   1      41.582  29.582  32.802  1.00  0.00     0.049 A 
ATOM     70  H   UNL A   1      42.908  28.592  31.488  1.00  0.00     0.167 HD
ATOM     71  C   UNL A   1      42.799  31.604  32.005  1.00  0.00     0.074 A 
ATOM     72  C   UNL A   1      43.276  31.199  30.683  1.00  0.00     0.031 C 
ATOM     73  C   UNL A   1      42.108  30.922  32.969  1.00  0.00     0.037 A 
BRANCH  60  74
ATOM     74  C   UNL A   1      41.551  26.984  29.173  1.00  0.00     0.058 A 
ATOM     75  C   UNL A   1      42.801  27.471  28.732  1.00  0.00     0.135 A 
ATOM     76  C   UNL A   1      41.119  25.786  28.567  1.00  0.00     0.135 A 
ATOM     77  F   UNL A   1      43.314  28.603  29.241  1.00  0.00    -0.206 F 
ATOM     78  C   UNL A   1      43.531  26.856  27.711  1.00  0.00     0.059 A 
ATOM     79  C   UNL A   1      41.856  25.127  27.584  1.00  0.00     0.059 A 
ATOM     80  F   UNL A   1      39.918  25.257  28.832  1.00  0.00    -0.206 F 
ATOM     81  C   UNL A   1      43.037  25.694  27.127  1.00  0.00     0.060 A 
BRANCH  81  82
ATOM     82  S   UNL A   1      43.899  24.976  25.715  1.00  0.00     0.124 S 
ATOM     83  O   UNL A   1      44.342  26.172  25.007  1.00  0.00    -0.237 OA
ATOM     84  O   UNL A   1      44.947  24.190  26.360  1.00  0.00    -0.237 OA
ATOM     85  O   UNL A   1      42.860  24.196  25.051  1.00  0.00    -0.744 OA
ENDBRANCH  81  82
ENDBRANCH  60  74
BRANCH  61  86
ATOM     86  C   UNL A   1      43.034  35.521  29.289  1.00  0.00     0.058 A 
ATOM     87  C   UNL A   1      43.635  36.646  29.870  1.00  0.00     0.135 A 
ATOM     88  C   UNL A   1      43.315  35.300  27.921  1.00  0.00     0.135 A 
ATOM     89  F   UNL A   1      43.447  36.913  31.171  1.00  0.00    -0.206 F 
ATOM     90  C   UNL A   1      44.486  37.491  29.147  1.00  0.00     0.059 A 
ATOM     91  C   UNL A   1      44.145  36.134  27.176  1.00  0.00     0.059 A 
ATOM     92  F   UNL A   1      42.851  34.211  27.286  1.00  0.00    -0.206 F 
ATOM     93  C   UNL A   1      44.746  37.218  27.804  1.00  0.00     0.060 A 
BRANCH  93  94
ATOM     94  S   UNL A   1      45.970  38.212  26.918  1.00  0.00     0.124 S 
ATOM     95  O   UNL A   1      46.806  38.702  28.009  1.00  0.00    -0.237 OA
ATOM     96  O   UNL A   1      46.586  37.224  26.038  1.00  0.00    -0.237 OA
ATOM     97  O   UNL A   1      45.162  39.224  26.244  1.00  0.00    -0.744 OA
ENDBRANCH  93  94
ENDBRANCH  61  86
BRANCH  73  98
ATOM     98  C   UNL A   1      41.597  31.682  34.171  1.00  0.00     0.058 A 
ATOM     99  C   UNL A   1      40.306  32.233  34.249  1.00  0.00     0.135 A 
ATOM    100  C   UNL A   1      42.344  31.652  35.358  1.00  0.00     0.135 A 
ATOM    101  F   UNL A   1      39.481  32.203  33.200  1.00  0.00    -0.206 F 
ATOM    102  C   UNL A   1      39.787  32.752  35.435  1.00  0.00     0.059 A 
ATOM    103  C   UNL A   1      41.835  32.135  36.563  1.00  0.00     0.059 A 
ATOM    104  F   UNL A   1      43.557  31.075  35.372  1.00  0.00    -0.206 F 
ATOM    105  C   UNL A   1      40.556  32.689  36.594  1.00  0.00     0.060 A 
BRANCH 105 106
ATOM    106  S   UNL A   1      39.828  33.235  38.153  1.00  0.00     0.124 S 
ATOM    107  O   UNL A   1      38.445  32.791  38.017  1.00  0.00    -0.237 OA
ATOM    108  O   UNL A   1      40.627  32.523  39.147  1.00  0.00    -0.237 OA
ATOM    109  O   UNL A   1      40.026  34.683  38.132  1.00  0.00    -0.744 OA
ENDBRANCH 105 106
ENDBRANCH  73  98
ENDBRANCH  47  48
ENDBRANCH  39  42
ENDBRANCH  37  38
ENDBRANCH   1  37
TORSDOF 20
ENDMDL
MODEL 3
REMARK VINA RESULT:     -12.4      1.693      2.781
REMARK SMILES COc1ccc(-c2c(C(=O)NCCCCNC(=O)c3ccc(-c4c5nc(c(-c6c(F)cc(S(=O)(=O)[O-])cc6F)c6ccc([nH]6)c(-c6c(F)cc(S(=O)(=O)[O-])cc6F)c6nc(c(-c7c(F)cc(S(=O)(=O)[O-])cc7F)c7ccc4[nH]7)C=C6)C=C5)cc3)sc3c2N=C(O)C[C@H]3c2ccc(OC)c(OC)c2)cc1
REMARK SMILES IDX 14 1 13 2 12 3 11 4 9 5 10 6 8 8 7 9 87 10 85 11 86 12 88 13
REMARK SMILES IDX 92 14 89 15 91 16 6 17 3 18 4 19 104 20 5 21 103 22 2 23
REMARK SMILES IDX 1 24 93 25 94 26 102 27 95 28 99 29 96 30 100 31 101 32
REMARK SMILES IDX 97 33 98 34 90 35 15 37 16 38 17 39 18 41 19 42 20 43 84 44
REMARK SMILES IDX 21 45 83 46 22 47 23 48 24 49 77 50 25 51 82 52 76 53 78 54
REMARK SMILES IDX 26 55 81 56 75 57 74 58 27 60 61 61 40 62 60 63 41 64 44 65
REMARK SMILES IDX 59 66 79 67 42 68 43 69 58 71 80 72 45 73 28 74 29 75 38 76
REMARK SMILES IDX 30 77 31 78 37 79 39 80 32 81 33 82 34 83 35 84 36 85 62 86
REMARK SMILES IDX 63 87 72 88 64 89 65 90 71 91 73 92 66 93 67 94 68 95 69 96
REMARK SMILES IDX 70 97 46 98 47 99 56 100 48 101 49 102 55 103 57 104 50 105
REMARK SMILES IDX 51 106 52 107 53 108 54 109
REMARK H PARENT 11 7 90 36 16 40 78 59 44 70
REMARK Flexibility Score: inf
ROOT
ATOM      1  C   UNL A   1      34.847  29.635  27.600  1.00  0.00     0.023 C 
ENDROOT
BRANCH   1   2
ATOM      2  C   UNL A   1      34.030  29.449  26.322  1.00  0.00     0.023 C 
BRANCH   2   3
ATOM      3  C   UNL A   1      32.528  29.722  26.383  1.00  0.00     0.116 C 
BRANCH   3   4
ATOM      4  N   UNL A   1      31.721  28.765  27.084  1.00  0.00    -0.351 N 
ATOM      5  C   UNL A   1      31.441  27.432  26.846  1.00  0.00     0.262 C 
ATOM      6  O   UNL A   1      30.683  26.972  27.713  1.00  0.00    -0.268 OA
ATOM      7  H   UNL A   1      31.282  29.125  27.888  1.00  0.00     0.163 HD
BRANCH   5   8
ATOM      8  C   UNL A   1      31.898  26.604  25.700  1.00  0.00     0.102 A 
ATOM      9  C   UNL A   1      31.956  26.649  24.297  1.00  0.00     0.031 A 
ATOM     10  C   UNL A   1      32.524  25.456  23.736  1.00  0.00     0.090 A 
ATOM     11  S   UNL A   1      32.582  25.059  26.227  1.00  0.00    -0.131 S 
ATOM     12  C   UNL A   1      32.848  24.507  24.653  1.00  0.00     0.040 A 
ATOM     13  N   UNL A   1      32.652  25.268  22.352  1.00  0.00    -0.216 NA
ATOM     14  C   UNL A   1      33.310  23.129  24.322  1.00  0.00     0.071 C 
ATOM     15  C   UNL A   1      32.948  24.073  21.977  1.00  0.00     0.186 C 
ATOM     16  C   UNL A   1      33.110  22.838  22.825  1.00  0.00     0.111 C 
BRANCH   9  17
ATOM     17  C   UNL A   1      31.353  27.643  23.426  1.00  0.00    -0.014 A 
ATOM     18  C   UNL A   1      30.009  29.631  21.991  1.00  0.00     0.118 A 
ATOM     19  C   UNL A   1      31.410  29.614  22.043  1.00  0.00     0.047 A 
ATOM     20  C   UNL A   1      29.284  28.592  22.569  1.00  0.00     0.047 A 
ATOM     21  C   UNL A   1      32.091  28.624  22.764  1.00  0.00     0.012 A 
ATOM     22  C   UNL A   1      29.954  27.596  23.271  1.00  0.00     0.012 A 
BRANCH  18  23
ATOM     23  O   UNL A   1      29.447  30.703  21.355  1.00  0.00    -0.497 OA
ATOM     24  C   UNL A   1      28.030  30.659  21.206  1.00  0.00     0.278 C 
ENDBRANCH  18  23
ENDBRANCH   9  17
BRANCH  14  25
ATOM     25  C   UNL A   1      34.733  22.818  24.748  1.00  0.00    -0.035 A 
ATOM     26  C   UNL A   1      35.653  23.819  25.065  1.00  0.00     0.008 A 
ATOM     27  C   UNL A   1      35.160  21.476  24.766  1.00  0.00     0.054 A 
ATOM     28  C   UNL A   1      36.969  23.477  25.378  1.00  0.00     0.051 A 
ATOM     29  C   UNL A   1      36.482  21.121  25.074  1.00  0.00     0.161 A 
ATOM     30  C   UNL A   1      37.397  22.141  25.382  1.00  0.00     0.160 A 
BRANCH  29  31
ATOM     31  O   UNL A   1      36.926  19.825  25.041  1.00  0.00    -0.493 OA
ATOM     32  C   UNL A   1      35.982  18.800  24.756  1.00  0.00     0.278 C 
ENDBRANCH  29  31
BRANCH  30  33
ATOM     33  O   UNL A   1      38.733  22.024  25.670  1.00  0.00    -0.493 OA
ATOM     34  C   UNL A   1      39.324  22.994  26.519  1.00  0.00     0.278 C 
ENDBRANCH  30  33
ENDBRANCH  14  25
BRANCH  15  35
ATOM     35  O   UNL A   1      33.053  23.836  20.651  1.00  0.00    -0.496 OA
ATOM     36  H   UNL A   1      32.697  23.050  20.286  1.00  0.00     0.294 HD
ENDBRANCH  15  35
ENDBRANCH   5   8
ENDBRANCH   3   4
ENDBRANCH   2   3
ENDBRANCH   1   2
BRANCH   1  37
ATOM     37  C   UNL A   1      35.528  30.990  27.760  1.00  0.00     0.116 C 
BRANCH  37  38
ATOM     38  N   UNL A   1      34.870  31.900  28.700  1.00  0.00    -0.352 N 
ATOM     39  C   UNL A   1      35.096  31.985  30.075  1.00  0.00     0.251 C 
ATOM     40  H   UNL A   1      34.200  32.515  28.325  1.00  0.00     0.163 HD
ATOM     41  O   UNL A   1      34.283  32.469  30.832  1.00  0.00    -0.269 OA
BRANCH  39  42
ATOM     42  C   UNL A   1      36.372  31.433  30.573  1.00  0.00     0.039 A 
ATOM     43  C   UNL A   1      36.605  30.057  30.652  1.00  0.00     0.014 A 
ATOM     44  C   UNL A   1      37.390  32.350  30.787  1.00  0.00     0.014 A 
ATOM     45  C   UNL A   1      37.918  29.606  30.815  1.00  0.00     0.010 A 
ATOM     46  C   UNL A   1      38.683  31.905  30.762  1.00  0.00     0.010 A 
ATOM     47  C   UNL A   1      38.962  30.537  30.829  1.00  0.00    -0.014 A 
BRANCH  47  48
ATOM     48  C   UNL A   1      40.370  30.138  30.839  1.00  0.00     0.031 A 
ATOM     49  C   UNL A   1      41.006  29.842  32.165  1.00  0.00     0.074 A 
ATOM     50  C   UNL A   1      40.952  29.715  29.696  1.00  0.00     0.049 A 
ATOM     51  N   UNL A   1      42.101  30.327  32.661  1.00  0.00    -0.248 NA
ATOM     52  C   UNL A   1      40.316  28.917  33.081  1.00  0.00     0.031 C 
ATOM     53  C   UNL A   1      40.360  29.610  28.352  1.00  0.00     0.029 A 
ATOM     54  N   UNL A   1      42.155  29.109  29.533  1.00  0.00    -0.354 N 
ATOM     55  C   UNL A   1      42.325  29.672  33.876  1.00  0.00     0.074 A 
ATOM     56  C   UNL A   1      41.134  28.903  34.136  1.00  0.00     0.031 C 
ATOM     57  C   UNL A   1      41.075  28.738  27.614  1.00  0.00     0.029 A 
ATOM     58  C   UNL A   1      42.272  28.391  28.354  1.00  0.00     0.049 A 
ATOM     59  H   UNL A   1      42.880  29.173  30.196  1.00  0.00     0.167 HD
ATOM     60  C   UNL A   1      43.533  29.694  34.514  1.00  0.00     0.037 A 
ATOM     61  C   UNL A   1      43.265  27.534  28.023  1.00  0.00     0.037 A 
ATOM     62  C   UNL A   1      44.421  30.660  33.924  1.00  0.00     0.049 A 
ATOM     63  C   UNL A   1      44.428  27.875  28.885  1.00  0.00     0.074 A 
ATOM     64  C   UNL A   1      44.407  32.034  33.789  1.00  0.00     0.029 A 
ATOM     65  N   UNL A   1      45.363  30.206  33.032  1.00  0.00    -0.354 N 
ATOM     66  N   UNL A   1      45.061  29.018  28.830  1.00  0.00    -0.248 NA
ATOM     67  C   UNL A   1      44.607  27.130  30.122  1.00  0.00     0.031 C 
ATOM     68  C   UNL A   1      44.959  32.279  32.499  1.00  0.00     0.029 A 
ATOM     69  C   UNL A   1      45.321  31.047  31.949  1.00  0.00     0.049 A 
ATOM     70  H   UNL A   1      45.956  29.427  33.148  1.00  0.00     0.167 HD
ATOM     71  C   UNL A   1      45.371  29.326  30.149  1.00  0.00     0.074 A 
ATOM     72  C   UNL A   1      45.164  28.078  30.882  1.00  0.00     0.031 C 
ATOM     73  C   UNL A   1      45.493  30.620  30.575  1.00  0.00     0.037 A 
BRANCH  60  74
ATOM     74  C   UNL A   1      44.045  28.678  35.510  1.00  0.00     0.058 A 
ATOM     75  C   UNL A   1      44.432  29.093  36.804  1.00  0.00     0.135 A 
ATOM     76  C   UNL A   1      44.421  27.366  35.158  1.00  0.00     0.135 A 
ATOM     77  F   UNL A   1      44.126  30.323  37.249  1.00  0.00    -0.206 F 
ATOM     78  C   UNL A   1      45.201  28.292  37.654  1.00  0.00     0.059 A 
ATOM     79  C   UNL A   1      45.143  26.530  36.010  1.00  0.00     0.059 A 
ATOM     80  F   UNL A   1      44.190  26.873  33.934  1.00  0.00    -0.206 F 
ATOM     81  C   UNL A   1      45.570  27.019  37.236  1.00  0.00     0.060 A 
BRANCH  81  82
ATOM     82  S   UNL A   1      46.679  26.036  38.264  1.00  0.00     0.124 S 
ATOM     83  O   UNL A   1      47.372  25.235  37.260  1.00  0.00    -0.237 OA
ATOM     84  O   UNL A   1      47.479  27.062  38.926  1.00  0.00    -0.237 OA
ATOM     85  O   UNL A   1      45.766  25.304  39.136  1.00  0.00    -0.744 OA
ENDBRANCH  81  82
ENDBRANCH  60  74
BRANCH  61  86
ATOM     86  C   UNL A   1      43.129  26.287  27.231  1.00  0.00     0.058 A 
ATOM     87  C   UNL A   1      43.656  26.179  25.937  1.00  0.00     0.135 A 
ATOM     88  C   UNL A   1      42.669  25.087  27.820  1.00  0.00     0.135 A 
ATOM     89  F   UNL A   1      44.143  27.264  25.317  1.00  0.00    -0.206 F 
ATOM     90  C   UNL A   1      43.747  24.951  25.271  1.00  0.00     0.059 A 
ATOM     91  C   UNL A   1      42.734  23.855  27.172  1.00  0.00     0.059 A 
ATOM     92  F   UNL A   1      42.215  25.064  29.083  1.00  0.00    -0.206 F 
ATOM     93  C   UNL A   1      43.296  23.792  25.903  1.00  0.00     0.060 A 
BRANCH  93  94
ATOM     94  S   UNL A   1      43.563  22.189  25.111  1.00  0.00     0.124 S 
ATOM     95  O   UNL A   1      43.635  22.558  23.701  1.00  0.00    -0.237 OA
ATOM     96  O   UNL A   1      44.816  21.752  25.719  1.00  0.00    -0.237 OA
ATOM     97  O   UNL A   1      42.385  21.418  25.497  1.00  0.00    -0.744 OA
ENDBRANCH  93  94
ENDBRANCH  61  86
BRANCH  73  98
ATOM     98  C   UNL A   1      45.520  31.725  29.544  1.00  0.00     0.058 A 
ATOM     99  C   UNL A   1      46.670  32.081  28.817  1.00  0.00     0.135 A 
ATOM    100  C   UNL A   1      44.305  32.280  29.115  1.00  0.00     0.135 A 
ATOM    101  F   UNL A   1      47.851  31.518  29.080  1.00  0.00    -0.206 F 
ATOM    102  C   UNL A   1      46.626  32.960  27.736  1.00  0.00     0.059 A 
ATOM    103  C   UNL A   1      44.231  33.136  28.017  1.00  0.00     0.059 A 
ATOM    104  F   UNL A   1      43.158  31.928  29.718  1.00  0.00    -0.206 F 
ATOM    105  C   UNL A   1      45.397  33.476  27.334  1.00  0.00     0.060 A 
BRANCH 105 106
ATOM    106  S   UNL A   1      45.327  34.503  25.850  1.00  0.00     0.124 S 
ATOM    107  O   UNL A   1      45.119  35.834  26.409  1.00  0.00    -0.237 OA
ATOM    108  O   UNL A   1      46.632  34.270  25.236  1.00  0.00    -0.237 OA
ATOM    109  O   UNL A   1      44.195  33.951  25.109  1.00  0.00    -0.744 OA
ENDBRANCH 105 106
ENDBRANCH  73  98
ENDBRANCH  47  48
ENDBRANCH  39  42
ENDBRANCH  37  38
ENDBRANCH   1  37
TORSDOF 20
ENDMDL
