MODEL 1
REMARK VINA RESULT:     -11.3      0.000      0.000
REMARK SMILES CN(C)Nc1ncnc(Nc2ccc(C(=O)NCCCCNC(=O)c3ccc(-c4c5nc(c(-c6c(F)cc(S(=O)(=O)[O-])cc6F)c6ccc([nH]6)c(-c6c(F)cc(S(=O)(=O)[O-])cc6F)c6nc(c(-c7c(F)cc(S(=O)(=O)[O-])cc7F)c7ccc4[nH]7)C=C6)C=C5)cc3)cc2)c1[N+](=O)[O-]
REMARK SMILES IDX 19 1 18 2 17 3 15 4 16 5 14 7 11 8 12 9 92 10 13 11 91 12
REMARK SMILES IDX 10 13 9 15 5 16 6 17 93 18 7 19 8 20 4 21 2 23 1 24 3 25
REMARK SMILES IDX 94 26 95 27 96 28 20 29 21 30 22 31 23 32 24 34 25 35 26 36
REMARK SMILES IDX 90 37 27 38 89 39 28 40 29 41 30 42 83 43 31 44 88 45 82 46
REMARK SMILES IDX 84 47 32 48 87 49 81 50 80 51 33 53 67 54 46 55 66 56 47 57
REMARK SMILES IDX 50 58 65 59 85 60 48 61 49 62 64 64 86 65 51 66 34 67 35 68
REMARK SMILES IDX 44 69 36 70 37 71 43 72 45 73 38 74 39 75 40 76 41 77 42 78
REMARK SMILES IDX 68 79 69 80 78 81 70 82 71 83 77 84 79 85 72 86 73 87 74 88
REMARK SMILES IDX 75 89 76 90 52 91 53 92 62 93 54 94 55 95 61 96 63 97 56 98
REMARK SMILES IDX 57 99 58 100 59 101 60 102
REMARK H PARENT 17 6 10 14 4 22 22 33 84 52 50 63
REMARK Flexibility Score: inf
ROOT
ATOM      1  C   UNL A   1      35.610  21.663  25.656  1.00  0.00     0.023 C 
ENDROOT
BRANCH   1   2
ATOM      2  C   UNL A   1      34.440  21.408  26.610  1.00  0.00     0.116 C 
BRANCH   2   3
ATOM      3  N   UNL A   1      33.535  20.418  26.055  1.00  0.00    -0.352 N 
ATOM      4  C   UNL A   1      32.554  20.496  25.100  1.00  0.00     0.251 C 
ATOM      5  O   UNL A   1      31.958  19.461  24.803  1.00  0.00    -0.269 OA
ATOM      6  H   UNL A   1      33.648  19.518  26.438  1.00  0.00     0.163 HD
BRANCH   4   7
ATOM      7  C   UNL A   1      32.220  21.749  24.368  1.00  0.00     0.039 A 
ATOM      8  C   UNL A   1      31.824  24.126  22.897  1.00  0.00     0.040 A 
ATOM      9  C   UNL A   1      32.585  23.090  22.362  1.00  0.00     0.027 A 
ATOM     10  C   UNL A   1      31.165  23.916  24.115  1.00  0.00     0.027 A 
ATOM     11  C   UNL A   1      32.799  21.920  23.099  1.00  0.00     0.016 A 
ATOM     12  C   UNL A   1      31.348  22.732  24.837  1.00  0.00     0.016 A 
BRANCH   8  13
ATOM     13  N   UNL A   1      31.646  25.321  22.172  1.00  0.00    -0.334 N 
ATOM     14  H   UNL A   1      31.042  25.302  21.395  1.00  0.00     0.168 HD
BRANCH  13  15
ATOM     15  C   UNL A   1      32.278  26.541  22.490  1.00  0.00     0.215 A 
ATOM     16  C   UNL A   1      32.491  28.593  23.668  1.00  0.00     0.225 A 
ATOM     17  N   UNL A   1      33.628  28.875  22.996  1.00  0.00    -0.212 NA
ATOM     18  C   UNL A   1      31.743  27.471  23.366  1.00  0.00     0.354 A 
ATOM     19  C   UNL A   1      34.042  27.973  22.105  1.00  0.00     0.227 A 
ATOM     20  N   UNL A   1      33.440  26.811  21.852  1.00  0.00    -0.212 NA
BRANCH  16  21
ATOM     21  N   UNL A   1      32.283  29.474  24.734  1.00  0.00    -0.298 N 
ATOM     22  H   UNL A   1      31.449  29.995  24.738  1.00  0.00     0.184 HD
BRANCH  21  23
ATOM     23  N   UNL A   1      33.187  29.673  25.812  1.00  0.00    -0.228 NA
ATOM     24  C   UNL A   1      32.680  30.671  26.772  1.00  0.00     0.130 C 
ATOM     25  C   UNL A   1      33.295  28.383  26.521  1.00  0.00     0.130 C 
ENDBRANCH  21  23
ENDBRANCH  16  21
BRANCH  18  26
ATOM     26  N   UNL A   1      30.435  27.284  23.913  1.00  0.00     0.070 N 
ATOM     27  O   UNL A   1      29.478  27.360  23.123  1.00  0.00    -0.258 OA
ATOM     28  O   UNL A   1      30.333  27.166  25.142  1.00  0.00    -0.258 OA
ENDBRANCH  18  26
ENDBRANCH  13  15
ENDBRANCH   8  13
ENDBRANCH   4   7
ENDBRANCH   2   3
ENDBRANCH   1   2
BRANCH   1  29
ATOM     29  C   UNL A   1      35.664  23.088  25.095  1.00  0.00     0.023 C 
BRANCH  29  30
ATOM     30  C   UNL A   1      37.058  23.704  25.023  1.00  0.00     0.116 C 
BRANCH  30  31
ATOM     31  N   UNL A   1      38.120  22.745  25.288  1.00  0.00    -0.352 N 
ATOM     32  C   UNL A   1      39.264  22.919  26.034  1.00  0.00     0.251 C 
ATOM     33  H   UNL A   1      38.005  21.856  24.881  1.00  0.00     0.163 HD
ATOM     34  O   UNL A   1      40.115  22.041  26.073  1.00  0.00    -0.269 OA
BRANCH  32  35
ATOM     35  C   UNL A   1      39.467  24.197  26.748  1.00  0.00     0.039 A 
ATOM     36  C   UNL A   1      38.894  24.362  28.010  1.00  0.00     0.014 A 
ATOM     37  C   UNL A   1      40.262  25.204  26.191  1.00  0.00     0.014 A 
ATOM     38  C   UNL A   1      39.182  25.509  28.752  1.00  0.00     0.010 A 
ATOM     39  C   UNL A   1      40.592  26.319  26.954  1.00  0.00     0.010 A 
ATOM     40  C   UNL A   1      40.066  26.476  28.246  1.00  0.00    -0.014 A 
BRANCH  40  41
ATOM     41  C   UNL A   1      40.484  27.641  29.065  1.00  0.00     0.031 A 
ATOM     42  C   UNL A   1      41.772  27.602  29.835  1.00  0.00     0.074 A 
ATOM     43  C   UNL A   1      39.657  28.701  29.178  1.00  0.00     0.049 A 
ATOM     44  N   UNL A   1      42.258  28.477  30.676  1.00  0.00    -0.248 NA
ATOM     45  C   UNL A   1      42.615  26.408  29.655  1.00  0.00     0.031 C 
ATOM     46  C   UNL A   1      38.356  28.833  28.516  1.00  0.00     0.029 A 
ATOM     47  N   UNL A   1      39.779  29.859  29.902  1.00  0.00    -0.354 N 
ATOM     48  C   UNL A   1      43.452  27.938  31.137  1.00  0.00     0.074 A 
ATOM     49  C   UNL A   1      43.597  26.639  30.514  1.00  0.00     0.031 C 
ATOM     50  C   UNL A   1      37.807  30.011  28.855  1.00  0.00     0.029 A 
ATOM     51  C   UNL A   1      38.698  30.702  29.784  1.00  0.00     0.049 A 
ATOM     52  H   UNL A   1      40.566  30.068  30.456  1.00  0.00     0.167 HD
ATOM     53  C   UNL A   1      44.354  28.484  31.987  1.00  0.00     0.037 A 
ATOM     54  C   UNL A   1      38.447  31.890  30.366  1.00  0.00     0.037 A 
ATOM     55  C   UNL A   1      44.216  29.786  32.583  1.00  0.00     0.049 A 
ATOM     56  C   UNL A   1      39.465  32.476  31.305  1.00  0.00     0.074 A 
ATOM     57  C   UNL A   1      45.105  30.454  33.408  1.00  0.00     0.029 A 
ATOM     58  N   UNL A   1      43.119  30.620  32.420  1.00  0.00    -0.354 N 
ATOM     59  N   UNL A   1      40.618  31.978  31.683  1.00  0.00    -0.248 NA
ATOM     60  C   UNL A   1      39.150  33.784  31.897  1.00  0.00     0.031 C 
ATOM     61  C   UNL A   1      44.529  31.677  33.770  1.00  0.00     0.029 A 
ATOM     62  C   UNL A   1      43.299  31.788  33.142  1.00  0.00     0.049 A 
ATOM     63  H   UNL A   1      42.328  30.412  31.872  1.00  0.00     0.167 HD
ATOM     64  C   UNL A   1      41.176  32.921  32.540  1.00  0.00     0.074 A 
ATOM     65  C   UNL A   1      40.238  34.023  32.616  1.00  0.00     0.031 C 
ATOM     66  C   UNL A   1      42.357  32.877  33.203  1.00  0.00     0.037 A 
BRANCH  53  67
ATOM     67  C   UNL A   1      45.576  27.673  32.316  1.00  0.00     0.058 A 
ATOM     68  C   UNL A   1      46.747  27.767  31.547  1.00  0.00     0.135 A 
ATOM     69  C   UNL A   1      45.588  26.815  33.427  1.00  0.00     0.135 A 
ATOM     70  F   UNL A   1      46.784  28.562  30.467  1.00  0.00    -0.206 F 
ATOM     71  C   UNL A   1      47.878  27.016  31.850  1.00  0.00     0.059 A 
ATOM     72  C   UNL A   1      46.716  26.072  33.762  1.00  0.00     0.059 A 
ATOM     73  F   UNL A   1      44.495  26.687  34.194  1.00  0.00    -0.206 F 
ATOM     74  C   UNL A   1      47.851  26.168  32.958  1.00  0.00     0.060 A 
BRANCH  74  75
ATOM     75  S   UNL A   1      49.325  25.197  33.337  1.00  0.00     0.124 S 
ATOM     76  O   UNL A   1      48.751  24.074  34.073  1.00  0.00    -0.237 OA
ATOM     77  O   UNL A   1      49.845  24.884  32.010  1.00  0.00    -0.237 OA
ATOM     78  O   UNL A   1      50.141  26.113  34.127  1.00  0.00    -0.744 OA
ENDBRANCH  74  75
ENDBRANCH  53  67
BRANCH  54  79
ATOM     79  C   UNL A   1      37.186  32.613  30.061  1.00  0.00     0.058 A 
ATOM     80  C   UNL A   1      36.019  32.364  30.798  1.00  0.00     0.135 A 
ATOM     81  C   UNL A   1      37.125  33.579  29.045  1.00  0.00     0.135 A 
ATOM     82  F   UNL A   1      36.028  31.446  31.776  1.00  0.00    -0.206 F 
ATOM     83  C   UNL A   1      34.831  33.036  30.532  1.00  0.00     0.059 A 
ATOM     84  C   UNL A   1      35.954  34.280  28.773  1.00  0.00     0.059 A 
ATOM     85  F   UNL A   1      38.220  33.865  28.323  1.00  0.00    -0.206 F 
ATOM     86  C   UNL A   1      34.810  33.995  29.516  1.00  0.00     0.060 A 
BRANCH  86  87
ATOM     87  S   UNL A   1      33.277  34.902  29.214  1.00  0.00     0.124 S 
ATOM     88  O   UNL A   1      32.632  34.062  28.211  1.00  0.00    -0.237 OA
ATOM     89  O   UNL A   1      32.658  34.910  30.535  1.00  0.00    -0.237 OA
ATOM     90  O   UNL A   1      33.746  36.202  28.743  1.00  0.00    -0.744 OA
ENDBRANCH  86  87
ENDBRANCH  54  79
BRANCH  66  91
ATOM     91  C   UNL A   1      42.718  34.063  34.051  1.00  0.00     0.058 A 
ATOM     92  C   UNL A   1      42.434  34.095  35.424  1.00  0.00     0.135 A 
ATOM     93  C   UNL A   1      43.409  35.152  33.495  1.00  0.00     0.135 A 
ATOM     94  F   UNL A   1      41.767  33.083  36.001  1.00  0.00    -0.206 F 
ATOM     95  C   UNL A   1      42.813  35.174  36.218  1.00  0.00     0.059 A 
ATOM     96  C   UNL A   1      43.816  36.230  34.274  1.00  0.00     0.059 A 
ATOM     97  F   UNL A   1      43.710  35.164  32.187  1.00  0.00    -0.206 F 
ATOM     98  C   UNL A   1      43.507  36.235  35.634  1.00  0.00     0.060 A 
BRANCH  98  99
ATOM     99  S   UNL A   1      44.036  37.607  36.682  1.00  0.00     0.124 S 
ATOM    100  O   UNL A   1      45.379  37.182  37.065  1.00  0.00    -0.237 OA
ATOM    101  O   UNL A   1      43.967  38.744  35.769  1.00  0.00    -0.237 OA
ATOM    102  O   UNL A   1      43.048  37.613  37.756  1.00  0.00    -0.744 OA
ENDBRANCH  98  99
ENDBRANCH  66  91
ENDBRANCH  40  41
ENDBRANCH  32  35
ENDBRANCH  30  31
ENDBRANCH  29  30
ENDBRANCH   1  29
TORSDOF 19
ENDMDL
MODEL 2
REMARK VINA RESULT:     -10.7      4.757     11.769
REMARK SMILES CN(C)Nc1ncnc(Nc2ccc(C(=O)NCCCCNC(=O)c3ccc(-c4c5nc(c(-c6c(F)cc(S(=O)(=O)[O-])cc6F)c6ccc([nH]6)c(-c6c(F)cc(S(=O)(=O)[O-])cc6F)c6nc(c(-c7c(F)cc(S(=O)(=O)[O-])cc7F)c7ccc4[nH]7)C=C6)C=C5)cc3)cc2)c1[N+](=O)[O-]
REMARK SMILES IDX 19 1 18 2 17 3 15 4 16 5 14 7 11 8 12 9 92 10 13 11 91 12
REMARK SMILES IDX 10 13 9 15 5 16 6 17 93 18 7 19 8 20 4 21 2 23 1 24 3 25
REMARK SMILES IDX 94 26 95 27 96 28 20 29 21 30 22 31 23 32 24 34 25 35 26 36
REMARK SMILES IDX 90 37 27 38 89 39 28 40 29 41 30 42 83 43 31 44 88 45 82 46
REMARK SMILES IDX 84 47 32 48 87 49 81 50 80 51 33 53 67 54 46 55 66 56 47 57
REMARK SMILES IDX 50 58 65 59 85 60 48 61 49 62 64 64 86 65 51 66 34 67 35 68
REMARK SMILES IDX 44 69 36 70 37 71 43 72 45 73 38 74 39 75 40 76 41 77 42 78
REMARK SMILES IDX 68 79 69 80 78 81 70 82 71 83 77 84 79 85 72 86 73 87 74 88
REMARK SMILES IDX 75 89 76 90 52 91 53 92 62 93 54 94 55 95 61 96 63 97 56 98
REMARK SMILES IDX 57 99 58 100 59 101 60 102
REMARK H PARENT 17 6 10 14 4 22 22 33 84 52 50 63
REMARK Flexibility Score: inf
ROOT
ATOM      1  C   UNL A   1      34.753  33.201  31.385  1.00  0.00     0.023 C 
ENDROOT
BRANCH   1   2
ATOM      2  C   UNL A   1      35.488  34.074  32.406  1.00  0.00     0.116 C 
BRANCH   2   3
ATOM      3  N   UNL A   1      36.727  34.581  31.847  1.00  0.00    -0.352 N 
ATOM      4  C   UNL A   1      38.023  34.137  31.920  1.00  0.00     0.251 C 
ATOM      5  O   UNL A   1      38.881  34.767  31.302  1.00  0.00    -0.269 OA
ATOM      6  H   UNL A   1      36.617  35.400  31.313  1.00  0.00     0.163 HD
BRANCH   4   7
ATOM      7  C   UNL A   1      38.429  32.906  32.653  1.00  0.00     0.039 A 
ATOM      8  C   UNL A   1      39.436  30.636  33.996  1.00  0.00     0.040 A 
ATOM      9  C   UNL A   1      40.068  31.869  34.134  1.00  0.00     0.027 A 
ATOM     10  C   UNL A   1      38.231  30.574  33.284  1.00  0.00     0.027 A 
ATOM     11  C   UNL A   1      39.582  32.990  33.451  1.00  0.00     0.016 A 
ATOM     12  C   UNL A   1      37.723  31.703  32.631  1.00  0.00     0.016 A 
BRANCH   8  13
ATOM     13  N   UNL A   1      39.952  29.499  34.648  1.00  0.00    -0.334 N 
ATOM     14  H   UNL A   1      39.528  29.219  35.491  1.00  0.00     0.168 HD
BRANCH  13  15
ATOM     15  C   UNL A   1      41.038  28.736  34.169  1.00  0.00     0.215 A 
ATOM     16  C   UNL A   1      42.867  27.239  34.408  1.00  0.00     0.225 A 
ATOM     17  N   UNL A   1      43.113  27.309  33.083  1.00  0.00    -0.212 NA
ATOM     18  C   UNL A   1      41.888  28.019  34.994  1.00  0.00     0.354 A 
ATOM     19  C   UNL A   1      42.306  28.085  32.359  1.00  0.00     0.227 A 
ATOM     20  N   UNL A   1      41.265  28.768  32.835  1.00  0.00    -0.212 NA
BRANCH  16  21
ATOM     21  N   UNL A   1      43.606  26.224  35.024  1.00  0.00    -0.298 N 
ATOM     22  H   UNL A   1      43.415  25.297  34.758  1.00  0.00     0.184 HD
BRANCH  21  23
ATOM     23  N   UNL A   1      44.612  26.432  36.005  1.00  0.00    -0.228 NA
ATOM     24  C   UNL A   1      44.405  25.577  37.188  1.00  0.00     0.130 C 
ATOM     25  C   UNL A   1      45.896  26.043  35.389  1.00  0.00     0.130 C 
ENDBRANCH  21  23
ENDBRANCH  16  21
BRANCH  18  26
ATOM     26  N   UNL A   1      41.771  28.117  36.417  1.00  0.00     0.070 N 
ATOM     27  O   UNL A   1      42.294  29.105  36.958  1.00  0.00    -0.258 OA
ATOM     28  O   UNL A   1      41.256  27.166  37.021  1.00  0.00    -0.258 OA
ENDBRANCH  18  26
ENDBRANCH  13  15
ENDBRANCH   8  13
ENDBRANCH   4   7
ENDBRANCH   2   3
ENDBRANCH   1   2
BRANCH   1  29
ATOM     29  C   UNL A   1      34.594  33.848  30.005  1.00  0.00     0.023 C 
BRANCH  29  30
ATOM     30  C   UNL A   1      35.109  33.014  28.835  1.00  0.00     0.116 C 
BRANCH  30  31
ATOM     31  N   UNL A   1      34.153  32.014  28.384  1.00  0.00    -0.352 N 
ATOM     32  C   UNL A   1      34.378  30.689  28.083  1.00  0.00     0.251 C 
ATOM     33  H   UNL A   1      33.224  32.324  28.281  1.00  0.00     0.163 HD
ATOM     34  O   UNL A   1      33.483  30.002  27.612  1.00  0.00    -0.269 OA
BRANCH  32  35
ATOM     35  C   UNL A   1      35.728  30.125  28.294  1.00  0.00     0.039 A 
ATOM     36  C   UNL A   1      36.624  30.104  27.224  1.00  0.00     0.014 A 
ATOM     37  C   UNL A   1      36.118  29.667  29.556  1.00  0.00     0.014 A 
ATOM     38  C   UNL A   1      37.942  29.695  27.437  1.00  0.00     0.010 A 
ATOM     39  C   UNL A   1      37.445  29.313  29.779  1.00  0.00     0.010 A 
ATOM     40  C   UNL A   1      38.372  29.337  28.725  1.00  0.00    -0.014 A 
BRANCH  40  41
ATOM     41  C   UNL A   1      39.795  29.017  29.001  1.00  0.00     0.031 A 
ATOM     42  C   UNL A   1      40.714  30.072  29.547  1.00  0.00     0.074 A 
ATOM     43  C   UNL A   1      40.274  27.799  28.678  1.00  0.00     0.049 A 
ATOM     44  N   UNL A   1      42.003  30.012  29.761  1.00  0.00    -0.248 NA
ATOM     45  C   UNL A   1      40.110  31.374  29.872  1.00  0.00     0.031 C 
ATOM     46  C   UNL A   1      39.488  26.707  28.096  1.00  0.00     0.029 A 
ATOM     47  N   UNL A   1      41.539  27.279  28.778  1.00  0.00    -0.354 N 
ATOM     48  C   UNL A   1      42.367  31.267  30.231  1.00  0.00     0.074 A 
ATOM     49  C   UNL A   1      41.171  32.083  30.229  1.00  0.00     0.031 C 
ATOM     50  C   UNL A   1      40.286  25.645  27.903  1.00  0.00     0.029 A 
ATOM     51  C   UNL A   1      41.645  25.988  28.314  1.00  0.00     0.049 A 
ATOM     52  H   UNL A   1      42.301  27.781  29.148  1.00  0.00     0.167 HD
ATOM     53  C   UNL A   1      43.585  31.695  30.642  1.00  0.00     0.037 A 
ATOM     54  C   UNL A   1      42.716  25.177  28.218  1.00  0.00     0.037 A 
ATOM     55  C   UNL A   1      44.765  30.872  30.665  1.00  0.00     0.049 A 
ATOM     56  C   UNL A   1      44.056  25.675  28.683  1.00  0.00     0.074 A 
ATOM     57  C   UNL A   1      46.031  31.195  31.123  1.00  0.00     0.029 A 
ATOM     58  N   UNL A   1      44.826  29.563  30.209  1.00  0.00    -0.354 N 
ATOM     59  N   UNL A   1      44.371  26.847  29.181  1.00  0.00    -0.248 NA
ATOM     60  C   UNL A   1      45.187  24.743  28.575  1.00  0.00     0.031 C 
ATOM     61  C   UNL A   1      46.865  30.092  30.913  1.00  0.00     0.029 A 
ATOM     62  C   UNL A   1      46.111  29.069  30.358  1.00  0.00     0.049 A 
ATOM     63  H   UNL A   1      44.068  29.060  29.834  1.00  0.00     0.167 HD
ATOM     64  C   UNL A   1      45.731  26.786  29.465  1.00  0.00     0.074 A 
ATOM     65  C   UNL A   1      46.176  25.458  29.094  1.00  0.00     0.031 C 
ATOM     66  C   UNL A   1      46.537  27.743  29.987  1.00  0.00     0.037 A 
BRANCH  53  67
ATOM     67  C   UNL A   1      43.697  33.119  31.111  1.00  0.00     0.058 A 
ATOM     68  C   UNL A   1      43.945  34.170  30.213  1.00  0.00     0.135 A 
ATOM     69  C   UNL A   1      43.529  33.441  32.467  1.00  0.00     0.135 A 
ATOM     70  F   UNL A   1      44.128  33.915  28.908  1.00  0.00    -0.206 F 
ATOM     71  C   UNL A   1      44.052  35.487  30.647  1.00  0.00     0.059 A 
ATOM     72  C   UNL A   1      43.608  34.755  32.920  1.00  0.00     0.059 A 
ATOM     73  F   UNL A   1      43.292  32.475  33.368  1.00  0.00    -0.206 F 
ATOM     74  C   UNL A   1      43.885  35.769  32.004  1.00  0.00     0.060 A 
BRANCH  74  75
ATOM     75  S   UNL A   1      44.030  37.483  32.552  1.00  0.00     0.124 S 
ATOM     76  O   UNL A   1      45.392  37.505  33.076  1.00  0.00    -0.237 OA
ATOM     77  O   UNL A   1      43.814  38.227  31.316  1.00  0.00    -0.237 OA
ATOM     78  O   UNL A   1      42.972  37.611  33.549  1.00  0.00    -0.744 OA
ENDBRANCH  74  75
ENDBRANCH  53  67
BRANCH  54  79
ATOM     79  C   UNL A   1      42.559  23.803  27.676  1.00  0.00     0.058 A 
ATOM     80  C   UNL A   1      42.418  22.704  28.536  1.00  0.00     0.135 A 
ATOM     81  C   UNL A   1      42.527  23.561  26.294  1.00  0.00     0.135 A 
ATOM     82  F   UNL A   1      42.448  22.885  29.865  1.00  0.00    -0.206 F 
ATOM     83  C   UNL A   1      42.264  21.411  28.048  1.00  0.00     0.059 A 
ATOM     84  C   UNL A   1      42.352  22.280  25.781  1.00  0.00     0.059 A 
ATOM     85  F   UNL A   1      42.641  24.582  25.431  1.00  0.00    -0.206 F 
ATOM     86  C   UNL A   1      42.231  21.210  26.667  1.00  0.00     0.060 A 
BRANCH  86  87
ATOM     87  S   UNL A   1      41.975  19.535  26.041  1.00  0.00     0.124 S 
ATOM     88  O   UNL A   1      40.547  19.548  25.743  1.00  0.00    -0.237 OA
ATOM     89  O   UNL A   1      42.868  19.496  24.888  1.00  0.00    -0.237 OA
ATOM     90  O   UNL A   1      42.378  18.694  27.164  1.00  0.00    -0.744 OA
ENDBRANCH  86  87
ENDBRANCH  54  79
BRANCH  66  91
ATOM     91  C   UNL A   1      47.978  27.386  30.210  1.00  0.00     0.058 A 
ATOM     92  C   UNL A   1      48.954  27.627  29.232  1.00  0.00     0.135 A 
ATOM     93  C   UNL A   1      48.397  26.852  31.440  1.00  0.00     0.135 A 
ATOM     94  F   UNL A   1      48.602  28.128  28.037  1.00  0.00    -0.206 F 
ATOM     95  C   UNL A   1      50.296  27.341  29.460  1.00  0.00     0.059 A 
ATOM     96  C   UNL A   1      49.736  26.580  31.698  1.00  0.00     0.059 A 
ATOM     97  F   UNL A   1      47.502  26.610  32.412  1.00  0.00    -0.206 F 
ATOM     98  C   UNL A   1      50.678  26.820  30.698  1.00  0.00     0.060 A 
BRANCH  98  99
ATOM     99  S   UNL A   1      52.428  26.498  31.000  1.00  0.00     0.124 S 
ATOM    100  O   UNL A   1      52.963  26.480  29.642  1.00  0.00    -0.237 OA
ATOM    101  O   UNL A   1      52.821  27.640  31.821  1.00  0.00    -0.237 OA
ATOM    102  O   UNL A   1      52.422  25.211  31.690  1.00  0.00    -0.744 OA
ENDBRANCH  98  99
ENDBRANCH  66  91
ENDBRANCH  40  41
ENDBRANCH  32  35
ENDBRANCH  30  31
ENDBRANCH  29  30
ENDBRANCH   1  29
TORSDOF 19
ENDMDL
MODEL 3
REMARK VINA RESULT:     -10.7      4.799     10.533
REMARK SMILES CN(C)Nc1ncnc(Nc2ccc(C(=O)NCCCCNC(=O)c3ccc(-c4c5nc(c(-c6c(F)cc(S(=O)(=O)[O-])cc6F)c6ccc([nH]6)c(-c6c(F)cc(S(=O)(=O)[O-])cc6F)c6nc(c(-c7c(F)cc(S(=O)(=O)[O-])cc7F)c7ccc4[nH]7)C=C6)C=C5)cc3)cc2)c1[N+](=O)[O-]
REMARK SMILES IDX 19 1 18 2 17 3 15 4 16 5 14 7 11 8 12 9 92 10 13 11 91 12
REMARK SMILES IDX 10 13 9 15 5 16 6 17 93 18 7 19 8 20 4 21 2 23 1 24 3 25
REMARK SMILES IDX 94 26 95 27 96 28 20 29 21 30 22 31 23 32 24 34 25 35 26 36
REMARK SMILES IDX 90 37 27 38 89 39 28 40 29 41 30 42 83 43 31 44 88 45 82 46
REMARK SMILES IDX 84 47 32 48 87 49 81 50 80 51 33 53 67 54 46 55 66 56 47 57
REMARK SMILES IDX 50 58 65 59 85 60 48 61 49 62 64 64 86 65 51 66 34 67 35 68
REMARK SMILES IDX 44 69 36 70 37 71 43 72 45 73 38 74 39 75 40 76 41 77 42 78
REMARK SMILES IDX 68 79 69 80 78 81 70 82 71 83 77 84 79 85 72 86 73 87 74 88
REMARK SMILES IDX 75 89 76 90 52 91 53 92 62 93 54 94 55 95 61 96 63 97 56 98
REMARK SMILES IDX 57 99 58 100 59 101 60 102
REMARK H PARENT 17 6 10 14 4 22 22 33 84 52 50 63
REMARK Flexibility Score: inf
ROOT
ATOM      1  C   UNL A   1      35.077  29.905  27.636  1.00  0.00     0.023 C 
ENDROOT
BRANCH   1   2
ATOM      2  C   UNL A   1      34.259  29.392  26.448  1.00  0.00     0.116 C 
BRANCH   2   3
ATOM      3  N   UNL A   1      33.096  30.231  26.228  1.00  0.00    -0.352 N 
ATOM      4  C   UNL A   1      31.833  29.957  25.768  1.00  0.00     0.251 C 
ATOM      5  O   UNL A   1      31.026  30.885  25.718  1.00  0.00    -0.269 OA
ATOM      6  H   UNL A   1      33.240  31.178  26.453  1.00  0.00     0.163 HD
BRANCH   4   7
ATOM      7  C   UNL A   1      31.376  28.591  25.389  1.00  0.00     0.039 A 
ATOM      8  C   UNL A   1      30.694  25.912  24.817  1.00  0.00     0.040 A 
ATOM      9  C   UNL A   1      31.049  26.283  26.111  1.00  0.00     0.027 A 
ATOM     10  C   UNL A   1      30.564  26.911  23.843  1.00  0.00     0.027 A 
ATOM     11  C   UNL A   1      31.408  27.606  26.391  1.00  0.00     0.016 A 
ATOM     12  C   UNL A   1      30.887  28.241  24.130  1.00  0.00     0.016 A 
BRANCH   8  13
ATOM     13  N   UNL A   1      30.375  24.571  24.527  1.00  0.00    -0.334 N 
ATOM     14  H   UNL A   1      29.431  24.296  24.596  1.00  0.00     0.168 HD
BRANCH  13  15
ATOM     15  C   UNL A   1      31.321  23.597  24.146  1.00  0.00     0.215 A 
ATOM     16  C   UNL A   1      32.626  21.640  24.483  1.00  0.00     0.225 A 
ATOM     17  N   UNL A   1      33.176  21.781  23.258  1.00  0.00    -0.212 NA
ATOM     18  C   UNL A   1      31.761  22.590  24.990  1.00  0.00     0.354 A 
ATOM     19  C   UNL A   1      32.768  22.821  22.529  1.00  0.00     0.227 A 
ATOM     20  N   UNL A   1      31.845  23.707  22.904  1.00  0.00    -0.212 NA
BRANCH  16  21
ATOM     21  N   UNL A   1      32.936  20.402  25.054  1.00  0.00    -0.298 N 
ATOM     22  H   UNL A   1      33.736  20.351  25.623  1.00  0.00     0.184 HD
BRANCH  21  23
ATOM     23  N   UNL A   1      32.180  19.212  24.873  1.00  0.00    -0.228 NA
ATOM     24  C   UNL A   1      32.378  18.640  23.529  1.00  0.00     0.130 C 
ATOM     25  C   UNL A   1      32.686  18.233  25.856  1.00  0.00     0.130 C 
ENDBRANCH  21  23
ENDBRANCH  16  21
BRANCH  18  26
ATOM     26  N   UNL A   1      31.352  22.563  26.361  1.00  0.00     0.070 N 
ATOM     27  O   UNL A   1      30.129  22.564  26.584  1.00  0.00    -0.258 OA
ATOM     28  O   UNL A   1      32.232  22.649  27.229  1.00  0.00    -0.258 OA
ENDBRANCH  18  26
ENDBRANCH  13  15
ENDBRANCH   8  13
ENDBRANCH   4   7
ENDBRANCH   2   3
ENDBRANCH   1   2
BRANCH   1  29
ATOM     29  C   UNL A   1      35.135  31.433  27.745  1.00  0.00     0.023 C 
BRANCH  29  30
ATOM     30  C   UNL A   1      35.992  31.969  28.888  1.00  0.00     0.116 C 
BRANCH  30  31
ATOM     31  N   UNL A   1      35.754  31.283  30.149  1.00  0.00    -0.352 N 
ATOM     32  C   UNL A   1      36.612  30.467  30.854  1.00  0.00     0.251 C 
ATOM     33  H   UNL A   1      34.866  31.420  30.551  1.00  0.00     0.163 HD
ATOM     34  O   UNL A   1      36.222  29.877  31.852  1.00  0.00    -0.269 OA
BRANCH  32  35
ATOM     35  C   UNL A   1      37.992  30.280  30.361  1.00  0.00     0.039 A 
ATOM     36  C   UNL A   1      39.046  30.333  31.275  1.00  0.00     0.014 A 
ATOM     37  C   UNL A   1      38.235  30.006  29.011  1.00  0.00     0.014 A 
ATOM     38  C   UNL A   1      40.342  30.032  30.849  1.00  0.00     0.010 A 
ATOM     39  C   UNL A   1      39.516  29.652  28.602  1.00  0.00     0.010 A 
ATOM     40  C   UNL A   1      40.579  29.648  29.519  1.00  0.00    -0.014 A 
BRANCH  40  41
ATOM     41  C   UNL A   1      41.923  29.205  29.073  1.00  0.00     0.031 A 
ATOM     42  C   UNL A   1      43.050  30.192  28.972  1.00  0.00     0.074 A 
ATOM     43  C   UNL A   1      42.101  27.928  28.678  1.00  0.00     0.049 A 
ATOM     44  N   UNL A   1      44.262  30.016  28.513  1.00  0.00    -0.248 NA
ATOM     45  C   UNL A   1      42.770  31.565  29.422  1.00  0.00     0.031 C 
ATOM     46  C   UNL A   1      41.067  26.888  28.684  1.00  0.00     0.029 A 
ATOM     47  N   UNL A   1      43.208  27.290  28.180  1.00  0.00    -0.354 N 
ATOM     48  C   UNL A   1      44.885  31.254  28.605  1.00  0.00     0.074 A 
ATOM     49  C   UNL A   1      43.904  32.183  29.123  1.00  0.00     0.031 C 
ATOM     50  C   UNL A   1      41.593  25.742  28.225  1.00  0.00     0.029 A 
ATOM     51  C   UNL A   1      42.988  25.970  27.859  1.00  0.00     0.049 A 
ATOM     52  H   UNL A   1      44.079  27.734  28.062  1.00  0.00     0.167 HD
ATOM     53  C   UNL A   1      46.164  31.581  28.302  1.00  0.00     0.037 A 
ATOM     54  C   UNL A   1      43.813  25.052  27.320  1.00  0.00     0.037 A 
ATOM     55  C   UNL A   1      47.142  30.646  27.811  1.00  0.00     0.049 A 
ATOM     56  C   UNL A   1      45.229  25.439  26.994  1.00  0.00     0.074 A 
ATOM     57  C   UNL A   1      48.481  30.866  27.534  1.00  0.00     0.029 A 
ATOM     58  N   UNL A   1      46.888  29.313  27.522  1.00  0.00    -0.354 N 
ATOM     59  N   UNL A   1      45.819  26.601  27.144  1.00  0.00    -0.248 NA
ATOM     60  C   UNL A   1      46.092  24.393  26.427  1.00  0.00     0.031 C 
ATOM     61  C   UNL A   1      49.027  29.675  27.046  1.00  0.00     0.029 A 
ATOM     62  C   UNL A   1      48.039  28.702  27.053  1.00  0.00     0.049 A 
ATOM     63  H   UNL A   1      46.018  28.867  27.633  1.00  0.00     0.167 HD
ATOM     64  C   UNL A   1      47.128  26.421  26.710  1.00  0.00     0.074 A 
ATOM     65  C   UNL A   1      47.245  25.035  26.301  1.00  0.00     0.031 C 
ATOM     66  C   UNL A   1      48.140  27.321  26.655  1.00  0.00     0.037 A 
BRANCH  53  67
ATOM     67  C   UNL A   1      46.581  33.011  28.503  1.00  0.00     0.058 A 
ATOM     68  C   UNL A   1      46.492  33.954  27.467  1.00  0.00     0.135 A 
ATOM     69  C   UNL A   1      47.048  33.451  29.752  1.00  0.00     0.135 A 
ATOM     70  F   UNL A   1      46.065  33.582  26.250  1.00  0.00    -0.206 F 
ATOM     71  C   UNL A   1      46.879  35.277  27.652  1.00  0.00     0.059 A 
ATOM     72  C   UNL A   1      47.419  34.775  29.966  1.00  0.00     0.059 A 
ATOM     73  F   UNL A   1      47.155  32.591  30.776  1.00  0.00    -0.206 F 
ATOM     74  C   UNL A   1      47.345  35.678  28.905  1.00  0.00     0.060 A 
BRANCH  74  75
ATOM     75  S   UNL A   1      47.847  37.397  29.129  1.00  0.00     0.124 S 
ATOM     76  O   UNL A   1      47.644  37.935  27.787  1.00  0.00    -0.237 OA
ATOM     77  O   UNL A   1      46.913  37.866  30.147  1.00  0.00    -0.237 OA
ATOM     78  O   UNL A   1      49.237  37.292  29.559  1.00  0.00    -0.744 OA
ENDBRANCH  74  75
ENDBRANCH  53  67
BRANCH  54  79
ATOM     79  C   UNL A   1      43.325  23.671  27.073  1.00  0.00     0.058 A 
ATOM     80  C   UNL A   1      43.033  23.233  25.773  1.00  0.00     0.135 A 
ATOM     81  C   UNL A   1      43.159  22.756  28.124  1.00  0.00     0.135 A 
ATOM     82  F   UNL A   1      43.171  24.075  24.737  1.00  0.00    -0.206 F 
ATOM     83  C   UNL A   1      42.582  21.943  25.522  1.00  0.00     0.059 A 
ATOM     84  C   UNL A   1      42.729  21.452  27.896  1.00  0.00     0.059 A 
ATOM     85  F   UNL A   1      43.442  23.121  29.384  1.00  0.00    -0.206 F 
ATOM     86  C   UNL A   1      42.434  21.058  26.592  1.00  0.00     0.060 A 
BRANCH  86  87
ATOM     87  S   UNL A   1      41.900  19.367  26.251  1.00  0.00     0.124 S 
ATOM     88  O   UNL A   1      42.615  19.078  25.013  1.00  0.00    -0.237 OA
ATOM     89  O   UNL A   1      42.362  18.652  27.437  1.00  0.00    -0.237 OA
ATOM     90  O   UNL A   1      40.451  19.492  26.130  1.00  0.00    -0.744 OA
ENDBRANCH  86  87
ENDBRANCH  54  79
BRANCH  66  91
ATOM     91  C   UNL A   1      49.471  26.835  26.157  1.00  0.00     0.058 A 
ATOM     92  C   UNL A   1      49.844  26.969  24.812  1.00  0.00     0.135 A 
ATOM     93  C   UNL A   1      50.406  26.284  27.048  1.00  0.00     0.135 A 
ATOM     94  F   UNL A   1      48.982  27.482  23.919  1.00  0.00    -0.206 F 
ATOM     95  C   UNL A   1      51.097  26.563  24.363  1.00  0.00     0.059 A 
ATOM     96  C   UNL A   1      51.672  25.891  26.626  1.00  0.00     0.059 A 
ATOM     97  F   UNL A   1      50.098  26.141  28.348  1.00  0.00    -0.206 F 
ATOM     98  C   UNL A   1      52.005  26.028  25.278  1.00  0.00     0.060 A 
BRANCH  98  99
ATOM     99  S   UNL A   1      53.645  25.549  24.694  1.00  0.00     0.124 S 
ATOM    100  O   UNL A   1      54.506  26.168  25.697  1.00  0.00    -0.237 OA
ATOM    101  O   UNL A   1      53.577  24.091  24.729  1.00  0.00    -0.237 OA
ATOM    102  O   UNL A   1      53.714  26.134  23.359  1.00  0.00    -0.744 OA
ENDBRANCH  98  99
ENDBRANCH  66  91
ENDBRANCH  40  41
ENDBRANCH  32  35
ENDBRANCH  30  31
ENDBRANCH  29  30
ENDBRANCH   1  29
TORSDOF 19
ENDMDL
