MODEL 1
REMARK VINA RESULT:      -9.7      0.000      0.000
REMARK SMILES O=C(NCCCCNC(=O)[C@H]1CCCN1C(=S)Nc1ccccc1)c1ccc(-c2c3nc(c(-c4c(F)cc(S(=O)(=O)[O-])cc4F)c4ccc([nH]4)c(-c4c(F)cc(S(=O)(=O)[O-])cc4F)c4nc(c(-c5c(F)cc(S(=O)(=O)[O-])cc5F)c5ccc2[nH]5)C=C4)C=C3)cc1
REMARK SMILES IDX 5 1 4 2 3 3 1 4 2 5 25 7 26 8 90 9 27 10 89 11 28 12 29 13
REMARK SMILES IDX 30 14 83 15 31 16 88 17 82 18 84 19 32 20 87 21 81 22 80 23
REMARK SMILES IDX 33 25 67 26 46 27 66 28 47 29 50 30 65 31 85 32 48 33 49 34
REMARK SMILES IDX 64 36 86 37 51 38 34 39 35 40 44 41 36 42 37 43 43 44 45 45
REMARK SMILES IDX 38 46 39 47 40 48 41 49 42 50 68 51 69 52 78 53 70 54 71 55
REMARK SMILES IDX 77 56 79 57 72 58 73 59 74 60 75 61 76 62 52 63 53 64 62 65
REMARK SMILES IDX 54 66 55 67 61 68 63 69 56 70 57 71 58 72 59 73 60 74 6 75
REMARK SMILES IDX 7 76 8 77 9 78 10 80 11 81 12 82 15 83 13 84 14 85 16 86
REMARK SMILES IDX 17 87 18 88 19 90 20 91 24 92 21 93 23 94 22 95
REMARK H PARENT 3 6 84 24 50 35 8 79 18 89
REMARK Flexibility Score: inf
ROOT
ATOM      1  C   UNL A   1      33.843  33.888  28.099  1.00  0.00     0.023 C 
ENDROOT
BRANCH   1   2
ATOM      2  C   UNL A   1      34.740  32.659  28.008  1.00  0.00     0.116 C 
BRANCH   2   3
ATOM      3  N   UNL A   1      34.005  31.433  27.739  1.00  0.00    -0.352 N 
ATOM      4  O   UNL A   1      33.779  29.216  27.352  1.00  0.00    -0.269 OA
ATOM      5  C   UNL A   1      34.492  30.147  27.697  1.00  0.00     0.251 C 
ATOM      6  H   UNL A   1      33.042  31.535  27.565  1.00  0.00     0.163 HD
BRANCH   5   7
ATOM      7  C   UNL A   1      35.908  29.928  28.049  1.00  0.00     0.039 A 
ATOM      8  C   UNL A   1      36.902  30.079  27.078  1.00  0.00     0.014 A 
ATOM      9  C   UNL A   1      36.223  29.505  29.341  1.00  0.00     0.014 A 
ATOM     10  C   UNL A   1      38.206  29.699  27.369  1.00  0.00     0.010 A 
ATOM     11  C   UNL A   1      37.545  29.183  29.648  1.00  0.00     0.010 A 
ATOM     12  C   UNL A   1      38.538  29.253  28.658  1.00  0.00    -0.014 A 
BRANCH  12  13
ATOM     13  C   UNL A   1      39.943  28.915  28.986  1.00  0.00     0.031 A 
ATOM     14  C   UNL A   1      40.862  29.942  29.579  1.00  0.00     0.074 A 
ATOM     15  C   UNL A   1      40.390  27.678  28.703  1.00  0.00     0.049 A 
ATOM     16  N   UNL A   1      42.141  29.850  29.837  1.00  0.00    -0.248 NA
ATOM     17  C   UNL A   1      40.272  31.246  29.916  1.00  0.00     0.031 C 
ATOM     18  C   UNL A   1      39.579  26.607  28.118  1.00  0.00     0.029 A 
ATOM     19  N   UNL A   1      41.631  27.117  28.852  1.00  0.00    -0.354 N 
ATOM     20  C   UNL A   1      42.518  31.089  30.339  1.00  0.00     0.074 A 
ATOM     21  C   UNL A   1      41.333  31.921  30.339  1.00  0.00     0.031 C 
ATOM     22  C   UNL A   1      40.344  25.519  27.955  1.00  0.00     0.029 A 
ATOM     23  C   UNL A   1      41.708  25.833  28.369  1.00  0.00     0.049 A 
ATOM     24  H   UNL A   1      42.391  27.586  29.264  1.00  0.00     0.167 HD
ATOM     25  C   UNL A   1      43.743  31.490  30.760  1.00  0.00     0.037 A 
ATOM     26  C   UNL A   1      42.765  25.011  28.234  1.00  0.00     0.037 A 
ATOM     27  C   UNL A   1      44.908  30.644  30.762  1.00  0.00     0.049 A 
ATOM     28  C   UNL A   1      44.113  25.478  28.690  1.00  0.00     0.074 A 
ATOM     29  C   UNL A   1      46.185  30.936  31.212  1.00  0.00     0.029 A 
ATOM     30  N   UNL A   1      44.944  29.342  30.280  1.00  0.00    -0.354 N 
ATOM     31  N   UNL A   1      44.448  26.639  29.202  1.00  0.00    -0.248 NA
ATOM     32  C   UNL A   1      45.228  24.532  28.556  1.00  0.00     0.031 C 
ATOM     33  C   UNL A   1      47.000  29.827  30.964  1.00  0.00     0.029 A 
ATOM     34  C   UNL A   1      46.223  28.825  30.400  1.00  0.00     0.049 A 
ATOM     35  H   UNL A   1      44.172  28.857  29.909  1.00  0.00     0.167 HD
ATOM     36  C   UNL A   1      45.809  26.560  29.464  1.00  0.00     0.074 A 
ATOM     37  C   UNL A   1      46.235  25.235  29.060  1.00  0.00     0.031 C 
ATOM     38  C   UNL A   1      46.628  27.501  29.994  1.00  0.00     0.037 A 
BRANCH  25  39
ATOM     39  C   UNL A   1      43.886  32.916  31.216  1.00  0.00     0.058 A 
ATOM     40  C   UNL A   1      43.686  33.293  32.554  1.00  0.00     0.135 A 
ATOM     41  C   UNL A   1      44.230  33.923  30.298  1.00  0.00     0.135 A 
ATOM     42  F   UNL A   1      43.345  32.373  33.470  1.00  0.00    -0.206 F 
ATOM     43  C   UNL A   1      43.778  34.622  32.957  1.00  0.00     0.059 A 
ATOM     44  C   UNL A   1      44.350  35.255  30.683  1.00  0.00     0.059 A 
ATOM     45  F   UNL A   1      44.437  33.618  29.007  1.00  0.00    -0.206 F 
ATOM     46  C   UNL A   1      44.098  35.597  32.011  1.00  0.00     0.060 A 
BRANCH  46  47
ATOM     47  S   UNL A   1      44.169  37.324  32.536  1.00  0.00     0.124 S 
ATOM     48  O   UNL A   1      43.078  37.374  33.505  1.00  0.00    -0.237 OA
ATOM     49  O   UNL A   1      45.514  37.431  33.091  1.00  0.00    -0.237 OA
ATOM     50  O   UNL A   1      43.945  38.065  31.298  1.00  0.00    -0.744 OA
ENDBRANCH  46  47
ENDBRANCH  25  39
BRANCH  26  51
ATOM     51  C   UNL A   1      42.555  23.676  27.621  1.00  0.00     0.058 A 
ATOM     52  C   UNL A   1      42.706  23.483  26.242  1.00  0.00     0.135 A 
ATOM     53  C   UNL A   1      42.315  22.547  28.423  1.00  0.00     0.135 A 
ATOM     54  F   UNL A   1      42.936  24.532  25.439  1.00  0.00    -0.206 F 
ATOM     55  C   UNL A   1      42.644  22.214  25.677  1.00  0.00     0.059 A 
ATOM     56  C   UNL A   1      42.272  21.266  27.884  1.00  0.00     0.059 A 
ATOM     57  F   UNL A   1      42.187  22.682  29.751  1.00  0.00    -0.206 F 
ATOM     58  C   UNL A   1      42.440  21.110  26.509  1.00  0.00     0.060 A 
BRANCH  58  59
ATOM     59  S   UNL A   1      42.482  19.457  25.782  1.00  0.00     0.124 S 
ATOM     60  O   UNL A   1      42.898  18.646  26.920  1.00  0.00    -0.237 OA
ATOM     61  O   UNL A   1      41.101  19.280  25.342  1.00  0.00    -0.237 OA
ATOM     62  O   UNL A   1      43.461  19.588  24.706  1.00  0.00    -0.744 OA
ENDBRANCH  58  59
ENDBRANCH  26  51
BRANCH  38  63
ATOM     63  C   UNL A   1      48.068  27.130  30.197  1.00  0.00     0.058 A 
ATOM     64  C   UNL A   1      49.026  27.334  29.194  1.00  0.00     0.135 A 
ATOM     65  C   UNL A   1      48.507  26.650  31.440  1.00  0.00     0.135 A 
ATOM     66  F   UNL A   1      48.653  27.781  27.983  1.00  0.00    -0.206 F 
ATOM     67  C   UNL A   1      50.375  27.078  29.417  1.00  0.00     0.059 A 
ATOM     68  C   UNL A   1      49.852  26.405  31.694  1.00  0.00     0.059 A 
ATOM     69  F   UNL A   1      47.628  26.443  32.434  1.00  0.00    -0.206 F 
ATOM     70  C   UNL A   1      50.779  26.621  30.674  1.00  0.00     0.060 A 
BRANCH  70  71
ATOM     71  S   UNL A   1      52.541  26.365  30.978  1.00  0.00     0.124 S 
ATOM     72  O   UNL A   1      52.528  25.132  31.758  1.00  0.00    -0.237 OA
ATOM     73  O   UNL A   1      53.080  26.255  29.626  1.00  0.00    -0.237 OA
ATOM     74  O   UNL A   1      52.936  27.566  31.707  1.00  0.00    -0.744 OA
ENDBRANCH  70  71
ENDBRANCH  38  63
ENDBRANCH  12  13
ENDBRANCH   5   7
ENDBRANCH   2   3
ENDBRANCH   1   2
BRANCH   1  75
ATOM     75  C   UNL A   1      33.895  34.623  29.437  1.00  0.00     0.023 C 
BRANCH  75  76
ATOM     76  C   UNL A   1      34.470  33.781  30.567  1.00  0.00     0.116 C 
BRANCH  76  77
ATOM     77  N   UNL A   1      34.978  34.599  31.635  1.00  0.00    -0.354 N 
ATOM     78  C   UNL A   1      36.105  34.480  32.381  1.00  0.00     0.242 C 
ATOM     79  H   UNL A   1      34.414  35.372  31.864  1.00  0.00     0.163 HD
ATOM     80  O   UNL A   1      36.290  35.392  33.197  1.00  0.00    -0.273 OA
BRANCH  78  81
ATOM     81  C   UNL A   1      37.222  33.421  32.108  1.00  0.00     0.173 C 
ATOM     82  C   UNL A   1      37.636  33.521  30.632  1.00  0.00     0.037 C 
ATOM     83  N   UNL A   1      38.549  33.496  32.770  1.00  0.00    -0.337 N 
ATOM     84  C   UNL A   1      38.652  34.651  30.669  1.00  0.00     0.024 C 
ATOM     85  C   UNL A   1      39.381  34.425  31.987  1.00  0.00     0.120 C 
BRANCH  83  86
ATOM     86  C   UNL A   1      39.061  32.828  33.862  1.00  0.00     0.174 C 
ATOM     87  S   UNL A   1      38.667  33.214  35.462  1.00  0.00    -0.041 S 
BRANCH  86  88
ATOM     88  N   UNL A   1      39.808  31.696  33.756  1.00  0.00    -0.333 N 
ATOM     89  H   UNL A   1      40.757  31.838  33.978  1.00  0.00     0.169 HD
BRANCH  88  90
ATOM     90  C   UNL A   1      39.520  30.377  33.399  1.00  0.00     0.040 A 
ATOM     91  C   UNL A   1      38.173  30.009  33.315  1.00  0.00     0.026 A 
ATOM     92  C   UNL A   1      40.515  29.431  33.166  1.00  0.00     0.026 A 
ATOM     93  C   UNL A   1      37.825  28.739  32.862  1.00  0.00     0.002 A 
ATOM     94  C   UNL A   1      40.165  28.151  32.731  1.00  0.00     0.002 A 
ATOM     95  C   UNL A   1      38.821  27.814  32.556  1.00  0.00     0.000 A 
ENDBRANCH  88  90
ENDBRANCH  86  88
ENDBRANCH  83  86
ENDBRANCH  78  81
ENDBRANCH  76  77
ENDBRANCH  75  76
ENDBRANCH   1  75
TORSDOF 17
ENDMDL
MODEL 2
REMARK VINA RESULT:      -9.6      4.438      7.104
REMARK SMILES O=C(NCCCCNC(=O)[C@H]1CCCN1C(=S)Nc1ccccc1)c1ccc(-c2c3nc(c(-c4c(F)cc(S(=O)(=O)[O-])cc4F)c4ccc([nH]4)c(-c4c(F)cc(S(=O)(=O)[O-])cc4F)c4nc(c(-c5c(F)cc(S(=O)(=O)[O-])cc5F)c5ccc2[nH]5)C=C4)C=C3)cc1
REMARK SMILES IDX 5 1 4 2 3 3 1 4 2 5 25 7 26 8 90 9 27 10 89 11 28 12 29 13
REMARK SMILES IDX 30 14 83 15 31 16 88 17 82 18 84 19 32 20 87 21 81 22 80 23
REMARK SMILES IDX 33 25 67 26 46 27 66 28 47 29 50 30 65 31 85 32 48 33 49 34
REMARK SMILES IDX 64 36 86 37 51 38 34 39 35 40 44 41 36 42 37 43 43 44 45 45
REMARK SMILES IDX 38 46 39 47 40 48 41 49 42 50 68 51 69 52 78 53 70 54 71 55
REMARK SMILES IDX 77 56 79 57 72 58 73 59 74 60 75 61 76 62 52 63 53 64 62 65
REMARK SMILES IDX 54 66 55 67 61 68 63 69 56 70 57 71 58 72 59 73 60 74 6 75
REMARK SMILES IDX 7 76 8 77 9 78 10 80 11 81 12 82 15 83 13 84 14 85 16 86
REMARK SMILES IDX 17 87 18 88 19 90 20 91 24 92 21 93 23 94 22 95
REMARK H PARENT 3 6 84 24 50 35 8 79 18 89
REMARK Flexibility Score: inf
ROOT
ATOM      1  C   UNL A   1      33.946  28.981  26.628  1.00  0.00     0.023 C 
ENDROOT
BRANCH   1   2
ATOM      2  C   UNL A   1      35.217  29.045  27.469  1.00  0.00     0.116 C 
BRANCH   2   3
ATOM      3  N   UNL A   1      35.110  29.955  28.599  1.00  0.00    -0.352 N 
ATOM      4  O   UNL A   1      35.838  31.013  30.460  1.00  0.00    -0.269 OA
ATOM      5  C   UNL A   1      36.095  30.318  29.488  1.00  0.00     0.251 C 
ATOM      6  H   UNL A   1      34.225  30.359  28.746  1.00  0.00     0.163 HD
BRANCH   5   7
ATOM      7  C   UNL A   1      37.463  29.820  29.252  1.00  0.00     0.039 A 
ATOM      8  C   UNL A   1      38.246  29.388  30.326  1.00  0.00     0.014 A 
ATOM      9  C   UNL A   1      37.977  29.851  27.955  1.00  0.00     0.014 A 
ATOM     10  C   UNL A   1      39.587  29.091  30.120  1.00  0.00     0.010 A 
ATOM     11  C   UNL A   1      39.307  29.492  27.742  1.00  0.00     0.010 A 
ATOM     12  C   UNL A   1      40.127  29.135  28.825  1.00  0.00    -0.014 A 
BRANCH  12  13
ATOM     13  C   UNL A   1      41.539  28.749  28.597  1.00  0.00     0.031 A 
ATOM     14  C   UNL A   1      42.632  29.777  28.634  1.00  0.00     0.074 A 
ATOM     15  C   UNL A   1      41.817  27.464  28.318  1.00  0.00     0.049 A 
ATOM     16  N   UNL A   1      43.903  29.635  28.364  1.00  0.00    -0.248 NA
ATOM     17  C   UNL A   1      42.246  31.145  29.013  1.00  0.00     0.031 C 
ATOM     18  C   UNL A   1      40.826  26.386  28.250  1.00  0.00     0.029 A 
ATOM     19  N   UNL A   1      43.004  26.846  28.023  1.00  0.00    -0.354 N 
ATOM     20  C   UNL A   1      44.467  30.896  28.510  1.00  0.00     0.074 A 
ATOM     21  C   UNL A   1      43.394  31.795  28.883  1.00  0.00     0.031 C 
ATOM     22  C   UNL A   1      41.445  25.242  27.932  1.00  0.00     0.029 A 
ATOM     23  C   UNL A   1      42.863  25.515  27.716  1.00  0.00     0.049 A 
ATOM     24  H   UNL A   1      43.871  27.310  28.030  1.00  0.00     0.167 HD
ATOM     25  C   UNL A   1      45.762  31.264  28.346  1.00  0.00     0.037 A 
ATOM     26  C   UNL A   1      43.763  24.619  27.271  1.00  0.00     0.037 A 
ATOM     27  C   UNL A   1      46.816  30.353  27.984  1.00  0.00     0.049 A 
ATOM     28  C   UNL A   1      45.185  25.049  27.082  1.00  0.00     0.074 A 
ATOM     29  C   UNL A   1      48.168  30.614  27.839  1.00  0.00     0.029 A 
ATOM     30  N   UNL A   1      46.637  29.006  27.698  1.00  0.00    -0.354 N 
ATOM     31  N   UNL A   1      45.713  26.236  27.263  1.00  0.00    -0.248 NA
ATOM     32  C   UNL A   1      46.137  24.026  26.630  1.00  0.00     0.031 C 
ATOM     33  C   UNL A   1      48.799  29.436  27.426  1.00  0.00     0.029 A 
ATOM     34  C   UNL A   1      47.848  28.427  27.355  1.00  0.00     0.049 A 
ATOM     35  H   UNL A   1      45.775  28.532  27.735  1.00  0.00     0.167 HD
ATOM     36  C   UNL A   1      47.061  26.103  26.961  1.00  0.00     0.074 A 
ATOM     37  C   UNL A   1      47.270  24.717  26.591  1.00  0.00     0.031 C 
ATOM     38  C   UNL A   1      48.036  27.044  26.992  1.00  0.00     0.037 A 
BRANCH  25  39
ATOM     39  C   UNL A   1      46.095  32.721  28.521  1.00  0.00     0.058 A 
ATOM     40  C   UNL A   1      46.069  33.623  27.447  1.00  0.00     0.135 A 
ATOM     41  C   UNL A   1      46.445  33.220  29.787  1.00  0.00     0.135 A 
ATOM     42  F   UNL A   1      45.752  33.197  26.214  1.00  0.00    -0.206 F 
ATOM     43  C   UNL A   1      46.422  34.960  27.611  1.00  0.00     0.059 A 
ATOM     44  C   UNL A   1      46.778  34.558  29.979  1.00  0.00     0.059 A 
ATOM     45  F   UNL A   1      46.481  32.402  30.851  1.00  0.00    -0.206 F 
ATOM     46  C   UNL A   1      46.787  35.415  28.879  1.00  0.00     0.060 A 
BRANCH  46  47
ATOM     47  S   UNL A   1      47.287  37.140  29.071  1.00  0.00     0.124 S 
ATOM     48  O   UNL A   1      46.471  37.790  28.049  1.00  0.00    -0.237 OA
ATOM     49  O   UNL A   1      46.915  37.425  30.453  1.00  0.00    -0.237 OA
ATOM     50  O   UNL A   1      48.722  37.109  28.805  1.00  0.00    -0.744 OA
ENDBRANCH  46  47
ENDBRANCH  25  39
BRANCH  26  51
ATOM     51  C   UNL A   1      43.306  23.240  26.969  1.00  0.00     0.058 A 
ATOM     52  C   UNL A   1      43.214  22.782  25.648  1.00  0.00     0.135 A 
ATOM     53  C   UNL A   1      43.065  22.320  28.004  1.00  0.00     0.135 A 
ATOM     54  F   UNL A   1      43.435  23.626  24.629  1.00  0.00    -0.206 F 
ATOM     55  C   UNL A   1      42.917  21.454  25.361  1.00  0.00     0.059 A 
ATOM     56  C   UNL A   1      42.790  20.983  27.742  1.00  0.00     0.059 A 
ATOM     57  F   UNL A   1      43.164  22.709  29.284  1.00  0.00    -0.206 F 
ATOM     58  C   UNL A   1      42.720  20.559  26.415  1.00  0.00     0.060 A 
BRANCH  58  59
ATOM     59  S   UNL A   1      42.454  18.814  26.032  1.00  0.00     0.124 S 
ATOM     60  O   UNL A   1      43.385  18.611  24.928  1.00  0.00    -0.237 OA
ATOM     61  O   UNL A   1      42.806  18.166  27.292  1.00  0.00    -0.237 OA
ATOM     62  O   UNL A   1      41.037  18.759  25.684  1.00  0.00    -0.744 OA
ENDBRANCH  58  59
ENDBRANCH  26  51
BRANCH  38  63
ATOM     63  C   UNL A   1      49.429  26.608  26.641  1.00  0.00     0.058 A 
ATOM     64  C   UNL A   1      50.282  26.037  27.597  1.00  0.00     0.135 A 
ATOM     65  C   UNL A   1      49.880  26.681  25.315  1.00  0.00     0.135 A 
ATOM     66  F   UNL A   1      49.899  25.956  28.882  1.00  0.00    -0.206 F 
ATOM     67  C   UNL A   1      51.536  25.549  27.249  1.00  0.00     0.059 A 
ATOM     68  C   UNL A   1      51.123  26.182  24.939  1.00  0.00     0.059 A 
ATOM     69  F   UNL A   1      49.098  27.215  24.363  1.00  0.00    -0.206 F 
ATOM     70  C   UNL A   1      51.945  25.618  25.915  1.00  0.00     0.060 A 
BRANCH  70  71
ATOM     71  S   UNL A   1      53.543  24.911  25.460  1.00  0.00     0.124 S 
ATOM     72  O   UNL A   1      53.890  25.704  24.285  1.00  0.00    -0.237 OA
ATOM     73  O   UNL A   1      54.347  25.159  26.652  1.00  0.00    -0.237 OA
ATOM     74  O   UNL A   1      53.231  23.509  25.203  1.00  0.00    -0.744 OA
ENDBRANCH  70  71
ENDBRANCH  38  63
ENDBRANCH  12  13
ENDBRANCH   5   7
ENDBRANCH   2   3
ENDBRANCH   1   2
BRANCH   1  75
ATOM     75  C   UNL A   1      32.778  28.250  27.288  1.00  0.00     0.023 C 
BRANCH  75  76
ATOM     76  C   UNL A   1      31.979  27.389  26.319  1.00  0.00     0.116 C 
BRANCH  76  77
ATOM     77  N   UNL A   1      31.619  26.125  26.902  1.00  0.00    -0.354 N 
ATOM     78  C   UNL A   1      31.853  24.857  26.479  1.00  0.00     0.242 C 
ATOM     79  H   UNL A   1      31.121  26.190  27.748  1.00  0.00     0.163 HD
ATOM     80  O   UNL A   1      31.458  23.969  27.246  1.00  0.00    -0.273 OA
BRANCH  78  81
ATOM     81  C   UNL A   1      32.746  24.501  25.246  1.00  0.00     0.173 C 
ATOM     82  C   UNL A   1      34.111  25.183  25.422  1.00  0.00     0.037 C 
ATOM     83  N   UNL A   1      33.169  23.107  24.965  1.00  0.00    -0.337 N 
ATOM     84  C   UNL A   1      34.847  24.183  26.301  1.00  0.00     0.024 C 
ATOM     85  C   UNL A   1      34.366  22.835  25.779  1.00  0.00     0.120 C 
BRANCH  83  86
ATOM     86  C   UNL A   1      32.678  22.165  24.085  1.00  0.00     0.174 C 
ATOM     87  S   UNL A   1      32.581  22.411  22.413  1.00  0.00    -0.041 S 
BRANCH  86  88
ATOM     88  N   UNL A   1      32.373  20.893  24.454  1.00  0.00    -0.333 N 
ATOM     89  H   UNL A   1      31.633  20.846  25.103  1.00  0.00     0.169 HD
BRANCH  88  90
ATOM     90  C   UNL A   1      32.880  19.638  24.113  1.00  0.00     0.040 A 
ATOM     91  C   UNL A   1      32.200  18.910  23.131  1.00  0.00     0.026 A 
ATOM     92  C   UNL A   1      33.999  19.088  24.737  1.00  0.00     0.026 A 
ATOM     93  C   UNL A   1      32.720  17.700  22.675  1.00  0.00     0.002 A 
ATOM     94  C   UNL A   1      34.507  17.865  24.293  1.00  0.00     0.002 A 
ATOM     95  C   UNL A   1      33.881  17.185  23.247  1.00  0.00     0.000 A 
ENDBRANCH  88  90
ENDBRANCH  86  88
ENDBRANCH  83  86
ENDBRANCH  78  81
ENDBRANCH  76  77
ENDBRANCH  75  76
ENDBRANCH   1  75
TORSDOF 17
ENDMDL
MODEL 3
REMARK VINA RESULT:      -9.5      5.516     12.287
REMARK SMILES O=C(NCCCCNC(=O)[C@H]1CCCN1C(=S)Nc1ccccc1)c1ccc(-c2c3nc(c(-c4c(F)cc(S(=O)(=O)[O-])cc4F)c4ccc([nH]4)c(-c4c(F)cc(S(=O)(=O)[O-])cc4F)c4nc(c(-c5c(F)cc(S(=O)(=O)[O-])cc5F)c5ccc2[nH]5)C=C4)C=C3)cc1
REMARK SMILES IDX 5 1 4 2 3 3 1 4 2 5 25 7 26 8 90 9 27 10 89 11 28 12 29 13
REMARK SMILES IDX 30 14 83 15 31 16 88 17 82 18 84 19 32 20 87 21 81 22 80 23
REMARK SMILES IDX 33 25 67 26 46 27 66 28 47 29 50 30 65 31 85 32 48 33 49 34
REMARK SMILES IDX 64 36 86 37 51 38 34 39 35 40 44 41 36 42 37 43 43 44 45 45
REMARK SMILES IDX 38 46 39 47 40 48 41 49 42 50 68 51 69 52 78 53 70 54 71 55
REMARK SMILES IDX 77 56 79 57 72 58 73 59 74 60 75 61 76 62 52 63 53 64 62 65
REMARK SMILES IDX 54 66 55 67 61 68 63 69 56 70 57 71 58 72 59 73 60 74 6 75
REMARK SMILES IDX 7 76 8 77 9 78 10 80 11 81 12 82 15 83 13 84 14 85 16 86
REMARK SMILES IDX 17 87 18 88 19 90 20 91 24 92 21 93 23 94 22 95
REMARK H PARENT 3 6 84 24 50 35 8 79 18 89
REMARK Flexibility Score: inf
ROOT
ATOM      1  C   UNL A   1      40.318  22.301  27.273  1.00  0.00     0.023 C 
ENDROOT
BRANCH   1   2
ATOM      2  C   UNL A   1      41.489  23.263  27.439  1.00  0.00     0.116 C 
BRANCH   2   3
ATOM      3  N   UNL A   1      41.910  23.874  26.188  1.00  0.00    -0.352 N 
ATOM      4  O   UNL A   1      42.273  25.588  24.758  1.00  0.00    -0.269 OA
ATOM      5  C   UNL A   1      42.006  25.214  25.891  1.00  0.00     0.251 C 
ATOM      6  H   UNL A   1      42.156  23.253  25.464  1.00  0.00     0.163 HD
BRANCH   5   7
ATOM      7  C   UNL A   1      41.747  26.185  26.970  1.00  0.00     0.039 A 
ATOM      8  C   UNL A   1      42.595  27.282  27.143  1.00  0.00     0.014 A 
ATOM      9  C   UNL A   1      40.687  25.951  27.847  1.00  0.00     0.014 A 
ATOM     10  C   UNL A   1      42.451  28.089  28.265  1.00  0.00     0.010 A 
ATOM     11  C   UNL A   1      40.507  26.799  28.939  1.00  0.00     0.010 A 
ATOM     12  C   UNL A   1      41.402  27.857  29.169  1.00  0.00    -0.014 A 
BRANCH  12  13
ATOM     13  C   UNL A   1      41.207  28.761  30.326  1.00  0.00     0.031 A 
ATOM     14  C   UNL A   1      42.044  28.616  31.564  1.00  0.00     0.074 A 
ATOM     15  C   UNL A   1      40.238  29.691  30.260  1.00  0.00     0.049 A 
ATOM     16  N   UNL A   1      41.946  29.254  32.701  1.00  0.00    -0.248 NA
ATOM     17  C   UNL A   1      43.124  27.619  31.523  1.00  0.00     0.031 C 
ATOM     18  C   UNL A   1      39.362  29.909  29.105  1.00  0.00     0.029 A 
ATOM     19  N   UNL A   1      39.813  30.610  31.182  1.00  0.00    -0.354 N 
ATOM     20  C   UNL A   1      42.929  28.718  33.524  1.00  0.00     0.074 A 
ATOM     21  C   UNL A   1      43.606  27.693  32.756  1.00  0.00     0.031 C 
ATOM     22  C   UNL A   1      38.503  30.898  29.388  1.00  0.00     0.029 A 
ATOM     23  C   UNL A   1      38.728  31.341  30.760  1.00  0.00     0.049 A 
ATOM     24  H   UNL A   1      40.241  30.736  32.058  1.00  0.00     0.167 HD
ATOM     25  C   UNL A   1      43.233  29.053  34.802  1.00  0.00     0.037 A 
ATOM     26  C   UNL A   1      37.970  32.239  31.415  1.00  0.00     0.037 A 
ATOM     27  C   UNL A   1      42.553  30.082  35.545  1.00  0.00     0.049 A 
ATOM     28  C   UNL A   1      38.313  32.586  32.832  1.00  0.00     0.074 A 
ATOM     29  C   UNL A   1      42.814  30.534  36.828  1.00  0.00     0.029 A 
ATOM     30  N   UNL A   1      41.469  30.814  35.078  1.00  0.00    -0.354 N 
ATOM     31  N   UNL A   1      39.271  32.100  33.585  1.00  0.00    -0.248 NA
ATOM     32  C   UNL A   1      37.479  33.598  33.492  1.00  0.00     0.031 C 
ATOM     33  C   UNL A   1      41.863  31.507  37.151  1.00  0.00     0.029 A 
ATOM     34  C   UNL A   1      41.035  31.696  36.053  1.00  0.00     0.049 A 
ATOM     35  H   UNL A   1      41.069  30.720  34.184  1.00  0.00     0.167 HD
ATOM     36  C   UNL A   1      39.166  32.757  34.804  1.00  0.00     0.074 A 
ATOM     37  C   UNL A   1      38.054  33.679  34.686  1.00  0.00     0.031 C 
ATOM     38  C   UNL A   1      39.926  32.609  35.916  1.00  0.00     0.037 A 
BRANCH  25  39
ATOM     39  C   UNL A   1      44.323  28.272  35.482  1.00  0.00     0.058 A 
ATOM     40  C   UNL A   1      45.674  28.644  35.389  1.00  0.00     0.135 A 
ATOM     41  C   UNL A   1      44.010  27.131  36.241  1.00  0.00     0.135 A 
ATOM     42  F   UNL A   1      46.029  29.719  34.668  1.00  0.00    -0.206 F 
ATOM     43  C   UNL A   1      46.679  27.889  35.986  1.00  0.00     0.059 A 
ATOM     44  C   UNL A   1      44.997  26.375  36.866  1.00  0.00     0.059 A 
ATOM     45  F   UNL A   1      42.735  26.733  36.368  1.00  0.00    -0.206 F 
ATOM     46  C   UNL A   1      46.331  26.749  36.712  1.00  0.00     0.060 A 
BRANCH  46  47
ATOM     47  S   UNL A   1      47.648  25.752  37.443  1.00  0.00     0.124 S 
ATOM     48  O   UNL A   1      46.976  25.209  38.621  1.00  0.00    -0.237 OA
ATOM     49  O   UNL A   1      47.942  24.792  36.385  1.00  0.00    -0.237 OA
ATOM     50  O   UNL A   1      48.701  26.726  37.714  1.00  0.00    -0.744 OA
ENDBRANCH  46  47
ENDBRANCH  25  39
BRANCH  26  51
ATOM     51  C   UNL A   1      36.811  32.841  30.711  1.00  0.00     0.058 A 
ATOM     52  C   UNL A   1      35.500  32.447  31.010  1.00  0.00     0.135 A 
ATOM     53  C   UNL A   1      36.990  33.906  29.812  1.00  0.00     0.135 A 
ATOM     54  F   UNL A   1      35.282  31.434  31.862  1.00  0.00    -0.206 F 
ATOM     55  C   UNL A   1      34.404  33.097  30.455  1.00  0.00     0.059 A 
ATOM     56  C   UNL A   1      35.910  34.587  29.263  1.00  0.00     0.059 A 
ATOM     57  F   UNL A   1      38.227  34.333  29.515  1.00  0.00    -0.206 F 
ATOM     58  C   UNL A   1      34.619  34.175  29.593  1.00  0.00     0.060 A 
BRANCH  58  59
ATOM     59  S   UNL A   1      33.189  35.089  28.973  1.00  0.00     0.124 S 
ATOM     60  O   UNL A   1      32.630  34.143  28.014  1.00  0.00    -0.237 OA
ATOM     61  O   UNL A   1      32.410  35.302  30.189  1.00  0.00    -0.237 OA
ATOM     62  O   UNL A   1      33.783  36.293  28.401  1.00  0.00    -0.744 OA
ENDBRANCH  58  59
ENDBRANCH  26  51
BRANCH  38  63
ATOM     63  C   UNL A   1      39.603  33.481  37.095  1.00  0.00     0.058 A 
ATOM     64  C   UNL A   1      38.708  33.066  38.090  1.00  0.00     0.135 A 
ATOM     65  C   UNL A   1      40.268  34.704  37.274  1.00  0.00     0.135 A 
ATOM     66  F   UNL A   1      38.039  31.908  37.959  1.00  0.00    -0.206 F 
ATOM     67  C   UNL A   1      38.482  33.833  39.228  1.00  0.00     0.059 A 
ATOM     68  C   UNL A   1      40.073  35.479  38.412  1.00  0.00     0.059 A 
ATOM     69  F   UNL A   1      41.138  35.142  36.350  1.00  0.00    -0.206 F 
ATOM     70  C   UNL A   1      39.177  35.035  39.384  1.00  0.00     0.060 A 
BRANCH  70  71
ATOM     71  S   UNL A   1      38.936  35.986  40.900  1.00  0.00     0.124 S 
ATOM     72  O   UNL A   1      40.273  35.950  41.484  1.00  0.00    -0.237 OA
ATOM     73  O   UNL A   1      38.500  37.283  40.391  1.00  0.00    -0.237 OA
ATOM     74  O   UNL A   1      37.916  35.227  41.617  1.00  0.00    -0.744 OA
ENDBRANCH  70  71
ENDBRANCH  38  63
ENDBRANCH  12  13
ENDBRANCH   5   7
ENDBRANCH   2   3
ENDBRANCH   1   2
BRANCH   1  75
ATOM     75  C   UNL A   1      39.119  22.874  26.518  1.00  0.00     0.023 C 
BRANCH  75  76
ATOM     76  C   UNL A   1      38.328  21.823  25.753  1.00  0.00     0.116 C 
BRANCH  76  77
ATOM     77  N   UNL A   1      37.844  22.329  24.497  1.00  0.00    -0.354 N 
ATOM     78  C   UNL A   1      36.579  22.566  24.067  1.00  0.00     0.242 C 
ATOM     79  H   UNL A   1      38.547  22.539  23.841  1.00  0.00     0.163 HD
ATOM     80  O   UNL A   1      36.497  23.066  22.937  1.00  0.00    -0.273 OA
BRANCH  78  81
ATOM     81  C   UNL A   1      35.314  22.450  24.978  1.00  0.00     0.173 C 
ATOM     82  C   UNL A   1      35.432  23.483  26.108  1.00  0.00     0.037 C 
ATOM     83  N   UNL A   1      33.954  22.756  24.468  1.00  0.00    -0.337 N 
ATOM     84  C   UNL A   1      34.892  24.738  25.441  1.00  0.00     0.024 C 
ATOM     85  C   UNL A   1      33.763  24.212  24.565  1.00  0.00     0.120 C 
BRANCH  83  86
ATOM     86  C   UNL A   1      32.939  21.931  24.030  1.00  0.00     0.174 C 
ATOM     87  S   UNL A   1      31.959  22.285  22.695  1.00  0.00    -0.041 S 
BRANCH  86  88
ATOM     88  N   UNL A   1      32.729  20.684  24.528  1.00  0.00    -0.333 N 
ATOM     89  H   UNL A   1      32.110  20.673  25.294  1.00  0.00     0.169 HD
BRANCH  88  90
ATOM     90  C   UNL A   1      33.202  19.414  24.190  1.00  0.00     0.040 A 
ATOM     91  C   UNL A   1      32.439  18.658  23.293  1.00  0.00     0.026 A 
ATOM     92  C   UNL A   1      34.366  18.878  24.736  1.00  0.00     0.026 A 
ATOM     93  C   UNL A   1      32.914  17.430  22.837  1.00  0.00     0.002 A 
ATOM     94  C   UNL A   1      34.830  17.638  24.295  1.00  0.00     0.002 A 
ATOM     95  C   UNL A   1      34.117  16.926  23.328  1.00  0.00     0.000 A 
ENDBRANCH  88  90
ENDBRANCH  86  88
ENDBRANCH  83  86
ENDBRANCH  78  81
ENDBRANCH  76  77
ENDBRANCH  75  76
ENDBRANCH   1  75
TORSDOF 17
ENDMDL
