MODEL 1
REMARK VINA RESULT:     -11.4      0.000      0.000
REMARK SMILES CC[C@@](C)(NC(=O)c1cncc(O)c1)C(=O)NCCCCNC(=O)c1ccc(-c2c3nc(c(-c4c(F)cc(S(=O)(=O)[O-])cc4F)c4ccc([nH]4)c(-c4c(F)cc(S(=O)(=O)[O-])cc4F)c4nc(c(-c5c(F)cc(S(=O)(=O)[O-])cc5F)c5ccc2[nH]5)C=C4)C=C3)cc1
REMARK SMILES IDX 19 1 18 2 17 3 15 4 16 5 3 7 4 8 2 9 1 10 5 11 6 12 7 14
REMARK SMILES IDX 8 15 9 16 14 17 10 18 12 19 11 20 13 21 20 23 21 24 22 25
REMARK SMILES IDX 23 26 24 28 25 29 26 30 90 31 27 32 89 33 28 34 29 35 30 36
REMARK SMILES IDX 83 37 31 38 88 39 82 40 84 41 32 42 87 43 81 44 80 45 33 47
REMARK SMILES IDX 67 48 46 49 66 50 47 51 50 52 65 53 85 54 48 55 49 56 64 58
REMARK SMILES IDX 86 59 51 60 34 61 35 62 44 63 36 64 37 65 43 66 45 67 38 68
REMARK SMILES IDX 39 69 40 70 41 71 42 72 68 73 69 74 78 75 70 76 71 77 77 78
REMARK SMILES IDX 79 79 72 80 73 81 74 82 75 83 76 84 52 85 53 86 62 87 54 88
REMARK SMILES IDX 55 89 61 90 63 91 56 92 57 93 58 94 59 95 60 96
REMARK H PARENT 17 6 5 13 13 22 22 27 84 46 50 57
REMARK Flexibility Score: inf
ROOT
ATOM      1  C   UNL A   1      33.622  28.821  27.228  1.00  0.00     0.023 C 
ENDROOT
BRANCH   1   2
ATOM      2  C   UNL A   1      32.123  28.522  27.190  1.00  0.00     0.116 C 
BRANCH   2   3
ATOM      3  N   UNL A   1      31.472  28.546  25.890  1.00  0.00    -0.354 N 
ATOM      4  C   UNL A   1      31.136  27.577  24.988  1.00  0.00     0.245 C 
ATOM      5  O   UNL A   1      30.379  27.945  24.084  1.00  0.00    -0.272 OA
ATOM      6  H   UNL A   1      31.220  29.452  25.600  1.00  0.00     0.163 HD
BRANCH   4   7
ATOM      7  C   UNL A   1      31.596  26.095  25.107  1.00  0.00     0.116 C 
ATOM      8  C   UNL A   1      31.148  25.397  23.798  1.00  0.00     0.045 C 
BRANCH   7   9
ATOM      9  C   UNL A   1      33.139  25.918  25.241  1.00  0.00     0.035 C 
ATOM     10  C   UNL A   1      33.913  25.451  24.012  1.00  0.00     0.007 C 
ENDBRANCH   7   9
BRANCH   7  11
ATOM     11  N   UNL A   1      30.975  25.365  26.244  1.00  0.00    -0.338 N 
ATOM     12  C   UNL A   1      30.859  24.036  26.585  1.00  0.00     0.253 C 
ATOM     13  H   UNL A   1      30.554  25.966  26.899  1.00  0.00     0.164 HD
ATOM     14  O   UNL A   1      29.876  23.760  27.280  1.00  0.00    -0.269 OA
BRANCH  12  15
ATOM     15  C   UNL A   1      31.813  22.938  26.266  1.00  0.00     0.061 A 
ATOM     16  C   UNL A   1      31.352  21.909  25.443  1.00  0.00     0.125 A 
ATOM     17  C   UNL A   1      33.058  22.733  26.851  1.00  0.00     0.063 A 
ATOM     18  N   UNL A   1      32.020  20.751  25.191  1.00  0.00    -0.260 NA
ATOM     19  C   UNL A   1      33.758  21.547  26.637  1.00  0.00     0.134 A 
ATOM     20  C   UNL A   1      33.205  20.585  25.817  1.00  0.00     0.157 A 
BRANCH  19  21
ATOM     21  O   UNL A   1      34.943  21.304  27.262  1.00  0.00    -0.506 OA
ATOM     22  H   UNL A   1      35.163  21.769  28.046  1.00  0.00     0.293 HD
ENDBRANCH  19  21
ENDBRANCH  12  15
ENDBRANCH   7  11
ENDBRANCH   4   7
ENDBRANCH   2   3
ENDBRANCH   1   2
BRANCH   1  23
ATOM     23  C   UNL A   1      34.065  30.283  27.214  1.00  0.00     0.023 C 
BRANCH  23  24
ATOM     24  C   UNL A   1      35.424  30.594  27.816  1.00  0.00     0.116 C 
BRANCH  24  25
ATOM     25  N   UNL A   1      35.366  30.817  29.247  1.00  0.00    -0.352 N 
ATOM     26  C   UNL A   1      36.333  30.606  30.197  1.00  0.00     0.251 C 
ATOM     27  H   UNL A   1      34.513  31.172  29.586  1.00  0.00     0.163 HD
ATOM     28  O   UNL A   1      36.039  30.719  31.389  1.00  0.00    -0.269 OA
BRANCH  26  29
ATOM     29  C   UNL A   1      37.709  30.221  29.807  1.00  0.00     0.039 A 
ATOM     30  C   UNL A   1      38.640  29.943  30.815  1.00  0.00     0.014 A 
ATOM     31  C   UNL A   1      38.097  30.156  28.466  1.00  0.00     0.014 A 
ATOM     32  C   UNL A   1      39.941  29.558  30.477  1.00  0.00     0.010 A 
ATOM     33  C   UNL A   1      39.373  29.704  28.130  1.00  0.00     0.010 A 
ATOM     34  C   UNL A   1      40.312  29.414  29.130  1.00  0.00    -0.014 A 
BRANCH  34  35
ATOM     35  C   UNL A   1      41.685  28.990  28.751  1.00  0.00     0.031 A 
ATOM     36  C   UNL A   1      42.802  29.999  28.715  1.00  0.00     0.074 A 
ATOM     37  C   UNL A   1      41.916  27.714  28.385  1.00  0.00     0.049 A 
ATOM     38  N   UNL A   1      44.047  29.843  28.342  1.00  0.00    -0.248 NA
ATOM     39  C   UNL A   1      42.469  31.372  29.128  1.00  0.00     0.031 C 
ATOM     40  C   UNL A   1      40.908  26.653  28.333  1.00  0.00     0.029 A 
ATOM     41  N   UNL A   1      43.070  27.094  27.975  1.00  0.00    -0.354 N 
ATOM     42  C   UNL A   1      44.638  31.097  28.458  1.00  0.00     0.074 A 
ATOM     43  C   UNL A   1      43.603  32.012  28.887  1.00  0.00     0.031 C 
ATOM     44  C   UNL A   1      41.492  25.511  27.932  1.00  0.00     0.029 A 
ATOM     45  C   UNL A   1      42.905  25.764  27.667  1.00  0.00     0.049 A 
ATOM     46  H   UNL A   1      43.936  27.558  27.908  1.00  0.00     0.167 HD
ATOM     47  C   UNL A   1      45.929  31.448  28.249  1.00  0.00     0.037 A 
ATOM     48  C   UNL A   1      43.789  24.854  27.216  1.00  0.00     0.037 A 
ATOM     49  C   UNL A   1      46.961  30.526  27.854  1.00  0.00     0.049 A 
ATOM     50  C   UNL A   1      45.222  25.263  27.003  1.00  0.00     0.074 A 
ATOM     51  C   UNL A   1      48.311  30.771  27.671  1.00  0.00     0.029 A 
ATOM     52  N   UNL A   1      46.759  29.180  27.582  1.00  0.00    -0.354 N 
ATOM     53  N   UNL A   1      45.775  26.440  27.173  1.00  0.00    -0.248 NA
ATOM     54  C   UNL A   1      46.152  24.221  26.548  1.00  0.00     0.031 C 
ATOM     55  C   UNL A   1      48.920  29.581  27.255  1.00  0.00     0.029 A 
ATOM     56  C   UNL A   1      47.956  28.585  27.219  1.00  0.00     0.049 A 
ATOM     57  H   UNL A   1      45.893  28.716  27.638  1.00  0.00     0.167 HD
ATOM     58  C   UNL A   1      47.122  26.275  26.868  1.00  0.00     0.074 A 
ATOM     59  C   UNL A   1      47.301  24.882  26.516  1.00  0.00     0.031 C 
ATOM     60  C   UNL A   1      48.119  27.194  26.879  1.00  0.00     0.037 A 
BRANCH  47  61
ATOM     61  C   UNL A   1      46.299  32.892  28.452  1.00  0.00     0.058 A 
ATOM     62  C   UNL A   1      46.723  33.374  29.702  1.00  0.00     0.135 A 
ATOM     63  C   UNL A   1      46.253  33.801  27.383  1.00  0.00     0.135 A 
ATOM     64  F   UNL A   1      46.771  32.553  30.762  1.00  0.00    -0.206 F 
ATOM     65  C   UNL A   1      47.056  34.711  29.891  1.00  0.00     0.059 A 
ATOM     66  C   UNL A   1      46.608  35.137  27.543  1.00  0.00     0.059 A 
ATOM     67  F   UNL A   1      45.855  33.394  26.167  1.00  0.00    -0.206 F 
ATOM     68  C   UNL A   1      46.992  35.586  28.806  1.00  0.00     0.060 A 
BRANCH  68  69
ATOM     69  S   UNL A   1      47.421  37.320  29.070  1.00  0.00     0.124 S 
ATOM     70  O   UNL A   1      48.878  37.269  29.018  1.00  0.00    -0.237 OA
ATOM     71  O   UNL A   1      46.770  37.979  27.941  1.00  0.00    -0.237 OA
ATOM     72  O   UNL A   1      46.849  37.617  30.379  1.00  0.00    -0.744 OA
ENDBRANCH  68  69
ENDBRANCH  47  61
BRANCH  48  73
ATOM     73  C   UNL A   1      43.350  23.456  26.960  1.00  0.00     0.058 A 
ATOM     74  C   UNL A   1      43.135  22.997  25.651  1.00  0.00     0.135 A 
ATOM     75  C   UNL A   1      43.151  22.549  28.012  1.00  0.00     0.135 A 
ATOM     76  F   UNL A   1      43.307  23.830  24.613  1.00  0.00    -0.206 F 
ATOM     77  C   UNL A   1      42.728  21.693  25.394  1.00  0.00     0.059 A 
ATOM     78  C   UNL A   1      42.766  21.232  27.779  1.00  0.00     0.059 A 
ATOM     79  F   UNL A   1      43.358  22.934  29.280  1.00  0.00    -0.206 F 
ATOM     80  C   UNL A   1      42.547  20.816  26.465  1.00  0.00     0.060 A 
BRANCH  80  81
ATOM     81  S   UNL A   1      42.064  19.112  26.116  1.00  0.00     0.124 S 
ATOM     82  O   UNL A   1      42.468  18.435  27.344  1.00  0.00    -0.237 OA
ATOM     83  O   UNL A   1      40.626  19.237  25.900  1.00  0.00    -0.237 OA
ATOM     84  O   UNL A   1      42.841  18.780  24.927  1.00  0.00    -0.744 OA
ENDBRANCH  80  81
ENDBRANCH  48  73
BRANCH  60  85
ATOM     85  C   UNL A   1      49.501  26.718  26.531  1.00  0.00     0.058 A 
ATOM     86  C   UNL A   1      50.394  26.263  27.514  1.00  0.00     0.135 A 
ATOM     87  C   UNL A   1      49.919  26.664  25.191  1.00  0.00     0.135 A 
ATOM     88  F   UNL A   1      50.045  26.298  28.810  1.00  0.00    -0.206 F 
ATOM     89  C   UNL A   1      51.660  25.791  27.183  1.00  0.00     0.059 A 
ATOM     90  C   UNL A   1      51.171  26.174  24.834  1.00  0.00     0.059 A 
ATOM     91  F   UNL A   1      49.098  27.078  24.211  1.00  0.00    -0.206 F 
ATOM     92  C   UNL A   1      52.039  25.749  25.839  1.00  0.00     0.060 A 
BRANCH  92  93
ATOM     93  S   UNL A   1      53.670  25.099  25.419  1.00  0.00     0.124 S 
ATOM     94  O   UNL A   1      53.388  23.676  25.264  1.00  0.00    -0.237 OA
ATOM     95  O   UNL A   1      53.988  25.820  24.191  1.00  0.00    -0.237 OA
ATOM     96  O   UNL A   1      54.485  25.455  26.577  1.00  0.00    -0.744 OA
ENDBRANCH  92  93
ENDBRANCH  60  85
ENDBRANCH  34  35
ENDBRANCH  26  29
ENDBRANCH  24  25
ENDBRANCH  23  24
ENDBRANCH   1  23
TORSDOF 18
ENDMDL
MODEL 2
REMARK VINA RESULT:     -11.2      1.162      8.452
REMARK SMILES CC[C@@](C)(NC(=O)c1cncc(O)c1)C(=O)NCCCCNC(=O)c1ccc(-c2c3nc(c(-c4c(F)cc(S(=O)(=O)[O-])cc4F)c4ccc([nH]4)c(-c4c(F)cc(S(=O)(=O)[O-])cc4F)c4nc(c(-c5c(F)cc(S(=O)(=O)[O-])cc5F)c5ccc2[nH]5)C=C4)C=C3)cc1
REMARK SMILES IDX 19 1 18 2 17 3 15 4 16 5 3 7 4 8 2 9 1 10 5 11 6 12 7 14
REMARK SMILES IDX 8 15 9 16 14 17 10 18 12 19 11 20 13 21 20 23 21 24 22 25
REMARK SMILES IDX 23 26 24 28 25 29 26 30 90 31 27 32 89 33 28 34 29 35 30 36
REMARK SMILES IDX 83 37 31 38 88 39 82 40 84 41 32 42 87 43 81 44 80 45 33 47
REMARK SMILES IDX 67 48 46 49 66 50 47 51 50 52 65 53 85 54 48 55 49 56 64 58
REMARK SMILES IDX 86 59 51 60 34 61 35 62 44 63 36 64 37 65 43 66 45 67 38 68
REMARK SMILES IDX 39 69 40 70 41 71 42 72 68 73 69 74 78 75 70 76 71 77 77 78
REMARK SMILES IDX 79 79 72 80 73 81 74 82 75 83 76 84 52 85 53 86 62 87 54 88
REMARK SMILES IDX 55 89 61 90 63 91 56 92 57 93 58 94 59 95 60 96
REMARK H PARENT 17 6 5 13 13 22 22 27 84 46 50 57
REMARK Flexibility Score: inf
ROOT
ATOM      1  C   UNL A   1      33.148  30.237  27.098  1.00  0.00     0.023 C 
ENDROOT
BRANCH   1   2
ATOM      2  C   UNL A   1      32.449  29.922  25.775  1.00  0.00     0.116 C 
BRANCH   2   3
ATOM      3  N   UNL A   1      33.291  29.712  24.609  1.00  0.00    -0.354 N 
ATOM      4  C   UNL A   1      33.520  28.639  23.794  1.00  0.00     0.245 C 
ATOM      5  O   UNL A   1      34.133  28.896  22.753  1.00  0.00    -0.272 OA
ATOM      6  H   UNL A   1      33.806  30.511  24.353  1.00  0.00     0.163 HD
BRANCH   4   7
ATOM      7  C   UNL A   1      32.992  27.206  24.092  1.00  0.00     0.116 C 
ATOM      8  C   UNL A   1      33.490  26.312  22.928  1.00  0.00     0.045 C 
BRANCH   7   9
ATOM      9  C   UNL A   1      33.525  26.598  25.425  1.00  0.00     0.035 C 
ATOM     10  C   UNL A   1      34.400  25.351  25.342  1.00  0.00     0.007 C 
ENDBRANCH   7   9
BRANCH   7  11
ATOM     11  N   UNL A   1      31.509  27.110  24.133  1.00  0.00    -0.338 N 
ATOM     12  C   UNL A   1      30.615  26.067  24.236  1.00  0.00     0.253 C 
ATOM     13  H   UNL A   1      31.068  27.987  24.074  1.00  0.00     0.164 HD
ATOM     14  O   UNL A   1      29.508  26.279  23.731  1.00  0.00    -0.269 OA
BRANCH  12  15
ATOM     15  C   UNL A   1      30.821  24.771  24.937  1.00  0.00     0.061 A 
ATOM     16  C   UNL A   1      31.395  23.730  24.202  1.00  0.00     0.125 A 
ATOM     17  C   UNL A   1      30.335  24.426  26.193  1.00  0.00     0.063 A 
ATOM     18  N   UNL A   1      31.496  22.440  24.622  1.00  0.00    -0.260 NA
ATOM     19  C   UNL A   1      30.398  23.110  26.645  1.00  0.00     0.134 A 
ATOM     20  C   UNL A   1      30.971  22.153  25.833  1.00  0.00     0.157 A 
BRANCH  19  21
ATOM     21  O   UNL A   1      29.859  22.747  27.842  1.00  0.00    -0.506 OA
ATOM     22  H   UNL A   1      30.419  22.556  28.569  1.00  0.00     0.293 HD
ENDBRANCH  19  21
ENDBRANCH  12  15
ENDBRANCH   7  11
ENDBRANCH   4   7
ENDBRANCH   2   3
ENDBRANCH   1   2
BRANCH   1  23
ATOM     23  C   UNL A   1      34.382  29.418  27.472  1.00  0.00     0.023 C 
BRANCH  23  24
ATOM     24  C   UNL A   1      35.550  30.176  28.079  1.00  0.00     0.116 C 
BRANCH  24  25
ATOM     25  N   UNL A   1      35.542  30.152  29.529  1.00  0.00    -0.352 N 
ATOM     26  C   UNL A   1      36.556  29.832  30.396  1.00  0.00     0.251 C 
ATOM     27  H   UNL A   1      34.689  30.403  29.952  1.00  0.00     0.163 HD
ATOM     28  O   UNL A   1      36.307  29.728  31.599  1.00  0.00    -0.269 OA
BRANCH  26  29
ATOM     29  C   UNL A   1      37.930  29.586  29.900  1.00  0.00     0.039 A 
ATOM     30  C   UNL A   1      38.887  29.088  30.792  1.00  0.00     0.014 A 
ATOM     31  C   UNL A   1      38.290  29.864  28.578  1.00  0.00     0.014 A 
ATOM     32  C   UNL A   1      40.187  28.828  30.347  1.00  0.00     0.010 A 
ATOM     33  C   UNL A   1      39.566  29.539  28.120  1.00  0.00     0.010 A 
ATOM     34  C   UNL A   1      40.532  29.031  29.001  1.00  0.00    -0.014 A 
BRANCH  34  35
ATOM     35  C   UNL A   1      41.903  28.745  28.505  1.00  0.00     0.031 A 
ATOM     36  C   UNL A   1      42.269  27.353  28.064  1.00  0.00     0.074 A 
ATOM     37  C   UNL A   1      42.833  29.720  28.503  1.00  0.00     0.049 A 
ATOM     38  N   UNL A   1      43.427  26.886  27.670  1.00  0.00    -0.248 NA
ATOM     39  C   UNL A   1      41.198  26.343  28.097  1.00  0.00     0.031 C 
ATOM     40  C   UNL A   1      42.615  31.098  28.949  1.00  0.00     0.029 A 
ATOM     41  N   UNL A   1      44.152  29.700  28.125  1.00  0.00    -0.354 N 
ATOM     42  C   UNL A   1      43.229  25.532  27.426  1.00  0.00     0.074 A 
ATOM     43  C   UNL A   1      41.853  25.241  27.764  1.00  0.00     0.031 C 
ATOM     44  C   UNL A   1      43.755  31.794  28.803  1.00  0.00     0.029 A 
ATOM     45  C   UNL A   1      44.792  30.906  28.285  1.00  0.00     0.049 A 
ATOM     46  H   UNL A   1      44.599  28.897  27.772  1.00  0.00     0.167 HD
ATOM     47  C   UNL A   1      44.105  24.620  26.942  1.00  0.00     0.037 A 
ATOM     48  C   UNL A   1      46.071  31.257  28.047  1.00  0.00     0.037 A 
ATOM     49  C   UNL A   1      45.464  24.924  26.576  1.00  0.00     0.049 A 
ATOM     50  C   UNL A   1      47.024  30.231  27.497  1.00  0.00     0.074 A 
ATOM     51  C   UNL A   1      46.415  24.084  26.024  1.00  0.00     0.029 A 
ATOM     52  N   UNL A   1      46.065  26.166  26.724  1.00  0.00    -0.354 N 
ATOM     53  N   UNL A   1      46.803  28.968  27.218  1.00  0.00    -0.248 NA
ATOM     54  C   UNL A   1      48.396  30.677  27.220  1.00  0.00     0.031 C 
ATOM     55  C   UNL A   1      47.602  24.808  25.869  1.00  0.00     0.029 A 
ATOM     56  C   UNL A   1      47.378  26.111  26.286  1.00  0.00     0.049 A 
ATOM     57  H   UNL A   1      45.624  26.967  27.086  1.00  0.00     0.167 HD
ATOM     58  C   UNL A   1      48.001  28.475  26.711  1.00  0.00     0.074 A 
ATOM     59  C   UNL A   1      48.939  29.578  26.710  1.00  0.00     0.031 C 
ATOM     60  C   UNL A   1      48.297  27.222  26.285  1.00  0.00     0.037 A 
BRANCH  47  61
ATOM     61  C   UNL A   1      43.617  23.208  26.773  1.00  0.00     0.058 A 
ATOM     62  C   UNL A   1      43.389  22.369  27.878  1.00  0.00     0.135 A 
ATOM     63  C   UNL A   1      43.349  22.691  25.495  1.00  0.00     0.135 A 
ATOM     64  F   UNL A   1      43.642  22.807  29.121  1.00  0.00    -0.206 F 
ATOM     65  C   UNL A   1      42.945  21.061  27.719  1.00  0.00     0.059 A 
ATOM     66  C   UNL A   1      42.878  21.393  25.315  1.00  0.00     0.059 A 
ATOM     67  F   UNL A   1      43.548  23.448  24.404  1.00  0.00    -0.206 F 
ATOM     68  C   UNL A   1      42.696  20.580  26.433  1.00  0.00     0.060 A 
BRANCH  68  69
ATOM     69  S   UNL A   1      42.127  18.877  26.244  1.00  0.00     0.124 S 
ATOM     70  O   UNL A   1      42.279  18.368  27.603  1.00  0.00    -0.237 OA
ATOM     71  O   UNL A   1      40.753  19.055  25.783  1.00  0.00    -0.237 OA
ATOM     72  O   UNL A   1      43.048  18.319  25.259  1.00  0.00    -0.744 OA
ENDBRANCH  68  69
ENDBRANCH  47  61
BRANCH  48  73
ATOM     73  C   UNL A   1      46.518  32.652  28.305  1.00  0.00     0.058 A 
ATOM     74  C   UNL A   1      46.417  33.636  27.311  1.00  0.00     0.135 A 
ATOM     75  C   UNL A   1      47.039  33.032  29.552  1.00  0.00     0.135 A 
ATOM     76  F   UNL A   1      45.930  33.318  26.101  1.00  0.00    -0.206 F 
ATOM     77  C   UNL A   1      46.827  34.945  27.537  1.00  0.00     0.059 A 
ATOM     78  C   UNL A   1      47.435  34.341  29.809  1.00  0.00     0.059 A 
ATOM     79  F   UNL A   1      47.142  32.131  30.541  1.00  0.00    -0.206 F 
ATOM     80  C   UNL A   1      47.334  35.289  28.791  1.00  0.00     0.060 A 
BRANCH  80  81
ATOM     81  S   UNL A   1      47.819  37.003  29.089  1.00  0.00     0.124 S 
ATOM     82  O   UNL A   1      49.274  36.900  29.091  1.00  0.00    -0.237 OA
ATOM     83  O   UNL A   1      47.229  37.693  27.946  1.00  0.00    -0.237 OA
ATOM     84  O   UNL A   1      47.205  37.305  30.378  1.00  0.00    -0.744 OA
ENDBRANCH  80  81
ENDBRANCH  48  73
BRANCH  60  85
ATOM     85  C   UNL A   1      49.681  26.983  25.751  1.00  0.00     0.058 A 
ATOM     86  C   UNL A   1      50.007  27.235  24.409  1.00  0.00     0.135 A 
ATOM     87  C   UNL A   1      50.707  26.547  26.605  1.00  0.00     0.135 A 
ATOM     88  F   UNL A   1      49.061  27.648  23.551  1.00  0.00    -0.206 F 
ATOM     89  C   UNL A   1      51.299  27.044  23.928  1.00  0.00     0.059 A 
ATOM     90  C   UNL A   1      52.011  26.373  26.152  1.00  0.00     0.059 A 
ATOM     91  F   UNL A   1      50.449  26.302  27.900  1.00  0.00    -0.206 F 
ATOM     92  C   UNL A   1      52.294  26.614  24.808  1.00  0.00     0.060 A 
BRANCH  92  93
ATOM     93  S   UNL A   1      53.974  26.407  24.180  1.00  0.00     0.124 S 
ATOM     94  O   UNL A   1      54.585  27.680  24.549  1.00  0.00    -0.237 OA
ATOM     95  O   UNL A   1      54.444  25.240  24.921  1.00  0.00    -0.237 OA
ATOM     96  O   UNL A   1      53.777  26.195  22.749  1.00  0.00    -0.744 OA
ENDBRANCH  92  93
ENDBRANCH  60  85
ENDBRANCH  34  35
ENDBRANCH  26  29
ENDBRANCH  24  25
ENDBRANCH  23  24
ENDBRANCH   1  23
TORSDOF 18
ENDMDL
MODEL 3
REMARK VINA RESULT:     -11.2      4.652     10.428
REMARK SMILES CC[C@@](C)(NC(=O)c1cncc(O)c1)C(=O)NCCCCNC(=O)c1ccc(-c2c3nc(c(-c4c(F)cc(S(=O)(=O)[O-])cc4F)c4ccc([nH]4)c(-c4c(F)cc(S(=O)(=O)[O-])cc4F)c4nc(c(-c5c(F)cc(S(=O)(=O)[O-])cc5F)c5ccc2[nH]5)C=C4)C=C3)cc1
REMARK SMILES IDX 19 1 18 2 17 3 15 4 16 5 3 7 4 8 2 9 1 10 5 11 6 12 7 14
REMARK SMILES IDX 8 15 9 16 14 17 10 18 12 19 11 20 13 21 20 23 21 24 22 25
REMARK SMILES IDX 23 26 24 28 25 29 26 30 90 31 27 32 89 33 28 34 29 35 30 36
REMARK SMILES IDX 83 37 31 38 88 39 82 40 84 41 32 42 87 43 81 44 80 45 33 47
REMARK SMILES IDX 67 48 46 49 66 50 47 51 50 52 65 53 85 54 48 55 49 56 64 58
REMARK SMILES IDX 86 59 51 60 34 61 35 62 44 63 36 64 37 65 43 66 45 67 38 68
REMARK SMILES IDX 39 69 40 70 41 71 42 72 68 73 69 74 78 75 70 76 71 77 77 78
REMARK SMILES IDX 79 79 72 80 73 81 74 82 75 83 76 84 52 85 53 86 62 87 54 88
REMARK SMILES IDX 55 89 61 90 63 91 56 92 57 93 58 94 59 95 60 96
REMARK H PARENT 17 6 5 13 13 22 22 27 84 46 50 57
REMARK Flexibility Score: inf
ROOT
ATOM      1  C   UNL A   1      33.867  24.236  25.348  1.00  0.00     0.023 C 
ENDROOT
BRANCH   1   2
ATOM      2  C   UNL A   1      33.756  25.748  25.543  1.00  0.00     0.116 C 
BRANCH   2   3
ATOM      3  N   UNL A   1      32.675  26.233  26.386  1.00  0.00    -0.354 N 
ATOM      4  C   UNL A   1      32.173  27.476  26.649  1.00  0.00     0.245 C 
ATOM      5  O   UNL A   1      31.091  27.486  27.246  1.00  0.00    -0.272 OA
ATOM      6  H   UNL A   1      32.207  25.514  26.869  1.00  0.00     0.163 HD
BRANCH   4   7
ATOM      7  C   UNL A   1      32.850  28.795  26.177  1.00  0.00     0.116 C 
ATOM      8  C   UNL A   1      31.929  29.947  26.652  1.00  0.00     0.045 C 
BRANCH   7   9
ATOM      9  C   UNL A   1      34.267  29.033  26.785  1.00  0.00     0.035 C 
ATOM     10  C   UNL A   1      34.524  30.355  27.499  1.00  0.00     0.007 C 
ENDBRANCH   7   9
BRANCH   7  11
ATOM     11  N   UNL A   1      32.987  28.904  24.701  1.00  0.00    -0.338 N 
ATOM     12  C   UNL A   1      32.176  28.587  23.634  1.00  0.00     0.253 C 
ATOM     13  H   UNL A   1      33.850  29.287  24.425  1.00  0.00     0.164 HD
ATOM     14  O   UNL A   1      32.773  28.324  22.586  1.00  0.00    -0.269 OA
BRANCH  12  15
ATOM     15  C   UNL A   1      30.688  28.598  23.601  1.00  0.00     0.061 A 
ATOM     16  C   UNL A   1      30.036  27.368  23.709  1.00  0.00     0.125 A 
ATOM     17  C   UNL A   1      29.878  29.685  23.288  1.00  0.00     0.063 A 
ATOM     18  N   UNL A   1      28.702  27.171  23.525  1.00  0.00    -0.260 NA
ATOM     19  C   UNL A   1      28.514  29.517  23.066  1.00  0.00     0.134 A 
ATOM     20  C   UNL A   1      27.971  28.254  23.182  1.00  0.00     0.157 A 
BRANCH  19  21
ATOM     21  O   UNL A   1      27.725  30.560  22.687  1.00  0.00    -0.506 OA
ATOM     22  H   UNL A   1      28.110  31.395  22.500  1.00  0.00     0.293 HD
ENDBRANCH  19  21
ENDBRANCH  12  15
ENDBRANCH   7  11
ENDBRANCH   4   7
ENDBRANCH   2   3
ENDBRANCH   1   2
BRANCH   1  23
ATOM     23  C   UNL A   1      35.179  23.675  24.800  1.00  0.00     0.023 C 
BRANCH  23  24
ATOM     24  C   UNL A   1      36.455  24.115  25.495  1.00  0.00     0.116 C 
BRANCH  24  25
ATOM     25  N   UNL A   1      37.459  23.069  25.540  1.00  0.00    -0.352 N 
ATOM     26  C   UNL A   1      38.720  23.100  26.078  1.00  0.00     0.251 C 
ATOM     27  H   UNL A   1      37.197  22.215  25.125  1.00  0.00     0.163 HD
ATOM     28  O   UNL A   1      39.479  22.148  25.884  1.00  0.00    -0.269 OA
BRANCH  26  29
ATOM     29  C   UNL A   1      39.182  24.267  26.864  1.00  0.00     0.039 A 
ATOM     30  C   UNL A   1      39.987  25.224  26.235  1.00  0.00     0.014 A 
ATOM     31  C   UNL A   1      38.853  24.415  28.214  1.00  0.00     0.014 A 
ATOM     32  C   UNL A   1      40.422  26.346  26.946  1.00  0.00     0.010 A 
ATOM     33  C   UNL A   1      39.229  25.569  28.902  1.00  0.00     0.010 A 
ATOM     34  C   UNL A   1      40.028  26.539  28.280  1.00  0.00    -0.014 A 
BRANCH  34  35
ATOM     35  C   UNL A   1      40.466  27.734  29.048  1.00  0.00     0.031 A 
ATOM     36  C   UNL A   1      41.808  27.739  29.732  1.00  0.00     0.074 A 
ATOM     37  C   UNL A   1      39.639  28.790  29.177  1.00  0.00     0.049 A 
ATOM     38  N   UNL A   1      42.340  28.651  30.505  1.00  0.00    -0.248 NA
ATOM     39  C   UNL A   1      42.652  26.548  29.543  1.00  0.00     0.031 C 
ATOM     40  C   UNL A   1      38.296  28.887  28.601  1.00  0.00     0.029 A 
ATOM     41  N   UNL A   1      39.799  29.978  29.845  1.00  0.00    -0.354 N 
ATOM     42  C   UNL A   1      43.568  28.139  30.908  1.00  0.00     0.074 A 
ATOM     43  C   UNL A   1      43.680  26.816  30.335  1.00  0.00     0.031 C 
ATOM     44  C   UNL A   1      37.763  30.077  28.926  1.00  0.00     0.029 A 
ATOM     45  C   UNL A   1      38.710  30.813  29.759  1.00  0.00     0.049 A 
ATOM     46  H   UNL A   1      40.618  30.212  30.339  1.00  0.00     0.167 HD
ATOM     47  C   UNL A   1      44.524  28.727  31.667  1.00  0.00     0.037 A 
ATOM     48  C   UNL A   1      38.496  32.029  30.295  1.00  0.00     0.037 A 
ATOM     49  C   UNL A   1      44.420  30.057  32.206  1.00  0.00     0.049 A 
ATOM     50  C   UNL A   1      39.577  32.669  31.123  1.00  0.00     0.074 A 
ATOM     51  C   UNL A   1      45.357  30.765  32.939  1.00  0.00     0.029 A 
ATOM     52  N   UNL A   1      43.313  30.882  32.070  1.00  0.00    -0.354 N 
ATOM     53  N   UNL A   1      40.756  32.193  31.446  1.00  0.00    -0.248 NA
ATOM     54  C   UNL A   1      39.306  34.012  31.651  1.00  0.00     0.031 C 
ATOM     55  C   UNL A   1      44.803  32.005  33.276  1.00  0.00     0.029 A 
ATOM     56  C   UNL A   1      43.537  32.086  32.718  1.00  0.00     0.049 A 
ATOM     57  H   UNL A   1      42.489  30.648  31.586  1.00  0.00     0.167 HD
ATOM     58  C   UNL A   1      41.376  33.188  32.196  1.00  0.00     0.074 A 
ATOM     59  C   UNL A   1      40.446  34.295  32.267  1.00  0.00     0.031 C 
ATOM     60  C   UNL A   1      42.603  33.183  32.772  1.00  0.00     0.037 A 
BRANCH  47  61
ATOM     61  C   UNL A   1      45.771  27.935  31.949  1.00  0.00     0.058 A 
ATOM     62  C   UNL A   1      46.924  28.069  31.157  1.00  0.00     0.135 A 
ATOM     63  C   UNL A   1      45.826  27.050  33.038  1.00  0.00     0.135 A 
ATOM     64  F   UNL A   1      46.922  28.889  30.095  1.00  0.00    -0.206 F 
ATOM     65  C   UNL A   1      48.073  27.329  31.414  1.00  0.00     0.059 A 
ATOM     66  C   UNL A   1      46.976  26.321  33.330  1.00  0.00     0.059 A 
ATOM     67  F   UNL A   1      44.754  26.883  33.829  1.00  0.00    -0.206 F 
ATOM     68  C   UNL A   1      48.089  26.455  32.501  1.00  0.00     0.060 A 
BRANCH  68  69
ATOM     69  S   UNL A   1      49.586  25.498  32.817  1.00  0.00     0.124 S 
ATOM     70  O   UNL A   1      49.110  24.532  33.803  1.00  0.00    -0.237 OA
ATOM     71  O   UNL A   1      49.897  24.955  31.498  1.00  0.00    -0.237 OA
ATOM     72  O   UNL A   1      50.527  26.494  33.319  1.00  0.00    -0.744 OA
ENDBRANCH  68  69
ENDBRANCH  47  61
BRANCH  48  73
ATOM     73  C   UNL A   1      37.211  32.735  30.044  1.00  0.00     0.058 A 
ATOM     74  C   UNL A   1      36.094  32.511  30.863  1.00  0.00     0.135 A 
ATOM     75  C   UNL A   1      37.078  33.657  28.994  1.00  0.00     0.135 A 
ATOM     76  F   UNL A   1      36.172  31.634  31.875  1.00  0.00    -0.206 F 
ATOM     77  C   UNL A   1      34.886  33.165  30.643  1.00  0.00     0.059 A 
ATOM     78  C   UNL A   1      35.887  34.341  28.768  1.00  0.00     0.059 A 
ATOM     79  F   UNL A   1      38.121  33.917  28.191  1.00  0.00    -0.206 F 
ATOM     80  C   UNL A   1      34.793  34.080  29.593  1.00  0.00     0.060 A 
BRANCH  80  81
ATOM     81  S   UNL A   1      33.235  34.959  29.347  1.00  0.00     0.124 S 
ATOM     82  O   UNL A   1      32.667  34.932  30.691  1.00  0.00    -0.237 OA
ATOM     83  O   UNL A   1      33.688  36.262  28.872  1.00  0.00    -0.237 OA
ATOM     84  O   UNL A   1      32.544  34.144  28.353  1.00  0.00    -0.744 OA
ENDBRANCH  80  81
ENDBRANCH  48  73
BRANCH  60  85
ATOM     85  C   UNL A   1      43.028  34.425  33.503  1.00  0.00     0.058 A 
ATOM     86  C   UNL A   1      42.789  34.590  34.876  1.00  0.00     0.135 A 
ATOM     87  C   UNL A   1      43.731  35.440  32.833  1.00  0.00     0.135 A 
ATOM     88  F   UNL A   1      42.116  33.653  35.562  1.00  0.00    -0.206 F 
ATOM     89  C   UNL A   1      43.215  35.728  35.555  1.00  0.00     0.059 A 
ATOM     90  C   UNL A   1      44.188  36.574  33.497  1.00  0.00     0.059 A 
ATOM     91  F   UNL A   1      43.994  35.325  31.521  1.00  0.00    -0.206 F 
ATOM     92  C   UNL A   1      43.915  36.713  34.857  1.00  0.00     0.060 A 
BRANCH  92  93
ATOM     93  S   UNL A   1      44.495  38.167  35.757  1.00  0.00     0.124 S 
ATOM     94  O   UNL A   1      43.966  39.251  34.937  1.00  0.00    -0.237 OA
ATOM     95  O   UNL A   1      43.869  37.997  37.064  1.00  0.00    -0.237 OA
ATOM     96  O   UNL A   1      45.948  38.018  35.741  1.00  0.00    -0.744 OA
ENDBRANCH  92  93
ENDBRANCH  60  85
ENDBRANCH  34  35
ENDBRANCH  26  29
ENDBRANCH  24  25
ENDBRANCH  23  24
ENDBRANCH   1  23
TORSDOF 18
ENDMDL
