MODEL 1
REMARK VINA RESULT:     -11.4      0.000      0.000
REMARK SMILES Cc1ccc(OCCNc2ccc(Cl)cc2C(=O)NCCCCNC(=O)c2ccc(-c3c4nc(c(-c5c(F)cc(S(=O)(=O)[O-])cc5F)c5ccc([nH]5)c(-c5c(F)cc(S(=O)(=O)[O-])cc5F)c5nc(c(-c6c(F)cc(S(=O)(=O)[O-])cc6F)c6ccc3[nH]6)C=C5)C=C4)cc2)cc1C
REMARK SMILES IDX 20 1 19 2 17 3 18 4 16 6 10 7 11 8 12 9 15 10 13 11 14 12
REMARK SMILES IDX 9 13 8 15 7 16 6 17 5 18 1 19 2 20 3 21 94 22 4 23 93 24
REMARK SMILES IDX 95 25 21 26 22 27 23 28 24 29 25 30 26 32 27 33 28 34 92 35
REMARK SMILES IDX 29 36 91 37 30 38 31 39 32 40 85 41 33 42 90 43 84 44 86 45
REMARK SMILES IDX 34 46 89 47 83 48 82 49 35 51 69 52 48 53 68 54 49 55 52 56
REMARK SMILES IDX 67 57 87 58 50 59 51 60 66 62 88 63 53 64 36 65 37 66 46 67
REMARK SMILES IDX 38 68 39 69 45 70 47 71 40 72 41 73 42 74 43 75 44 76 70 77
REMARK SMILES IDX 71 78 80 79 72 80 73 81 79 82 81 83 74 84 75 85 76 86 77 87
REMARK SMILES IDX 78 88 54 89 55 90 64 91 56 92 57 93 63 94 65 95 58 96 59 97
REMARK SMILES IDX 60 98 61 99 62 100
REMARK H PARENT 19 5 9 14 24 31 86 50 52 61
REMARK Flexibility Score: inf
ROOT
ATOM      1  C   UNL A   1      33.575  26.951  24.492  1.00  0.00     0.116 C 
ENDROOT
BRANCH   1   2
ATOM      2  N   UNL A   1      33.456  26.201  23.263  1.00  0.00    -0.352 N 
ATOM      3  C   UNL A   1      32.343  26.016  22.461  1.00  0.00     0.253 C 
ATOM      4  O   UNL A   1      32.462  25.312  21.456  1.00  0.00    -0.269 OA
ATOM      5  H   UNL A   1      34.279  25.761  22.953  1.00  0.00     0.163 HD
BRANCH   3   6
ATOM      6  C   UNL A   1      30.982  26.556  22.784  1.00  0.00     0.064 A 
ATOM      7  C   UNL A   1      29.976  25.897  23.538  1.00  0.00     0.047 A 
ATOM      8  C   UNL A   1      28.764  26.573  23.765  1.00  0.00     0.028 A 
ATOM      9  C   UNL A   1      28.576  27.892  23.344  1.00  0.00     0.022 A 
ATOM     10  C   UNL A   1      30.793  27.898  22.396  1.00  0.00     0.036 A 
ATOM     11  C   UNL A   1      29.606  28.560  22.693  1.00  0.00     0.041 A 
ATOM     12  Cl  UNL A   1      29.427  30.225  22.298  1.00  0.00    -0.084 Cl
BRANCH   7  13
ATOM     13  N   UNL A   1      30.258  24.793  24.326  1.00  0.00    -0.381 N 
ATOM     14  H   UNL A   1      30.002  23.916  23.956  1.00  0.00     0.160 HD
BRANCH  13  15
ATOM     15  C   UNL A   1      30.891  24.782  25.637  1.00  0.00     0.154 C 
BRANCH  15  16
ATOM     16  C   UNL A   1      31.889  23.601  25.745  1.00  0.00     0.250 C 
BRANCH  16  17
ATOM     17  O   UNL A   1      32.874  23.540  24.701  1.00  0.00    -0.492 OA
BRANCH  17  18
ATOM     18  C   UNL A   1      34.051  22.889  24.968  1.00  0.00     0.119 A 
ATOM     19  C   UNL A   1      37.962  21.041  25.163  1.00  0.00     0.044 C 
ATOM     20  C   UNL A   1      36.617  21.709  25.179  1.00  0.00    -0.048 A 
ATOM     21  C   UNL A   1      35.500  20.934  24.902  1.00  0.00     0.007 A 
ATOM     22  C   UNL A   1      36.429  23.069  25.491  1.00  0.00    -0.045 A 
ATOM     23  C   UNL A   1      34.242  21.522  24.845  1.00  0.00     0.047 A 
ATOM     24  C   UNL A   1      35.153  23.657  25.328  1.00  0.00     0.050 A 
ATOM     25  C   UNL A   1      37.545  23.880  26.085  1.00  0.00     0.045 C 
ENDBRANCH  17  18
ENDBRANCH  16  17
ENDBRANCH  15  16
ENDBRANCH  13  15
ENDBRANCH   7  13
ENDBRANCH   3   6
ENDBRANCH   1   2
BRANCH   1  26
ATOM     26  C   UNL A   1      33.629  28.485  24.385  1.00  0.00     0.023 C 
BRANCH  26  27
ATOM     27  C   UNL A   1      32.993  29.419  25.431  1.00  0.00     0.023 C 
BRANCH  27  28
ATOM     28  C   UNL A   1      33.214  29.249  26.939  1.00  0.00     0.116 C 
BRANCH  28  29
ATOM     29  N   UNL A   1      33.348  30.462  27.731  1.00  0.00    -0.352 N 
ATOM     30  C   UNL A   1      34.462  31.012  28.337  1.00  0.00     0.251 C 
ATOM     31  H   UNL A   1      32.514  30.970  27.855  1.00  0.00     0.163 HD
ATOM     32  O   UNL A   1      34.372  32.143  28.815  1.00  0.00    -0.269 OA
BRANCH  30  33
ATOM     33  C   UNL A   1      35.726  30.246  28.519  1.00  0.00     0.039 A 
ATOM     34  C   UNL A   1      36.596  30.153  27.423  1.00  0.00     0.014 A 
ATOM     35  C   UNL A   1      36.095  29.651  29.727  1.00  0.00     0.014 A 
ATOM     36  C   UNL A   1      37.877  29.606  27.578  1.00  0.00     0.010 A 
ATOM     37  C   UNL A   1      37.390  29.137  29.893  1.00  0.00     0.010 A 
ATOM     38  C   UNL A   1      38.314  29.164  28.836  1.00  0.00    -0.014 A 
BRANCH  38  39
ATOM     39  C   UNL A   1      39.767  28.933  29.098  1.00  0.00     0.031 A 
ATOM     40  C   UNL A   1      40.675  30.007  29.629  1.00  0.00     0.074 A 
ATOM     41  C   UNL A   1      40.293  27.737  28.758  1.00  0.00     0.049 A 
ATOM     42  N   UNL A   1      41.963  29.953  29.862  1.00  0.00    -0.248 NA
ATOM     43  C   UNL A   1      40.066  31.311  29.922  1.00  0.00     0.031 C 
ATOM     44  C   UNL A   1      39.540  26.624  28.171  1.00  0.00     0.029 A 
ATOM     45  N   UNL A   1      41.577  27.256  28.839  1.00  0.00    -0.354 N 
ATOM     46  C   UNL A   1      42.326  31.213  30.324  1.00  0.00     0.074 A 
ATOM     47  C   UNL A   1      41.121  32.020  30.307  1.00  0.00     0.031 C 
ATOM     48  C   UNL A   1      40.369  25.591  27.962  1.00  0.00     0.029 A 
ATOM     49  C   UNL A   1      41.719  25.973  28.365  1.00  0.00     0.049 A 
ATOM     50  H   UNL A   1      42.327  27.782  29.203  1.00  0.00     0.167 HD
ATOM     51  C   UNL A   1      43.543  31.651  30.735  1.00  0.00     0.037 A 
ATOM     52  C   UNL A   1      42.807  25.185  28.253  1.00  0.00     0.037 A 
ATOM     53  C   UNL A   1      44.742  30.847  30.757  1.00  0.00     0.049 A 
ATOM     54  C   UNL A   1      44.143  25.693  28.714  1.00  0.00     0.074 A 
ATOM     55  C   UNL A   1      46.001  31.191  31.223  1.00  0.00     0.029 A 
ATOM     56  N   UNL A   1      44.840  29.546  30.285  1.00  0.00    -0.354 N 
ATOM     57  N   UNL A   1      44.445  26.861  29.227  1.00  0.00    -0.248 NA
ATOM     58  C   UNL A   1      45.284  24.776  28.586  1.00  0.00     0.031 C 
ATOM     59  C   UNL A   1      46.868  30.115  30.996  1.00  0.00     0.029 A 
ATOM     60  C   UNL A   1      46.141  29.085  30.425  1.00  0.00     0.049 A 
ATOM     61  H   UNL A   1      44.095  29.026  29.904  1.00  0.00     0.167 HD
ATOM     62  C   UNL A   1      45.807  26.812  29.501  1.00  0.00     0.074 A 
ATOM     63  C   UNL A   1      46.268  25.497  29.109  1.00  0.00     0.031 C 
ATOM     64  C   UNL A   1      46.600  27.775  30.032  1.00  0.00     0.037 A 
BRANCH  51  65
ATOM     65  C   UNL A   1      43.650  33.077  31.205  1.00  0.00     0.058 A 
ATOM     66  C   UNL A   1      43.453  33.421  32.551  1.00  0.00     0.135 A 
ATOM     67  C   UNL A   1      44.010  34.103  30.314  1.00  0.00     0.135 A 
ATOM     68  F   UNL A   1      43.106  32.482  33.445  1.00  0.00    -0.206 F 
ATOM     69  C   UNL A   1      43.576  34.735  32.993  1.00  0.00     0.059 A 
ATOM     70  C   UNL A   1      44.162  35.421  30.738  1.00  0.00     0.059 A 
ATOM     71  F   UNL A   1      44.221  33.828  29.017  1.00  0.00    -0.206 F 
ATOM     72  C   UNL A   1      43.926  35.729  32.077  1.00  0.00     0.060 A 
BRANCH  72  73
ATOM     73  S   UNL A   1      44.071  37.430  32.664  1.00  0.00     0.124 S 
ATOM     74  O   UNL A   1      43.822  38.182  31.439  1.00  0.00    -0.237 OA
ATOM     75  O   UNL A   1      43.024  37.504  33.677  1.00  0.00    -0.237 OA
ATOM     76  O   UNL A   1      45.438  37.498  33.175  1.00  0.00    -0.744 OA
ENDBRANCH  72  73
ENDBRANCH  51  65
BRANCH  52  77
ATOM     77  C   UNL A   1      42.667  23.814  27.698  1.00  0.00     0.058 A 
ATOM     78  C   UNL A   1      42.745  23.587  26.317  1.00  0.00     0.135 A 
ATOM     79  C   UNL A   1      42.483  22.703  28.536  1.00  0.00     0.135 A 
ATOM     80  F   UNL A   1      42.914  24.619  25.476  1.00  0.00    -0.206 F 
ATOM     81  C   UNL A   1      42.639  22.308  25.782  1.00  0.00     0.059 A 
ATOM     82  C   UNL A   1      42.396  21.412  28.027  1.00  0.00     0.059 A 
ATOM     83  F   UNL A   1      42.419  22.868  29.866  1.00  0.00    -0.206 F 
ATOM     84  C   UNL A   1      42.467  21.225  26.647  1.00  0.00     0.060 A 
BRANCH  84  85
ATOM     85  S   UNL A   1      42.394  19.561  25.949  1.00  0.00     0.124 S 
ATOM     86  O   UNL A   1      40.971  19.425  25.665  1.00  0.00    -0.237 OA
ATOM     87  O   UNL A   1      43.270  19.676  24.786  1.00  0.00    -0.237 OA
ATOM     88  O   UNL A   1      42.908  18.724  27.028  1.00  0.00    -0.744 OA
ENDBRANCH  84  85
ENDBRANCH  52  77
BRANCH  64  89
ATOM     89  C   UNL A   1      48.051  27.439  30.241  1.00  0.00     0.058 A 
ATOM     90  C   UNL A   1      48.505  26.843  31.428  1.00  0.00     0.135 A 
ATOM     91  C   UNL A   1      48.992  27.677  29.225  1.00  0.00     0.135 A 
ATOM     92  F   UNL A   1      47.650  26.606  32.434  1.00  0.00    -0.206 F 
ATOM     93  C   UNL A   1      49.844  26.506  31.606  1.00  0.00     0.059 A 
ATOM     94  C   UNL A   1      50.332  27.328  29.375  1.00  0.00     0.059 A 
ATOM     95  F   UNL A   1      48.610  28.241  28.069  1.00  0.00    -0.206 F 
ATOM     96  C   UNL A   1      50.750  26.752  30.573  1.00  0.00     0.060 A 
BRANCH  96  97
ATOM     97  S   UNL A   1      52.477  26.274  30.801  1.00  0.00     0.124 S 
ATOM     98  O   UNL A   1      52.899  26.030  29.426  1.00  0.00    -0.237 OA
ATOM     99  O   UNL A   1      53.048  27.457  31.439  1.00  0.00    -0.237 OA
ATOM    100  O   UNL A   1      52.392  25.091  31.653  1.00  0.00    -0.744 OA
ENDBRANCH  96  97
ENDBRANCH  64  89
ENDBRANCH  38  39
ENDBRANCH  30  33
ENDBRANCH  28  29
ENDBRANCH  27  28
ENDBRANCH  26  27
ENDBRANCH   1  26
TORSDOF 19
ENDMDL
MODEL 2
REMARK VINA RESULT:     -11.0      3.161      8.182
REMARK SMILES Cc1ccc(OCCNc2ccc(Cl)cc2C(=O)NCCCCNC(=O)c2ccc(-c3c4nc(c(-c5c(F)cc(S(=O)(=O)[O-])cc5F)c5ccc([nH]5)c(-c5c(F)cc(S(=O)(=O)[O-])cc5F)c5nc(c(-c6c(F)cc(S(=O)(=O)[O-])cc6F)c6ccc3[nH]6)C=C5)C=C4)cc2)cc1C
REMARK SMILES IDX 20 1 19 2 17 3 18 4 16 6 10 7 11 8 12 9 15 10 13 11 14 12
REMARK SMILES IDX 9 13 8 15 7 16 6 17 5 18 1 19 2 20 3 21 94 22 4 23 93 24
REMARK SMILES IDX 95 25 21 26 22 27 23 28 24 29 25 30 26 32 27 33 28 34 92 35
REMARK SMILES IDX 29 36 91 37 30 38 31 39 32 40 85 41 33 42 90 43 84 44 86 45
REMARK SMILES IDX 34 46 89 47 83 48 82 49 35 51 69 52 48 53 68 54 49 55 52 56
REMARK SMILES IDX 67 57 87 58 50 59 51 60 66 62 88 63 53 64 36 65 37 66 46 67
REMARK SMILES IDX 38 68 39 69 45 70 47 71 40 72 41 73 42 74 43 75 44 76 70 77
REMARK SMILES IDX 71 78 80 79 72 80 73 81 79 82 81 83 74 84 75 85 76 86 77 87
REMARK SMILES IDX 78 88 54 89 55 90 64 91 56 92 57 93 63 94 65 95 58 96 59 97
REMARK SMILES IDX 60 98 61 99 62 100
REMARK H PARENT 19 5 9 14 24 31 86 50 52 61
REMARK Flexibility Score: inf
ROOT
ATOM      1  C   UNL A   1      34.070  24.361  25.924  1.00  0.00     0.116 C 
ENDROOT
BRANCH   1   2
ATOM      2  N   UNL A   1      32.714  24.241  26.406  1.00  0.00    -0.352 N 
ATOM      3  C   UNL A   1      31.711  23.387  25.981  1.00  0.00     0.253 C 
ATOM      4  O   UNL A   1      30.608  23.470  26.524  1.00  0.00    -0.269 OA
ATOM      5  H   UNL A   1      32.469  24.850  27.139  1.00  0.00     0.163 HD
BRANCH   3   6
ATOM      6  C   UNL A   1      31.864  22.421  24.844  1.00  0.00     0.064 A 
ATOM      7  C   UNL A   1      31.724  22.722  23.464  1.00  0.00     0.047 A 
ATOM      8  C   UNL A   1      31.931  21.689  22.533  1.00  0.00     0.028 A 
ATOM      9  C   UNL A   1      32.354  20.420  22.936  1.00  0.00     0.022 A 
ATOM     10  C   UNL A   1      32.323  21.147  25.235  1.00  0.00     0.036 A 
ATOM     11  C   UNL A   1      32.582  20.166  24.283  1.00  0.00     0.041 A 
ATOM     12  Cl  UNL A   1      33.235  18.649  24.766  1.00  0.00    -0.084 Cl
BRANCH   7  13
ATOM     13  N   UNL A   1      31.730  24.026  22.996  1.00  0.00    -0.381 N 
ATOM     14  H   UNL A   1      31.043  24.627  23.367  1.00  0.00     0.160 HD
BRANCH  13  15
ATOM     15  C   UNL A   1      32.636  24.608  22.017  1.00  0.00     0.154 C 
BRANCH  15  16
ATOM     16  C   UNL A   1      32.460  26.148  21.966  1.00  0.00     0.250 C 
BRANCH  16  17
ATOM     17  O   UNL A   1      31.681  26.706  23.036  1.00  0.00    -0.492 OA
BRANCH  17  18
ATOM     18  C   UNL A   1      32.352  27.204  24.124  1.00  0.00     0.119 A 
ATOM     19  C   UNL A   1      34.189  29.402  27.371  1.00  0.00     0.044 C 
ATOM     20  C   UNL A   1      33.534  28.574  26.303  1.00  0.00    -0.048 A 
ATOM     21  C   UNL A   1      34.279  28.256  25.175  1.00  0.00     0.007 A 
ATOM     22  C   UNL A   1      32.219  28.081  26.399  1.00  0.00    -0.045 A 
ATOM     23  C   UNL A   1      33.695  27.545  24.134  1.00  0.00     0.047 A 
ATOM     24  C   UNL A   1      31.623  27.447  25.283  1.00  0.00     0.050 A 
ATOM     25  C   UNL A   1      31.474  28.134  27.702  1.00  0.00     0.045 C 
ENDBRANCH  17  18
ENDBRANCH  16  17
ENDBRANCH  15  16
ENDBRANCH  13  15
ENDBRANCH   7  13
ENDBRANCH   3   6
ENDBRANCH   1   2
BRANCH   1  26
ATOM     26  C   UNL A   1      35.113  23.380  26.488  1.00  0.00     0.023 C 
BRANCH  26  27
ATOM     27  C   UNL A   1      35.991  22.487  25.592  1.00  0.00     0.023 C 
BRANCH  27  28
ATOM     28  C   UNL A   1      37.256  23.001  24.893  1.00  0.00     0.116 C 
BRANCH  28  29
ATOM     29  N   UNL A   1      38.516  22.372  25.257  1.00  0.00    -0.352 N 
ATOM     30  C   UNL A   1      39.479  22.765  26.169  1.00  0.00     0.251 C 
ATOM     31  H   UNL A   1      38.715  21.535  24.778  1.00  0.00     0.163 HD
ATOM     32  O   UNL A   1      40.389  21.982  26.437  1.00  0.00    -0.269 OA
BRANCH  30  33
ATOM     33  C   UNL A   1      39.504  24.135  26.754  1.00  0.00     0.039 A 
ATOM     34  C   UNL A   1      38.785  24.350  27.939  1.00  0.00     0.014 A 
ATOM     35  C   UNL A   1      40.230  25.192  26.203  1.00  0.00     0.014 A 
ATOM     36  C   UNL A   1      38.913  25.559  28.637  1.00  0.00     0.010 A 
ATOM     37  C   UNL A   1      40.389  26.388  26.918  1.00  0.00     0.010 A 
ATOM     38  C   UNL A   1      39.780  26.561  28.172  1.00  0.00    -0.014 A 
BRANCH  38  39
ATOM     39  C   UNL A   1      40.210  27.673  29.072  1.00  0.00     0.031 A 
ATOM     40  C   UNL A   1      39.376  28.904  29.293  1.00  0.00     0.074 A 
ATOM     41  C   UNL A   1      41.435  27.599  29.634  1.00  0.00     0.049 A 
ATOM     42  N   UNL A   1      39.650  29.963  30.015  1.00  0.00    -0.248 NA
ATOM     43  C   UNL A   1      38.079  28.964  28.607  1.00  0.00     0.031 C 
ATOM     44  C   UNL A   1      42.378  26.491  29.452  1.00  0.00     0.029 A 
ATOM     45  N   UNL A   1      42.109  28.469  30.457  1.00  0.00    -0.354 N 
ATOM     46  C   UNL A   1      38.566  30.820  29.870  1.00  0.00     0.074 A 
ATOM     47  C   UNL A   1      37.643  30.167  28.962  1.00  0.00     0.031 C 
ATOM     48  C   UNL A   1      43.494  26.741  30.153  1.00  0.00     0.029 A 
ATOM     49  C   UNL A   1      43.367  28.040  30.806  1.00  0.00     0.049 A 
ATOM     50  H   UNL A   1      41.725  29.323  30.766  1.00  0.00     0.167 HD
ATOM     51  C   UNL A   1      38.354  32.030  30.448  1.00  0.00     0.037 A 
ATOM     52  C   UNL A   1      44.323  28.619  31.559  1.00  0.00     0.037 A 
ATOM     53  C   UNL A   1      39.270  32.679  31.356  1.00  0.00     0.049 A 
ATOM     54  C   UNL A   1      44.065  29.958  32.188  1.00  0.00     0.074 A 
ATOM     55  C   UNL A   1      39.102  33.872  32.041  1.00  0.00     0.029 A 
ATOM     56  N   UNL A   1      40.526  32.202  31.699  1.00  0.00    -0.354 N 
ATOM     57  N   UNL A   1      42.996  30.712  32.104  1.00  0.00    -0.248 NA
ATOM     58  C   UNL A   1      45.140  30.523  33.016  1.00  0.00     0.031 C 
ATOM     59  C   UNL A   1      40.271  34.137  32.764  1.00  0.00     0.029 A 
ATOM     60  C   UNL A   1      41.153  33.089  32.563  1.00  0.00     0.049 A 
ATOM     61  H   UNL A   1      40.918  31.359  31.376  1.00  0.00     0.167 HD
ATOM     62  C   UNL A   1      43.262  31.832  32.885  1.00  0.00     0.074 A 
ATOM     63  C   UNL A   1      44.586  31.652  33.441  1.00  0.00     0.031 C 
ATOM     64  C   UNL A   1      42.473  32.910  33.116  1.00  0.00     0.037 A 
BRANCH  51  65
ATOM     65  C   UNL A   1      37.070  32.745  30.122  1.00  0.00     0.058 A 
ATOM     66  C   UNL A   1      35.905  32.541  30.878  1.00  0.00     0.135 A 
ATOM     67  C   UNL A   1      37.016  33.687  29.080  1.00  0.00     0.135 A 
ATOM     68  F   UNL A   1      35.900  31.651  31.884  1.00  0.00    -0.206 F 
ATOM     69  C   UNL A   1      34.724  33.219  30.595  1.00  0.00     0.059 A 
ATOM     70  C   UNL A   1      35.851  34.394  28.793  1.00  0.00     0.059 A 
ATOM     71  F   UNL A   1      38.103  33.929  28.331  1.00  0.00    -0.206 F 
ATOM     72  C   UNL A   1      34.706  34.141  29.546  1.00  0.00     0.060 A 
BRANCH  72  73
ATOM     73  S   UNL A   1      33.162  35.005  29.184  1.00  0.00     0.124 S 
ATOM     74  O   UNL A   1      32.513  34.999  30.491  1.00  0.00    -0.237 OA
ATOM     75  O   UNL A   1      33.630  36.304  28.715  1.00  0.00    -0.237 OA
ATOM     76  O   UNL A   1      32.533  34.165  28.167  1.00  0.00    -0.744 OA
ENDBRANCH  72  73
ENDBRANCH  51  65
BRANCH  52  77
ATOM     77  C   UNL A   1      45.612  27.913  31.779  1.00  0.00     0.058 A 
ATOM     78  C   UNL A   1      45.769  27.020  32.848  1.00  0.00     0.135 A 
ATOM     79  C   UNL A   1      46.700  28.094  30.911  1.00  0.00     0.135 A 
ATOM     80  F   UNL A   1      44.758  26.821  33.708  1.00  0.00    -0.206 F 
ATOM     81  C   UNL A   1      46.961  26.335  33.056  1.00  0.00     0.059 A 
ATOM     82  C   UNL A   1      47.895  27.402  31.084  1.00  0.00     0.059 A 
ATOM     83  F   UNL A   1      46.593  28.924  29.862  1.00  0.00    -0.206 F 
ATOM     84  C   UNL A   1      48.018  26.531  32.165  1.00  0.00     0.060 A 
BRANCH  84  85
ATOM     85  S   UNL A   1      49.539  25.589  32.405  1.00  0.00     0.124 S 
ATOM     86  O   UNL A   1      49.874  25.219  31.035  1.00  0.00    -0.237 OA
ATOM     87  O   UNL A   1      50.416  26.573  33.033  1.00  0.00    -0.237 OA
ATOM     88  O   UNL A   1      49.120  24.493  33.273  1.00  0.00    -0.744 OA
ENDBRANCH  84  85
ENDBRANCH  52  77
BRANCH  64  89
ATOM     89  C   UNL A   1      43.011  33.977  34.028  1.00  0.00     0.058 A 
ATOM     90  C   UNL A   1      43.702  35.092  33.527  1.00  0.00     0.135 A 
ATOM     91  C   UNL A   1      42.797  33.908  35.414  1.00  0.00     0.135 A 
ATOM     92  F   UNL A   1      43.945  35.202  32.212  1.00  0.00    -0.206 F 
ATOM     93  C   UNL A   1      44.174  36.094  34.371  1.00  0.00     0.059 A 
ATOM     94  C   UNL A   1      43.241  34.909  36.274  1.00  0.00     0.059 A 
ATOM     95  F   UNL A   1      42.138  32.865  35.945  1.00  0.00    -0.206 F 
ATOM     96  C   UNL A   1      43.937  35.994  35.743  1.00  0.00     0.060 A 
BRANCH  96  97
ATOM     97  S   UNL A   1      44.519  37.320  36.824  1.00  0.00     0.124 S 
ATOM     98  O   UNL A   1      43.392  37.472  37.737  1.00  0.00    -0.237 OA
ATOM     99  O   UNL A   1      45.731  36.745  37.402  1.00  0.00    -0.237 OA
ATOM    100  O   UNL A   1      44.740  38.434  35.906  1.00  0.00    -0.744 OA
ENDBRANCH  96  97
ENDBRANCH  64  89
ENDBRANCH  38  39
ENDBRANCH  30  33
ENDBRANCH  28  29
ENDBRANCH  27  28
ENDBRANCH  26  27
ENDBRANCH   1  26
TORSDOF 19
ENDMDL
MODEL 3
REMARK VINA RESULT:     -11.0      4.996     10.113
REMARK SMILES Cc1ccc(OCCNc2ccc(Cl)cc2C(=O)NCCCCNC(=O)c2ccc(-c3c4nc(c(-c5c(F)cc(S(=O)(=O)[O-])cc5F)c5ccc([nH]5)c(-c5c(F)cc(S(=O)(=O)[O-])cc5F)c5nc(c(-c6c(F)cc(S(=O)(=O)[O-])cc6F)c6ccc3[nH]6)C=C5)C=C4)cc2)cc1C
REMARK SMILES IDX 20 1 19 2 17 3 18 4 16 6 10 7 11 8 12 9 15 10 13 11 14 12
REMARK SMILES IDX 9 13 8 15 7 16 6 17 5 18 1 19 2 20 3 21 94 22 4 23 93 24
REMARK SMILES IDX 95 25 21 26 22 27 23 28 24 29 25 30 26 32 27 33 28 34 92 35
REMARK SMILES IDX 29 36 91 37 30 38 31 39 32 40 85 41 33 42 90 43 84 44 86 45
REMARK SMILES IDX 34 46 89 47 83 48 82 49 35 51 69 52 48 53 68 54 49 55 52 56
REMARK SMILES IDX 67 57 87 58 50 59 51 60 66 62 88 63 53 64 36 65 37 66 46 67
REMARK SMILES IDX 38 68 39 69 45 70 47 71 40 72 41 73 42 74 43 75 44 76 70 77
REMARK SMILES IDX 71 78 80 79 72 80 73 81 79 82 81 83 74 84 75 85 76 86 77 87
REMARK SMILES IDX 78 88 54 89 55 90 64 91 56 92 57 93 63 94 65 95 58 96 59 97
REMARK SMILES IDX 60 98 61 99 62 100
REMARK H PARENT 19 5 9 14 24 31 86 50 52 61
REMARK Flexibility Score: inf
ROOT
ATOM      1  C   UNL A   1      35.151  24.073  24.976  1.00  0.00     0.116 C 
ENDROOT
BRANCH   1   2
ATOM      2  N   UNL A   1      34.347  24.372  23.814  1.00  0.00    -0.352 N 
ATOM      3  C   UNL A   1      33.329  25.300  23.676  1.00  0.00     0.253 C 
ATOM      4  O   UNL A   1      32.755  25.374  22.588  1.00  0.00    -0.269 OA
ATOM      5  H   UNL A   1      34.551  23.844  23.009  1.00  0.00     0.163 HD
BRANCH   3   6
ATOM      6  C   UNL A   1      32.830  26.163  24.795  1.00  0.00     0.064 A 
ATOM      7  C   UNL A   1      31.583  26.033  25.462  1.00  0.00     0.047 A 
ATOM      8  C   UNL A   1      31.295  26.922  26.513  1.00  0.00     0.028 A 
ATOM      9  C   UNL A   1      32.238  27.852  26.959  1.00  0.00     0.022 A 
ATOM     10  C   UNL A   1      33.784  27.082  25.277  1.00  0.00     0.036 A 
ATOM     11  C   UNL A   1      33.491  27.902  26.362  1.00  0.00     0.041 A 
ATOM     12  Cl  UNL A   1      34.699  28.949  27.000  1.00  0.00    -0.084 Cl
BRANCH   7  13
ATOM     13  N   UNL A   1      30.811  24.888  25.353  1.00  0.00    -0.381 N 
ATOM     14  H   UNL A   1      30.166  24.865  24.608  1.00  0.00     0.160 HD
BRANCH  13  15
ATOM     15  C   UNL A   1      30.846  23.715  26.215  1.00  0.00     0.154 C 
BRANCH  15  16
ATOM     16  C   UNL A   1      31.351  22.480  25.425  1.00  0.00     0.250 C 
BRANCH  16  17
ATOM     17  O   UNL A   1      32.712  22.104  25.690  1.00  0.00    -0.492 OA
BRANCH  17  18
ATOM     18  C   UNL A   1      33.100  20.830  25.364  1.00  0.00     0.119 A 
ATOM     19  C   UNL A   1      34.392  17.058  23.674  1.00  0.00     0.044 C 
ATOM     20  C   UNL A   1      33.996  18.349  24.330  1.00  0.00    -0.048 A 
ATOM     21  C   UNL A   1      32.648  18.572  24.574  1.00  0.00     0.007 A 
ATOM     22  C   UNL A   1      34.921  19.330  24.737  1.00  0.00    -0.045 A 
ATOM     23  C   UNL A   1      32.230  19.778  25.122  1.00  0.00     0.047 A 
ATOM     24  C   UNL A   1      34.459  20.584  25.199  1.00  0.00     0.050 A 
ATOM     25  C   UNL A   1      36.392  19.026  24.775  1.00  0.00     0.045 C 
ENDBRANCH  17  18
ENDBRANCH  16  17
ENDBRANCH  15  16
ENDBRANCH  13  15
ENDBRANCH   7  13
ENDBRANCH   3   6
ENDBRANCH   1   2
BRANCH   1  26
ATOM     26  C   UNL A   1      36.623  23.688  24.740  1.00  0.00     0.023 C 
BRANCH  26  27
ATOM     27  C   UNL A   1      37.535  23.149  25.858  1.00  0.00     0.023 C 
BRANCH  27  28
ATOM     28  C   UNL A   1      38.574  24.021  26.574  1.00  0.00     0.116 C 
BRANCH  28  29
ATOM     29  N   UNL A   1      39.528  24.735  25.741  1.00  0.00    -0.352 N 
ATOM     30  C   UNL A   1      40.563  25.582  26.094  1.00  0.00     0.251 C 
ATOM     31  H   UNL A   1      39.420  24.593  24.773  1.00  0.00     0.163 HD
ATOM     32  O   UNL A   1      41.354  25.939  25.222  1.00  0.00    -0.269 OA
BRANCH  30  33
ATOM     33  C   UNL A   1      40.688  26.152  27.465  1.00  0.00     0.039 A 
ATOM     34  C   UNL A   1      41.839  26.897  27.758  1.00  0.00     0.014 A 
ATOM     35  C   UNL A   1      39.708  26.008  28.448  1.00  0.00     0.014 A 
ATOM     36  C   UNL A   1      41.936  27.609  28.961  1.00  0.00     0.010 A 
ATOM     37  C   UNL A   1      39.786  26.750  29.637  1.00  0.00     0.010 A 
ATOM     38  C   UNL A   1      40.873  27.605  29.879  1.00  0.00    -0.014 A 
BRANCH  38  39
ATOM     39  C   UNL A   1      40.799  28.630  30.963  1.00  0.00     0.031 A 
ATOM     40  C   UNL A   1      41.668  28.576  32.189  1.00  0.00     0.074 A 
ATOM     41  C   UNL A   1      39.852  29.587  30.870  1.00  0.00     0.049 A 
ATOM     42  N   UNL A   1      41.676  29.377  33.225  1.00  0.00    -0.248 NA
ATOM     43  C   UNL A   1      42.639  27.477  32.272  1.00  0.00     0.031 C 
ATOM     44  C   UNL A   1      38.897  29.720  29.766  1.00  0.00     0.029 A 
ATOM     45  N   UNL A   1      39.521  30.619  31.714  1.00  0.00    -0.354 N 
ATOM     46  C   UNL A   1      42.646  28.882  34.089  1.00  0.00     0.074 A 
ATOM     47  C   UNL A   1      43.182  27.688  33.465  1.00  0.00     0.031 C 
ATOM     48  C   UNL A   1      38.103  30.777  29.993  1.00  0.00     0.029 A 
ATOM     49  C   UNL A   1      38.464  31.379  31.272  1.00  0.00     0.049 A 
ATOM     50  H   UNL A   1      39.996  30.797  32.559  1.00  0.00     0.167 HD
ATOM     51  C   UNL A   1      43.059  29.382  35.282  1.00  0.00     0.037 A 
ATOM     52  C   UNL A   1      37.842  32.438  31.826  1.00  0.00     0.037 A 
ATOM     53  C   UNL A   1      42.529  30.573  35.902  1.00  0.00     0.049 A 
ATOM     54  C   UNL A   1      38.317  32.972  33.147  1.00  0.00     0.074 A 
ATOM     55  C   UNL A   1      42.939  31.188  37.075  1.00  0.00     0.029 A 
ATOM     56  N   UNL A   1      41.472  31.325  35.413  1.00  0.00    -0.354 N 
ATOM     57  N   UNL A   1      39.293  32.537  33.906  1.00  0.00    -0.248 NA
ATOM     58  C   UNL A   1      37.610  34.143  33.685  1.00  0.00     0.031 C 
ATOM     59  C   UNL A   1      42.104  32.285  37.316  1.00  0.00     0.029 A 
ATOM     60  C   UNL A   1      41.199  32.380  36.272  1.00  0.00     0.049 A 
ATOM     61  H   UNL A   1      40.984  31.138  34.578  1.00  0.00     0.167 HD
ATOM     62  C   UNL A   1      39.331  33.392  35.001  1.00  0.00     0.074 A 
ATOM     63  C   UNL A   1      38.288  34.377  34.802  1.00  0.00     0.031 C 
ATOM     64  C   UNL A   1      40.159  33.360  36.074  1.00  0.00     0.037 A 
BRANCH  51  65
ATOM     65  C   UNL A   1      44.150  28.642  36.009  1.00  0.00     0.058 A 
ATOM     66  C   UNL A   1      43.866  27.539  36.829  1.00  0.00     0.135 A 
ATOM     67  C   UNL A   1      45.498  29.003  35.842  1.00  0.00     0.135 A 
ATOM     68  F   UNL A   1      42.596  27.152  37.026  1.00  0.00    -0.206 F 
ATOM     69  C   UNL A   1      44.875  26.838  37.483  1.00  0.00     0.059 A 
ATOM     70  C   UNL A   1      46.526  28.302  36.468  1.00  0.00     0.059 A 
ATOM     71  F   UNL A   1      45.827  30.043  35.061  1.00  0.00    -0.206 F 
ATOM     72  C   UNL A   1      46.202  27.231  37.300  1.00  0.00     0.060 A 
BRANCH  72  73
ATOM     73  S   UNL A   1      47.498  26.318  38.164  1.00  0.00     0.124 S 
ATOM     74  O   UNL A   1      48.319  27.405  38.688  1.00  0.00    -0.237 OA
ATOM     75  O   UNL A   1      46.743  25.560  39.155  1.00  0.00    -0.237 OA
ATOM     76  O   UNL A   1      48.115  25.520  37.107  1.00  0.00    -0.744 OA
ENDBRANCH  72  73
ENDBRANCH  51  65
BRANCH  52  77
ATOM     77  C   UNL A   1      36.708  33.081  31.112  1.00  0.00     0.058 A 
ATOM     78  C   UNL A   1      35.391  32.924  31.566  1.00  0.00     0.135 A 
ATOM     79  C   UNL A   1      36.921  33.887  29.982  1.00  0.00     0.135 A 
ATOM     80  F   UNL A   1      35.139  32.157  32.638  1.00  0.00    -0.206 F 
ATOM     81  C   UNL A   1      34.321  33.536  30.923  1.00  0.00     0.059 A 
ATOM     82  C   UNL A   1      35.870  34.528  29.335  1.00  0.00     0.059 A 
ATOM     83  F   UNL A   1      38.166  34.082  29.520  1.00  0.00    -0.206 F 
ATOM     84  C   UNL A   1      34.572  34.340  29.808  1.00  0.00     0.060 A 
BRANCH  84  85
ATOM     85  S   UNL A   1      33.184  35.182  29.018  1.00  0.00     0.124 S 
ATOM     86  O   UNL A   1      32.738  34.177  28.061  1.00  0.00    -0.237 OA
ATOM     87  O   UNL A   1      32.291  35.431  30.146  1.00  0.00    -0.237 OA
ATOM     88  O   UNL A   1      33.801  36.374  28.444  1.00  0.00    -0.744 OA
ENDBRANCH  84  85
ENDBRANCH  52  77
BRANCH  64  89
ATOM     89  C   UNL A   1      39.988  34.433  37.113  1.00  0.00     0.058 A 
ATOM     90  C   UNL A   1      40.631  35.676  37.000  1.00  0.00     0.135 A 
ATOM     91  C   UNL A   1      39.136  34.234  38.212  1.00  0.00     0.135 A 
ATOM     92  F   UNL A   1      41.465  35.914  35.976  1.00  0.00    -0.206 F 
ATOM     93  C   UNL A   1      40.447  36.679  37.948  1.00  0.00     0.059 A 
ATOM     94  C   UNL A   1      38.922  35.231  39.160  1.00  0.00     0.059 A 
ATOM     95  F   UNL A   1      38.494  33.065  38.366  1.00  0.00    -0.206 F 
ATOM     96  C   UNL A   1      39.589  36.447  39.024  1.00  0.00     0.060 A 
BRANCH  96  97
ATOM     97  S   UNL A   1      39.328  37.769  40.227  1.00  0.00     0.124 S 
ATOM     98  O   UNL A   1      38.205  38.489  39.634  1.00  0.00    -0.237 OA
ATOM     99  O   UNL A   1      39.031  37.028  41.449  1.00  0.00    -0.237 OA
ATOM    100  O   UNL A   1      40.602  38.483  40.229  1.00  0.00    -0.744 OA
ENDBRANCH  96  97
ENDBRANCH  64  89
ENDBRANCH  38  39
ENDBRANCH  30  33
ENDBRANCH  28  29
ENDBRANCH  27  28
ENDBRANCH  26  27
ENDBRANCH   1  26
TORSDOF 19
ENDMDL
