MODEL 1
REMARK VINA RESULT:     -10.8      0.000      0.000
REMARK SMILES CS(=O)(=O)CC(=O)N1CCO[C@@H](CC(=O)NCCCCNC(=O)c2ccc(-c3c4nc(c(-c5c(F)cc(S(=O)(=O)[O-])cc5F)c5ccc([nH]5)c(-c5c(F)cc(S(=O)(=O)[O-])cc5F)c5nc(c(-c6c(F)cc(S(=O)(=O)[O-])cc6F)c6ccc3[nH]6)C=C5)C=C4)cc2)C1
REMARK SMILES IDX 18 1 17 2 16 3 14 4 15 5 13 7 12 8 8 9 9 10 90 11 10 12
REMARK SMILES IDX 11 13 6 14 7 15 5 16 2 17 1 18 3 19 4 20 19 21 20 22 21 23
REMARK SMILES IDX 22 24 23 26 24 27 25 28 89 29 26 30 88 31 27 32 28 33 29 34
REMARK SMILES IDX 82 35 30 36 87 37 81 38 83 39 31 40 86 41 80 42 79 43 32 45
REMARK SMILES IDX 66 46 45 47 65 48 46 49 49 50 64 51 84 52 47 53 48 54 63 56
REMARK SMILES IDX 85 57 50 58 33 59 34 60 43 61 35 62 36 63 42 64 44 65 37 66
REMARK SMILES IDX 38 67 39 68 40 69 41 70 67 71 68 72 77 73 69 74 70 75 76 76
REMARK SMILES IDX 78 77 71 78 72 79 73 80 74 81 75 82 51 83 52 84 61 85 53 86
REMARK SMILES IDX 54 87 60 88 62 89 55 90 56 91 57 92 58 93 59 94
REMARK H PARENT 16 6 21 25 83 44 49 55
REMARK Flexibility Score: inf
ROOT
ATOM      1  C   UNL A   1      39.040  23.455  26.504  1.00  0.00     0.023 C 
ENDROOT
BRANCH   1   2
ATOM      2  C   UNL A   1      37.793  22.729  25.994  1.00  0.00     0.116 C 
BRANCH   2   3
ATOM      3  N   UNL A   1      37.517  23.063  24.603  1.00  0.00    -0.356 N 
ATOM      4  C   UNL A   1      36.492  22.683  23.785  1.00  0.00     0.222 C 
ATOM      5  O   UNL A   1      36.536  23.009  22.599  1.00  0.00    -0.275 OA
ATOM      6  H   UNL A   1      38.179  23.658  24.184  1.00  0.00     0.163 HD
BRANCH   4   7
ATOM      7  C   UNL A   1      35.342  21.855  24.313  1.00  0.00     0.133 C 
BRANCH   7   8
ATOM      8  C   UNL A   1      34.354  22.670  25.156  1.00  0.00     0.147 C 
ATOM      9  N   UNL A   1      32.241  24.030  24.917  1.00  0.00    -0.337 N 
ATOM     10  C   UNL A   1      31.566  23.029  25.736  1.00  0.00     0.148 C 
ATOM     11  C   UNL A   1      33.417  23.489  24.258  1.00  0.00     0.152 C 
ATOM     12  C   UNL A   1      32.556  22.369  26.690  1.00  0.00     0.182 C 
ATOM     13  O   UNL A   1      33.605  21.724  25.951  1.00  0.00    -0.374 OA
BRANCH   9  14
ATOM     14  C   UNL A   1      31.435  24.838  24.119  1.00  0.00     0.237 C 
ATOM     15  O   UNL A   1      30.517  25.512  24.583  1.00  0.00    -0.274 OA
BRANCH  14  16
ATOM     16  C   UNL A   1      31.694  24.755  22.651  1.00  0.00     0.236 C 
BRANCH  16  17
ATOM     17  S   UNL A   1      32.276  26.298  22.015  1.00  0.00     0.156 S 
ATOM     18  C   UNL A   1      33.130  27.098  23.355  1.00  0.00     0.158 C 
ATOM     19  O   UNL A   1      31.108  27.103  21.705  1.00  0.00    -0.229 OA
ATOM     20  O   UNL A   1      33.249  26.025  20.973  1.00  0.00    -0.229 OA
ENDBRANCH  16  17
ENDBRANCH  14  16
ENDBRANCH   9  14
ENDBRANCH   7   8
ENDBRANCH   4   7
ENDBRANCH   2   3
ENDBRANCH   1   2
BRANCH   1  21
ATOM     21  C   UNL A   1      40.202  22.558  26.897  1.00  0.00     0.023 C 
BRANCH  21  22
ATOM     22  C   UNL A   1      41.521  23.288  27.058  1.00  0.00     0.116 C 
BRANCH  22  23
ATOM     23  N   UNL A   1      41.856  24.144  25.926  1.00  0.00    -0.352 N 
ATOM     24  C   UNL A   1      42.048  25.508  25.906  1.00  0.00     0.251 C 
ATOM     25  H   UNL A   1      41.956  23.687  25.061  1.00  0.00     0.163 HD
ATOM     26  O   UNL A   1      42.240  26.095  24.850  1.00  0.00    -0.269 OA
BRANCH  24  27
ATOM     27  C   UNL A   1      41.965  26.253  27.180  1.00  0.00     0.039 A 
ATOM     28  C   UNL A   1      42.906  27.248  27.446  1.00  0.00     0.014 A 
ATOM     29  C   UNL A   1      40.899  26.030  28.053  1.00  0.00     0.014 A 
ATOM     30  C   UNL A   1      42.725  28.083  28.550  1.00  0.00     0.010 A 
ATOM     31  C   UNL A   1      40.660  26.931  29.080  1.00  0.00     0.010 A 
ATOM     32  C   UNL A   1      41.574  27.962  29.346  1.00  0.00    -0.014 A 
BRANCH  32  33
ATOM     33  C   UNL A   1      41.304  28.885  30.475  1.00  0.00     0.031 A 
ATOM     34  C   UNL A   1      42.113  28.767  31.739  1.00  0.00     0.074 A 
ATOM     35  C   UNL A   1      40.273  29.750  30.406  1.00  0.00     0.049 A 
ATOM     36  N   UNL A   1      41.963  29.389  32.878  1.00  0.00    -0.248 NA
ATOM     37  C   UNL A   1      43.205  27.778  31.736  1.00  0.00     0.031 C 
ATOM     38  C   UNL A   1      39.360  29.895  29.269  1.00  0.00     0.029 A 
ATOM     39  N   UNL A   1      39.805  30.658  31.322  1.00  0.00    -0.354 N 
ATOM     40  C   UNL A   1      42.907  28.838  33.736  1.00  0.00     0.074 A 
ATOM     41  C   UNL A   1      43.586  27.793  33.004  1.00  0.00     0.031 C 
ATOM     42  C   UNL A   1      38.456  30.848  29.548  1.00  0.00     0.029 A 
ATOM     43  C   UNL A   1      38.704  31.360  30.892  1.00  0.00     0.049 A 
ATOM     44  H   UNL A   1      40.218  30.793  32.205  1.00  0.00     0.167 HD
ATOM     45  C   UNL A   1      43.204  29.190  35.009  1.00  0.00     0.037 A 
ATOM     46  C   UNL A   1      37.974  32.307  31.513  1.00  0.00     0.037 A 
ATOM     47  C   UNL A   1      42.567  30.275  35.704  1.00  0.00     0.049 A 
ATOM     48  C   UNL A   1      38.374  32.745  32.895  1.00  0.00     0.074 A 
ATOM     49  C   UNL A   1      42.864  30.789  36.953  1.00  0.00     0.029 A 
ATOM     50  N   UNL A   1      41.510  31.021  35.204  1.00  0.00    -0.354 N 
ATOM     51  N   UNL A   1      39.331  32.275  33.661  1.00  0.00    -0.248 NA
ATOM     52  C   UNL A   1      37.608  33.846  33.493  1.00  0.00     0.031 C 
ATOM     53  C   UNL A   1      41.964  31.827  37.221  1.00  0.00     0.029 A 
ATOM     54  C   UNL A   1      41.131  31.982  36.124  1.00  0.00     0.049 A 
ATOM     55  H   UNL A   1      41.090  30.885  34.324  1.00  0.00     0.167 HD
ATOM     56  C   UNL A   1      39.293  33.035  34.824  1.00  0.00     0.074 A 
ATOM     57  C   UNL A   1      38.228  34.004  34.655  1.00  0.00     0.031 C 
ATOM     58  C   UNL A   1      40.069  32.939  35.932  1.00  0.00     0.037 A 
BRANCH  45  59
ATOM     59  C   UNL A   1      44.267  28.396  35.715  1.00  0.00     0.058 A 
ATOM     60  C   UNL A   1      43.951  27.289  36.519  1.00  0.00     0.135 A 
ATOM     61  C   UNL A   1      45.619  28.754  35.596  1.00  0.00     0.135 A 
ATOM     62  F   UNL A   1      42.672  26.914  36.682  1.00  0.00    -0.206 F 
ATOM     63  C   UNL A   1      44.932  26.594  37.218  1.00  0.00     0.059 A 
ATOM     64  C   UNL A   1      46.621  28.054  36.262  1.00  0.00     0.059 A 
ATOM     65  F   UNL A   1      45.978  29.804  34.840  1.00  0.00    -0.206 F 
ATOM     66  C   UNL A   1      46.264  26.990  37.090  1.00  0.00     0.060 A 
BRANCH  66  67
ATOM     67  S   UNL A   1      47.526  26.095  38.022  1.00  0.00     0.124 S 
ATOM     68  O   UNL A   1      48.715  26.890  37.732  1.00  0.00    -0.237 OA
ATOM     69  O   UNL A   1      47.026  26.180  39.390  1.00  0.00    -0.237 OA
ATOM     70  O   UNL A   1      47.500  24.761  37.430  1.00  0.00    -0.744 OA
ENDBRANCH  66  67
ENDBRANCH  45  59
BRANCH  46  71
ATOM     71  C   UNL A   1      36.820  32.926  30.810  1.00  0.00     0.058 A 
ATOM     72  C   UNL A   1      35.505  32.542  31.106  1.00  0.00     0.135 A 
ATOM     73  C   UNL A   1      37.007  33.947  29.866  1.00  0.00     0.135 A 
ATOM     74  F   UNL A   1      35.276  31.567  31.999  1.00  0.00    -0.206 F 
ATOM     75  C   UNL A   1      34.413  33.144  30.489  1.00  0.00     0.059 A 
ATOM     76  C   UNL A   1      35.930  34.579  29.251  1.00  0.00     0.059 A 
ATOM     77  F   UNL A   1      38.246  34.365  29.562  1.00  0.00    -0.206 F 
ATOM     78  C   UNL A   1      34.636  34.167  29.566  1.00  0.00     0.060 A 
BRANCH  78  79
ATOM     79  S   UNL A   1      33.210  34.998  28.830  1.00  0.00     0.124 S 
ATOM     80  O   UNL A   1      32.392  35.274  30.005  1.00  0.00    -0.237 OA
ATOM     81  O   UNL A   1      33.826  36.159  28.194  1.00  0.00    -0.237 OA
ATOM     82  O   UNL A   1      32.680  33.998  27.909  1.00  0.00    -0.744 OA
ENDBRANCH  78  79
ENDBRANCH  46  71
BRANCH  58  83
ATOM     83  C   UNL A   1      39.811  33.917  37.042  1.00  0.00     0.058 A 
ATOM     84  C   UNL A   1      38.969  33.599  38.118  1.00  0.00     0.135 A 
ATOM     85  C   UNL A   1      40.463  35.160  37.059  1.00  0.00     0.135 A 
ATOM     86  F   UNL A   1      38.319  32.425  38.143  1.00  0.00    -0.206 F 
ATOM     87  C   UNL A   1      38.769  34.488  39.168  1.00  0.00     0.059 A 
ATOM     88  C   UNL A   1      40.298  36.054  38.111  1.00  0.00     0.059 A 
ATOM     89  F   UNL A   1      41.288  35.505  36.057  1.00  0.00    -0.206 F 
ATOM     90  C   UNL A   1      39.439  35.713  39.156  1.00  0.00     0.060 A 
BRANCH  90  91
ATOM     91  S   UNL A   1      39.206  36.843  40.545  1.00  0.00     0.124 S 
ATOM     92  O   UNL A   1      38.393  36.034  41.447  1.00  0.00    -0.237 OA
ATOM     93  O   UNL A   1      40.576  37.094  40.980  1.00  0.00    -0.237 OA
ATOM     94  O   UNL A   1      38.528  37.986  39.942  1.00  0.00    -0.744 OA
ENDBRANCH  90  91
ENDBRANCH  58  83
ENDBRANCH  32  33
ENDBRANCH  24  27
ENDBRANCH  22  23
ENDBRANCH  21  22
ENDBRANCH   1  21
TORSDOF 18
ENDMDL
MODEL 2
REMARK VINA RESULT:     -10.7      6.507     12.105
REMARK SMILES CS(=O)(=O)CC(=O)N1CCO[C@@H](CC(=O)NCCCCNC(=O)c2ccc(-c3c4nc(c(-c5c(F)cc(S(=O)(=O)[O-])cc5F)c5ccc([nH]5)c(-c5c(F)cc(S(=O)(=O)[O-])cc5F)c5nc(c(-c6c(F)cc(S(=O)(=O)[O-])cc6F)c6ccc3[nH]6)C=C5)C=C4)cc2)C1
REMARK SMILES IDX 18 1 17 2 16 3 14 4 15 5 13 7 12 8 8 9 9 10 90 11 10 12
REMARK SMILES IDX 11 13 6 14 7 15 5 16 2 17 1 18 3 19 4 20 19 21 20 22 21 23
REMARK SMILES IDX 22 24 23 26 24 27 25 28 89 29 26 30 88 31 27 32 28 33 29 34
REMARK SMILES IDX 82 35 30 36 87 37 81 38 83 39 31 40 86 41 80 42 79 43 32 45
REMARK SMILES IDX 66 46 45 47 65 48 46 49 49 50 64 51 84 52 47 53 48 54 63 56
REMARK SMILES IDX 85 57 50 58 33 59 34 60 43 61 35 62 36 63 42 64 44 65 37 66
REMARK SMILES IDX 38 67 39 68 40 69 41 70 67 71 68 72 77 73 69 74 70 75 76 76
REMARK SMILES IDX 78 77 71 78 72 79 73 80 74 81 75 82 51 83 52 84 61 85 53 86
REMARK SMILES IDX 54 87 60 88 62 89 55 90 56 91 57 92 58 93 59 94
REMARK H PARENT 16 6 21 25 83 44 49 55
REMARK Flexibility Score: inf
ROOT
ATOM      1  C   UNL A   1      33.885  28.871  26.542  1.00  0.00     0.023 C 
ENDROOT
BRANCH   1   2
ATOM      2  C   UNL A   1      32.376  28.870  26.800  1.00  0.00     0.116 C 
BRANCH   2   3
ATOM      3  N   UNL A   1      31.642  29.385  25.652  1.00  0.00    -0.356 N 
ATOM      4  C   UNL A   1      31.079  28.734  24.593  1.00  0.00     0.222 C 
ATOM      5  O   UNL A   1      30.600  29.405  23.678  1.00  0.00    -0.275 OA
ATOM      6  H   UNL A   1      31.535  30.363  25.639  1.00  0.00     0.163 HD
BRANCH   4   7
ATOM      7  C   UNL A   1      31.067  27.223  24.525  1.00  0.00     0.133 C 
BRANCH   7   8
ATOM      8  C   UNL A   1      32.231  26.651  23.708  1.00  0.00     0.147 C 
ATOM      9  N   UNL A   1      33.453  24.480  23.306  1.00  0.00    -0.337 N 
ATOM     10  C   UNL A   1      32.973  24.524  21.929  1.00  0.00     0.148 C 
ATOM     11  C   UNL A   1      32.605  25.247  24.201  1.00  0.00     0.152 C 
ATOM     12  C   UNL A   1      32.761  25.969  21.488  1.00  0.00     0.182 C 
ATOM     13  O   UNL A   1      31.792  26.610  22.332  1.00  0.00    -0.374 OA
BRANCH   9  14
ATOM     14  C   UNL A   1      33.855  23.238  23.791  1.00  0.00     0.237 C 
ATOM     15  O   UNL A   1      33.334  22.187  23.420  1.00  0.00    -0.274 OA
BRANCH  14  16
ATOM     16  C   UNL A   1      34.893  23.272  24.865  1.00  0.00     0.236 C 
BRANCH  16  17
ATOM     17  S   UNL A   1      36.499  22.920  24.215  1.00  0.00     0.156 S 
ATOM     18  C   UNL A   1      36.851  21.230  24.644  1.00  0.00     0.158 C 
ATOM     19  O   UNL A   1      37.446  23.754  24.933  1.00  0.00    -0.229 OA
ATOM     20  O   UNL A   1      36.433  23.002  22.767  1.00  0.00    -0.229 OA
ENDBRANCH  16  17
ENDBRANCH  14  16
ENDBRANCH   9  14
ENDBRANCH   7   8
ENDBRANCH   4   7
ENDBRANCH   2   3
ENDBRANCH   1   2
BRANCH   1  21
ATOM     21  C   UNL A   1      34.658  29.999  27.204  1.00  0.00     0.023 C 
BRANCH  21  22
ATOM     22  C   UNL A   1      35.687  29.535  28.215  1.00  0.00     0.116 C 
BRANCH  22  23
ATOM     23  N   UNL A   1      35.506  30.114  29.541  1.00  0.00    -0.352 N 
ATOM     24  C   UNL A   1      36.464  30.447  30.473  1.00  0.00     0.251 C 
ATOM     25  H   UNL A   1      34.574  30.291  29.805  1.00  0.00     0.163 HD
ATOM     26  O   UNL A   1      36.141  30.847  31.583  1.00  0.00    -0.269 OA
BRANCH  24  27
ATOM     27  C   UNL A   1      37.887  30.259  30.122  1.00  0.00     0.039 A 
ATOM     28  C   UNL A   1      38.773  29.808  31.103  1.00  0.00     0.014 A 
ATOM     29  C   UNL A   1      38.313  30.432  28.805  1.00  0.00     0.014 A 
ATOM     30  C   UNL A   1      40.070  29.446  30.737  1.00  0.00     0.010 A 
ATOM     31  C   UNL A   1      39.562  29.964  28.425  1.00  0.00     0.010 A 
ATOM     32  C   UNL A   1      40.458  29.474  29.388  1.00  0.00    -0.014 A 
BRANCH  32  33
ATOM     33  C   UNL A   1      41.799  29.015  28.949  1.00  0.00     0.031 A 
ATOM     34  C   UNL A   1      42.925  30.009  28.845  1.00  0.00     0.074 A 
ATOM     35  C   UNL A   1      41.977  27.741  28.548  1.00  0.00     0.049 A 
ATOM     36  N   UNL A   1      44.132  29.844  28.375  1.00  0.00    -0.248 NA
ATOM     37  C   UNL A   1      42.635  31.385  29.282  1.00  0.00     0.031 C 
ATOM     38  C   UNL A   1      40.940  26.706  28.517  1.00  0.00     0.029 A 
ATOM     39  N   UNL A   1      43.092  27.103  28.068  1.00  0.00    -0.354 N 
ATOM     40  C   UNL A   1      44.728  31.099  28.417  1.00  0.00     0.074 A 
ATOM     41  C   UNL A   1      43.732  32.025  28.906  1.00  0.00     0.031 C 
ATOM     42  C   UNL A   1      41.472  25.561  28.062  1.00  0.00     0.029 A 
ATOM     43  C   UNL A   1      42.878  25.785  27.740  1.00  0.00     0.049 A 
ATOM     44  H   UNL A   1      43.965  27.548  27.966  1.00  0.00     0.167 HD
ATOM     45  C   UNL A   1      46.000  31.444  28.107  1.00  0.00     0.037 A 
ATOM     46  C   UNL A   1      43.719  24.863  27.234  1.00  0.00     0.037 A 
ATOM     47  C   UNL A   1      47.001  30.503  27.686  1.00  0.00     0.049 A 
ATOM     48  C   UNL A   1      45.151  25.245  26.977  1.00  0.00     0.074 A 
ATOM     49  C   UNL A   1      48.346  30.724  27.452  1.00  0.00     0.029 A 
ATOM     50  N   UNL A   1      46.767  29.157  27.445  1.00  0.00    -0.354 N 
ATOM     51  N   UNL A   1      45.724  26.418  27.110  1.00  0.00    -0.248 NA
ATOM     52  C   UNL A   1      46.053  24.181  26.516  1.00  0.00     0.031 C 
ATOM     53  C   UNL A   1      48.919  29.516  27.038  1.00  0.00     0.029 A 
ATOM     54  C   UNL A   1      47.939  28.536  27.051  1.00  0.00     0.049 A 
ATOM     55  H   UNL A   1      45.895  28.710  27.540  1.00  0.00     0.167 HD
ATOM     56  C   UNL A   1      47.057  26.230  26.765  1.00  0.00     0.074 A 
ATOM     57  C   UNL A   1      47.208  24.828  26.431  1.00  0.00     0.031 C 
ATOM     58  C   UNL A   1      48.066  27.136  26.727  1.00  0.00     0.037 A 
BRANCH  45  59
ATOM     59  C   UNL A   1      46.369  32.897  28.224  1.00  0.00     0.058 A 
ATOM     60  C   UNL A   1      46.153  33.802  27.172  1.00  0.00     0.135 A 
ATOM     61  C   UNL A   1      46.955  33.390  29.401  1.00  0.00     0.135 A 
ATOM     62  F   UNL A   1      45.612  33.381  26.017  1.00  0.00    -0.206 F 
ATOM     63  C   UNL A   1      46.551  35.131  27.262  1.00  0.00     0.059 A 
ATOM     64  C   UNL A   1      47.333  34.724  29.525  1.00  0.00     0.059 A 
ATOM     65  F   UNL A   1      47.183  32.569  30.438  1.00  0.00    -0.206 F 
ATOM     66  C   UNL A   1      47.148  35.581  28.441  1.00  0.00     0.060 A 
BRANCH  66  67
ATOM     67  S   UNL A   1      47.682  37.303  28.537  1.00  0.00     0.124 S 
ATOM     68  O   UNL A   1      48.487  37.287  29.755  1.00  0.00    -0.237 OA
ATOM     69  O   UNL A   1      48.423  37.473  27.291  1.00  0.00    -0.237 OA
ATOM     70  O   UNL A   1      46.426  38.042  28.622  1.00  0.00    -0.744 OA
ENDBRANCH  66  67
ENDBRANCH  45  59
BRANCH  46  71
ATOM     71  C   UNL A   1      43.230  23.482  26.978  1.00  0.00     0.058 A 
ATOM     72  C   UNL A   1      43.009  23.026  25.671  1.00  0.00     0.135 A 
ATOM     73  C   UNL A   1      43.022  22.578  28.031  1.00  0.00     0.135 A 
ATOM     74  F   UNL A   1      43.191  23.856  24.632  1.00  0.00    -0.206 F 
ATOM     75  C   UNL A   1      42.595  21.723  25.413  1.00  0.00     0.059 A 
ATOM     76  C   UNL A   1      42.628  21.264  27.797  1.00  0.00     0.059 A 
ATOM     77  F   UNL A   1      43.239  22.960  29.299  1.00  0.00    -0.206 F 
ATOM     78  C   UNL A   1      42.413  20.847  26.484  1.00  0.00     0.060 A 
BRANCH  78  79
ATOM     79  S   UNL A   1      41.954  19.134  26.135  1.00  0.00     0.124 S 
ATOM     80  O   UNL A   1      40.539  19.270  25.812  1.00  0.00    -0.237 OA
ATOM     81  O   UNL A   1      42.835  18.801  25.020  1.00  0.00    -0.237 OA
ATOM     82  O   UNL A   1      42.256  18.447  27.387  1.00  0.00    -0.744 OA
ENDBRANCH  78  79
ENDBRANCH  46  71
BRANCH  58  83
ATOM     83  C   UNL A   1      49.425  26.639  26.330  1.00  0.00     0.058 A 
ATOM     84  C   UNL A   1      49.911  26.796  25.023  1.00  0.00     0.135 A 
ATOM     85  C   UNL A   1      50.275  26.056  27.284  1.00  0.00     0.135 A 
ATOM     86  F   UNL A   1      49.134  27.344  24.075  1.00  0.00    -0.206 F 
ATOM     87  C   UNL A   1      51.189  26.378  24.670  1.00  0.00     0.059 A 
ATOM     88  C   UNL A   1      51.565  25.653  26.959  1.00  0.00     0.059 A 
ATOM     89  F   UNL A   1      49.860  25.894  28.550  1.00  0.00    -0.206 F 
ATOM     90  C   UNL A   1      52.009  25.808  25.646  1.00  0.00     0.060 A 
BRANCH  90  91
ATOM     91  S   UNL A   1      53.682  25.307  25.187  1.00  0.00     0.124 S 
ATOM     92  O   UNL A   1      54.487  26.068  26.137  1.00  0.00    -0.237 OA
ATOM     93  O   UNL A   1      53.647  23.863  25.401  1.00  0.00    -0.237 OA
ATOM     94  O   UNL A   1      53.791  25.724  23.793  1.00  0.00    -0.744 OA
ENDBRANCH  90  91
ENDBRANCH  58  83
ENDBRANCH  32  33
ENDBRANCH  24  27
ENDBRANCH  22  23
ENDBRANCH  21  22
ENDBRANCH   1  21
TORSDOF 18
ENDMDL
MODEL 3
REMARK VINA RESULT:     -10.7      5.156     12.104
REMARK SMILES CS(=O)(=O)CC(=O)N1CCO[C@@H](CC(=O)NCCCCNC(=O)c2ccc(-c3c4nc(c(-c5c(F)cc(S(=O)(=O)[O-])cc5F)c5ccc([nH]5)c(-c5c(F)cc(S(=O)(=O)[O-])cc5F)c5nc(c(-c6c(F)cc(S(=O)(=O)[O-])cc6F)c6ccc3[nH]6)C=C5)C=C4)cc2)C1
REMARK SMILES IDX 18 1 17 2 16 3 14 4 15 5 13 7 12 8 8 9 9 10 90 11 10 12
REMARK SMILES IDX 11 13 6 14 7 15 5 16 2 17 1 18 3 19 4 20 19 21 20 22 21 23
REMARK SMILES IDX 22 24 23 26 24 27 25 28 89 29 26 30 88 31 27 32 28 33 29 34
REMARK SMILES IDX 82 35 30 36 87 37 81 38 83 39 31 40 86 41 80 42 79 43 32 45
REMARK SMILES IDX 66 46 45 47 65 48 46 49 49 50 64 51 84 52 47 53 48 54 63 56
REMARK SMILES IDX 85 57 50 58 33 59 34 60 43 61 35 62 36 63 42 64 44 65 37 66
REMARK SMILES IDX 38 67 39 68 40 69 41 70 67 71 68 72 77 73 69 74 70 75 76 76
REMARK SMILES IDX 78 77 71 78 72 79 73 80 74 81 75 82 51 83 52 84 61 85 53 86
REMARK SMILES IDX 54 87 60 88 62 89 55 90 56 91 57 92 58 93 59 94
REMARK H PARENT 16 6 21 25 83 44 49 55
REMARK Flexibility Score: inf
ROOT
ATOM      1  C   UNL A   1      36.377  33.049  29.540  1.00  0.00     0.023 C 
ENDROOT
BRANCH   1   2
ATOM      2  C   UNL A   1      36.776  33.829  30.796  1.00  0.00     0.116 C 
BRANCH   2   3
ATOM      3  N   UNL A   1      35.719  33.800  31.797  1.00  0.00    -0.356 N 
ATOM      4  C   UNL A   1      35.464  32.904  32.794  1.00  0.00     0.222 C 
ATOM      5  O   UNL A   1      34.432  33.035  33.453  1.00  0.00    -0.275 OA
ATOM      6  H   UNL A   1      35.084  34.550  31.746  1.00  0.00     0.163 HD
BRANCH   4   7
ATOM      7  C   UNL A   1      36.411  31.756  33.068  1.00  0.00     0.133 C 
BRANCH   7   8
ATOM      8  C   UNL A   1      37.424  32.067  34.175  1.00  0.00     0.147 C 
ATOM      9  N   UNL A   1      39.574  31.183  35.160  1.00  0.00    -0.337 N 
ATOM     10  C   UNL A   1      40.224  32.408  34.709  1.00  0.00     0.148 C 
ATOM     11  C   UNL A   1      38.381  30.886  34.387  1.00  0.00     0.152 C 
ATOM     12  C   UNL A   1      39.219  33.555  34.663  1.00  0.00     0.182 C 
ATOM     13  O   UNL A   1      38.150  33.244  33.757  1.00  0.00    -0.374 OA
BRANCH   9  14
ATOM     14  C   UNL A   1      40.399  30.091  35.417  1.00  0.00     0.237 C 
ATOM     15  O   UNL A   1      40.133  29.255  36.279  1.00  0.00    -0.274 OA
BRANCH  14  16
ATOM     16  C   UNL A   1      41.679  30.057  34.648  1.00  0.00     0.236 C 
BRANCH  16  17
ATOM     17  S   UNL A   1      41.758  28.636  33.600  1.00  0.00     0.156 S 
ATOM     18  C   UNL A   1      41.919  27.230  34.679  1.00  0.00     0.158 C 
ATOM     19  O   UNL A   1      42.987  28.734  32.833  1.00  0.00    -0.229 OA
ATOM     20  O   UNL A   1      40.492  28.512  32.901  1.00  0.00    -0.229 OA
ENDBRANCH  16  17
ENDBRANCH  14  16
ENDBRANCH   9  14
ENDBRANCH   7   8
ENDBRANCH   4   7
ENDBRANCH   2   3
ENDBRANCH   1   2
BRANCH   1  21
ATOM     21  C   UNL A   1      34.896  32.735  29.412  1.00  0.00     0.023 C 
BRANCH  21  22
ATOM     22  C   UNL A   1      34.452  32.413  27.999  1.00  0.00     0.116 C 
BRANCH  22  23
ATOM     23  N   UNL A   1      33.854  31.090  27.862  1.00  0.00    -0.352 N 
ATOM     24  C   UNL A   1      34.456  29.857  27.985  1.00  0.00     0.251 C 
ATOM     25  H   UNL A   1      32.892  31.076  27.654  1.00  0.00     0.163 HD
ATOM     26  O   UNL A   1      33.829  28.832  27.753  1.00  0.00    -0.269 OA
BRANCH  24  27
ATOM     27  C   UNL A   1      35.887  29.802  28.350  1.00  0.00     0.039 A 
ATOM     28  C   UNL A   1      36.242  29.426  29.646  1.00  0.00     0.014 A 
ATOM     29  C   UNL A   1      36.866  30.024  27.381  1.00  0.00     0.014 A 
ATOM     30  C   UNL A   1      37.584  29.186  29.945  1.00  0.00     0.010 A 
ATOM     31  C   UNL A   1      38.181  29.675  27.648  1.00  0.00     0.010 A 
ATOM     32  C   UNL A   1      38.557  29.260  28.935  1.00  0.00    -0.014 A 
BRANCH  32  33
ATOM     33  C   UNL A   1      39.979  28.929  29.194  1.00  0.00     0.031 A 
ATOM     34  C   UNL A   1      40.898  29.985  29.747  1.00  0.00     0.074 A 
ATOM     35  C   UNL A   1      40.466  27.723  28.836  1.00  0.00     0.049 A 
ATOM     36  N   UNL A   1      42.190  29.942  29.934  1.00  0.00    -0.248 NA
ATOM     37  C   UNL A   1      40.287  31.281  30.087  1.00  0.00     0.031 C 
ATOM     38  C   UNL A   1      39.694  26.648  28.208  1.00  0.00     0.029 A 
ATOM     39  N   UNL A   1      41.733  27.208  28.931  1.00  0.00    -0.354 N 
ATOM     40  C   UNL A   1      42.550  31.211  30.369  1.00  0.00     0.074 A 
ATOM     41  C   UNL A   1      41.351  32.018  30.364  1.00  0.00     0.031 C 
ATOM     42  C   UNL A   1      40.500  25.596  27.991  1.00  0.00     0.029 A 
ATOM     43  C   UNL A   1      41.849  25.930  28.437  1.00  0.00     0.049 A 
ATOM     44  H   UNL A   1      42.490  27.706  29.316  1.00  0.00     0.167 HD
ATOM     45  C   UNL A   1      43.766  31.658  30.767  1.00  0.00     0.037 A 
ATOM     46  C   UNL A   1      42.923  25.121  28.349  1.00  0.00     0.037 A 
ATOM     47  C   UNL A   1      44.937  30.828  30.831  1.00  0.00     0.049 A 
ATOM     48  C   UNL A   1      44.245  25.606  28.877  1.00  0.00     0.074 A 
ATOM     49  C   UNL A   1      46.191  31.146  31.321  1.00  0.00     0.029 A 
ATOM     50  N   UNL A   1      44.996  29.511  30.400  1.00  0.00    -0.354 N 
ATOM     51  N   UNL A   1      44.551  26.782  29.371  1.00  0.00    -0.248 NA
ATOM     52  C   UNL A   1      45.364  24.655  28.847  1.00  0.00     0.031 C 
ATOM     53  C   UNL A   1      47.018  30.029  31.157  1.00  0.00     0.029 A 
ATOM     54  C   UNL A   1      46.268  29.004  30.599  1.00  0.00     0.049 A 
ATOM     55  H   UNL A   1      44.244  29.010  30.009  1.00  0.00     0.167 HD
ATOM     56  C   UNL A   1      45.892  26.708  29.728  1.00  0.00     0.074 A 
ATOM     57  C   UNL A   1      46.335  25.366  29.405  1.00  0.00     0.031 C 
ATOM     58  C   UNL A   1      46.686  27.663  30.272  1.00  0.00     0.037 A 
BRANCH  45  59
ATOM     59  C   UNL A   1      43.873  33.103  31.168  1.00  0.00     0.058 A 
ATOM     60  C   UNL A   1      43.720  33.512  32.502  1.00  0.00     0.135 A 
ATOM     61  C   UNL A   1      44.121  34.093  30.204  1.00  0.00     0.135 A 
ATOM     62  F   UNL A   1      43.463  32.609  33.463  1.00  0.00    -0.206 F 
ATOM     63  C   UNL A   1      43.760  34.855  32.860  1.00  0.00     0.059 A 
ATOM     64  C   UNL A   1      44.196  35.440  30.544  1.00  0.00     0.059 A 
ATOM     65  F   UNL A   1      44.276  33.757  28.913  1.00  0.00    -0.206 F 
ATOM     66  C   UNL A   1      43.990  35.813  31.872  1.00  0.00     0.060 A 
BRANCH  66  67
ATOM     67  S   UNL A   1      44.016  37.556  32.345  1.00  0.00     0.124 S 
ATOM     68  O   UNL A   1      43.002  37.583  33.395  1.00  0.00    -0.237 OA
ATOM     69  O   UNL A   1      45.394  37.741  32.791  1.00  0.00    -0.237 OA
ATOM     70  O   UNL A   1      43.662  38.246  31.110  1.00  0.00    -0.744 OA
ENDBRANCH  66  67
ENDBRANCH  45  59
BRANCH  46  71
ATOM     71  C   UNL A   1      42.773  23.758  27.774  1.00  0.00     0.058 A 
ATOM     72  C   UNL A   1      42.640  22.636  28.604  1.00  0.00     0.135 A 
ATOM     73  C   UNL A   1      42.709  23.558  26.387  1.00  0.00     0.135 A 
ATOM     74  F   UNL A   1      42.698  22.778  29.937  1.00  0.00    -0.206 F 
ATOM     75  C   UNL A   1      42.453  21.361  28.081  1.00  0.00     0.059 A 
ATOM     76  C   UNL A   1      42.503  22.295  25.840  1.00  0.00     0.059 A 
ATOM     77  F   UNL A   1      42.812  24.603  25.551  1.00  0.00    -0.206 F 
ATOM     78  C   UNL A   1      42.380  21.201  26.696  1.00  0.00     0.060 A 
BRANCH  78  79
ATOM     79  S   UNL A   1      42.056  19.553  26.029  1.00  0.00     0.124 S 
ATOM     80  O   UNL A   1      42.953  19.520  24.880  1.00  0.00    -0.237 OA
ATOM     81  O   UNL A   1      42.422  18.691  27.149  1.00  0.00    -0.237 OA
ATOM     82  O   UNL A   1      40.631  19.592  25.720  1.00  0.00    -0.744 OA
ENDBRANCH  78  79
ENDBRANCH  46  71
BRANCH  58  83
ATOM     83  C   UNL A   1      48.108  27.289  30.573  1.00  0.00     0.058 A 
ATOM     84  C   UNL A   1      48.457  26.622  31.757  1.00  0.00     0.135 A 
ATOM     85  C   UNL A   1      49.123  27.542  29.636  1.00  0.00     0.135 A 
ATOM     86  F   UNL A   1      47.523  26.362  32.685  1.00  0.00    -0.206 F 
ATOM     87  C   UNL A   1      49.767  26.234  32.010  1.00  0.00     0.059 A 
ATOM     88  C   UNL A   1      50.435  27.142  29.857  1.00  0.00     0.059 A 
ATOM     89  F   UNL A   1      48.837  28.168  28.482  1.00  0.00    -0.206 F 
ATOM     90  C   UNL A   1      50.750  26.497  31.054  1.00  0.00     0.060 A 
BRANCH  90  91
ATOM     91  S   UNL A   1      52.441  25.951  31.374  1.00  0.00     0.124 S 
ATOM     92  O   UNL A   1      53.019  25.990  30.035  1.00  0.00    -0.237 OA
ATOM     93  O   UNL A   1      52.927  26.965  32.305  1.00  0.00    -0.237 OA
ATOM     94  O   UNL A   1      52.264  24.619  31.946  1.00  0.00    -0.744 OA
ENDBRANCH  90  91
ENDBRANCH  58  83
ENDBRANCH  32  33
ENDBRANCH  24  27
ENDBRANCH  22  23
ENDBRANCH  21  22
ENDBRANCH   1  21
TORSDOF 18
ENDMDL
