MODEL 1
REMARK VINA RESULT:     -12.5      0.000      0.000
REMARK SMILES Nc1ncc(C(=O)NCCCCNC(=O)c2ccc(-c3c4nc(c(-c5c(F)cc(S(=O)(=O)[O-])cc5F)c5ccc([nH]5)c(-c5c(F)cc(S(=O)(=O)[O-])cc5F)c5nc(c(-c6c(F)cc(S(=O)(=O)[O-])cc6F)c6ccc3[nH]6)C=C5)C=C4)cc2)c(-c2ccccc2)n1
REMARK SMILES IDX 11 1 10 2 9 3 8 4 6 5 7 6 5 8 2 9 3 10 89 11 4 12 82 13 1 14
REMARK SMILES IDX 83 17 84 18 88 19 85 20 87 21 86 22 12 23 13 24 14 25 15 27
REMARK SMILES IDX 16 28 17 29 81 30 18 31 80 32 19 33 20 34 21 35 74 36 22 37
REMARK SMILES IDX 79 38 73 39 75 40 23 41 78 42 72 43 71 44 24 46 58 47 37 48
REMARK SMILES IDX 57 49 38 50 41 51 56 52 76 53 39 54 40 55 55 57 77 58 42 59
REMARK SMILES IDX 25 60 26 61 35 62 27 63 28 64 34 65 36 66 29 67 30 68 31 69
REMARK SMILES IDX 32 70 33 71 59 72 60 73 69 74 61 75 62 76 68 77 70 78 63 79
REMARK SMILES IDX 64 80 65 81 66 82 67 83 43 84 44 85 53 86 45 87 46 88 52 89
REMARK SMILES IDX 54 90 47 91 48 92 49 93 50 94 51 95
REMARK H PARENT 8 7 1 15 1 16 13 26 75 45 41 56
REMARK Flexibility Score: inf
ROOT
ATOM      1  C   UNL A   1      37.726  24.036  25.835  1.00  0.00     0.023 C 
ENDROOT
BRANCH   1   2
ATOM      2  C   UNL A   1      36.380  23.311  25.831  1.00  0.00     0.023 C 
BRANCH   2   3
ATOM      3  C   UNL A   1      36.193  22.198  24.811  1.00  0.00     0.116 C 
BRANCH   3   4
ATOM      4  N   UNL A   1      35.600  22.562  23.549  1.00  0.00    -0.352 N 
ATOM      5  C   UNL A   1      34.282  22.783  23.226  1.00  0.00     0.255 C 
ATOM      6  O   UNL A   1      34.043  23.165  22.078  1.00  0.00    -0.269 OA
ATOM      7  H   UNL A   1      36.235  22.667  22.805  1.00  0.00     0.163 HD
BRANCH   5   8
ATOM      8  C   UNL A   1      33.116  22.510  24.107  1.00  0.00     0.084 A 
ATOM      9  C   UNL A   1      30.968  22.446  25.811  1.00  0.00     0.220 A 
ATOM     10  N   UNL A   1      31.463  23.637  25.498  1.00  0.00    -0.221 NA
ATOM     11  N   UNL A   1      31.457  21.294  25.360  1.00  0.00    -0.212 NA
ATOM     12  C   UNL A   1      32.527  23.639  24.660  1.00  0.00     0.131 A 
ATOM     13  C   UNL A   1      32.536  21.322  24.525  1.00  0.00     0.089 A 
BRANCH   9  14
ATOM     14  N   UNL A   1      29.892  22.390  26.644  1.00  0.00    -0.368 N 
ATOM     15  H   UNL A   1      29.199  21.704  26.508  1.00  0.00     0.159 HD
ATOM     16  H   UNL A   1      29.807  23.037  27.381  1.00  0.00     0.159 HD
ENDBRANCH   9  14
BRANCH  13  17
ATOM     17  C   UNL A   1      32.938  19.961  24.153  1.00  0.00     0.001 A 
ATOM     18  C   UNL A   1      34.011  19.294  24.765  1.00  0.00     0.010 A 
ATOM     19  C   UNL A   1      32.222  19.286  23.140  1.00  0.00     0.010 A 
ATOM     20  C   UNL A   1      34.395  18.022  24.326  1.00  0.00     0.001 A 
ATOM     21  C   UNL A   1      32.619  18.027  22.689  1.00  0.00     0.001 A 
ATOM     22  C   UNL A   1      33.712  17.399  23.279  1.00  0.00     0.000 A 
ENDBRANCH  13  17
ENDBRANCH   5   8
ENDBRANCH   3   4
ENDBRANCH   2   3
ENDBRANCH   1   2
BRANCH   1  23
ATOM     23  C   UNL A   1      38.832  23.476  26.728  1.00  0.00     0.116 C 
BRANCH  23  24
ATOM     24  N   UNL A   1      40.184  23.673  26.226  1.00  0.00    -0.352 N 
ATOM     25  C   UNL A   1      41.108  24.669  26.475  1.00  0.00     0.251 C 
ATOM     26  H   UNL A   1      40.494  22.977  25.602  1.00  0.00     0.163 HD
ATOM     27  O   UNL A   1      42.197  24.639  25.924  1.00  0.00    -0.269 OA
BRANCH  25  28
ATOM     28  C   UNL A   1      40.756  25.803  27.364  1.00  0.00     0.039 A 
ATOM     29  C   UNL A   1      39.890  25.571  28.438  1.00  0.00     0.014 A 
ATOM     30  C   UNL A   1      41.306  27.069  27.174  1.00  0.00     0.014 A 
ATOM     31  C   UNL A   1      39.684  26.574  29.391  1.00  0.00     0.010 A 
ATOM     32  C   UNL A   1      41.174  28.034  28.169  1.00  0.00     0.010 A 
ATOM     33  C   UNL A   1      40.381  27.789  29.302  1.00  0.00    -0.014 A 
BRANCH  33  34
ATOM     34  C   UNL A   1      40.342  28.800  30.393  1.00  0.00     0.031 A 
ATOM     35  C   UNL A   1      41.239  28.654  31.593  1.00  0.00     0.074 A 
ATOM     36  C   UNL A   1      39.419  29.784  30.358  1.00  0.00     0.049 A 
ATOM     37  N   UNL A   1      41.249  29.339  32.707  1.00  0.00    -0.248 NA
ATOM     38  C   UNL A   1      42.229  27.566  31.549  1.00  0.00     0.031 C 
ATOM     39  C   UNL A   1      38.446  29.997  29.284  1.00  0.00     0.029 A 
ATOM     40  N   UNL A   1      39.132  30.779  31.261  1.00  0.00    -0.354 N 
ATOM     41  C   UNL A   1      42.219  28.747  33.509  1.00  0.00     0.074 A 
ATOM     42  C   UNL A   1      42.744  27.619  32.769  1.00  0.00     0.031 C 
ATOM     43  C   UNL A   1      37.687  31.066  29.577  1.00  0.00     0.029 A 
ATOM     44  C   UNL A   1      38.088  31.591  30.878  1.00  0.00     0.049 A 
ATOM     45  H   UNL A   1      39.626  30.901  32.103  1.00  0.00     0.167 HD
ATOM     46  C   UNL A   1      42.648  29.121  34.738  1.00  0.00     0.037 A 
ATOM     47  C   UNL A   1      37.512  32.634  31.507  1.00  0.00     0.037 A 
ATOM     48  C   UNL A   1      42.155  30.272  35.447  1.00  0.00     0.049 A 
ATOM     49  C   UNL A   1      38.033  33.056  32.853  1.00  0.00     0.074 A 
ATOM     50  C   UNL A   1      42.576  30.780  36.664  1.00  0.00     0.029 A 
ATOM     51  N   UNL A   1      41.137  31.102  34.999  1.00  0.00    -0.354 N 
ATOM     52  N   UNL A   1      38.991  32.518  33.570  1.00  0.00    -0.248 NA
ATOM     53  C   UNL A   1      37.401  34.228  33.475  1.00  0.00     0.031 C 
ATOM     54  C   UNL A   1      41.792  31.900  36.966  1.00  0.00     0.029 A 
ATOM     55  C   UNL A   1      40.909  32.112  35.918  1.00  0.00     0.049 A 
ATOM     56  H   UNL A   1      40.648  30.989  34.152  1.00  0.00     0.167 HD
ATOM     57  C   UNL A   1      39.094  33.301  34.713  1.00  0.00     0.074 A 
ATOM     58  C   UNL A   1      38.108  34.354  34.589  1.00  0.00     0.031 C 
ATOM     59  C   UNL A   1      39.930  33.160  35.772  1.00  0.00     0.037 A 
BRANCH  46  60
ATOM     60  C   UNL A   1      43.712  28.280  35.388  1.00  0.00     0.058 A 
ATOM     61  C   UNL A   1      43.389  27.238  36.273  1.00  0.00     0.135 A 
ATOM     62  C   UNL A   1      45.070  28.505  35.112  1.00  0.00     0.135 A 
ATOM     63  F   UNL A   1      42.106  26.989  36.583  1.00  0.00    -0.206 F 
ATOM     64  C   UNL A   1      44.374  26.474  36.888  1.00  0.00     0.059 A 
ATOM     65  C   UNL A   1      46.072  27.733  35.696  1.00  0.00     0.059 A 
ATOM     66  F   UNL A   1      45.437  29.486  34.273  1.00  0.00    -0.206 F 
ATOM     67  C   UNL A   1      45.714  26.732  36.597  1.00  0.00     0.060 A 
BRANCH  67  68
ATOM     68  S   UNL A   1      46.981  25.736  37.411  1.00  0.00     0.124 S 
ATOM     69  O   UNL A   1      46.322  25.404  38.671  1.00  0.00    -0.237 OA
ATOM     70  O   UNL A   1      47.158  24.629  36.477  1.00  0.00    -0.237 OA
ATOM     71  O   UNL A   1      48.114  26.650  37.517  1.00  0.00    -0.744 OA
ENDBRANCH  67  68
ENDBRANCH  46  60
BRANCH  47  72
ATOM     72  C   UNL A   1      36.398  33.374  30.854  1.00  0.00     0.058 A 
ATOM     73  C   UNL A   1      35.092  33.295  31.362  1.00  0.00     0.135 A 
ATOM     74  C   UNL A   1      36.614  34.185  29.731  1.00  0.00     0.135 A 
ATOM     75  F   UNL A   1      34.834  32.527  32.431  1.00  0.00    -0.206 F 
ATOM     76  C   UNL A   1      34.037  33.983  30.772  1.00  0.00     0.059 A 
ATOM     77  C   UNL A   1      35.579  34.901  29.136  1.00  0.00     0.059 A 
ATOM     78  F   UNL A   1      37.847  34.308  29.217  1.00  0.00    -0.206 F 
ATOM     79  C   UNL A   1      34.290  34.786  29.659  1.00  0.00     0.060 A 
BRANCH  79  80
ATOM     80  S   UNL A   1      32.924  35.720  28.935  1.00  0.00     0.124 S 
ATOM     81  O   UNL A   1      33.631  36.810  28.275  1.00  0.00    -0.237 OA
ATOM     82  O   UNL A   1      32.308  34.731  28.056  1.00  0.00    -0.237 OA
ATOM     83  O   UNL A   1      32.124  36.097  30.097  1.00  0.00    -0.744 OA
ENDBRANCH  79  80
ENDBRANCH  47  72
BRANCH  59  84
ATOM     84  C   UNL A   1      39.842  34.188  36.862  1.00  0.00     0.058 A 
ATOM     85  C   UNL A   1      40.493  35.426  36.762  1.00  0.00     0.135 A 
ATOM     86  C   UNL A   1      39.048  33.952  37.997  1.00  0.00     0.135 A 
ATOM     87  F   UNL A   1      41.269  35.697  35.700  1.00  0.00    -0.206 F 
ATOM     88  C   UNL A   1      40.377  36.390  37.759  1.00  0.00     0.059 A 
ATOM     89  C   UNL A   1      38.899  34.909  38.994  1.00  0.00     0.059 A 
ATOM     90  F   UNL A   1      38.397  32.786  38.136  1.00  0.00    -0.206 F 
ATOM     91  C   UNL A   1      39.576  36.123  38.871  1.00  0.00     0.060 A 
BRANCH  91  92
ATOM     92  S   UNL A   1      39.401  37.395  40.140  1.00  0.00     0.124 S 
ATOM     93  O   UNL A   1      38.793  36.640  41.230  1.00  0.00    -0.237 OA
ATOM     94  O   UNL A   1      40.781  37.819  40.353  1.00  0.00    -0.237 OA
ATOM     95  O   UNL A   1      38.538  38.389  39.506  1.00  0.00    -0.744 OA
ENDBRANCH  91  92
ENDBRANCH  59  84
ENDBRANCH  33  34
ENDBRANCH  25  28
ENDBRANCH  23  24
ENDBRANCH   1  23
TORSDOF 16
ENDMDL
MODEL 2
REMARK VINA RESULT:     -12.3      7.320     12.678
REMARK SMILES Nc1ncc(C(=O)NCCCCNC(=O)c2ccc(-c3c4nc(c(-c5c(F)cc(S(=O)(=O)[O-])cc5F)c5ccc([nH]5)c(-c5c(F)cc(S(=O)(=O)[O-])cc5F)c5nc(c(-c6c(F)cc(S(=O)(=O)[O-])cc6F)c6ccc3[nH]6)C=C5)C=C4)cc2)c(-c2ccccc2)n1
REMARK SMILES IDX 11 1 10 2 9 3 8 4 6 5 7 6 5 8 2 9 3 10 89 11 4 12 82 13 1 14
REMARK SMILES IDX 83 17 84 18 88 19 85 20 87 21 86 22 12 23 13 24 14 25 15 27
REMARK SMILES IDX 16 28 17 29 81 30 18 31 80 32 19 33 20 34 21 35 74 36 22 37
REMARK SMILES IDX 79 38 73 39 75 40 23 41 78 42 72 43 71 44 24 46 58 47 37 48
REMARK SMILES IDX 57 49 38 50 41 51 56 52 76 53 39 54 40 55 55 57 77 58 42 59
REMARK SMILES IDX 25 60 26 61 35 62 27 63 28 64 34 65 36 66 29 67 30 68 31 69
REMARK SMILES IDX 32 70 33 71 59 72 60 73 69 74 61 75 62 76 68 77 70 78 63 79
REMARK SMILES IDX 64 80 65 81 66 82 67 83 43 84 44 85 53 86 45 87 46 88 52 89
REMARK SMILES IDX 54 90 47 91 48 92 49 93 50 94 51 95
REMARK H PARENT 8 7 1 15 1 16 13 26 75 45 41 56
REMARK Flexibility Score: inf
ROOT
ATOM      1  C   UNL A   1      34.495  28.971  26.955  1.00  0.00     0.023 C 
ENDROOT
BRANCH   1   2
ATOM      2  C   UNL A   1      33.015  29.343  27.041  1.00  0.00     0.023 C 
BRANCH   2   3
ATOM      3  C   UNL A   1      32.413  30.074  25.850  1.00  0.00     0.116 C 
BRANCH   3   4
ATOM      4  N   UNL A   1      32.894  29.702  24.543  1.00  0.00    -0.352 N 
ATOM      5  C   UNL A   1      32.248  29.052  23.518  1.00  0.00     0.255 C 
ATOM      6  O   UNL A   1      32.866  28.922  22.459  1.00  0.00    -0.269 OA
ATOM      7  H   UNL A   1      33.828  29.950  24.357  1.00  0.00     0.163 HD
BRANCH   5   8
ATOM      8  C   UNL A   1      30.911  28.409  23.607  1.00  0.00     0.084 A 
ATOM      9  C   UNL A   1      28.669  26.848  23.859  1.00  0.00     0.220 A 
ATOM     10  N   UNL A   1      29.840  26.283  24.130  1.00  0.00    -0.221 NA
ATOM     11  N   UNL A   1      28.524  28.110  23.465  1.00  0.00    -0.212 NA
ATOM     12  C   UNL A   1      30.930  27.075  23.991  1.00  0.00     0.131 A 
ATOM     13  C   UNL A   1      29.639  28.884  23.322  1.00  0.00     0.089 A 
BRANCH   9  14
ATOM     14  N   UNL A   1      27.541  26.096  23.992  1.00  0.00    -0.368 N 
ATOM     15  H   UNL A   1      27.416  25.295  23.434  1.00  0.00     0.159 HD
ATOM     16  H   UNL A   1      26.853  26.354  24.646  1.00  0.00     0.159 HD
ENDBRANCH   9  14
BRANCH  13  17
ATOM     17  C   UNL A   1      29.279  30.230  22.865  1.00  0.00     0.001 A 
ATOM     18  C   UNL A   1      29.254  31.341  23.722  1.00  0.00     0.010 A 
ATOM     19  C   UNL A   1      28.944  30.427  21.507  1.00  0.00     0.010 A 
ATOM     20  C   UNL A   1      28.839  32.591  23.248  1.00  0.00     0.001 A 
ATOM     21  C   UNL A   1      28.511  31.669  21.041  1.00  0.00     0.001 A 
ATOM     22  C   UNL A   1      28.452  32.749  21.916  1.00  0.00     0.000 A 
ENDBRANCH  13  17
ENDBRANCH   5   8
ENDBRANCH   3   4
ENDBRANCH   2   3
ENDBRANCH   1   2
BRANCH   1  23
ATOM     23  C   UNL A   1      35.498  29.879  27.665  1.00  0.00     0.116 C 
BRANCH  23  24
ATOM     24  N   UNL A   1      35.361  29.928  29.114  1.00  0.00    -0.352 N 
ATOM     25  C   UNL A   1      36.312  29.970  30.115  1.00  0.00     0.251 C 
ATOM     26  H   UNL A   1      34.430  29.935  29.436  1.00  0.00     0.163 HD
ATOM     27  O   UNL A   1      35.962  29.997  31.284  1.00  0.00    -0.269 OA
BRANCH  25  28
ATOM     28  C   UNL A   1      37.754  29.924  29.771  1.00  0.00     0.039 A 
ATOM     29  C   UNL A   1      38.686  29.770  30.802  1.00  0.00     0.014 A 
ATOM     30  C   UNL A   1      38.184  29.986  28.447  1.00  0.00     0.014 A 
ATOM     31  C   UNL A   1      40.031  29.545  30.492  1.00  0.00     0.010 A 
ATOM     32  C   UNL A   1      39.504  29.672  28.136  1.00  0.00     0.010 A 
ATOM     33  C   UNL A   1      40.438  29.423  29.154  1.00  0.00    -0.014 A 
BRANCH  33  34
ATOM     34  C   UNL A   1      41.815  28.991  28.787  1.00  0.00     0.031 A 
ATOM     35  C   UNL A   1      42.932  29.998  28.722  1.00  0.00     0.074 A 
ATOM     36  C   UNL A   1      42.033  27.716  28.402  1.00  0.00     0.049 A 
ATOM     37  N   UNL A   1      44.155  29.849  28.283  1.00  0.00    -0.248 NA
ATOM     38  C   UNL A   1      42.619  31.363  29.173  1.00  0.00     0.031 C 
ATOM     39  C   UNL A   1      41.021  26.657  28.358  1.00  0.00     0.029 A 
ATOM     40  N   UNL A   1      43.174  27.096  27.954  1.00  0.00    -0.354 N 
ATOM     41  C   UNL A   1      44.746  31.104  28.372  1.00  0.00     0.074 A 
ATOM     42  C   UNL A   1      43.732  32.012  28.865  1.00  0.00     0.031 C 
ATOM     43  C   UNL A   1      41.589  25.518  27.931  1.00  0.00     0.029 A 
ATOM     44  C   UNL A   1      42.994  25.770  27.630  1.00  0.00     0.049 A 
ATOM     45  H   UNL A   1      44.040  27.556  27.872  1.00  0.00     0.167 HD
ATOM     46  C   UNL A   1      46.021  31.463  28.090  1.00  0.00     0.037 A 
ATOM     47  C   UNL A   1      43.859  24.862  27.137  1.00  0.00     0.037 A 
ATOM     48  C   UNL A   1      47.037  30.545  27.645  1.00  0.00     0.049 A 
ATOM     49  C   UNL A   1      45.281  25.275  26.871  1.00  0.00     0.074 A 
ATOM     50  C   UNL A   1      48.377  30.794  27.404  1.00  0.00     0.029 A 
ATOM     51  N   UNL A   1      46.827  29.199  27.383  1.00  0.00    -0.354 N 
ATOM     52  N   UNL A   1      45.836  26.454  27.016  1.00  0.00    -0.248 NA
ATOM     53  C   UNL A   1      46.195  24.235  26.378  1.00  0.00     0.031 C 
ATOM     54  C   UNL A   1      48.972  29.605  26.968  1.00  0.00     0.029 A 
ATOM     55  C   UNL A   1      48.010  28.606  26.975  1.00  0.00     0.049 A 
ATOM     56  H   UNL A   1      45.964  28.734  27.475  1.00  0.00     0.167 HD
ATOM     57  C   UNL A   1      47.169  26.293  26.659  1.00  0.00     0.074 A 
ATOM     58  C   UNL A   1      47.339  24.900  26.299  1.00  0.00     0.031 C 
ATOM     59  C   UNL A   1      48.163  27.215  26.632  1.00  0.00     0.037 A 
BRANCH  46  60
ATOM     60  C   UNL A   1      46.390  32.912  28.265  1.00  0.00     0.058 A 
ATOM     61  C   UNL A   1      46.261  33.836  27.216  1.00  0.00     0.135 A 
ATOM     62  C   UNL A   1      46.862  33.385  29.499  1.00  0.00     0.135 A 
ATOM     63  F   UNL A   1      45.827  33.434  26.010  1.00  0.00    -0.206 F 
ATOM     64  C   UNL A   1      46.620  35.170  27.373  1.00  0.00     0.059 A 
ATOM     65  C   UNL A   1      47.202  34.723  29.687  1.00  0.00     0.059 A 
ATOM     66  F   UNL A   1      47.005  32.547  30.537  1.00  0.00    -0.206 F 
ATOM     67  C   UNL A   1      47.094  35.604  28.612  1.00  0.00     0.060 A 
BRANCH  67  68
ATOM     68  S   UNL A   1      47.565  37.337  28.796  1.00  0.00     0.124 S 
ATOM     69  O   UNL A   1      46.898  37.686  30.048  1.00  0.00    -0.237 OA
ATOM     70  O   UNL A   1      49.021  37.263  28.854  1.00  0.00    -0.237 OA
ATOM     71  O   UNL A   1      47.020  37.966  27.598  1.00  0.00    -0.744 OA
ENDBRANCH  67  68
ENDBRANCH  46  60
BRANCH  47  72
ATOM     72  C   UNL A   1      43.413  23.463  26.896  1.00  0.00     0.058 A 
ATOM     73  C   UNL A   1      43.202  22.995  25.590  1.00  0.00     0.135 A 
ATOM     74  C   UNL A   1      43.209  22.565  27.953  1.00  0.00     0.135 A 
ATOM     75  F   UNL A   1      43.377  23.818  24.546  1.00  0.00    -0.206 F 
ATOM     76  C   UNL A   1      42.791  21.689  25.341  1.00  0.00     0.059 A 
ATOM     77  C   UNL A   1      42.820  21.247  27.728  1.00  0.00     0.059 A 
ATOM     78  F   UNL A   1      43.415  22.958  29.219  1.00  0.00    -0.206 F 
ATOM     79  C   UNL A   1      42.604  20.821  26.417  1.00  0.00     0.060 A 
BRANCH  79  80
ATOM     80  S   UNL A   1      42.126  19.112  26.080  1.00  0.00     0.124 S 
ATOM     81  O   UNL A   1      42.990  18.783  24.952  1.00  0.00    -0.237 OA
ATOM     82  O   UNL A   1      42.442  18.450  27.342  1.00  0.00    -0.237 OA
ATOM     83  O   UNL A   1      40.702  19.217  25.776  1.00  0.00    -0.744 OA
ENDBRANCH  79  80
ENDBRANCH  47  72
BRANCH  59  84
ATOM     84  C   UNL A   1      49.532  26.741  26.234  1.00  0.00     0.058 A 
ATOM     85  C   UNL A   1      50.014  26.898  24.926  1.00  0.00     0.135 A 
ATOM     86  C   UNL A   1      50.391  26.173  27.189  1.00  0.00     0.135 A 
ATOM     87  F   UNL A   1      49.229  27.429  23.976  1.00  0.00    -0.206 F 
ATOM     88  C   UNL A   1      51.297  26.490  24.573  1.00  0.00     0.059 A 
ATOM     89  C   UNL A   1      51.684  25.780  26.864  1.00  0.00     0.059 A 
ATOM     90  F   UNL A   1      49.979  26.010  28.456  1.00  0.00    -0.206 F 
ATOM     91  C   UNL A   1      52.125  25.934  25.549  1.00  0.00     0.060 A 
BRANCH  91  92
ATOM     92  S   UNL A   1      53.802  25.446  25.089  1.00  0.00     0.124 S 
ATOM     93  O   UNL A   1      53.786  24.020  25.399  1.00  0.00    -0.237 OA
ATOM     94  O   UNL A   1      53.850  25.787  23.671  1.00  0.00    -0.237 OA
ATOM     95  O   UNL A   1      54.643  26.267  25.955  1.00  0.00    -0.744 OA
ENDBRANCH  91  92
ENDBRANCH  59  84
ENDBRANCH  33  34
ENDBRANCH  25  28
ENDBRANCH  23  24
ENDBRANCH   1  23
TORSDOF 16
ENDMDL
MODEL 3
REMARK VINA RESULT:     -12.3      4.908     10.499
REMARK SMILES Nc1ncc(C(=O)NCCCCNC(=O)c2ccc(-c3c4nc(c(-c5c(F)cc(S(=O)(=O)[O-])cc5F)c5ccc([nH]5)c(-c5c(F)cc(S(=O)(=O)[O-])cc5F)c5nc(c(-c6c(F)cc(S(=O)(=O)[O-])cc6F)c6ccc3[nH]6)C=C5)C=C4)cc2)c(-c2ccccc2)n1
REMARK SMILES IDX 11 1 10 2 9 3 8 4 6 5 7 6 5 8 2 9 3 10 89 11 4 12 82 13 1 14
REMARK SMILES IDX 83 17 84 18 88 19 85 20 87 21 86 22 12 23 13 24 14 25 15 27
REMARK SMILES IDX 16 28 17 29 81 30 18 31 80 32 19 33 20 34 21 35 74 36 22 37
REMARK SMILES IDX 79 38 73 39 75 40 23 41 78 42 72 43 71 44 24 46 58 47 37 48
REMARK SMILES IDX 57 49 38 50 41 51 56 52 76 53 39 54 40 55 55 57 77 58 42 59
REMARK SMILES IDX 25 60 26 61 35 62 27 63 28 64 34 65 36 66 29 67 30 68 31 69
REMARK SMILES IDX 32 70 33 71 59 72 60 73 69 74 61 75 62 76 68 77 70 78 63 79
REMARK SMILES IDX 64 80 65 81 66 82 67 83 43 84 44 85 53 86 45 87 46 88 52 89
REMARK SMILES IDX 54 90 47 91 48 92 49 93 50 94 51 95
REMARK H PARENT 8 7 1 15 1 16 13 26 75 45 41 56
REMARK Flexibility Score: inf
ROOT
ATOM      1  C   UNL A   1      32.893  28.697  25.651  1.00  0.00     0.023 C 
ENDROOT
BRANCH   1   2
ATOM      2  C   UNL A   1      33.886  28.636  24.491  1.00  0.00     0.023 C 
BRANCH   2   3
ATOM      3  C   UNL A   1      33.336  28.873  23.092  1.00  0.00     0.116 C 
BRANCH   3   4
ATOM      4  N   UNL A   1      33.538  27.823  22.125  1.00  0.00    -0.352 N 
ATOM      5  C   UNL A   1      33.089  26.523  22.129  1.00  0.00     0.255 C 
ATOM      6  O   UNL A   1      33.336  25.842  21.132  1.00  0.00    -0.269 OA
ATOM      7  H   UNL A   1      34.080  28.075  21.343  1.00  0.00     0.163 HD
BRANCH   5   8
ATOM      8  C   UNL A   1      32.418  25.842  23.267  1.00  0.00     0.084 A 
ATOM      9  C   UNL A   1      30.836  24.856  25.280  1.00  0.00     0.220 A 
ATOM     10  N   UNL A   1      30.297  25.756  24.466  1.00  0.00    -0.221 NA
ATOM     11  N   UNL A   1      32.089  24.420  25.184  1.00  0.00    -0.212 NA
ATOM     12  C   UNL A   1      31.103  26.230  23.485  1.00  0.00     0.131 A 
ATOM     13  C   UNL A   1      32.884  24.921  24.194  1.00  0.00     0.089 A 
BRANCH   9  14
ATOM     14  N   UNL A   1      30.065  24.342  26.278  1.00  0.00    -0.368 N 
ATOM     15  H   UNL A   1      30.375  23.557  26.785  1.00  0.00     0.159 HD
ATOM     16  H   UNL A   1      29.198  24.756  26.492  1.00  0.00     0.159 HD
ENDBRANCH   9  14
BRANCH  13  17
ATOM     17  C   UNL A   1      34.227  24.337  24.262  1.00  0.00     0.001 A 
ATOM     18  C   UNL A   1      34.734  23.484  23.270  1.00  0.00     0.010 A 
ATOM     19  C   UNL A   1      35.052  24.639  25.368  1.00  0.00     0.010 A 
ATOM     20  C   UNL A   1      35.998  22.900  23.417  1.00  0.00     0.001 A 
ATOM     21  C   UNL A   1      36.303  24.041  25.523  1.00  0.00     0.001 A 
ATOM     22  C   UNL A   1      36.771  23.165  24.549  1.00  0.00     0.000 A 
ENDBRANCH  13  17
ENDBRANCH   5   8
ENDBRANCH   3   4
ENDBRANCH   2   3
ENDBRANCH   1   2
BRANCH   1  23
ATOM     23  C   UNL A   1      33.460  28.798  27.066  1.00  0.00     0.116 C 
BRANCH  23  24
ATOM     24  N   UNL A   1      33.556  30.152  27.593  1.00  0.00    -0.352 N 
ATOM     25  C   UNL A   1      34.614  30.830  28.167  1.00  0.00     0.251 C 
ATOM     26  H   UNL A   1      32.725  30.676  27.527  1.00  0.00     0.163 HD
ATOM     27  O   UNL A   1      34.462  31.977  28.554  1.00  0.00    -0.269 OA
BRANCH  25  28
ATOM     28  C   UNL A   1      35.914  30.144  28.365  1.00  0.00     0.039 A 
ATOM     29  C   UNL A   1      36.849  30.163  27.325  1.00  0.00     0.014 A 
ATOM     30  C   UNL A   1      36.231  29.530  29.576  1.00  0.00     0.014 A 
ATOM     31  C   UNL A   1      38.144  29.683  27.548  1.00  0.00     0.010 A 
ATOM     32  C   UNL A   1      37.543  29.137  29.826  1.00  0.00     0.010 A 
ATOM     33  C   UNL A   1      38.521  29.231  28.823  1.00  0.00    -0.014 A 
BRANCH  33  34
ATOM     34  C   UNL A   1      39.934  28.898  29.152  1.00  0.00     0.031 A 
ATOM     35  C   UNL A   1      40.831  29.934  29.775  1.00  0.00     0.074 A 
ATOM     36  C   UNL A   1      40.440  27.701  28.786  1.00  0.00     0.049 A 
ATOM     37  N   UNL A   1      42.119  29.887  29.998  1.00  0.00    -0.248 NA
ATOM     38  C   UNL A   1      40.201  31.207  30.160  1.00  0.00     0.031 C 
ATOM     39  C   UNL A   1      39.693  26.633  28.117  1.00  0.00     0.029 A 
ATOM     40  N   UNL A   1      41.708  27.188  28.906  1.00  0.00    -0.354 N 
ATOM     41  C   UNL A   1      42.460  31.131  30.515  1.00  0.00     0.074 A 
ATOM     42  C   UNL A   1      41.250  31.926  30.531  1.00  0.00     0.031 C 
ATOM     43  C   UNL A   1      40.508  25.586  27.906  1.00  0.00     0.029 A 
ATOM     44  C   UNL A   1      41.845  25.920  28.385  1.00  0.00     0.049 A 
ATOM     45  H   UNL A   1      42.451  27.679  29.325  1.00  0.00     0.167 HD
ATOM     46  C   UNL A   1      43.665  31.565  30.957  1.00  0.00     0.037 A 
ATOM     47  C   UNL A   1      42.926  25.121  28.294  1.00  0.00     0.037 A 
ATOM     48  C   UNL A   1      44.853  30.753  30.983  1.00  0.00     0.049 A 
ATOM     49  C   UNL A   1      44.244  25.609  28.830  1.00  0.00     0.074 A 
ATOM     50  C   UNL A   1      46.105  31.073  31.480  1.00  0.00     0.029 A 
ATOM     51  N   UNL A   1      44.936  29.456  30.498  1.00  0.00    -0.354 N 
ATOM     52  N   UNL A   1      44.534  26.769  29.369  1.00  0.00    -0.248 NA
ATOM     53  C   UNL A   1      45.381  24.681  28.749  1.00  0.00     0.031 C 
ATOM     54  C   UNL A   1      46.952  29.980  31.269  1.00  0.00     0.029 A 
ATOM     55  C   UNL A   1      46.218  28.964  30.676  1.00  0.00     0.049 A 
ATOM     56  H   UNL A   1      44.191  28.957  30.089  1.00  0.00     0.167 HD
ATOM     57  C   UNL A   1      45.878  26.700  29.717  1.00  0.00     0.074 A 
ATOM     58  C   UNL A   1      46.342  25.382  29.334  1.00  0.00     0.031 C 
ATOM     59  C   UNL A   1      46.658  27.644  30.300  1.00  0.00     0.037 A 
BRANCH  46  60
ATOM     60  C   UNL A   1      43.753  32.981  31.459  1.00  0.00     0.058 A 
ATOM     61  C   UNL A   1      43.651  33.285  32.826  1.00  0.00     0.135 A 
ATOM     62  C   UNL A   1      43.960  34.045  30.567  1.00  0.00     0.135 A 
ATOM     63  F   UNL A   1      43.439  32.307  33.722  1.00  0.00    -0.206 F 
ATOM     64  C   UNL A   1      43.714  34.595  33.287  1.00  0.00     0.059 A 
ATOM     65  C   UNL A   1      44.054  35.362  31.009  1.00  0.00     0.059 A 
ATOM     66  F   UNL A   1      44.066  33.813  29.249  1.00  0.00    -0.206 F 
ATOM     67  C   UNL A   1      43.911  35.629  32.370  1.00  0.00     0.060 A 
BRANCH  67  68
ATOM     68  S   UNL A   1      43.981  37.325  32.984  1.00  0.00     0.124 S 
ATOM     69  O   UNL A   1      43.891  38.086  31.741  1.00  0.00    -0.237 OA
ATOM     70  O   UNL A   1      42.812  37.393  33.855  1.00  0.00    -0.237 OA
ATOM     71  O   UNL A   1      45.271  37.385  33.665  1.00  0.00    -0.744 OA
ENDBRANCH  67  68
ENDBRANCH  46  60
BRANCH  47  72
ATOM     72  C   UNL A   1      42.799  23.762  27.703  1.00  0.00     0.058 A 
ATOM     73  C   UNL A   1      42.988  23.560  26.327  1.00  0.00     0.135 A 
ATOM     74  C   UNL A   1      42.509  22.641  28.494  1.00  0.00     0.135 A 
ATOM     75  F   UNL A   1      43.261  24.602  25.528  1.00  0.00    -0.206 F 
ATOM     76  C   UNL A   1      42.880  22.297  25.754  1.00  0.00     0.059 A 
ATOM     77  C   UNL A   1      42.419  21.364  27.947  1.00  0.00     0.059 A 
ATOM     78  F   UNL A   1      42.337  22.778  29.818  1.00  0.00    -0.206 F 
ATOM     79  C   UNL A   1      42.597  21.203  26.573  1.00  0.00     0.060 A 
BRANCH  79  80
ATOM     80  S   UNL A   1      42.517  19.560  25.827  1.00  0.00     0.124 S 
ATOM     81  O   UNL A   1      43.467  19.689  24.729  1.00  0.00    -0.237 OA
ATOM     82  O   UNL A   1      42.930  18.701  26.932  1.00  0.00    -0.237 OA
ATOM     83  O   UNL A   1      41.115  19.437  25.440  1.00  0.00    -0.744 OA
ENDBRANCH  79  80
ENDBRANCH  47  72
BRANCH  59  84
ATOM     84  C   UNL A   1      48.084  27.274  30.594  1.00  0.00     0.058 A 
ATOM     85  C   UNL A   1      48.450  26.648  31.794  1.00  0.00     0.135 A 
ATOM     86  C   UNL A   1      49.087  27.501  29.637  1.00  0.00     0.135 A 
ATOM     87  F   UNL A   1      47.529  26.415  32.743  1.00  0.00    -0.206 F 
ATOM     88  C   UNL A   1      49.766  26.274  32.044  1.00  0.00     0.059 A 
ATOM     89  C   UNL A   1      50.404  27.116  29.857  1.00  0.00     0.059 A 
ATOM     90  F   UNL A   1      48.786  28.090  28.469  1.00  0.00    -0.206 F 
ATOM     91  C   UNL A   1      50.736  26.510  31.069  1.00  0.00     0.060 A 
BRANCH  91  92
ATOM     92  S   UNL A   1      52.434  25.986  31.388  1.00  0.00     0.124 S 
ATOM     93  O   UNL A   1      52.231  24.639  31.910  1.00  0.00    -0.237 OA
ATOM     94  O   UNL A   1      53.043  26.069  30.064  1.00  0.00    -0.237 OA
ATOM     95  O   UNL A   1      52.916  26.968  32.355  1.00  0.00    -0.744 OA
ENDBRANCH  91  92
ENDBRANCH  59  84
ENDBRANCH  33  34
ENDBRANCH  25  28
ENDBRANCH  23  24
ENDBRANCH   1  23
TORSDOF 16
ENDMDL
