MODEL 1
REMARK VINA RESULT:     -13.8      0.000      0.000
REMARK SMILES COc1ccc(-c2cc(F)cc(C(=O)NCCCCNC(=O)c3ccc(-c4c5nc(c(-c6c(F)cc(S(=O)(=O)[O-])cc6F)c6ccc([nH]6)c(-c6c(F)cc(S(=O)(=O)[O-])cc6F)c6nc(c(-c7c(F)cc(S(=O)(=O)[O-])cc7F)c7ccc4[nH]7)C=C6)C=C5)cc3)c2)cc1C
REMARK SMILES IDX 18 1 17 2 16 3 15 4 13 5 14 6 12 8 7 9 8 10 89 11 9 12 10 13
REMARK SMILES IDX 11 14 6 15 3 16 4 17 91 18 5 19 90 20 92 21 2 22 1 23 19 24
REMARK SMILES IDX 20 25 21 26 22 28 23 29 24 30 88 31 25 32 87 33 26 34 27 35
REMARK SMILES IDX 28 36 81 37 29 38 86 39 80 40 82 41 30 42 85 43 79 44 78 45
REMARK SMILES IDX 31 47 65 48 44 49 64 50 45 51 48 52 63 53 83 54 46 55 47 56
REMARK SMILES IDX 62 58 84 59 49 60 32 61 33 62 42 63 34 64 35 65 41 66 43 67
REMARK SMILES IDX 36 68 37 69 38 70 39 71 40 72 66 73 67 74 76 75 68 76 69 77
REMARK SMILES IDX 75 78 77 79 70 80 71 81 72 82 73 83 74 84 50 85 51 86 60 87
REMARK SMILES IDX 52 88 53 89 59 90 61 91 54 92 55 93 56 94 57 95 58 96
REMARK H PARENT 15 7 20 27 82 46 48 57
REMARK Flexibility Score: inf
ROOT
ATOM      1  C   UNL A   1      32.910  29.667  27.243  1.00  0.00     0.023 C 
ENDROOT
BRANCH   1   2
ATOM      2  C   UNL A   1      32.230  30.832  26.521  1.00  0.00     0.023 C 
BRANCH   2   3
ATOM      3  C   UNL A   1      31.228  30.433  25.433  1.00  0.00     0.116 C 
BRANCH   3   4
ATOM      4  N   UNL A   1      31.853  29.826  24.261  1.00  0.00    -0.352 N 
ATOM      5  C   UNL A   1      32.198  28.562  23.856  1.00  0.00     0.251 C 
ATOM      6  O   UNL A   1      32.765  28.477  22.762  1.00  0.00    -0.269 OA
ATOM      7  H   UNL A   1      32.090  30.501  23.585  1.00  0.00     0.163 HD
BRANCH   5   8
ATOM      8  C   UNL A   1      31.976  27.296  24.622  1.00  0.00     0.043 A 
ATOM      9  C   UNL A   1      32.982  25.193  25.450  1.00  0.00    -0.015 A 
ATOM     10  C   UNL A   1      31.748  24.869  26.027  1.00  0.00     0.048 A 
ATOM     11  C   UNL A   1      33.088  26.429  24.783  1.00  0.00     0.022 A 
ATOM     12  C   UNL A   1      30.653  25.695  25.848  1.00  0.00     0.124 A 
ATOM     13  F   UNL A   1      29.469  25.325  26.353  1.00  0.00    -0.207 F 
ATOM     14  C   UNL A   1      30.747  26.873  25.121  1.00  0.00     0.053 A 
BRANCH   9  15
ATOM     15  C   UNL A   1      34.074  24.205  25.503  1.00  0.00    -0.018 A 
ATOM     16  C   UNL A   1      36.061  22.203  25.399  1.00  0.00     0.121 A 
ATOM     17  C   UNL A   1      35.237  22.333  26.522  1.00  0.00     0.047 A 
ATOM     18  C   UNL A   1      35.902  23.060  24.306  1.00  0.00    -0.008 A 
ATOM     19  C   UNL A   1      34.255  23.331  26.579  1.00  0.00     0.012 A 
ATOM     20  C   UNL A   1      34.931  24.071  24.392  1.00  0.00     0.016 A 
ATOM     21  C   UNL A   1      36.707  22.946  23.045  1.00  0.00     0.048 C 
BRANCH  16  22
ATOM     22  O   UNL A   1      36.924  21.139  25.403  1.00  0.00    -0.496 OA
ATOM     23  C   UNL A   1      38.258  21.512  25.743  1.00  0.00     0.278 C 
ENDBRANCH  16  22
ENDBRANCH   9  15
ENDBRANCH   5   8
ENDBRANCH   3   4
ENDBRANCH   2   3
ENDBRANCH   1   2
BRANCH   1  24
ATOM     24  C   UNL A   1      34.425  29.616  27.076  1.00  0.00     0.116 C 
BRANCH  24  25
ATOM     25  N   UNL A   1      35.134  30.833  27.420  1.00  0.00    -0.352 N 
ATOM     26  C   UNL A   1      36.285  30.948  28.185  1.00  0.00     0.251 C 
ATOM     27  H   UNL A   1      34.756  31.673  27.071  1.00  0.00     0.163 HD
ATOM     28  O   UNL A   1      36.570  31.987  28.759  1.00  0.00    -0.269 OA
BRANCH  26  29
ATOM     29  C   UNL A   1      37.234  29.807  28.172  1.00  0.00     0.039 A 
ATOM     30  C   UNL A   1      37.317  29.028  29.333  1.00  0.00     0.014 A 
ATOM     31  C   UNL A   1      38.177  29.664  27.160  1.00  0.00     0.014 A 
ATOM     32  C   UNL A   1      38.445  28.236  29.558  1.00  0.00     0.010 A 
ATOM     33  C   UNL A   1      39.336  28.957  27.425  1.00  0.00     0.010 A 
ATOM     34  C   UNL A   1      39.494  28.271  28.639  1.00  0.00    -0.014 A 
BRANCH  34  35
ATOM     35  C   UNL A   1      40.820  27.704  28.881  1.00  0.00     0.031 A 
ATOM     36  C   UNL A   1      41.152  26.322  28.442  1.00  0.00     0.074 A 
ATOM     37  C   UNL A   1      41.809  28.461  29.412  1.00  0.00     0.049 A 
ATOM     38  N   UNL A   1      42.066  25.588  28.991  1.00  0.00    -0.248 NA
ATOM     39  C   UNL A   1      40.456  25.648  27.348  1.00  0.00     0.031 C 
ATOM     40  C   UNL A   1      43.238  28.149  29.389  1.00  0.00     0.029 A 
ATOM     41  N   UNL A   1      41.727  29.576  30.250  1.00  0.00    -0.354 N 
ATOM     42  C   UNL A   1      42.279  24.512  28.161  1.00  0.00     0.074 A 
ATOM     43  C   UNL A   1      41.207  24.552  27.193  1.00  0.00     0.031 C 
ATOM     44  C   UNL A   1      43.843  28.823  30.377  1.00  0.00     0.029 A 
ATOM     45  C   UNL A   1      42.800  29.470  31.153  1.00  0.00     0.049 A 
ATOM     46  H   UNL A   1      41.053  30.292  30.216  1.00  0.00     0.167 HD
ATOM     47  C   UNL A   1      43.418  23.768  28.255  1.00  0.00     0.037 A 
ATOM     48  C   UNL A   1      42.693  29.415  32.513  1.00  0.00     0.037 A 
ATOM     49  C   UNL A   1      44.320  24.258  29.286  1.00  0.00     0.049 A 
ATOM     50  C   UNL A   1      43.381  28.218  33.130  1.00  0.00     0.074 A 
ATOM     51  C   UNL A   1      45.425  25.091  29.235  1.00  0.00     0.029 A 
ATOM     52  N   UNL A   1      43.979  24.141  30.628  1.00  0.00    -0.354 N 
ATOM     53  N   UNL A   1      43.771  27.177  32.450  1.00  0.00    -0.248 NA
ATOM     54  C   UNL A   1      43.633  28.067  34.562  1.00  0.00     0.031 C 
ATOM     55  C   UNL A   1      45.735  25.500  30.550  1.00  0.00     0.029 A 
ATOM     56  C   UNL A   1      44.817  24.918  31.405  1.00  0.00     0.049 A 
ATOM     57  H   UNL A   1      43.244  23.584  30.977  1.00  0.00     0.167 HD
ATOM     58  C   UNL A   1      44.256  26.221  33.304  1.00  0.00     0.074 A 
ATOM     59  C   UNL A   1      44.179  26.838  34.613  1.00  0.00     0.031 C 
ATOM     60  C   UNL A   1      44.658  24.996  32.849  1.00  0.00     0.037 A 
BRANCH  47  61
ATOM     61  C   UNL A   1      43.809  22.796  27.170  1.00  0.00     0.058 A 
ATOM     62  C   UNL A   1      43.062  21.627  26.921  1.00  0.00     0.135 A 
ATOM     63  C   UNL A   1      44.964  22.955  26.378  1.00  0.00     0.135 A 
ATOM     64  F   UNL A   1      41.917  21.373  27.566  1.00  0.00    -0.206 F 
ATOM     65  C   UNL A   1      43.479  20.641  26.027  1.00  0.00     0.059 A 
ATOM     66  C   UNL A   1      45.424  21.961  25.507  1.00  0.00     0.059 A 
ATOM     67  F   UNL A   1      45.690  24.082  26.449  1.00  0.00    -0.206 F 
ATOM     68  C   UNL A   1      44.678  20.800  25.347  1.00  0.00     0.060 A 
BRANCH  68  69
ATOM     69  S   UNL A   1      45.267  19.443  24.314  1.00  0.00     0.124 S 
ATOM     70  O   UNL A   1      44.868  18.268  25.084  1.00  0.00    -0.237 OA
ATOM     71  O   UNL A   1      44.535  19.666  23.073  1.00  0.00    -0.237 OA
ATOM     72  O   UNL A   1      46.708  19.673  24.247  1.00  0.00    -0.744 OA
ENDBRANCH  68  69
ENDBRANCH  47  61
BRANCH  48  73
ATOM     73  C   UNL A   1      41.469  30.049  33.060  1.00  0.00     0.058 A 
ATOM     74  C   UNL A   1      41.474  31.443  33.242  1.00  0.00     0.135 A 
ATOM     75  C   UNL A   1      40.230  29.401  32.966  1.00  0.00     0.135 A 
ATOM     76  F   UNL A   1      42.637  32.102  33.368  1.00  0.00    -0.206 F 
ATOM     77  C   UNL A   1      40.305  32.186  33.147  1.00  0.00     0.059 A 
ATOM     78  C   UNL A   1      39.045  30.126  32.871  1.00  0.00     0.059 A 
ATOM     79  F   UNL A   1      40.174  28.072  32.789  1.00  0.00    -0.206 F 
ATOM     80  C   UNL A   1      39.108  31.521  32.885  1.00  0.00     0.060 A 
BRANCH  80  81
ATOM     81  S   UNL A   1      37.698  32.515  32.342  1.00  0.00     0.124 S 
ATOM     82  O   UNL A   1      37.379  33.272  33.546  1.00  0.00    -0.237 OA
ATOM     83  O   UNL A   1      38.297  33.279  31.250  1.00  0.00    -0.237 OA
ATOM     84  O   UNL A   1      36.720  31.509  31.945  1.00  0.00    -0.744 OA
ENDBRANCH  80  81
ENDBRANCH  48  73
BRANCH  60  85
ATOM     85  C   UNL A   1      45.032  23.800  33.692  1.00  0.00     0.058 A 
ATOM     86  C   UNL A   1      44.129  22.799  34.087  1.00  0.00     0.135 A 
ATOM     87  C   UNL A   1      46.389  23.558  34.024  1.00  0.00     0.135 A 
ATOM     88  F   UNL A   1      42.836  22.852  33.740  1.00  0.00    -0.206 F 
ATOM     89  C   UNL A   1      44.527  21.674  34.817  1.00  0.00     0.059 A 
ATOM     90  C   UNL A   1      46.814  22.420  34.705  1.00  0.00     0.059 A 
ATOM     91  F   UNL A   1      47.357  24.423  33.684  1.00  0.00    -0.206 F 
ATOM     92  C   UNL A   1      45.872  21.494  35.122  1.00  0.00     0.060 A 
BRANCH  92  93
ATOM     93  S   UNL A   1      46.410  20.020  36.010  1.00  0.00     0.124 S 
ATOM     94  O   UNL A   1      45.712  20.174  37.281  1.00  0.00    -0.237 OA
ATOM     95  O   UNL A   1      45.933  18.932  35.160  1.00  0.00    -0.237 OA
ATOM     96  O   UNL A   1      47.860  20.176  36.059  1.00  0.00    -0.744 OA
ENDBRANCH  92  93
ENDBRANCH  60  85
ENDBRANCH  34  35
ENDBRANCH  26  29
ENDBRANCH  24  25
ENDBRANCH   1  24
TORSDOF 16
ENDMDL
MODEL 2
REMARK VINA RESULT:     -13.4      1.795      2.571
REMARK SMILES COc1ccc(-c2cc(F)cc(C(=O)NCCCCNC(=O)c3ccc(-c4c5nc(c(-c6c(F)cc(S(=O)(=O)[O-])cc6F)c6ccc([nH]6)c(-c6c(F)cc(S(=O)(=O)[O-])cc6F)c6nc(c(-c7c(F)cc(S(=O)(=O)[O-])cc7F)c7ccc4[nH]7)C=C6)C=C5)cc3)c2)cc1C
REMARK SMILES IDX 18 1 17 2 16 3 15 4 13 5 14 6 12 8 7 9 8 10 89 11 9 12 10 13
REMARK SMILES IDX 11 14 6 15 3 16 4 17 91 18 5 19 90 20 92 21 2 22 1 23 19 24
REMARK SMILES IDX 20 25 21 26 22 28 23 29 24 30 88 31 25 32 87 33 26 34 27 35
REMARK SMILES IDX 28 36 81 37 29 38 86 39 80 40 82 41 30 42 85 43 79 44 78 45
REMARK SMILES IDX 31 47 65 48 44 49 64 50 45 51 48 52 63 53 83 54 46 55 47 56
REMARK SMILES IDX 62 58 84 59 49 60 32 61 33 62 42 63 34 64 35 65 41 66 43 67
REMARK SMILES IDX 36 68 37 69 38 70 39 71 40 72 66 73 67 74 76 75 68 76 69 77
REMARK SMILES IDX 75 78 77 79 70 80 71 81 72 82 73 83 74 84 50 85 51 86 60 87
REMARK SMILES IDX 52 88 53 89 59 90 61 91 54 92 55 93 56 94 57 95 58 96
REMARK H PARENT 15 7 20 27 82 46 48 57
REMARK Flexibility Score: inf
ROOT
ATOM      1  C   UNL A   1      32.191  29.592  25.965  1.00  0.00     0.023 C 
ENDROOT
BRANCH   1   2
ATOM      2  C   UNL A   1      32.901  29.002  24.745  1.00  0.00     0.023 C 
BRANCH   2   3
ATOM      3  C   UNL A   1      31.982  28.580  23.593  1.00  0.00     0.116 C 
BRANCH   3   4
ATOM      4  N   UNL A   1      32.610  27.652  22.658  1.00  0.00    -0.352 N 
ATOM      5  C   UNL A   1      33.232  26.431  22.730  1.00  0.00     0.251 C 
ATOM      6  O   UNL A   1      33.674  25.983  21.667  1.00  0.00    -0.269 OA
ATOM      7  H   UNL A   1      32.580  27.990  21.734  1.00  0.00     0.163 HD
BRANCH   5   8
ATOM      8  C   UNL A   1      33.443  25.617  23.968  1.00  0.00     0.043 A 
ATOM      9  C   UNL A   1      35.026  24.230  25.267  1.00  0.00    -0.015 A 
ATOM     10  C   UNL A   1      34.027  24.051  26.231  1.00  0.00     0.048 A 
ATOM     11  C   UNL A   1      34.730  25.047  24.159  1.00  0.00     0.022 A 
ATOM     12  C   UNL A   1      32.763  24.578  26.034  1.00  0.00     0.124 A 
ATOM     13  F   UNL A   1      31.807  24.334  26.940  1.00  0.00    -0.207 F 
ATOM     14  C   UNL A   1      32.455  25.316  24.900  1.00  0.00     0.053 A 
BRANCH   9  15
ATOM     15  C   UNL A   1      36.299  23.503  25.419  1.00  0.00    -0.018 A 
ATOM     16  C   UNL A   1      38.609  21.940  25.854  1.00  0.00     0.121 A 
ATOM     17  C   UNL A   1      38.562  23.276  26.269  1.00  0.00     0.047 A 
ATOM     18  C   UNL A   1      37.504  21.358  25.226  1.00  0.00    -0.008 A 
ATOM     19  C   UNL A   1      37.419  24.055  26.047  1.00  0.00     0.012 A 
ATOM     20  C   UNL A   1      36.377  22.162  24.988  1.00  0.00     0.016 A 
ATOM     21  C   UNL A   1      37.457  19.918  24.807  1.00  0.00     0.048 C 
BRANCH  16  22
ATOM     22  O   UNL A   1      39.734  21.238  26.201  1.00  0.00    -0.496 OA
ATOM     23  C   UNL A   1      40.405  21.796  27.329  1.00  0.00     0.278 C 
ENDBRANCH  16  22
ENDBRANCH   9  15
ENDBRANCH   5   8
ENDBRANCH   3   4
ENDBRANCH   2   3
ENDBRANCH   1   2
BRANCH   1  24
ATOM     24  C   UNL A   1      33.056  29.686  27.217  1.00  0.00     0.116 C 
BRANCH  24  25
ATOM     25  N   UNL A   1      33.527  31.016  27.555  1.00  0.00    -0.352 N 
ATOM     26  C   UNL A   1      34.566  31.346  28.411  1.00  0.00     0.251 C 
ATOM     27  H   UNL A   1      33.056  31.768  27.128  1.00  0.00     0.163 HD
ATOM     28  O   UNL A   1      34.627  32.440  28.950  1.00  0.00    -0.269 OA
BRANCH  26  29
ATOM     29  C   UNL A   1      35.680  30.376  28.544  1.00  0.00     0.039 A 
ATOM     30  C   UNL A   1      35.952  29.882  29.827  1.00  0.00     0.014 A 
ATOM     31  C   UNL A   1      36.575  30.155  27.502  1.00  0.00     0.014 A 
ATOM     32  C   UNL A   1      37.202  29.326  30.106  1.00  0.00     0.010 A 
ATOM     33  C   UNL A   1      37.844  29.693  27.800  1.00  0.00     0.010 A 
ATOM     34  C   UNL A   1      38.178  29.312  29.108  1.00  0.00    -0.014 A 
BRANCH  34  35
ATOM     35  C   UNL A   1      39.588  29.004  29.340  1.00  0.00     0.031 A 
ATOM     36  C   UNL A   1      40.182  27.728  28.857  1.00  0.00     0.074 A 
ATOM     37  C   UNL A   1      40.412  29.918  29.905  1.00  0.00     0.049 A 
ATOM     38  N   UNL A   1      41.220  27.166  29.387  1.00  0.00    -0.248 NA
ATOM     39  C   UNL A   1      39.631  26.972  27.734  1.00  0.00     0.031 C 
ATOM     40  C   UNL A   1      41.874  29.890  29.882  1.00  0.00     0.029 A 
ATOM     41  N   UNL A   1      40.115  30.966  30.781  1.00  0.00    -0.354 N 
ATOM     42  C   UNL A   1      41.638  26.182  28.521  1.00  0.00     0.074 A 
ATOM     43  C   UNL A   1      40.579  26.048  27.547  1.00  0.00     0.031 C 
ATOM     44  C   UNL A   1      42.336  30.633  30.897  1.00  0.00     0.029 A 
ATOM     45  C   UNL A   1      41.188  31.037  31.688  1.00  0.00     0.049 A 
ATOM     46  H   UNL A   1      39.315  31.538  30.766  1.00  0.00     0.167 HD
ATOM     47  C   UNL A   1      42.899  25.670  28.597  1.00  0.00     0.037 A 
ATOM     48  C   UNL A   1      41.092  30.915  33.044  1.00  0.00     0.037 A 
ATOM     49  C   UNL A   1      43.689  26.287  29.652  1.00  0.00     0.049 A 
ATOM     50  C   UNL A   1      41.998  29.852  33.624  1.00  0.00     0.074 A 
ATOM     51  C   UNL A   1      44.612  27.320  29.638  1.00  0.00     0.029 A 
ATOM     52  N   UNL A   1      43.376  26.059  30.987  1.00  0.00    -0.354 N 
ATOM     53  N   UNL A   1      42.583  28.931  32.911  1.00  0.00    -0.248 NA
ATOM     54  C   UNL A   1      42.273  29.701  35.052  1.00  0.00     0.031 C 
ATOM     55  C   UNL A   1      44.835  27.734  30.969  1.00  0.00     0.029 A 
ATOM     56  C   UNL A   1      44.047  26.955  31.796  1.00  0.00     0.049 A 
ATOM     57  H   UNL A   1      42.763  25.359  31.310  1.00  0.00     0.167 HD
ATOM     58  C   UNL A   1      43.244  28.056  33.735  1.00  0.00     0.074 A 
ATOM     59  C   UNL A   1      43.047  28.601  35.064  1.00  0.00     0.031 C 
ATOM     60  C   UNL A   1      43.875  26.950  33.240  1.00  0.00     0.037 A 
BRANCH  47  61
ATOM     61  C   UNL A   1      43.472  24.831  27.482  1.00  0.00     0.058 A 
ATOM     62  C   UNL A   1      43.759  23.462  27.660  1.00  0.00     0.135 A 
ATOM     63  C   UNL A   1      43.810  25.360  26.221  1.00  0.00     0.135 A 
ATOM     64  F   UNL A   1      43.445  22.819  28.791  1.00  0.00    -0.206 F 
ATOM     65  C   UNL A   1      44.421  22.699  26.699  1.00  0.00     0.059 A 
ATOM     66  C   UNL A   1      44.513  24.626  25.258  1.00  0.00     0.059 A 
ATOM     67  F   UNL A   1      43.482  26.621  25.900  1.00  0.00    -0.206 F 
ATOM     68  C   UNL A   1      44.824  23.296  25.513  1.00  0.00     0.060 A 
BRANCH  68  69
ATOM     69  S   UNL A   1      45.811  22.326  24.354  1.00  0.00     0.124 S 
ATOM     70  O   UNL A   1      44.796  21.801  23.445  1.00  0.00    -0.237 OA
ATOM     71  O   UNL A   1      46.701  23.336  23.795  1.00  0.00    -0.237 OA
ATOM     72  O   UNL A   1      46.447  21.327  25.209  1.00  0.00    -0.744 OA
ENDBRANCH  68  69
ENDBRANCH  47  61
BRANCH  48  73
ATOM     73  C   UNL A   1      39.768  31.279  33.603  1.00  0.00     0.058 A 
ATOM     74  C   UNL A   1      39.541  32.627  33.932  1.00  0.00     0.135 A 
ATOM     75  C   UNL A   1      38.654  30.456  33.390  1.00  0.00     0.135 A 
ATOM     76  F   UNL A   1      40.577  33.445  34.175  1.00  0.00    -0.206 F 
ATOM     77  C   UNL A   1      38.269  33.180  33.868  1.00  0.00     0.059 A 
ATOM     78  C   UNL A   1      37.369  30.989  33.323  1.00  0.00     0.059 A 
ATOM     79  F   UNL A   1      38.820  29.164  33.071  1.00  0.00    -0.206 F 
ATOM     80  C   UNL A   1      37.203  32.365  33.487  1.00  0.00     0.060 A 
BRANCH  80  81
ATOM     81  S   UNL A   1      35.663  33.175  32.994  1.00  0.00     0.124 S 
ATOM     82  O   UNL A   1      35.054  32.169  32.131  1.00  0.00    -0.237 OA
ATOM     83  O   UNL A   1      35.021  33.371  34.292  1.00  0.00    -0.237 OA
ATOM     84  O   UNL A   1      36.126  34.387  32.330  1.00  0.00    -0.744 OA
ENDBRANCH  80  81
ENDBRANCH  48  73
BRANCH  60  85
ATOM     85  C   UNL A   1      44.472  25.819  34.045  1.00  0.00     0.058 A 
ATOM     86  C   UNL A   1      45.850  25.641  34.254  1.00  0.00     0.135 A 
ATOM     87  C   UNL A   1      43.630  24.929  34.759  1.00  0.00     0.135 A 
ATOM     88  F   UNL A   1      46.748  26.483  33.725  1.00  0.00    -0.206 F 
ATOM     89  C   UNL A   1      46.361  24.616  35.056  1.00  0.00     0.059 A 
ATOM     90  C   UNL A   1      44.117  23.935  35.604  1.00  0.00     0.059 A 
ATOM     91  F   UNL A   1      42.294  25.006  34.668  1.00  0.00    -0.206 F 
ATOM     92  C   UNL A   1      45.488  23.767  35.727  1.00  0.00     0.060 A 
BRANCH  92  93
ATOM     93  S   UNL A   1      46.130  22.479  36.812  1.00  0.00     0.124 S 
ATOM     94  O   UNL A   1      45.667  22.940  38.117  1.00  0.00    -0.237 OA
ATOM     95  O   UNL A   1      45.482  21.271  36.307  1.00  0.00    -0.237 OA
ATOM     96  O   UNL A   1      47.570  22.548  36.589  1.00  0.00    -0.744 OA
ENDBRANCH  92  93
ENDBRANCH  60  85
ENDBRANCH  34  35
ENDBRANCH  26  29
ENDBRANCH  24  25
ENDBRANCH   1  24
TORSDOF 16
ENDMDL
MODEL 3
REMARK VINA RESULT:     -13.4      1.345      1.992
REMARK SMILES COc1ccc(-c2cc(F)cc(C(=O)NCCCCNC(=O)c3ccc(-c4c5nc(c(-c6c(F)cc(S(=O)(=O)[O-])cc6F)c6ccc([nH]6)c(-c6c(F)cc(S(=O)(=O)[O-])cc6F)c6nc(c(-c7c(F)cc(S(=O)(=O)[O-])cc7F)c7ccc4[nH]7)C=C6)C=C5)cc3)c2)cc1C
REMARK SMILES IDX 18 1 17 2 16 3 15 4 13 5 14 6 12 8 7 9 8 10 89 11 9 12 10 13
REMARK SMILES IDX 11 14 6 15 3 16 4 17 91 18 5 19 90 20 92 21 2 22 1 23 19 24
REMARK SMILES IDX 20 25 21 26 22 28 23 29 24 30 88 31 25 32 87 33 26 34 27 35
REMARK SMILES IDX 28 36 81 37 29 38 86 39 80 40 82 41 30 42 85 43 79 44 78 45
REMARK SMILES IDX 31 47 65 48 44 49 64 50 45 51 48 52 63 53 83 54 46 55 47 56
REMARK SMILES IDX 62 58 84 59 49 60 32 61 33 62 42 63 34 64 35 65 41 66 43 67
REMARK SMILES IDX 36 68 37 69 38 70 39 71 40 72 66 73 67 74 76 75 68 76 69 77
REMARK SMILES IDX 75 78 77 79 70 80 71 81 72 82 73 83 74 84 50 85 51 86 60 87
REMARK SMILES IDX 52 88 53 89 59 90 61 91 54 92 55 93 56 94 57 95 58 96
REMARK H PARENT 15 7 20 27 82 46 48 57
REMARK Flexibility Score: inf
ROOT
ATOM      1  C   UNL A   1      33.413  29.227  27.372  1.00  0.00     0.023 C 
ENDROOT
BRANCH   1   2
ATOM      2  C   UNL A   1      32.035  29.892  27.329  1.00  0.00     0.023 C 
BRANCH   2   3
ATOM      3  C   UNL A   1      31.891  31.034  26.317  1.00  0.00     0.116 C 
BRANCH   3   4
ATOM      4  N   UNL A   1      30.913  30.760  25.267  1.00  0.00    -0.352 N 
ATOM      5  C   UNL A   1      30.800  29.894  24.210  1.00  0.00     0.251 C 
ATOM      6  O   UNL A   1      29.787  30.014  23.514  1.00  0.00    -0.269 OA
ATOM      7  H   UNL A   1      30.129  31.352  25.337  1.00  0.00     0.163 HD
BRANCH   5   8
ATOM      8  C   UNL A   1      31.794  28.847  23.814  1.00  0.00     0.043 A 
ATOM      9  C   UNL A   1      32.683  26.584  24.269  1.00  0.00    -0.015 A 
ATOM     10  C   UNL A   1      33.588  26.764  23.216  1.00  0.00     0.048 A 
ATOM     11  C   UNL A   1      31.767  27.622  24.530  1.00  0.00     0.022 A 
ATOM     12  C   UNL A   1      33.640  27.967  22.536  1.00  0.00     0.124 A 
ATOM     13  F   UNL A   1      34.562  28.136  21.579  1.00  0.00    -0.207 F 
ATOM     14  C   UNL A   1      32.786  29.014  22.853  1.00  0.00     0.053 A 
BRANCH   9  15
ATOM     15  C   UNL A   1      32.781  25.365  25.090  1.00  0.00    -0.018 A 
ATOM     16  C   UNL A   1      32.831  23.150  26.840  1.00  0.00     0.121 A 
ATOM     17  C   UNL A   1      34.020  23.763  26.429  1.00  0.00     0.047 A 
ATOM     18  C   UNL A   1      31.598  23.636  26.395  1.00  0.00    -0.008 A 
ATOM     19  C   UNL A   1      33.998  24.857  25.554  1.00  0.00     0.012 A 
ATOM     20  C   UNL A   1      31.597  24.716  25.497  1.00  0.00     0.016 A 
ATOM     21  C   UNL A   1      30.281  23.069  26.836  1.00  0.00     0.048 C 
BRANCH  16  22
ATOM     22  O   UNL A   1      32.956  22.149  27.768  1.00  0.00    -0.496 OA
ATOM     23  C   UNL A   1      33.921  21.168  27.394  1.00  0.00     0.278 C 
ENDBRANCH  16  22
ENDBRANCH   9  15
ENDBRANCH   5   8
ENDBRANCH   3   4
ENDBRANCH   2   3
ENDBRANCH   1   2
BRANCH   1  24
ATOM     24  C   UNL A   1      34.512  29.999  26.651  1.00  0.00     0.116 C 
BRANCH  24  25
ATOM     25  N   UNL A   1      35.103  31.092  27.399  1.00  0.00    -0.352 N 
ATOM     26  C   UNL A   1      36.035  31.003  28.422  1.00  0.00     0.251 C 
ATOM     27  H   UNL A   1      34.809  31.999  27.154  1.00  0.00     0.163 HD
ATOM     28  O   UNL A   1      36.161  31.890  29.251  1.00  0.00    -0.269 OA
BRANCH  26  29
ATOM     29  C   UNL A   1      36.973  29.853  28.397  1.00  0.00     0.039 A 
ATOM     30  C   UNL A   1      37.112  29.112  29.578  1.00  0.00     0.014 A 
ATOM     31  C   UNL A   1      37.859  29.668  27.341  1.00  0.00     0.014 A 
ATOM     32  C   UNL A   1      38.245  28.318  29.769  1.00  0.00     0.010 A 
ATOM     33  C   UNL A   1      39.026  28.959  27.568  1.00  0.00     0.010 A 
ATOM     34  C   UNL A   1      39.244  28.313  28.794  1.00  0.00    -0.014 A 
BRANCH  34  35
ATOM     35  C   UNL A   1      40.576  27.742  28.984  1.00  0.00     0.031 A 
ATOM     36  C   UNL A   1      40.883  26.354  28.545  1.00  0.00     0.074 A 
ATOM     37  C   UNL A   1      41.591  28.499  29.464  1.00  0.00     0.049 A 
ATOM     38  N   UNL A   1      41.816  25.621  29.062  1.00  0.00    -0.248 NA
ATOM     39  C   UNL A   1      40.137  25.673  27.489  1.00  0.00     0.031 C 
ATOM     40  C   UNL A   1      43.016  28.180  29.382  1.00  0.00     0.029 A 
ATOM     41  N   UNL A   1      41.550  29.623  30.293  1.00  0.00    -0.354 N 
ATOM     42  C   UNL A   1      41.989  24.536  28.234  1.00  0.00     0.074 A 
ATOM     43  C   UNL A   1      40.875  24.571  27.313  1.00  0.00     0.031 C 
ATOM     44  C   UNL A   1      43.667  28.862  30.335  1.00  0.00     0.029 A 
ATOM     45  C   UNL A   1      42.661  29.521  31.150  1.00  0.00     0.049 A 
ATOM     46  H   UNL A   1      40.879  30.342  30.281  1.00  0.00     0.167 HD
ATOM     47  C   UNL A   1      43.127  23.788  28.286  1.00  0.00     0.037 A 
ATOM     48  C   UNL A   1      42.613  29.480  32.513  1.00  0.00     0.037 A 
ATOM     49  C   UNL A   1      44.075  24.283  29.272  1.00  0.00     0.049 A 
ATOM     50  C   UNL A   1      43.322  28.286  33.112  1.00  0.00     0.074 A 
ATOM     51  C   UNL A   1      45.181  25.110  29.164  1.00  0.00     0.029 A 
ATOM     52  N   UNL A   1      43.792  24.181  30.629  1.00  0.00    -0.354 N 
ATOM     53  N   UNL A   1      43.677  27.237  32.426  1.00  0.00    -0.248 NA
ATOM     54  C   UNL A   1      43.635  28.148  34.533  1.00  0.00     0.031 C 
ATOM     55  C   UNL A   1      45.549  25.532  30.460  1.00  0.00     0.029 A 
ATOM     56  C   UNL A   1      44.667  24.962  31.360  1.00  0.00     0.049 A 
ATOM     57  H   UNL A   1      43.071  23.632  31.014  1.00  0.00     0.167 HD
ATOM     58  C   UNL A   1      44.195  26.286  33.269  1.00  0.00     0.074 A 
ATOM     59  C   UNL A   1      44.178  26.918  34.573  1.00  0.00     0.031 C 
ATOM     60  C   UNL A   1      44.571  25.055  32.808  1.00  0.00     0.037 A 
BRANCH  47  61
ATOM     61  C   UNL A   1      43.467  22.803  27.195  1.00  0.00     0.058 A 
ATOM     62  C   UNL A   1      42.843  21.541  27.118  1.00  0.00     0.135 A 
ATOM     63  C   UNL A   1      44.458  23.046  26.223  1.00  0.00     0.135 A 
ATOM     64  F   UNL A   1      41.850  21.196  27.947  1.00  0.00    -0.206 F 
ATOM     65  C   UNL A   1      43.237  20.558  26.212  1.00  0.00     0.059 A 
ATOM     66  C   UNL A   1      44.900  22.061  25.333  1.00  0.00     0.059 A 
ATOM     67  F   UNL A   1      45.040  24.253  26.130  1.00  0.00    -0.206 F 
ATOM     68  C   UNL A   1      44.290  20.813  25.344  1.00  0.00     0.060 A 
BRANCH  68  69
ATOM     69  S   UNL A   1      44.879  19.473  24.289  1.00  0.00     0.124 S 
ATOM     70  O   UNL A   1      44.485  19.927  22.958  1.00  0.00    -0.237 OA
ATOM     71  O   UNL A   1      46.311  19.479  24.562  1.00  0.00    -0.237 OA
ATOM     72  O   UNL A   1      44.147  18.309  24.783  1.00  0.00    -0.744 OA
ENDBRANCH  68  69
ENDBRANCH  47  61
BRANCH  48  73
ATOM     73  C   UNL A   1      41.417  30.125  33.107  1.00  0.00     0.058 A 
ATOM     74  C   UNL A   1      41.423  31.525  33.244  1.00  0.00     0.135 A 
ATOM     75  C   UNL A   1      40.178  29.468  33.102  1.00  0.00     0.135 A 
ATOM     76  F   UNL A   1      42.586  32.193  33.284  1.00  0.00    -0.206 F 
ATOM     77  C   UNL A   1      40.245  32.258  33.190  1.00  0.00     0.059 A 
ATOM     78  C   UNL A   1      38.985  30.185  33.050  1.00  0.00     0.059 A 
ATOM     79  F   UNL A   1      40.122  28.135  32.971  1.00  0.00    -0.206 F 
ATOM     80  C   UNL A   1      39.040  31.579  33.015  1.00  0.00     0.060 A 
BRANCH  80  81
ATOM     81  S   UNL A   1      37.596  32.548  32.520  1.00  0.00     0.124 S 
ATOM     82  O   UNL A   1      36.646  31.507  32.145  1.00  0.00    -0.237 OA
ATOM     83  O   UNL A   1      37.299  33.264  33.759  1.00  0.00    -0.237 OA
ATOM     84  O   UNL A   1      38.107  33.366  31.426  1.00  0.00    -0.744 OA
ENDBRANCH  80  81
ENDBRANCH  48  73
BRANCH  60  85
ATOM     85  C   UNL A   1      44.976  23.866  33.647  1.00  0.00     0.058 A 
ATOM     86  C   UNL A   1      44.098  22.844  34.044  1.00  0.00     0.135 A 
ATOM     87  C   UNL A   1      46.340  23.654  33.972  1.00  0.00     0.135 A 
ATOM     88  F   UNL A   1      42.802  22.868  33.703  1.00  0.00    -0.206 F 
ATOM     89  C   UNL A   1      44.525  21.726  34.768  1.00  0.00     0.059 A 
ATOM     90  C   UNL A   1      46.794  22.525  34.648  1.00  0.00     0.059 A 
ATOM     91  F   UNL A   1      47.287  24.542  33.630  1.00  0.00    -0.206 F 
ATOM     92  C   UNL A   1      45.875  21.576  35.067  1.00  0.00     0.060 A 
BRANCH  92  93
ATOM     93  S   UNL A   1      46.451  20.112  35.948  1.00  0.00     0.124 S 
ATOM     94  O   UNL A   1      45.980  19.042  35.075  1.00  0.00    -0.237 OA
ATOM     95  O   UNL A   1      47.899  20.300  35.987  1.00  0.00    -0.237 OA
ATOM     96  O   UNL A   1      45.779  20.219  37.239  1.00  0.00    -0.744 OA
ENDBRANCH  92  93
ENDBRANCH  60  85
ENDBRANCH  34  35
ENDBRANCH  26  29
ENDBRANCH  24  25
ENDBRANCH   1  24
TORSDOF 16
ENDMDL
