MODEL 1
REMARK VINA RESULT:     -11.9      0.000      0.000
REMARK SMILES O=C(NCCCCNC(=O)[C@@H]1CC[C@H](CNC(=O)c2cccn2C2CC2)O1)c1ccc(-c2c3nc(c(-c4c(F)cc(S(=O)(=O)[O-])cc4F)c4ccc([nH]4)c(-c4c(F)cc(S(=O)(=O)[O-])cc4F)c4nc(c(-c5c(F)cc(S(=O)(=O)[O-])cc5F)c5ccc2[nH]5)C=C4)C=C3)cc1
REMARK SMILES IDX 6 1 5 2 4 3 3 4 1 5 2 6 28 8 29 9 93 10 30 11 92 12 31 13
REMARK SMILES IDX 32 14 33 15 86 16 34 17 91 18 85 19 87 20 35 21 90 22 84 23
REMARK SMILES IDX 83 24 36 26 70 27 49 28 69 29 50 30 53 31 68 32 88 33 51 34
REMARK SMILES IDX 52 35 67 37 89 38 54 39 37 40 38 41 47 42 39 43 40 44 46 45
REMARK SMILES IDX 48 46 41 47 42 48 43 49 44 50 45 51 71 52 72 53 81 54 73 55
REMARK SMILES IDX 74 56 80 57 82 58 75 59 76 60 77 61 78 62 79 63 55 64 56 65
REMARK SMILES IDX 65 66 57 67 58 68 64 69 66 70 59 71 60 72 61 73 62 74 63 75
REMARK SMILES IDX 7 76 8 77 9 78 10 80 11 81 12 82 27 83 13 84 14 85 15 86
REMARK SMILES IDX 16 87 17 88 18 90 19 91 20 92 23 93 21 94 22 95 24 96 25 97
REMARK SMILES IDX 26 98
REMARK H PARENT 3 7 87 25 53 36 8 79 16 89
REMARK Flexibility Score: inf
ROOT
ATOM      1  C   UNL A   1      32.551  29.619  25.865  1.00  0.00     0.023 C 
ENDROOT
BRANCH   1   2
ATOM      2  C   UNL A   1      33.804  28.747  25.808  1.00  0.00     0.023 C 
BRANCH   2   3
ATOM      3  C   UNL A   1      34.706  28.826  27.042  1.00  0.00     0.116 C 
BRANCH   3   4
ATOM      4  N   UNL A   1      34.931  30.159  27.574  1.00  0.00    -0.352 N 
ATOM      5  O   UNL A   1      35.954  31.945  28.444  1.00  0.00    -0.269 OA
ATOM      6  C   UNL A   1      36.026  30.752  28.156  1.00  0.00     0.251 C 
ATOM      7  H   UNL A   1      34.149  30.752  27.506  1.00  0.00     0.163 HD
BRANCH   6   8
ATOM      8  C   UNL A   1      37.243  29.984  28.513  1.00  0.00     0.039 A 
ATOM      9  C   UNL A   1      38.429  30.068  27.783  1.00  0.00     0.014 A 
ATOM     10  C   UNL A   1      37.179  29.141  29.634  1.00  0.00     0.014 A 
ATOM     11  C   UNL A   1      39.489  29.223  28.070  1.00  0.00     0.010 A 
ATOM     12  C   UNL A   1      38.266  28.334  29.970  1.00  0.00     0.010 A 
ATOM     13  C   UNL A   1      39.416  28.364  29.171  1.00  0.00    -0.014 A 
BRANCH  13  14
ATOM     14  C   UNL A   1      40.671  27.692  29.570  1.00  0.00     0.031 A 
ATOM     15  C   UNL A   1      40.902  26.403  28.768  1.00  0.00     0.074 A 
ATOM     16  C   UNL A   1      41.377  28.232  30.606  1.00  0.00     0.049 A 
ATOM     17  N   UNL A   1      41.516  25.309  29.106  1.00  0.00    -0.248 NA
ATOM     18  C   UNL A   1      40.256  26.264  27.431  1.00  0.00     0.031 C 
ATOM     19  C   UNL A   1      40.997  29.470  31.316  1.00  0.00     0.029 A 
ATOM     20  N   UNL A   1      42.528  27.868  31.281  1.00  0.00    -0.354 N 
ATOM     21  C   UNL A   1      41.525  24.470  27.971  1.00  0.00     0.074 A 
ATOM     22  C   UNL A   1      40.608  25.040  27.033  1.00  0.00     0.031 C 
ATOM     23  C   UNL A   1      41.844  29.714  32.339  1.00  0.00     0.029 A 
ATOM     24  C   UNL A   1      42.868  28.688  32.389  1.00  0.00     0.049 A 
ATOM     25  H   UNL A   1      43.074  27.096  31.010  1.00  0.00     0.167 HD
ATOM     26  C   UNL A   1      42.403  23.440  27.800  1.00  0.00     0.037 A 
ATOM     27  C   UNL A   1      43.884  28.544  33.298  1.00  0.00     0.037 A 
ATOM     28  C   UNL A   1      43.293  23.360  28.909  1.00  0.00     0.049 A 
ATOM     29  C   UNL A   1      44.733  27.452  32.786  1.00  0.00     0.074 A 
ATOM     30  C   UNL A   1      43.145  22.916  30.195  1.00  0.00     0.029 A 
ATOM     31  N   UNL A   1      44.465  24.072  28.811  1.00  0.00    -0.354 N 
ATOM     32  N   UNL A   1      45.479  27.527  31.724  1.00  0.00    -0.248 NA
ATOM     33  C   UNL A   1      44.721  26.158  33.479  1.00  0.00     0.031 C 
ATOM     34  C   UNL A   1      44.034  23.716  30.939  1.00  0.00     0.029 A 
ATOM     35  C   UNL A   1      44.778  24.525  30.069  1.00  0.00     0.049 A 
ATOM     36  H   UNL A   1      44.986  24.228  27.990  1.00  0.00     0.167 HD
ATOM     37  C   UNL A   1      45.747  26.208  31.447  1.00  0.00     0.074 A 
ATOM     38  C   UNL A   1      45.538  25.478  32.679  1.00  0.00     0.031 C 
ATOM     39  C   UNL A   1      45.550  25.747  30.186  1.00  0.00     0.037 A 
BRANCH  26  40
ATOM     40  C   UNL A   1      42.748  22.601  26.601  1.00  0.00     0.058 A 
ATOM     41  C   UNL A   1      42.374  21.234  26.624  1.00  0.00     0.135 A 
ATOM     42  C   UNL A   1      43.701  22.968  25.641  1.00  0.00     0.135 A 
ATOM     43  F   UNL A   1      41.422  20.798  27.467  1.00  0.00    -0.206 F 
ATOM     44  C   UNL A   1      43.015  20.271  25.855  1.00  0.00     0.059 A 
ATOM     45  C   UNL A   1      44.327  22.021  24.824  1.00  0.00     0.059 A 
ATOM     46  F   UNL A   1      44.117  24.236  25.529  1.00  0.00    -0.206 F 
ATOM     47  C   UNL A   1      44.022  20.670  24.987  1.00  0.00     0.060 A 
BRANCH  47  48
ATOM     48  S   UNL A   1      44.965  19.394  24.124  1.00  0.00     0.124 S 
ATOM     49  O   UNL A   1      46.336  19.766  24.453  1.00  0.00    -0.237 OA
ATOM     50  O   UNL A   1      44.475  18.169  24.749  1.00  0.00    -0.237 OA
ATOM     51  O   UNL A   1      44.574  19.574  22.729  1.00  0.00    -0.744 OA
ENDBRANCH  47  48
ENDBRANCH  26  40
BRANCH  27  52
ATOM     52  C   UNL A   1      44.282  29.116  34.650  1.00  0.00     0.058 A 
ATOM     53  C   UNL A   1      43.679  28.828  35.882  1.00  0.00     0.135 A 
ATOM     54  C   UNL A   1      45.483  29.881  34.763  1.00  0.00     0.135 A 
ATOM     55  F   UNL A   1      42.490  28.220  35.953  1.00  0.00    -0.206 F 
ATOM     56  C   UNL A   1      44.289  29.127  37.114  1.00  0.00     0.059 A 
ATOM     57  C   UNL A   1      46.137  30.133  35.966  1.00  0.00     0.059 A 
ATOM     58  F   UNL A   1      46.105  30.378  33.684  1.00  0.00    -0.206 F 
ATOM     59  C   UNL A   1      45.547  29.722  37.145  1.00  0.00     0.060 A 
BRANCH  59  60
ATOM     60  S   UNL A   1      46.482  29.832  38.686  1.00  0.00     0.124 S 
ATOM     61  O   UNL A   1      47.083  28.507  38.773  1.00  0.00    -0.237 OA
ATOM     62  O   UNL A   1      47.404  30.932  38.423  1.00  0.00    -0.237 OA
ATOM     63  O   UNL A   1      45.447  30.124  39.675  1.00  0.00    -0.744 OA
ENDBRANCH  59  60
ENDBRANCH  27  52
BRANCH  39  64
ATOM     64  C   UNL A   1      45.761  26.790  29.100  1.00  0.00     0.058 A 
ATOM     65  C   UNL A   1      47.040  27.320  28.859  1.00  0.00     0.135 A 
ATOM     66  C   UNL A   1      44.720  27.355  28.345  1.00  0.00     0.135 A 
ATOM     67  F   UNL A   1      48.099  26.842  29.533  1.00  0.00    -0.206 F 
ATOM     68  C   UNL A   1      47.265  28.340  27.927  1.00  0.00     0.059 A 
ATOM     69  C   UNL A   1      44.912  28.364  27.401  1.00  0.00     0.059 A 
ATOM     70  F   UNL A   1      43.467  26.937  28.513  1.00  0.00    -0.206 F 
ATOM     71  C   UNL A   1      46.194  28.856  27.198  1.00  0.00     0.060 A 
BRANCH  71  72
ATOM     72  S   UNL A   1      46.498  30.157  25.981  1.00  0.00     0.124 S 
ATOM     73  O   UNL A   1      46.551  29.410  24.729  1.00  0.00    -0.237 OA
ATOM     74  O   UNL A   1      45.332  31.017  26.156  1.00  0.00    -0.237 OA
ATOM     75  O   UNL A   1      47.769  30.740  26.406  1.00  0.00    -0.744 OA
ENDBRANCH  71  72
ENDBRANCH  39  64
ENDBRANCH  13  14
ENDBRANCH   6   8
ENDBRANCH   3   4
ENDBRANCH   2   3
ENDBRANCH   1   2
BRANCH   1  76
ATOM     76  C   UNL A   1      31.525  29.335  24.776  1.00  0.00     0.116 C 
BRANCH  76  77
ATOM     77  N   UNL A   1      30.890  28.039  24.943  1.00  0.00    -0.354 N 
ATOM     78  C   UNL A   1      31.129  26.858  24.305  1.00  0.00     0.249 C 
ATOM     79  H   UNL A   1      30.177  28.009  25.623  1.00  0.00     0.163 HD
ATOM     80  O   UNL A   1      30.517  25.856  24.686  1.00  0.00    -0.272 OA
BRANCH  78  81
ATOM     81  C   UNL A   1      32.129  26.801  23.146  1.00  0.00     0.207 C 
ATOM     82  C   UNL A   1      31.541  26.037  21.969  1.00  0.00     0.045 C 
ATOM     83  O   UNL A   1      33.337  26.122  23.536  1.00  0.00    -0.363 OA
ATOM     84  C   UNL A   1      32.760  25.376  21.378  1.00  0.00     0.037 C 
ATOM     85  C   UNL A   1      33.592  25.053  22.610  1.00  0.00     0.138 C 
BRANCH  85  86
ATOM     86  C   UNL A   1      33.228  23.722  23.285  1.00  0.00     0.148 C 
BRANCH  86  87
ATOM     87  N   UNL A   1      33.068  23.852  24.725  1.00  0.00    -0.348 N 
ATOM     88  C   UNL A   1      33.011  22.890  25.701  1.00  0.00     0.268 C 
ATOM     89  H   UNL A   1      32.989  24.778  25.051  1.00  0.00     0.163 HD
ATOM     90  O   UNL A   1      32.860  23.274  26.859  1.00  0.00    -0.268 OA
BRANCH  88  91
ATOM     91  C   UNL A   1      33.213  21.510  25.341  1.00  0.00     0.107 A 
ATOM     92  C   UNL A   1      32.214  20.600  24.999  1.00  0.00     0.033 A 
ATOM     93  N   UNL A   1      34.410  20.854  25.129  1.00  0.00    -0.340 N 
ATOM     94  C   UNL A   1      32.814  19.386  24.606  1.00  0.00     0.020 A 
ATOM     95  C   UNL A   1      34.171  19.578  24.675  1.00  0.00     0.086 A 
BRANCH  93  96
ATOM     96  C   UNL A   1      35.779  21.267  25.397  1.00  0.00     0.087 C 
ATOM     97  C   UNL A   1      37.056  20.574  24.983  1.00  0.00     0.027 C 
ATOM     98  C   UNL A   1      36.654  21.831  24.292  1.00  0.00     0.027 C 
ENDBRANCH  93  96
ENDBRANCH  88  91
ENDBRANCH  86  87
ENDBRANCH  85  86
ENDBRANCH  78  81
ENDBRANCH  76  77
ENDBRANCH   1  76
TORSDOF 18
ENDMDL
MODEL 2
REMARK VINA RESULT:     -11.4      2.715      8.595
REMARK SMILES O=C(NCCCCNC(=O)[C@@H]1CC[C@H](CNC(=O)c2cccn2C2CC2)O1)c1ccc(-c2c3nc(c(-c4c(F)cc(S(=O)(=O)[O-])cc4F)c4ccc([nH]4)c(-c4c(F)cc(S(=O)(=O)[O-])cc4F)c4nc(c(-c5c(F)cc(S(=O)(=O)[O-])cc5F)c5ccc2[nH]5)C=C4)C=C3)cc1
REMARK SMILES IDX 6 1 5 2 4 3 3 4 1 5 2 6 28 8 29 9 93 10 30 11 92 12 31 13
REMARK SMILES IDX 32 14 33 15 86 16 34 17 91 18 85 19 87 20 35 21 90 22 84 23
REMARK SMILES IDX 83 24 36 26 70 27 49 28 69 29 50 30 53 31 68 32 88 33 51 34
REMARK SMILES IDX 52 35 67 37 89 38 54 39 37 40 38 41 47 42 39 43 40 44 46 45
REMARK SMILES IDX 48 46 41 47 42 48 43 49 44 50 45 51 71 52 72 53 81 54 73 55
REMARK SMILES IDX 74 56 80 57 82 58 75 59 76 60 77 61 78 62 79 63 55 64 56 65
REMARK SMILES IDX 65 66 57 67 58 68 64 69 66 70 59 71 60 72 61 73 62 74 63 75
REMARK SMILES IDX 7 76 8 77 9 78 10 80 11 81 12 82 27 83 13 84 14 85 15 86
REMARK SMILES IDX 16 87 17 88 18 90 19 91 20 92 23 93 21 94 22 95 24 96 25 97
REMARK SMILES IDX 26 98
REMARK H PARENT 3 7 87 25 53 36 8 79 16 89
REMARK Flexibility Score: inf
ROOT
ATOM      1  C   UNL A   1      32.036  29.755  25.648  1.00  0.00     0.023 C 
ENDROOT
BRANCH   1   2
ATOM      2  C   UNL A   1      33.410  29.098  25.769  1.00  0.00     0.023 C 
BRANCH   2   3
ATOM      3  C   UNL A   1      33.912  28.903  27.201  1.00  0.00     0.116 C 
BRANCH   3   4
ATOM      4  N   UNL A   1      33.939  30.097  28.029  1.00  0.00    -0.352 N 
ATOM      5  O   UNL A   1      34.694  31.829  29.222  1.00  0.00    -0.269 OA
ATOM      6  C   UNL A   1      34.964  30.781  28.637  1.00  0.00     0.251 C 
ATOM      7  H   UNL A   1      33.051  30.492  28.186  1.00  0.00     0.163 HD
BRANCH   6   8
ATOM      8  C   UNL A   1      36.349  30.256  28.673  1.00  0.00     0.039 A 
ATOM      9  C   UNL A   1      37.230  30.377  27.597  1.00  0.00     0.014 A 
ATOM     10  C   UNL A   1      36.776  29.615  29.847  1.00  0.00     0.014 A 
ATOM     11  C   UNL A   1      38.462  29.743  27.627  1.00  0.00     0.010 A 
ATOM     12  C   UNL A   1      38.041  29.030  29.909  1.00  0.00     0.010 A 
ATOM     13  C   UNL A   1      38.876  29.080  28.787  1.00  0.00    -0.014 A 
BRANCH  13  14
ATOM     14  C   UNL A   1      40.294  28.663  28.839  1.00  0.00     0.031 A 
ATOM     15  C   UNL A   1      41.209  29.821  29.262  1.00  0.00     0.074 A 
ATOM     16  C   UNL A   1      40.596  27.392  28.440  1.00  0.00     0.049 A 
ATOM     17  N   UNL A   1      42.448  30.060  28.953  1.00  0.00    -0.248 NA
ATOM     18  C   UNL A   1      40.627  30.943  30.054  1.00  0.00     0.031 C 
ATOM     19  C   UNL A   1      39.594  26.395  28.012  1.00  0.00     0.029 A 
ATOM     20  N   UNL A   1      41.773  26.681  28.298  1.00  0.00    -0.354 N 
ATOM     21  C   UNL A   1      42.844  31.203  29.681  1.00  0.00     0.074 A 
ATOM     22  C   UNL A   1      41.649  31.786  30.209  1.00  0.00     0.031 C 
ATOM     23  C   UNL A   1      40.196  25.256  27.606  1.00  0.00     0.029 A 
ATOM     24  C   UNL A   1      41.634  25.379  27.748  1.00  0.00     0.049 A 
ATOM     25  H   UNL A   1      42.646  27.052  28.562  1.00  0.00     0.167 HD
ATOM     26  C   UNL A   1      44.145  31.520  29.941  1.00  0.00     0.037 A 
ATOM     27  C   UNL A   1      42.604  24.472  27.408  1.00  0.00     0.037 A 
ATOM     28  C   UNL A   1      45.013  30.534  29.391  1.00  0.00     0.049 A 
ATOM     29  C   UNL A   1      43.871  25.021  27.925  1.00  0.00     0.074 A 
ATOM     30  C   UNL A   1      45.419  30.253  28.116  1.00  0.00     0.029 A 
ATOM     31  N   UNL A   1      45.346  29.481  30.211  1.00  0.00    -0.354 N 
ATOM     32  N   UNL A   1      44.180  25.118  29.184  1.00  0.00    -0.248 NA
ATOM     33  C   UNL A   1      44.859  25.546  26.974  1.00  0.00     0.031 C 
ATOM     34  C   UNL A   1      45.626  28.860  28.120  1.00  0.00     0.029 A 
ATOM     35  C   UNL A   1      45.462  28.364  29.420  1.00  0.00     0.049 A 
ATOM     36  H   UNL A   1      45.477  29.520  31.187  1.00  0.00     0.167 HD
ATOM     37  C   UNL A   1      45.226  26.008  29.173  1.00  0.00     0.074 A 
ATOM     38  C   UNL A   1      45.776  25.981  27.835  1.00  0.00     0.031 C 
ATOM     39  C   UNL A   1      45.197  27.070  30.017  1.00  0.00     0.037 A 
BRANCH  26  40
ATOM     40  C   UNL A   1      44.770  32.518  30.876  1.00  0.00     0.058 A 
ATOM     41  C   UNL A   1      45.647  33.482  30.321  1.00  0.00     0.135 A 
ATOM     42  C   UNL A   1      44.831  32.351  32.267  1.00  0.00     0.135 A 
ATOM     43  F   UNL A   1      45.619  33.758  29.006  1.00  0.00    -0.206 F 
ATOM     44  C   UNL A   1      46.626  34.122  31.071  1.00  0.00     0.059 A 
ATOM     45  C   UNL A   1      45.779  33.018  33.049  1.00  0.00     0.059 A 
ATOM     46  F   UNL A   1      44.037  31.472  32.893  1.00  0.00    -0.206 F 
ATOM     47  C   UNL A   1      46.711  33.850  32.430  1.00  0.00     0.060 A 
BRANCH  47  48
ATOM     48  S   UNL A   1      48.093  34.551  33.359  1.00  0.00     0.124 S 
ATOM     49  O   UNL A   1      49.238  33.984  32.657  1.00  0.00    -0.237 OA
ATOM     50  O   UNL A   1      47.890  35.986  33.184  1.00  0.00    -0.237 OA
ATOM     51  O   UNL A   1      47.869  34.057  34.715  1.00  0.00    -0.744 OA
ENDBRANCH  47  48
ENDBRANCH  26  40
BRANCH  27  52
ATOM     52  C   UNL A   1      42.716  23.182  26.610  1.00  0.00     0.058 A 
ATOM     53  C   UNL A   1      43.316  23.034  25.352  1.00  0.00     0.135 A 
ATOM     54  C   UNL A   1      42.354  21.943  27.223  1.00  0.00     0.135 A 
ATOM     55  F   UNL A   1      43.613  24.093  24.591  1.00  0.00    -0.206 F 
ATOM     56  C   UNL A   1      43.673  21.780  24.824  1.00  0.00     0.059 A 
ATOM     57  C   UNL A   1      42.751  20.694  26.752  1.00  0.00     0.059 A 
ATOM     58  F   UNL A   1      41.631  21.901  28.352  1.00  0.00    -0.206 F 
ATOM     59  C   UNL A   1      43.444  20.621  25.560  1.00  0.00     0.060 A 
BRANCH  59  60
ATOM     60  S   UNL A   1      44.165  19.044  25.053  1.00  0.00     0.124 S 
ATOM     61  O   UNL A   1      43.168  18.090  25.523  1.00  0.00    -0.237 OA
ATOM     62  O   UNL A   1      44.269  19.193  23.605  1.00  0.00    -0.237 OA
ATOM     63  O   UNL A   1      45.443  19.026  25.761  1.00  0.00    -0.744 OA
ENDBRANCH  59  60
ENDBRANCH  27  52
BRANCH  39  64
ATOM     64  C   UNL A   1      44.459  26.810  31.321  1.00  0.00     0.058 A 
ATOM     65  C   UNL A   1      43.267  27.494  31.614  1.00  0.00     0.135 A 
ATOM     66  C   UNL A   1      44.941  25.970  32.339  1.00  0.00     0.135 A 
ATOM     67  F   UNL A   1      42.729  28.320  30.701  1.00  0.00    -0.206 F 
ATOM     68  C   UNL A   1      42.599  27.347  32.836  1.00  0.00     0.059 A 
ATOM     69  C   UNL A   1      44.293  25.793  33.562  1.00  0.00     0.059 A 
ATOM     70  F   UNL A   1      46.073  25.292  32.169  1.00  0.00    -0.206 F 
ATOM     71  C   UNL A   1      43.119  26.490  33.806  1.00  0.00     0.060 A 
BRANCH  71  72
ATOM     72  S   UNL A   1      42.238  26.290  35.371  1.00  0.00     0.124 S 
ATOM     73  O   UNL A   1      42.714  24.990  35.835  1.00  0.00    -0.237 OA
ATOM     74  O   UNL A   1      42.704  27.442  36.134  1.00  0.00    -0.237 OA
ATOM     75  O   UNL A   1      40.829  26.329  34.985  1.00  0.00    -0.744 OA
ENDBRANCH  71  72
ENDBRANCH  39  64
ENDBRANCH  13  14
ENDBRANCH   6   8
ENDBRANCH   3   4
ENDBRANCH   2   3
ENDBRANCH   1   2
BRANCH   1  76
ATOM     76  C   UNL A   1      31.265  29.395  24.385  1.00  0.00     0.116 C 
BRANCH  76  77
ATOM     77  N   UNL A   1      30.558  28.133  24.512  1.00  0.00    -0.354 N 
ATOM     78  C   UNL A   1      30.882  26.896  24.037  1.00  0.00     0.249 C 
ATOM     79  H   UNL A   1      29.715  28.176  25.021  1.00  0.00     0.163 HD
ATOM     80  O   UNL A   1      30.164  25.944  24.353  1.00  0.00    -0.272 OA
BRANCH  78  81
ATOM     81  C   UNL A   1      32.105  26.719  23.130  1.00  0.00     0.207 C 
ATOM     82  C   UNL A   1      31.682  26.239  21.750  1.00  0.00     0.045 C 
ATOM     83  O   UNL A   1      33.009  25.736  23.667  1.00  0.00    -0.363 OA
ATOM     84  C   UNL A   1      32.845  25.369  21.347  1.00  0.00     0.037 C 
ATOM     85  C   UNL A   1      33.259  24.735  22.666  1.00  0.00     0.138 C 
BRANCH  85  86
ATOM     86  C   UNL A   1      32.470  23.469  23.031  1.00  0.00     0.148 C 
BRANCH  86  87
ATOM     87  N   UNL A   1      31.969  23.498  24.397  1.00  0.00    -0.348 N 
ATOM     88  C   UNL A   1      32.276  22.701  25.471  1.00  0.00     0.268 C 
ATOM     89  H   UNL A   1      31.305  24.202  24.580  1.00  0.00     0.163 HD
ATOM     90  O   UNL A   1      31.694  22.936  26.528  1.00  0.00    -0.268 OA
BRANCH  88  91
ATOM     91  C   UNL A   1      33.306  21.703  25.334  1.00  0.00     0.107 A 
ATOM     92  C   UNL A   1      33.127  20.403  24.864  1.00  0.00     0.033 A 
ATOM     93  N   UNL A   1      34.668  21.860  25.503  1.00  0.00    -0.340 N 
ATOM     94  C   UNL A   1      34.384  19.771  24.776  1.00  0.00     0.020 A 
ATOM     95  C   UNL A   1      35.319  20.700  25.156  1.00  0.00     0.086 A 
BRANCH  93  96
ATOM     96  C   UNL A   1      35.435  22.968  26.052  1.00  0.00     0.087 C 
ATOM     97  C   UNL A   1      36.872  23.333  25.766  1.00  0.00     0.027 C 
ATOM     98  C   UNL A   1      35.781  24.175  25.199  1.00  0.00     0.027 C 
ENDBRANCH  93  96
ENDBRANCH  88  91
ENDBRANCH  86  87
ENDBRANCH  85  86
ENDBRANCH  78  81
ENDBRANCH  76  77
ENDBRANCH   1  76
TORSDOF 18
ENDMDL
MODEL 3
REMARK VINA RESULT:     -11.3      3.384      9.058
REMARK SMILES O=C(NCCCCNC(=O)[C@@H]1CC[C@H](CNC(=O)c2cccn2C2CC2)O1)c1ccc(-c2c3nc(c(-c4c(F)cc(S(=O)(=O)[O-])cc4F)c4ccc([nH]4)c(-c4c(F)cc(S(=O)(=O)[O-])cc4F)c4nc(c(-c5c(F)cc(S(=O)(=O)[O-])cc5F)c5ccc2[nH]5)C=C4)C=C3)cc1
REMARK SMILES IDX 6 1 5 2 4 3 3 4 1 5 2 6 28 8 29 9 93 10 30 11 92 12 31 13
REMARK SMILES IDX 32 14 33 15 86 16 34 17 91 18 85 19 87 20 35 21 90 22 84 23
REMARK SMILES IDX 83 24 36 26 70 27 49 28 69 29 50 30 53 31 68 32 88 33 51 34
REMARK SMILES IDX 52 35 67 37 89 38 54 39 37 40 38 41 47 42 39 43 40 44 46 45
REMARK SMILES IDX 48 46 41 47 42 48 43 49 44 50 45 51 71 52 72 53 81 54 73 55
REMARK SMILES IDX 74 56 80 57 82 58 75 59 76 60 77 61 78 62 79 63 55 64 56 65
REMARK SMILES IDX 65 66 57 67 58 68 64 69 66 70 59 71 60 72 61 73 62 74 63 75
REMARK SMILES IDX 7 76 8 77 9 78 10 80 11 81 12 82 27 83 13 84 14 85 15 86
REMARK SMILES IDX 16 87 17 88 18 90 19 91 20 92 23 93 21 94 22 95 24 96 25 97
REMARK SMILES IDX 26 98
REMARK H PARENT 3 7 87 25 53 36 8 79 16 89
REMARK Flexibility Score: inf
ROOT
ATOM      1  C   UNL A   1      38.915  22.287  26.106  1.00  0.00     0.023 C 
ENDROOT
BRANCH   1   2
ATOM      2  C   UNL A   1      38.850  20.990  25.301  1.00  0.00     0.023 C 
BRANCH   2   3
ATOM      3  C   UNL A   1      38.964  19.707  26.127  1.00  0.00     0.116 C 
BRANCH   3   4
ATOM      4  N   UNL A   1      40.141  18.895  25.874  1.00  0.00    -0.352 N 
ATOM      5  O   UNL A   1      42.270  18.221  25.794  1.00  0.00    -0.269 OA
ATOM      6  C   UNL A   1      41.486  19.143  26.012  1.00  0.00     0.251 C 
ATOM      7  H   UNL A   1      39.937  17.993  25.537  1.00  0.00     0.163 HD
BRANCH   6   8
ATOM      8  C   UNL A   1      42.010  20.492  26.333  1.00  0.00     0.039 A 
ATOM      9  C   UNL A   1      42.459  21.379  25.354  1.00  0.00     0.014 A 
ATOM     10  C   UNL A   1      42.048  20.875  27.683  1.00  0.00     0.014 A 
ATOM     11  C   UNL A   1      43.071  22.569  25.716  1.00  0.00     0.010 A 
ATOM     12  C   UNL A   1      42.605  22.100  28.051  1.00  0.00     0.010 A 
ATOM     13  C   UNL A   1      43.135  22.938  27.063  1.00  0.00    -0.014 A 
BRANCH  13  14
ATOM     14  C   UNL A   1      43.558  24.326  27.349  1.00  0.00     0.031 A 
ATOM     15  C   UNL A   1      42.351  25.251  27.566  1.00  0.00     0.074 A 
ATOM     16  C   UNL A   1      44.893  24.605  27.297  1.00  0.00     0.049 A 
ATOM     17  N   UNL A   1      42.222  26.521  27.329  1.00  0.00    -0.248 NA
ATOM     18  C   UNL A   1      41.059  24.652  28.007  1.00  0.00     0.031 C 
ATOM     19  C   UNL A   1      45.943  23.601  27.027  1.00  0.00     0.029 A 
ATOM     20  N   UNL A   1      45.643  25.757  27.443  1.00  0.00    -0.354 N 
ATOM     21  C   UNL A   1      40.945  26.902  27.795  1.00  0.00     0.074 A 
ATOM     22  C   UNL A   1      40.225  25.693  28.052  1.00  0.00     0.031 C 
ATOM     23  C   UNL A   1      47.159  24.185  26.966  1.00  0.00     0.029 A 
ATOM     24  C   UNL A   1      47.036  25.610  27.210  1.00  0.00     0.049 A 
ATOM     25  H   UNL A   1      45.238  26.619  27.691  1.00  0.00     0.167 HD
ATOM     26  C   UNL A   1      40.603  28.189  28.094  1.00  0.00     0.037 A 
ATOM     27  C   UNL A   1      48.020  26.564  27.192  1.00  0.00     0.037 A 
ATOM     28  C   UNL A   1      41.711  29.057  27.883  1.00  0.00     0.049 A 
ATOM     29  C   UNL A   1      47.389  27.804  27.681  1.00  0.00     0.074 A 
ATOM     30  C   UNL A   1      42.303  29.560  26.756  1.00  0.00     0.029 A 
ATOM     31  N   UNL A   1      42.541  29.270  28.959  1.00  0.00    -0.354 N 
ATOM     32  N   UNL A   1      46.996  28.006  28.903  1.00  0.00    -0.248 NA
ATOM     33  C   UNL A   1      47.133  28.894  26.730  1.00  0.00     0.031 C 
ATOM     34  C   UNL A   1      43.658  29.704  27.115  1.00  0.00     0.029 A 
ATOM     35  C   UNL A   1      43.818  29.406  28.474  1.00  0.00     0.049 A 
ATOM     36  H   UNL A   1      42.268  29.317  29.905  1.00  0.00     0.167 HD
ATOM     37  C   UNL A   1      46.158  29.088  28.778  1.00  0.00     0.074 A 
ATOM     38  C   UNL A   1      46.522  29.750  27.544  1.00  0.00     0.031 C 
ATOM     39  C   UNL A   1      44.923  29.032  29.337  1.00  0.00     0.037 A 
BRANCH  26  40
ATOM     40  C   UNL A   1      39.421  28.772  28.818  1.00  0.00     0.058 A 
ATOM     41  C   UNL A   1      38.615  29.704  28.118  1.00  0.00     0.135 A 
ATOM     42  C   UNL A   1      39.267  28.741  30.211  1.00  0.00     0.135 A 
ATOM     43  F   UNL A   1      38.646  29.766  26.776  1.00  0.00    -0.206 F 
ATOM     44  C   UNL A   1      37.826  30.646  28.767  1.00  0.00     0.059 A 
ATOM     45  C   UNL A   1      38.444  29.650  30.882  1.00  0.00     0.059 A 
ATOM     46  F   UNL A   1      39.975  27.891  30.966  1.00  0.00    -0.206 F 
ATOM     47  C   UNL A   1      37.780  30.638  30.155  1.00  0.00     0.060 A 
BRANCH  47  48
ATOM     48  S   UNL A   1      36.894  31.971  30.991  1.00  0.00     0.124 S 
ATOM     49  O   UNL A   1      37.992  32.743  31.561  1.00  0.00    -0.237 OA
ATOM     50  O   UNL A   1      36.179  32.608  29.889  1.00  0.00    -0.237 OA
ATOM     51  O   UNL A   1      36.050  31.263  31.948  1.00  0.00    -0.744 OA
ENDBRANCH  47  48
ENDBRANCH  26  40
BRANCH  27  52
ATOM     52  C   UNL A   1      49.467  26.688  26.741  1.00  0.00     0.058 A 
ATOM     53  C   UNL A   1      50.592  26.754  27.575  1.00  0.00     0.135 A 
ATOM     54  C   UNL A   1      49.786  26.550  25.356  1.00  0.00     0.135 A 
ATOM     55  F   UNL A   1      50.478  26.997  28.885  1.00  0.00    -0.206 F 
ATOM     56  C   UNL A   1      51.900  26.540  27.103  1.00  0.00     0.059 A 
ATOM     57  C   UNL A   1      51.063  26.275  24.873  1.00  0.00     0.059 A 
ATOM     58  F   UNL A   1      48.843  26.629  24.406  1.00  0.00    -0.206 F 
ATOM     59  C   UNL A   1      52.118  26.238  25.762  1.00  0.00     0.060 A 
BRANCH  59  60
ATOM     60  S   UNL A   1      53.732  25.658  25.194  1.00  0.00     0.124 S 
ATOM     61  O   UNL A   1      53.691  25.988  23.774  1.00  0.00    -0.237 OA
ATOM     62  O   UNL A   1      54.657  26.445  26.003  1.00  0.00    -0.237 OA
ATOM     63  O   UNL A   1      53.698  24.233  25.515  1.00  0.00    -0.744 OA
ENDBRANCH  59  60
ENDBRANCH  27  52
BRANCH  39  64
ATOM     64  C   UNL A   1      44.842  28.173  30.588  1.00  0.00     0.058 A 
ATOM     65  C   UNL A   1      45.452  28.592  31.782  1.00  0.00     0.135 A 
ATOM     66  C   UNL A   1      44.255  26.896  30.624  1.00  0.00     0.135 A 
ATOM     67  F   UNL A   1      46.039  29.799  31.844  1.00  0.00    -0.206 F 
ATOM     68  C   UNL A   1      45.473  27.796  32.933  1.00  0.00     0.059 A 
ATOM     69  C   UNL A   1      44.248  26.083  31.758  1.00  0.00     0.059 A 
ATOM     70  F   UNL A   1      43.668  26.398  29.539  1.00  0.00    -0.206 F 
ATOM     71  C   UNL A   1      44.865  26.541  32.914  1.00  0.00     0.060 A 
BRANCH  71  72
ATOM     72  S   UNL A   1      44.877  25.529  34.411  1.00  0.00     0.124 S 
ATOM     73  O   UNL A   1      43.910  24.484  34.092  1.00  0.00    -0.237 OA
ATOM     74  O   UNL A   1      46.270  25.102  34.480  1.00  0.00    -0.237 OA
ATOM     75  O   UNL A   1      44.460  26.457  35.461  1.00  0.00    -0.744 OA
ENDBRANCH  71  72
ENDBRANCH  39  64
ENDBRANCH  13  14
ENDBRANCH   6   8
ENDBRANCH   3   4
ENDBRANCH   2   3
ENDBRANCH   1   2
BRANCH   1  76
ATOM     76  C   UNL A   1      37.840  23.309  25.760  1.00  0.00     0.116 C 
BRANCH  76  77
ATOM     77  N   UNL A   1      37.410  23.207  24.376  1.00  0.00    -0.354 N 
ATOM     78  C   UNL A   1      36.153  23.104  23.856  1.00  0.00     0.249 C 
ATOM     79  H   UNL A   1      38.137  23.214  23.712  1.00  0.00     0.163 HD
ATOM     80  O   UNL A   1      36.028  23.122  22.628  1.00  0.00    -0.272 OA
BRANCH  78  81
ATOM     81  C   UNL A   1      34.946  22.963  24.788  1.00  0.00     0.207 C 
ATOM     82  C   UNL A   1      34.109  21.753  24.400  1.00  0.00     0.045 C 
ATOM     83  O   UNL A   1      34.091  24.118  24.707  1.00  0.00    -0.363 OA
ATOM     84  C   UNL A   1      32.714  22.209  24.745  1.00  0.00     0.037 C 
ATOM     85  C   UNL A   1      32.754  23.690  24.401  1.00  0.00     0.138 C 
BRANCH  85  86
ATOM     86  C   UNL A   1      32.465  24.001  22.925  1.00  0.00     0.148 C 
BRANCH  86  87
ATOM     87  N   UNL A   1      33.387  24.980  22.370  1.00  0.00    -0.348 N 
ATOM     88  C   UNL A   1      33.275  26.343  22.264  1.00  0.00     0.268 C 
ATOM     89  H   UNL A   1      34.226  24.604  22.016  1.00  0.00     0.163 HD
ATOM     90  O   UNL A   1      34.209  26.943  21.737  1.00  0.00    -0.268 OA
BRANCH  88  91
ATOM     91  C   UNL A   1      32.129  27.002  22.837  1.00  0.00     0.107 A 
ATOM     92  C   UNL A   1      30.831  26.976  22.329  1.00  0.00     0.033 A 
ATOM     93  N   UNL A   1      32.048  27.660  24.049  1.00  0.00    -0.340 N 
ATOM     94  C   UNL A   1      29.974  27.645  23.226  1.00  0.00     0.020 A 
ATOM     95  C   UNL A   1      30.748  28.039  24.289  1.00  0.00     0.086 A 
BRANCH  93  96
ATOM     96  C   UNL A   1      33.088  28.065  24.982  1.00  0.00     0.087 C 
ATOM     97  C   UNL A   1      32.967  28.277  26.472  1.00  0.00     0.027 C 
ATOM     98  C   UNL A   1      33.682  27.072  25.965  1.00  0.00     0.027 C 
ENDBRANCH  93  96
ENDBRANCH  88  91
ENDBRANCH  86  87
ENDBRANCH  85  86
ENDBRANCH  78  81
ENDBRANCH  76  77
ENDBRANCH   1  76
TORSDOF 18
ENDMDL
