MODEL 1
REMARK VINA RESULT:     -11.5      0.000      0.000
REMARK SMILES CC(C)(C)OC(=O)[C@H](C(=O)NCCCCNC(=O)c1ccc(-c2c3nc(c(-c4c(F)cc(S(=O)(=O)[O-])cc4F)c4ccc([nH]4)c(-c4c(F)cc(S(=O)(=O)[O-])cc4F)c4nc(c(-c5c(F)cc(S(=O)(=O)[O-])cc5F)c5ccc2[nH]5)C=C4)C=C3)cc1)[C@@H]([NH3+])c1ccc(Br)cc1
REMARK SMILES IDX 13 1 12 2 11 3 9 4 10 5 8 7 6 8 7 9 5 10 2 11 1 12 3 13 4 14
REMARK SMILES IDX 85 15 86 16 87 20 88 21 93 22 89 23 92 24 90 25 91 26 14 27
REMARK SMILES IDX 15 28 16 29 17 30 18 32 19 33 20 34 84 35 21 36 83 37 22 38
REMARK SMILES IDX 23 39 24 40 77 41 25 42 82 43 76 44 78 45 26 46 81 47 75 48
REMARK SMILES IDX 74 49 27 51 61 52 40 53 60 54 41 55 44 56 59 57 79 58 42 59
REMARK SMILES IDX 43 60 58 62 80 63 45 64 28 65 29 66 38 67 30 68 31 69 37 70
REMARK SMILES IDX 39 71 32 72 33 73 34 74 35 75 36 76 62 77 63 78 72 79 64 80
REMARK SMILES IDX 65 81 71 82 73 83 66 84 67 85 68 86 69 87 70 88 46 89 47 90
REMARK SMILES IDX 56 91 48 92 49 93 55 94 57 95 50 96 51 97 52 98 53 99 54 100
REMARK H PARENT 11 6 86 17 86 18 86 19 16 31 78 50 44 61
REMARK Flexibility Score: inf
ROOT
ATOM      1  C   UNL A   1      36.984  22.712  24.609  1.00  0.00     0.023 C 
ENDROOT
BRANCH   1   2
ATOM      2  C   UNL A   1      36.743  21.408  25.362  1.00  0.00     0.116 C 
BRANCH   2   3
ATOM      3  N   UNL A   1      35.797  21.515  26.461  1.00  0.00    -0.355 N 
ATOM      4  C   UNL A   1      34.439  21.533  26.569  1.00  0.00     0.240 C 
ATOM      5  O   UNL A   1      34.023  21.463  27.737  1.00  0.00    -0.274 OA
ATOM      6  H   UNL A   1      36.243  21.592  27.334  1.00  0.00     0.163 HD
BRANCH   4   7
ATOM      7  C   UNL A   1      33.402  21.679  25.441  1.00  0.00     0.250 C 
BRANCH   7   8
ATOM      8  C   UNL A   1      32.940  20.294  25.011  1.00  0.00     0.325 C 
ATOM      9  O   UNL A   1      31.766  19.948  24.998  1.00  0.00    -0.251 OA
BRANCH   8  10
ATOM     10  O   UNL A   1      33.988  19.483  24.697  1.00  0.00    -0.459 OA
BRANCH  10  11
ATOM     11  C   UNL A   1      33.801  18.055  24.484  1.00  0.00     0.104 C 
ATOM     12  C   UNL A   1      35.211  17.452  24.587  1.00  0.00     0.056 C 
ATOM     13  C   UNL A   1      33.240  17.718  23.095  1.00  0.00     0.056 C 
ATOM     14  C   UNL A   1      32.928  17.470  25.597  1.00  0.00     0.056 C 
ENDBRANCH  10  11
ENDBRANCH   8  10
ENDBRANCH   7   8
BRANCH   7  15
ATOM     15  C   UNL A   1      32.228  22.659  25.622  1.00  0.00     0.236 C 
BRANCH  15  16
ATOM     16  N   UNL A   1      31.503  22.366  26.878  1.00  0.00    -0.350 N 
ATOM     17  H   UNL A   1      30.861  23.130  27.085  1.00  0.00     0.345 HD
ATOM     18  H   UNL A   1      32.172  22.267  27.642  1.00  0.00     0.345 HD
ATOM     19  H   UNL A   1      30.977  21.499  26.772  1.00  0.00     0.345 HD
ENDBRANCH  15  16
BRANCH  15  20
ATOM     20  C   UNL A   1      32.525  24.161  25.560  1.00  0.00     0.011 A 
ATOM     21  C   UNL A   1      31.461  25.073  25.418  1.00  0.00     0.011 A 
ATOM     22  C   UNL A   1      33.818  24.686  25.731  1.00  0.00     0.011 A 
ATOM     23  C   UNL A   1      31.683  26.452  25.422  1.00  0.00     0.016 A 
ATOM     24  C   UNL A   1      34.038  26.066  25.778  1.00  0.00     0.016 A 
ATOM     25  C   UNL A   1      32.970  26.942  25.615  1.00  0.00     0.018 A 
ATOM     26  Br  UNL A   1      33.264  28.808  25.673  1.00  0.00    -0.051 Br
ENDBRANCH  15  20
ENDBRANCH   7  15
ENDBRANCH   4   7
ENDBRANCH   2   3
ENDBRANCH   1   2
BRANCH   1  27
ATOM     27  C   UNL A   1      37.584  23.853  25.424  1.00  0.00     0.023 C 
BRANCH  27  28
ATOM     28  C   UNL A   1      38.539  23.443  26.541  1.00  0.00     0.116 C 
BRANCH  28  29
ATOM     29  N   UNL A   1      39.936  23.381  26.128  1.00  0.00    -0.352 N 
ATOM     30  C   UNL A   1      40.958  24.276  26.377  1.00  0.00     0.251 C 
ATOM     31  H   UNL A   1      40.186  22.591  25.597  1.00  0.00     0.163 HD
ATOM     32  O   UNL A   1      42.062  24.110  25.891  1.00  0.00    -0.269 OA
BRANCH  30  33
ATOM     33  C   UNL A   1      40.669  25.466  27.207  1.00  0.00     0.039 A 
ATOM     34  C   UNL A   1      39.796  25.340  28.291  1.00  0.00     0.014 A 
ATOM     35  C   UNL A   1      41.343  26.665  26.970  1.00  0.00     0.014 A 
ATOM     36  C   UNL A   1      39.687  26.387  29.208  1.00  0.00     0.010 A 
ATOM     37  C   UNL A   1      41.290  27.673  27.923  1.00  0.00     0.010 A 
ATOM     38  C   UNL A   1      40.479  27.536  29.063  1.00  0.00    -0.014 A 
BRANCH  38  39
ATOM     39  C   UNL A   1      40.519  28.607  30.091  1.00  0.00     0.031 A 
ATOM     40  C   UNL A   1      41.461  28.484  31.253  1.00  0.00     0.074 A 
ATOM     41  C   UNL A   1      39.615  29.606  30.056  1.00  0.00     0.049 A 
ATOM     42  N   UNL A   1      41.505  29.177  32.361  1.00  0.00    -0.248 NA
ATOM     43  C   UNL A   1      42.457  27.404  31.174  1.00  0.00     0.031 C 
ATOM     44  C   UNL A   1      38.610  29.806  29.010  1.00  0.00     0.029 A 
ATOM     45  N   UNL A   1      39.372  30.623  30.946  1.00  0.00    -0.354 N 
ATOM     46  C   UNL A   1      42.497  28.585  33.133  1.00  0.00     0.074 A 
ATOM     47  C   UNL A   1      43.009  27.462  32.377  1.00  0.00     0.031 C 
ATOM     48  C   UNL A   1      37.861  30.878  29.318  1.00  0.00     0.029 A 
ATOM     49  C   UNL A   1      38.302  31.416  30.601  1.00  0.00     0.049 A 
ATOM     50  H   UNL A   1      39.912  30.771  31.756  1.00  0.00     0.167 HD
ATOM     51  C   UNL A   1      42.947  28.952  34.357  1.00  0.00     0.037 A 
ATOM     52  C   UNL A   1      37.727  32.445  31.253  1.00  0.00     0.037 A 
ATOM     53  C   UNL A   1      42.468  30.100  35.080  1.00  0.00     0.049 A 
ATOM     54  C   UNL A   1      38.283  32.878  32.580  1.00  0.00     0.074 A 
ATOM     55  C   UNL A   1      42.910  30.600  36.291  1.00  0.00     0.029 A 
ATOM     56  N   UNL A   1      41.442  30.929  34.652  1.00  0.00    -0.354 N 
ATOM     57  N   UNL A   1      39.254  32.340  33.278  1.00  0.00    -0.248 NA
ATOM     58  C   UNL A   1      37.671  34.057  33.208  1.00  0.00     0.031 C 
ATOM     59  C   UNL A   1      42.135  31.723  36.607  1.00  0.00     0.029 A 
ATOM     60  C   UNL A   1      41.232  31.938  35.577  1.00  0.00     0.049 A 
ATOM     61  H   UNL A   1      40.937  30.817  33.814  1.00  0.00     0.167 HD
ATOM     62  C   UNL A   1      39.387  33.126  34.416  1.00  0.00     0.074 A 
ATOM     63  C   UNL A   1      38.396  34.180  34.313  1.00  0.00     0.031 C 
ATOM     64  C   UNL A   1      40.253  32.989  35.449  1.00  0.00     0.037 A 
BRANCH  51  65
ATOM     65  C   UNL A   1      44.003  28.085  34.983  1.00  0.00     0.058 A 
ATOM     66  C   UNL A   1      45.370  28.307  34.754  1.00  0.00     0.135 A 
ATOM     67  C   UNL A   1      43.641  27.001  35.797  1.00  0.00     0.135 A 
ATOM     68  F   UNL A   1      45.769  29.321  33.969  1.00  0.00    -0.206 F 
ATOM     69  C   UNL A   1      46.340  27.449  35.263  1.00  0.00     0.059 A 
ATOM     70  C   UNL A   1      44.596  26.146  36.339  1.00  0.00     0.059 A 
ATOM     71  F   UNL A   1      42.348  26.746  36.051  1.00  0.00    -0.206 F 
ATOM     72  C   UNL A   1      45.942  26.363  36.042  1.00  0.00     0.060 A 
BRANCH  72  73
ATOM     73  S   UNL A   1      47.201  25.225  36.654  1.00  0.00     0.124 S 
ATOM     74  O   UNL A   1      47.085  25.416  38.097  1.00  0.00    -0.237 OA
ATOM     75  O   UNL A   1      46.737  23.936  36.149  1.00  0.00    -0.237 OA
ATOM     76  O   UNL A   1      48.431  25.724  36.049  1.00  0.00    -0.744 OA
ENDBRANCH  72  73
ENDBRANCH  51  65
BRANCH  52  77
ATOM     77  C   UNL A   1      36.574  33.146  30.633  1.00  0.00     0.058 A 
ATOM     78  C   UNL A   1      35.275  32.966  31.130  1.00  0.00     0.135 A 
ATOM     79  C   UNL A   1      36.754  34.060  29.583  1.00  0.00     0.135 A 
ATOM     80  F   UNL A   1      35.055  32.098  32.129  1.00  0.00    -0.206 F 
ATOM     81  C   UNL A   1      34.194  33.674  30.615  1.00  0.00     0.059 A 
ATOM     82  C   UNL A   1      35.690  34.793  29.063  1.00  0.00     0.059 A 
ATOM     83  F   UNL A   1      37.981  34.279  29.086  1.00  0.00    -0.206 F 
ATOM     84  C   UNL A   1      34.413  34.593  29.588  1.00  0.00     0.060 A 
BRANCH  84  85
ATOM     85  S   UNL A   1      33.022  35.582  28.997  1.00  0.00     0.124 S 
ATOM     86  O   UNL A   1      32.304  35.850  30.237  1.00  0.00    -0.237 OA
ATOM     87  O   UNL A   1      33.694  36.724  28.387  1.00  0.00    -0.237 OA
ATOM     88  O   UNL A   1      32.352  34.687  28.058  1.00  0.00    -0.744 OA
ENDBRANCH  84  85
ENDBRANCH  52  77
BRANCH  64  89
ATOM     89  C   UNL A   1      40.204  34.019  36.540  1.00  0.00     0.058 A 
ATOM     90  C   UNL A   1      40.984  35.183  36.487  1.00  0.00     0.135 A 
ATOM     91  C   UNL A   1      39.300  33.877  37.605  1.00  0.00     0.135 A 
ATOM     92  F   UNL A   1      41.869  35.360  35.492  1.00  0.00    -0.206 F 
ATOM     93  C   UNL A   1      40.870  36.175  37.456  1.00  0.00     0.059 A 
ATOM     94  C   UNL A   1      39.158  34.864  38.575  1.00  0.00     0.059 A 
ATOM     95  F   UNL A   1      38.528  32.783  37.695  1.00  0.00    -0.206 F 
ATOM     96  C   UNL A   1      39.949  36.009  38.493  1.00  0.00     0.060 A 
BRANCH  96  97
ATOM     97  S   UNL A   1      39.760  37.332  39.707  1.00  0.00     0.124 S 
ATOM     98  O   UNL A   1      38.533  37.977  39.250  1.00  0.00    -0.237 OA
ATOM     99  O   UNL A   1      39.658  36.595  40.963  1.00  0.00    -0.237 OA
ATOM    100  O   UNL A   1      40.981  38.117  39.545  1.00  0.00    -0.744 OA
ENDBRANCH  96  97
ENDBRANCH  64  89
ENDBRANCH  38  39
ENDBRANCH  30  33
ENDBRANCH  28  29
ENDBRANCH  27  28
ENDBRANCH   1  27
TORSDOF 20
ENDMDL
MODEL 2
REMARK VINA RESULT:     -11.4      6.376     10.981
REMARK SMILES CC(C)(C)OC(=O)[C@H](C(=O)NCCCCNC(=O)c1ccc(-c2c3nc(c(-c4c(F)cc(S(=O)(=O)[O-])cc4F)c4ccc([nH]4)c(-c4c(F)cc(S(=O)(=O)[O-])cc4F)c4nc(c(-c5c(F)cc(S(=O)(=O)[O-])cc5F)c5ccc2[nH]5)C=C4)C=C3)cc1)[C@@H]([NH3+])c1ccc(Br)cc1
REMARK SMILES IDX 13 1 12 2 11 3 9 4 10 5 8 7 6 8 7 9 5 10 2 11 1 12 3 13 4 14
REMARK SMILES IDX 85 15 86 16 87 20 88 21 93 22 89 23 92 24 90 25 91 26 14 27
REMARK SMILES IDX 15 28 16 29 17 30 18 32 19 33 20 34 84 35 21 36 83 37 22 38
REMARK SMILES IDX 23 39 24 40 77 41 25 42 82 43 76 44 78 45 26 46 81 47 75 48
REMARK SMILES IDX 74 49 27 51 61 52 40 53 60 54 41 55 44 56 59 57 79 58 42 59
REMARK SMILES IDX 43 60 58 62 80 63 45 64 28 65 29 66 38 67 30 68 31 69 37 70
REMARK SMILES IDX 39 71 32 72 33 73 34 74 35 75 36 76 62 77 63 78 72 79 64 80
REMARK SMILES IDX 65 81 71 82 73 83 66 84 67 85 68 86 69 87 70 88 46 89 47 90
REMARK SMILES IDX 56 91 48 92 49 93 55 94 57 95 50 96 51 97 52 98 53 99 54 100
REMARK H PARENT 11 6 86 17 86 18 86 19 16 31 78 50 44 61
REMARK Flexibility Score: inf
ROOT
ATOM      1  C   UNL A   1      37.077  22.168  24.221  1.00  0.00     0.023 C 
ENDROOT
BRANCH   1   2
ATOM      2  C   UNL A   1      35.954  23.200  24.206  1.00  0.00     0.116 C 
BRANCH   2   3
ATOM      3  N   UNL A   1      35.200  23.249  22.964  1.00  0.00    -0.355 N 
ATOM      4  C   UNL A   1      33.887  23.123  22.625  1.00  0.00     0.240 C 
ATOM      5  O   UNL A   1      33.639  23.409  21.443  1.00  0.00    -0.274 OA
ATOM      6  H   UNL A   1      35.775  23.411  22.182  1.00  0.00     0.163 HD
BRANCH   4   7
ATOM      7  C   UNL A   1      32.726  22.630  23.507  1.00  0.00     0.250 C 
BRANCH   7   8
ATOM      8  C   UNL A   1      31.736  23.769  23.705  1.00  0.00     0.325 C 
ATOM      9  O   UNL A   1      30.524  23.636  23.600  1.00  0.00    -0.251 OA
BRANCH   8  10
ATOM     10  O   UNL A   1      32.364  24.950  23.958  1.00  0.00    -0.459 OA
BRANCH  10  11
ATOM     11  C   UNL A   1      32.336  25.553  25.283  1.00  0.00     0.104 C 
ATOM     12  C   UNL A   1      33.795  25.943  25.570  1.00  0.00     0.056 C 
ATOM     13  C   UNL A   1      31.878  24.582  26.381  1.00  0.00     0.056 C 
ATOM     14  C   UNL A   1      31.477  26.820  25.262  1.00  0.00     0.056 C 
ENDBRANCH  10  11
ENDBRANCH   8  10
ENDBRANCH   7   8
BRANCH   7  15
ATOM     15  C   UNL A   1      32.029  21.302  23.158  1.00  0.00     0.236 C 
BRANCH  15  16
ATOM     16  N   UNL A   1      31.687  21.263  21.719  1.00  0.00    -0.350 N 
ATOM     17  H   UNL A   1      32.487  20.920  21.189  1.00  0.00     0.345 HD
ATOM     18  H   UNL A   1      31.447  22.203  21.401  1.00  0.00     0.345 HD
ATOM     19  H   UNL A   1      30.892  20.642  21.576  1.00  0.00     0.345 HD
ENDBRANCH  15  16
BRANCH  15  20
ATOM     20  C   UNL A   1      32.735  19.995  23.535  1.00  0.00     0.011 A 
ATOM     21  C   UNL A   1      33.770  20.015  24.490  1.00  0.00     0.011 A 
ATOM     22  C   UNL A   1      32.332  18.744  23.034  1.00  0.00     0.011 A 
ATOM     23  C   UNL A   1      34.394  18.838  24.909  1.00  0.00     0.016 A 
ATOM     24  C   UNL A   1      32.926  17.560  23.482  1.00  0.00     0.016 A 
ATOM     25  C   UNL A   1      33.959  17.614  24.411  1.00  0.00     0.018 A 
ATOM     26  Br  UNL A   1      34.767  16.016  25.016  1.00  0.00    -0.051 Br
ENDBRANCH  15  20
ENDBRANCH   7  15
ENDBRANCH   4   7
ENDBRANCH   2   3
ENDBRANCH   1   2
BRANCH   1  27
ATOM     27  C   UNL A   1      37.471  21.630  25.592  1.00  0.00     0.023 C 
BRANCH  27  28
ATOM     28  C   UNL A   1      38.962  21.659  25.916  1.00  0.00     0.116 C 
BRANCH  28  29
ATOM     29  N   UNL A   1      39.591  20.343  25.914  1.00  0.00    -0.352 N 
ATOM     30  C   UNL A   1      40.914  20.011  26.130  1.00  0.00     0.251 C 
ATOM     31  H   UNL A   1      38.989  19.586  25.734  1.00  0.00     0.163 HD
ATOM     32  O   UNL A   1      41.291  18.859  26.018  1.00  0.00    -0.269 OA
BRANCH  30  33
ATOM     33  C   UNL A   1      41.871  21.092  26.452  1.00  0.00     0.039 A 
ATOM     34  C   UNL A   1      42.358  21.896  25.420  1.00  0.00     0.014 A 
ATOM     35  C   UNL A   1      42.194  21.365  27.783  1.00  0.00     0.014 A 
ATOM     36  C   UNL A   1      43.082  23.049  25.732  1.00  0.00     0.010 A 
ATOM     37  C   UNL A   1      42.847  22.551  28.093  1.00  0.00     0.010 A 
ATOM     38  C   UNL A   1      43.279  23.416  27.072  1.00  0.00    -0.014 A 
BRANCH  38  39
ATOM     39  C   UNL A   1      43.900  24.708  27.457  1.00  0.00     0.031 A 
ATOM     40  C   UNL A   1      43.035  25.827  27.960  1.00  0.00     0.074 A 
ATOM     41  C   UNL A   1      45.210  24.921  27.220  1.00  0.00     0.049 A 
ATOM     42  N   UNL A   1      43.331  27.087  28.140  1.00  0.00    -0.248 NA
ATOM     43  C   UNL A   1      41.634  25.485  28.255  1.00  0.00     0.031 C 
ATOM     44  C   UNL A   1      46.147  23.932  26.682  1.00  0.00     0.029 A 
ATOM     45  N   UNL A   1      45.973  26.053  27.368  1.00  0.00    -0.354 N 
ATOM     46  C   UNL A   1      42.144  27.701  28.518  1.00  0.00     0.074 A 
ATOM     47  C   UNL A   1      41.119  26.678  28.515  1.00  0.00     0.031 C 
ATOM     48  C   UNL A   1      47.357  24.501  26.546  1.00  0.00     0.029 A 
ATOM     49  C   UNL A   1      47.273  25.903  26.945  1.00  0.00     0.049 A 
ATOM     50  H   UNL A   1      45.622  26.894  27.741  1.00  0.00     0.167 HD
ATOM     51  C   UNL A   1      41.929  28.997  28.848  1.00  0.00     0.037 A 
ATOM     52  C   UNL A   1      48.278  26.796  26.867  1.00  0.00     0.037 A 
ATOM     53  C   UNL A   1      42.962  29.996  28.897  1.00  0.00     0.049 A 
ATOM     54  C   UNL A   1      48.038  28.214  27.299  1.00  0.00     0.074 A 
ATOM     55  C   UNL A   1      42.864  31.318  29.291  1.00  0.00     0.029 A 
ATOM     56  N   UNL A   1      44.287  29.779  28.546  1.00  0.00    -0.354 N 
ATOM     57  N   UNL A   1      46.921  28.771  27.703  1.00  0.00    -0.248 NA
ATOM     58  C   UNL A   1      49.190  29.126  27.271  1.00  0.00     0.031 C 
ATOM     59  C   UNL A   1      44.126  31.907  29.158  1.00  0.00     0.029 A 
ATOM     60  C   UNL A   1      45.018  30.944  28.711  1.00  0.00     0.049 A 
ATOM     61  H   UNL A   1      44.653  28.923  28.227  1.00  0.00     0.167 HD
ATOM     62  C   UNL A   1      47.238  30.091  27.999  1.00  0.00     0.074 A 
ATOM     63  C   UNL A   1      48.653  30.250  27.730  1.00  0.00     0.031 C 
ATOM     64  C   UNL A   1      46.430  31.078  28.454  1.00  0.00     0.037 A 
BRANCH  51  65
ATOM     65  C   UNL A   1      40.516  29.394  29.167  1.00  0.00     0.058 A 
ATOM     66  C   UNL A   1      39.568  29.626  28.157  1.00  0.00     0.135 A 
ATOM     67  C   UNL A   1      40.113  29.576  30.499  1.00  0.00     0.135 A 
ATOM     68  F   UNL A   1      39.908  29.482  26.865  1.00  0.00    -0.206 F 
ATOM     69  C   UNL A   1      38.287  30.080  28.453  1.00  0.00     0.059 A 
ATOM     70  C   UNL A   1      38.827  30.002  30.820  1.00  0.00     0.059 A 
ATOM     71  F   UNL A   1      40.977  29.364  31.503  1.00  0.00    -0.206 F 
ATOM     72  C   UNL A   1      37.931  30.278  29.787  1.00  0.00     0.060 A 
BRANCH  72  73
ATOM     73  S   UNL A   1      36.286  30.918  30.161  1.00  0.00     0.124 S 
ATOM     74  O   UNL A   1      35.967  30.192  31.387  1.00  0.00    -0.237 OA
ATOM     75  O   UNL A   1      36.529  32.349  30.319  1.00  0.00    -0.237 OA
ATOM     76  O   UNL A   1      35.503  30.545  28.987  1.00  0.00    -0.744 OA
ENDBRANCH  72  73
ENDBRANCH  51  65
BRANCH  52  77
ATOM     77  C   UNL A   1      49.610  26.352  26.380  1.00  0.00     0.058 A 
ATOM     78  C   UNL A   1      49.998  26.577  25.051  1.00  0.00     0.135 A 
ATOM     79  C   UNL A   1      50.544  25.763  27.246  1.00  0.00     0.135 A 
ATOM     80  F   UNL A   1      49.135  27.133  24.187  1.00  0.00    -0.206 F 
ATOM     81  C   UNL A   1      51.269  26.241  24.598  1.00  0.00     0.059 A 
ATOM     82  C   UNL A   1      51.828  25.434  26.820  1.00  0.00     0.059 A 
ATOM     83  F   UNL A   1      50.225  25.544  28.531  1.00  0.00    -0.206 F 
ATOM     84  C   UNL A   1      52.181  25.679  25.493  1.00  0.00     0.060 A 
BRANCH  84  85
ATOM     85  S   UNL A   1      53.861  25.343  24.921  1.00  0.00     0.124 S 
ATOM     86  O   UNL A   1      54.660  25.960  25.973  1.00  0.00    -0.237 OA
ATOM     87  O   UNL A   1      53.884  23.884  24.873  1.00  0.00    -0.237 OA
ATOM     88  O   UNL A   1      53.909  26.002  23.619  1.00  0.00    -0.744 OA
ENDBRANCH  84  85
ENDBRANCH  52  77
BRANCH  64  89
ATOM     89  C   UNL A   1      47.054  32.416  28.733  1.00  0.00     0.058 A 
ATOM     90  C   UNL A   1      47.650  32.706  29.968  1.00  0.00     0.135 A 
ATOM     91  C   UNL A   1      47.130  33.384  27.719  1.00  0.00     0.135 A 
ATOM     92  F   UNL A   1      47.596  31.814  30.971  1.00  0.00    -0.206 F 
ATOM     93  C   UNL A   1      48.304  33.913  30.190  1.00  0.00     0.059 A 
ATOM     94  C   UNL A   1      47.793  34.591  27.914  1.00  0.00     0.059 A 
ATOM     95  F   UNL A   1      46.579  33.149  26.518  1.00  0.00    -0.206 F 
ATOM     96  C   UNL A   1      48.375  34.848  29.154  1.00  0.00     0.060 A 
BRANCH  96  97
ATOM     97  S   UNL A   1      49.283  36.383  29.430  1.00  0.00     0.124 S 
ATOM     98  O   UNL A   1      50.630  35.886  29.689  1.00  0.00    -0.237 OA
ATOM     99  O   UNL A   1      49.101  37.089  28.165  1.00  0.00    -0.237 OA
ATOM    100  O   UNL A   1      48.602  36.979  30.576  1.00  0.00    -0.744 OA
ENDBRANCH  96  97
ENDBRANCH  64  89
ENDBRANCH  38  39
ENDBRANCH  30  33
ENDBRANCH  28  29
ENDBRANCH  27  28
ENDBRANCH   1  27
TORSDOF 20
ENDMDL
MODEL 3
REMARK VINA RESULT:     -11.4      6.432     11.816
REMARK SMILES CC(C)(C)OC(=O)[C@H](C(=O)NCCCCNC(=O)c1ccc(-c2c3nc(c(-c4c(F)cc(S(=O)(=O)[O-])cc4F)c4ccc([nH]4)c(-c4c(F)cc(S(=O)(=O)[O-])cc4F)c4nc(c(-c5c(F)cc(S(=O)(=O)[O-])cc5F)c5ccc2[nH]5)C=C4)C=C3)cc1)[C@@H]([NH3+])c1ccc(Br)cc1
REMARK SMILES IDX 13 1 12 2 11 3 9 4 10 5 8 7 6 8 7 9 5 10 2 11 1 12 3 13 4 14
REMARK SMILES IDX 85 15 86 16 87 20 88 21 93 22 89 23 92 24 90 25 91 26 14 27
REMARK SMILES IDX 15 28 16 29 17 30 18 32 19 33 20 34 84 35 21 36 83 37 22 38
REMARK SMILES IDX 23 39 24 40 77 41 25 42 82 43 76 44 78 45 26 46 81 47 75 48
REMARK SMILES IDX 74 49 27 51 61 52 40 53 60 54 41 55 44 56 59 57 79 58 42 59
REMARK SMILES IDX 43 60 58 62 80 63 45 64 28 65 29 66 38 67 30 68 31 69 37 70
REMARK SMILES IDX 39 71 32 72 33 73 34 74 35 75 36 76 62 77 63 78 72 79 64 80
REMARK SMILES IDX 65 81 71 82 73 83 66 84 67 85 68 86 69 87 70 88 46 89 47 90
REMARK SMILES IDX 56 91 48 92 49 93 55 94 57 95 50 96 51 97 52 98 53 99 54 100
REMARK H PARENT 11 6 86 17 86 18 86 19 16 31 78 50 44 61
REMARK Flexibility Score: inf
ROOT
ATOM      1  C   UNL A   1      33.348  29.752  25.832  1.00  0.00     0.023 C 
ENDROOT
BRANCH   1   2
ATOM      2  C   UNL A   1      33.215  28.361  25.220  1.00  0.00     0.116 C 
BRANCH   2   3
ATOM      3  N   UNL A   1      32.341  27.463  25.957  1.00  0.00    -0.355 N 
ATOM      4  C   UNL A   1      31.523  26.425  25.629  1.00  0.00     0.240 C 
ATOM      5  O   UNL A   1      31.077  25.802  26.606  1.00  0.00    -0.274 OA
ATOM      6  H   UNL A   1      32.341  27.648  26.924  1.00  0.00     0.163 HD
BRANCH   4   7
ATOM      7  C   UNL A   1      31.065  25.989  24.225  1.00  0.00     0.250 C 
BRANCH   7   8
ATOM      8  C   UNL A   1      31.486  24.546  23.993  1.00  0.00     0.325 C 
ATOM      9  O   UNL A   1      30.725  23.594  24.109  1.00  0.00    -0.251 OA
BRANCH   8  10
ATOM     10  O   UNL A   1      32.811  24.443  23.695  1.00  0.00    -0.459 OA
BRANCH  10  11
ATOM     11  C   UNL A   1      33.641  23.406  24.289  1.00  0.00     0.104 C 
ATOM     12  C   UNL A   1      35.083  23.801  23.930  1.00  0.00     0.056 C 
ATOM     13  C   UNL A   1      33.373  22.009  23.711  1.00  0.00     0.056 C 
ATOM     14  C   UNL A   1      33.487  23.422  25.812  1.00  0.00     0.056 C 
ENDBRANCH  10  11
ENDBRANCH   8  10
ENDBRANCH   7   8
BRANCH   7  15
ATOM     15  C   UNL A   1      29.610  26.253  23.794  1.00  0.00     0.236 C 
BRANCH  15  16
ATOM     16  N   UNL A   1      28.679  25.907  24.890  1.00  0.00    -0.350 N 
ATOM     17  H   UNL A   1      29.093  25.179  25.471  1.00  0.00     0.345 HD
ATOM     18  H   UNL A   1      27.800  25.570  24.496  1.00  0.00     0.345 HD
ATOM     19  H   UNL A   1      28.502  26.735  25.459  1.00  0.00     0.345 HD
ENDBRANCH  15  16
BRANCH  15  20
ATOM     20  C   UNL A   1      29.255  27.645  23.262  1.00  0.00     0.011 A 
ATOM     21  C   UNL A   1      30.260  28.445  22.685  1.00  0.00     0.011 A 
ATOM     22  C   UNL A   1      27.937  28.133  23.238  1.00  0.00     0.011 A 
ATOM     23  C   UNL A   1      29.965  29.692  22.129  1.00  0.00     0.016 A 
ATOM     24  C   UNL A   1      27.632  29.363  22.646  1.00  0.00     0.016 A 
ATOM     25  C   UNL A   1      28.649  30.140  22.102  1.00  0.00     0.018 A 
ATOM     26  Br  UNL A   1      28.241  31.804  21.305  1.00  0.00    -0.051 Br
ENDBRANCH  15  20
ENDBRANCH   7  15
ENDBRANCH   4   7
ENDBRANCH   2   3
ENDBRANCH   1   2
BRANCH   1  27
ATOM     27  C   UNL A   1      33.583  29.801  27.338  1.00  0.00     0.023 C 
BRANCH  27  28
ATOM     28  C   UNL A   1      35.029  30.004  27.780  1.00  0.00     0.116 C 
BRANCH  28  29
ATOM     29  N   UNL A   1      35.164  30.741  29.031  1.00  0.00    -0.352 N 
ATOM     30  C   UNL A   1      36.235  30.787  29.902  1.00  0.00     0.251 C 
ATOM     31  H   UNL A   1      34.383  31.279  29.292  1.00  0.00     0.163 HD
ATOM     32  O   UNL A   1      36.156  31.400  30.952  1.00  0.00    -0.269 OA
BRANCH  30  33
ATOM     33  C   UNL A   1      37.463  30.040  29.554  1.00  0.00     0.039 A 
ATOM     34  C   UNL A   1      37.922  30.067  28.234  1.00  0.00     0.014 A 
ATOM     35  C   UNL A   1      38.203  29.407  30.553  1.00  0.00     0.014 A 
ATOM     36  C   UNL A   1      39.187  29.556  27.938  1.00  0.00     0.010 A 
ATOM     37  C   UNL A   1      39.490  28.968  30.270  1.00  0.00     0.010 A 
ATOM     38  C   UNL A   1      40.004  29.058  28.965  1.00  0.00    -0.014 A 
BRANCH  38  39
ATOM     39  C   UNL A   1      41.412  28.650  28.730  1.00  0.00     0.031 A 
ATOM     40  C   UNL A   1      42.491  29.694  28.698  1.00  0.00     0.074 A 
ATOM     41  C   UNL A   1      41.697  27.373  28.406  1.00  0.00     0.049 A 
ATOM     42  N   UNL A   1      43.731  29.592  28.298  1.00  0.00    -0.248 NA
ATOM     43  C   UNL A   1      42.104  31.046  29.132  1.00  0.00     0.031 C 
ATOM     44  C   UNL A   1      40.730  26.276  28.349  1.00  0.00     0.029 A 
ATOM     45  N   UNL A   1      42.881  26.790  28.028  1.00  0.00    -0.354 N 
ATOM     46  C   UNL A   1      44.258  30.874  28.381  1.00  0.00     0.074 A 
ATOM     47  C   UNL A   1      43.195  31.740  28.845  1.00  0.00     0.031 C 
ATOM     48  C   UNL A   1      41.358  25.154  27.960  1.00  0.00     0.029 A 
ATOM     49  C   UNL A   1      42.762  25.460  27.698  1.00  0.00     0.049 A 
ATOM     50  H   UNL A   1      43.736  27.278  27.995  1.00  0.00     0.167 HD
ATOM     51  C   UNL A   1      45.518  31.290  28.106  1.00  0.00     0.037 A 
ATOM     52  C   UNL A   1      43.672  24.590  27.220  1.00  0.00     0.037 A 
ATOM     53  C   UNL A   1      46.583  30.415  27.695  1.00  0.00     0.049 A 
ATOM     54  C   UNL A   1      45.081  25.055  26.983  1.00  0.00     0.074 A 
ATOM     55  C   UNL A   1      47.910  30.724  27.465  1.00  0.00     0.029 A 
ATOM     56  N   UNL A   1      46.439  29.056  27.459  1.00  0.00    -0.354 N 
ATOM     57  N   UNL A   1      45.579  26.261  27.113  1.00  0.00    -0.248 NA
ATOM     58  C   UNL A   1      46.052  24.046  26.539  1.00  0.00     0.031 C 
ATOM     59  C   UNL A   1      48.568  29.553  27.068  1.00  0.00     0.029 A 
ATOM     60  C   UNL A   1      47.654  28.509  27.081  1.00  0.00     0.049 A 
ATOM     61  H   UNL A   1      45.597  28.553  27.546  1.00  0.00     0.167 HD
ATOM     62  C   UNL A   1      46.927  26.154  26.791  1.00  0.00     0.074 A 
ATOM     63  C   UNL A   1      47.167  24.763  26.460  1.00  0.00     0.031 C 
ATOM     64  C   UNL A   1      47.877  27.119  26.773  1.00  0.00     0.037 A 
BRANCH  51  65
ATOM     65  C   UNL A   1      45.793  32.761  28.236  1.00  0.00     0.058 A 
ATOM     66  C   UNL A   1      46.228  33.328  29.445  1.00  0.00     0.135 A 
ATOM     67  C   UNL A   1      45.590  33.621  27.145  1.00  0.00     0.135 A 
ATOM     68  F   UNL A   1      46.421  32.551  30.524  1.00  0.00    -0.206 F 
ATOM     69  C   UNL A   1      46.395  34.701  29.585  1.00  0.00     0.059 A 
ATOM     70  C   UNL A   1      45.779  34.995  27.254  1.00  0.00     0.059 A 
ATOM     71  F   UNL A   1      45.179  33.131  25.965  1.00  0.00    -0.206 F 
ATOM     72  C   UNL A   1      46.155  35.528  28.487  1.00  0.00     0.060 A 
BRANCH  72  73
ATOM     73  S   UNL A   1      46.323  37.313  28.690  1.00  0.00     0.124 S 
ATOM     74  O   UNL A   1      45.982  37.788  27.353  1.00  0.00    -0.237 OA
ATOM     75  O   UNL A   1      45.346  37.608  29.734  1.00  0.00    -0.237 OA
ATOM     76  O   UNL A   1      47.719  37.479  29.080  1.00  0.00    -0.744 OA
ENDBRANCH  72  73
ENDBRANCH  51  65
BRANCH  52  77
ATOM     77  C   UNL A   1      43.269  23.183  26.962  1.00  0.00     0.058 A 
ATOM     78  C   UNL A   1      43.172  22.696  25.651  1.00  0.00     0.135 A 
ATOM     79  C   UNL A   1      43.046  22.284  28.015  1.00  0.00     0.135 A 
ATOM     80  F   UNL A   1      43.372  23.522  24.613  1.00  0.00    -0.206 F 
ATOM     81  C   UNL A   1      42.874  21.363  25.391  1.00  0.00     0.059 A 
ATOM     82  C   UNL A   1      42.764  20.941  27.780  1.00  0.00     0.059 A 
ATOM     83  F   UNL A   1      43.146  22.700  29.288  1.00  0.00    -0.206 F 
ATOM     84  C   UNL A   1      42.682  20.490  26.463  1.00  0.00     0.060 A 
BRANCH  84  85
ATOM     85  S   UNL A   1      42.399  18.740  26.117  1.00  0.00     0.124 S 
ATOM     86  O   UNL A   1      42.690  18.132  27.409  1.00  0.00    -0.237 OA
ATOM     87  O   UNL A   1      40.999  18.730  25.706  1.00  0.00    -0.237 OA
ATOM     88  O   UNL A   1      43.355  18.451  25.051  1.00  0.00    -0.744 OA
ENDBRANCH  84  85
ENDBRANCH  52  77
BRANCH  64  89
ATOM     89  C   UNL A   1      49.279  26.710  26.423  1.00  0.00     0.058 A 
ATOM     90  C   UNL A   1      50.124  26.101  27.363  1.00  0.00     0.135 A 
ATOM     91  C   UNL A   1      49.748  26.851  25.107  1.00  0.00     0.135 A 
ATOM     92  F   UNL A   1      49.722  25.952  28.635  1.00  0.00    -0.206 F 
ATOM     93  C   UNL A   1      51.389  25.645  27.009  1.00  0.00     0.059 A 
ATOM     94  C   UNL A   1      51.003  26.385  24.728  1.00  0.00     0.059 A 
ATOM     95  F   UNL A   1      48.973  27.421  24.172  1.00  0.00    -0.206 F 
ATOM     96  C   UNL A   1      51.818  25.786  25.687  1.00  0.00     0.060 A 
BRANCH  96  97
ATOM     97  S   UNL A   1      53.433  25.129  25.222  1.00  0.00     0.124 S 
ATOM     98  O   UNL A   1      53.221  23.693  25.370  1.00  0.00    -0.237 OA
ATOM     99  O   UNL A   1      53.587  25.609  23.853  1.00  0.00    -0.237 OA
ATOM    100  O   UNL A   1      54.338  25.734  26.196  1.00  0.00    -0.744 OA
ENDBRANCH  96  97
ENDBRANCH  64  89
ENDBRANCH  38  39
ENDBRANCH  30  33
ENDBRANCH  28  29
ENDBRANCH  27  28
ENDBRANCH   1  27
TORSDOF 20
ENDMDL
