MODEL 1
REMARK VINA RESULT:     -10.8      0.000      0.000
REMARK SMILES CCC[N@H+]1CCC[C@H]([C@@H](C)Nc2cccc(C(=O)NCCCCNC(=O)c3ccc(-c4c5nc(c(-c6c(F)cc(S(=O)(=O)[O-])cc6F)c6ccc([nH]6)c(-c6c(F)cc(S(=O)(=O)[O-])cc6F)c6nc(c(-c7c(F)cc(S(=O)(=O)[O-])cc7F)c7ccc4[nH]7)C=C6)C=C5)cc3)c2)C1
REMARK SMILES IDX 20 1 19 2 17 3 18 4 16 6 12 7 13 8 93 9 14 10 15 11 11 12
REMARK SMILES IDX 9 14 10 15 8 16 4 17 5 18 94 19 6 21 7 22 3 23 2 24 1 25
REMARK SMILES IDX 21 26 22 27 23 28 24 29 25 30 26 32 27 33 28 34 92 35 29 36
REMARK SMILES IDX 91 37 30 38 31 39 32 40 85 41 33 42 90 43 84 44 86 45 34 46
REMARK SMILES IDX 89 47 83 48 82 49 35 51 69 52 48 53 68 54 49 55 52 56 67 57
REMARK SMILES IDX 87 58 50 59 51 60 66 62 88 63 53 64 36 65 37 66 46 67 38 68
REMARK SMILES IDX 39 69 45 70 47 71 40 72 41 73 42 74 43 75 44 76 70 77 71 78
REMARK SMILES IDX 80 79 72 80 73 81 79 82 81 83 74 84 75 85 76 86 77 87 78 88
REMARK SMILES IDX 54 89 55 90 64 91 56 92 57 93 63 94 65 95 58 96 59 97 60 98
REMARK SMILES IDX 61 99 62 100
REMARK H PARENT 19 5 11 13 4 20 24 31 86 50 52 61
REMARK Flexibility Score: inf
ROOT
ATOM      1  C   UNL A   1      30.753  27.220  25.613  1.00  0.00     0.116 C 
ENDROOT
BRANCH   1   2
ATOM      2  N   UNL A   1      30.448  27.830  24.326  1.00  0.00    -0.352 N 
ATOM      3  C   UNL A   1      30.784  27.444  23.040  1.00  0.00     0.251 C 
ATOM      4  O   UNL A   1      30.399  28.123  22.090  1.00  0.00    -0.269 OA
ATOM      5  H   UNL A   1      29.914  28.655  24.379  1.00  0.00     0.163 HD
BRANCH   3   6
ATOM      6  C   UNL A   1      31.666  26.273  22.783  1.00  0.00     0.041 A 
ATOM      7  C   UNL A   1      32.073  23.895  23.085  1.00  0.00     0.035 A 
ATOM      8  C   UNL A   1      33.417  24.120  22.771  1.00  0.00     0.026 A 
ATOM      9  C   UNL A   1      31.200  24.968  22.924  1.00  0.00     0.039 A 
ATOM     10  C   UNL A   1      33.876  25.395  22.414  1.00  0.00     0.003 A 
ATOM     11  C   UNL A   1      33.008  26.482  22.463  1.00  0.00     0.014 A 
BRANCH   7  12
ATOM     12  N   UNL A   1      31.669  22.655  23.545  1.00  0.00    -0.382 N 
ATOM     13  H   UNL A   1      30.826  22.610  24.051  1.00  0.00     0.160 HD
BRANCH  12  14
ATOM     14  C   UNL A   1      32.403  21.403  23.332  1.00  0.00     0.084 C 
ATOM     15  C   UNL A   1      31.814  20.694  22.108  1.00  0.00     0.031 C 
BRANCH  14  16
ATOM     16  C   UNL A   1      32.344  20.539  24.620  1.00  0.00     0.066 C 
ATOM     17  N   UNL A   1      34.771  20.739  25.079  1.00  0.00    -0.335 N 
ATOM     18  C   UNL A   1      35.004  19.303  24.897  1.00  0.00     0.262 C 
ATOM     19  C   UNL A   1      33.426  20.971  25.630  1.00  0.00     0.267 C 
ATOM     20  H   UNL A   1      34.844  21.160  24.152  1.00  0.00     0.348 HD
ATOM     21  C   UNL A   1      33.969  18.696  23.942  1.00  0.00     0.062 C 
ATOM     22  C   UNL A   1      32.531  19.034  24.343  1.00  0.00     0.017 C 
BRANCH  17  23
ATOM     23  C   UNL A   1      35.785  21.407  25.905  1.00  0.00     0.261 C 
BRANCH  23  24
ATOM     24  C   UNL A   1      36.455  22.618  25.245  1.00  0.00     0.058 C 
ATOM     25  C   UNL A   1      36.680  22.447  23.749  1.00  0.00     0.010 C 
ENDBRANCH  23  24
ENDBRANCH  17  23
ENDBRANCH  14  16
ENDBRANCH  12  14
ENDBRANCH   7  12
ENDBRANCH   3   6
ENDBRANCH   1   2
BRANCH   1  26
ATOM     26  C   UNL A   1      31.644  28.041  26.534  1.00  0.00     0.023 C 
BRANCH  26  27
ATOM     27  C   UNL A   1      33.142  27.806  26.417  1.00  0.00     0.023 C 
BRANCH  27  28
ATOM     28  C   UNL A   1      33.996  29.033  26.120  1.00  0.00     0.116 C 
BRANCH  28  29
ATOM     29  N   UNL A   1      33.774  30.150  27.026  1.00  0.00    -0.352 N 
ATOM     30  C   UNL A   1      34.597  30.670  28.003  1.00  0.00     0.251 C 
ATOM     31  H   UNL A   1      32.905  30.603  26.926  1.00  0.00     0.163 HD
ATOM     32  O   UNL A   1      34.200  31.588  28.705  1.00  0.00    -0.269 OA
BRANCH  30  33
ATOM     33  C   UNL A   1      35.940  30.083  28.229  1.00  0.00     0.039 A 
ATOM     34  C   UNL A   1      36.875  30.130  27.192  1.00  0.00     0.014 A 
ATOM     35  C   UNL A   1      36.289  29.520  29.459  1.00  0.00     0.014 A 
ATOM     36  C   UNL A   1      38.184  29.696  27.420  1.00  0.00     0.010 A 
ATOM     37  C   UNL A   1      37.613  29.169  29.710  1.00  0.00     0.010 A 
ATOM     38  C   UNL A   1      38.577  29.257  28.695  1.00  0.00    -0.014 A 
BRANCH  38  39
ATOM     39  C   UNL A   1      39.991  28.895  28.983  1.00  0.00     0.031 A 
ATOM     40  C   UNL A   1      40.916  29.897  29.621  1.00  0.00     0.074 A 
ATOM     41  C   UNL A   1      40.457  27.683  28.619  1.00  0.00     0.049 A 
ATOM     42  N   UNL A   1      42.188  29.779  29.911  1.00  0.00    -0.248 NA
ATOM     43  C   UNL A   1      40.346  31.213  29.952  1.00  0.00     0.031 C 
ATOM     44  C   UNL A   1      39.679  26.644  27.938  1.00  0.00     0.029 A 
ATOM     45  N   UNL A   1      41.700  27.117  28.768  1.00  0.00    -0.354 N 
ATOM     46  C   UNL A   1      42.568  31.003  30.450  1.00  0.00     0.074 A 
ATOM     47  C   UNL A   1      41.412  31.869  30.388  1.00  0.00     0.031 C 
ATOM     48  C   UNL A   1      40.451  25.559  27.759  1.00  0.00     0.029 A 
ATOM     49  C   UNL A   1      41.786  25.833  28.281  1.00  0.00     0.049 A 
ATOM     50  H   UNL A   1      42.459  27.587  29.183  1.00  0.00     0.167 HD
ATOM     51  C   UNL A   1      43.763  31.364  30.976  1.00  0.00     0.037 A 
ATOM     52  C   UNL A   1      42.823  24.973  28.260  1.00  0.00     0.037 A 
ATOM     53  C   UNL A   1      44.905  30.491  31.059  1.00  0.00     0.049 A 
ATOM     54  C   UNL A   1      44.138  25.394  28.859  1.00  0.00     0.074 A 
ATOM     55  C   UNL A   1      46.146  30.748  31.616  1.00  0.00     0.029 A 
ATOM     56  N   UNL A   1      44.946  29.191  30.578  1.00  0.00    -0.354 N 
ATOM     57  N   UNL A   1      44.461  26.537  29.418  1.00  0.00    -0.248 NA
ATOM     58  C   UNL A   1      45.226  24.408  28.834  1.00  0.00     0.031 C 
ATOM     59  C   UNL A   1      46.947  29.614  31.442  1.00  0.00     0.029 A 
ATOM     60  C   UNL A   1      46.192  28.636  30.815  1.00  0.00     0.049 A 
ATOM     61  H   UNL A   1      44.198  28.731  30.132  1.00  0.00     0.167 HD
ATOM     62  C   UNL A   1      45.779  26.395  29.836  1.00  0.00     0.074 A 
ATOM     63  C   UNL A   1      46.189  25.052  29.479  1.00  0.00     0.031 C 
ATOM     64  C   UNL A   1      46.579  27.293  30.462  1.00  0.00     0.037 A 
BRANCH  51  65
ATOM     65  C   UNL A   1      43.888  32.760  31.523  1.00  0.00     0.058 A 
ATOM     66  C   UNL A   1      44.418  33.805  30.748  1.00  0.00     0.135 A 
ATOM     67  C   UNL A   1      43.445  33.068  32.819  1.00  0.00     0.135 A 
ATOM     68  F   UNL A   1      44.872  33.564  29.508  1.00  0.00    -0.206 F 
ATOM     69  C   UNL A   1      44.532  35.097  31.249  1.00  0.00     0.059 A 
ATOM     70  C   UNL A   1      43.523  34.360  33.331  1.00  0.00     0.059 A 
ATOM     71  F   UNL A   1      42.929  32.107  33.603  1.00  0.00    -0.206 F 
ATOM     72  C   UNL A   1      44.082  35.365  32.542  1.00  0.00     0.060 A 
BRANCH  72  73
ATOM     73  S   UNL A   1      44.231  37.050  33.174  1.00  0.00     0.124 S 
ATOM     74  O   UNL A   1      45.654  37.115  33.492  1.00  0.00    -0.237 OA
ATOM     75  O   UNL A   1      43.801  37.850  32.032  1.00  0.00    -0.237 OA
ATOM     76  O   UNL A   1      43.330  37.064  34.321  1.00  0.00    -0.744 OA
ENDBRANCH  72  73
ENDBRANCH  51  65
BRANCH  52  77
ATOM     77  C   UNL A   1      42.655  23.611  27.686  1.00  0.00     0.058 A 
ATOM     78  C   UNL A   1      42.462  22.498  28.519  1.00  0.00     0.135 A 
ATOM     79  C   UNL A   1      42.689  23.391  26.300  1.00  0.00     0.135 A 
ATOM     80  F   UNL A   1      42.428  22.657  29.851  1.00  0.00    -0.206 F 
ATOM     81  C   UNL A   1      42.336  21.213  28.003  1.00  0.00     0.059 A 
ATOM     82  C   UNL A   1      42.539  22.117  25.759  1.00  0.00     0.059 A 
ATOM     83  F   UNL A   1      42.852  24.423  25.459  1.00  0.00    -0.206 F 
ATOM     84  C   UNL A   1      42.377  21.032  26.620  1.00  0.00     0.060 A 
BRANCH  84  85
ATOM     85  S   UNL A   1      42.179  19.363  25.956  1.00  0.00     0.124 S 
ATOM     86  O   UNL A   1      42.662  18.549  27.066  1.00  0.00    -0.237 OA
ATOM     87  O   UNL A   1      40.744  19.304  25.698  1.00  0.00    -0.237 OA
ATOM     88  O   UNL A   1      43.024  19.375  24.766  1.00  0.00    -0.744 OA
ENDBRANCH  84  85
ENDBRANCH  52  77
BRANCH  64  89
ATOM     89  C   UNL A   1      47.964  26.843  30.833  1.00  0.00     0.058 A 
ATOM     90  C   UNL A   1      49.068  27.087  30.003  1.00  0.00     0.135 A 
ATOM     91  C   UNL A   1      48.193  26.187  32.054  1.00  0.00     0.135 A 
ATOM     92  F   UNL A   1      48.902  27.705  28.823  1.00  0.00    -0.206 F 
ATOM     93  C   UNL A   1      50.348  26.671  30.356  1.00  0.00     0.059 A 
ATOM     94  C   UNL A   1      49.469  25.785  32.439  1.00  0.00     0.059 A 
ATOM     95  F   UNL A   1      47.173  25.938  32.891  1.00  0.00    -0.206 F 
ATOM     96  C   UNL A   1      50.537  26.019  31.576  1.00  0.00     0.060 A 
BRANCH  96  97
ATOM     97  S   UNL A   1      52.206  25.501  32.032  1.00  0.00     0.124 S 
ATOM     98  O   UNL A   1      52.974  25.928  30.867  1.00  0.00    -0.237 OA
ATOM     99  O   UNL A   1      52.444  26.253  33.259  1.00  0.00    -0.237 OA
ATOM    100  O   UNL A   1      52.077  24.057  32.204  1.00  0.00    -0.744 OA
ENDBRANCH  96  97
ENDBRANCH  64  89
ENDBRANCH  38  39
ENDBRANCH  30  33
ENDBRANCH  28  29
ENDBRANCH  27  28
ENDBRANCH  26  27
ENDBRANCH   1  26
TORSDOF 19
ENDMDL
MODEL 2
REMARK VINA RESULT:     -10.7      4.770     10.987
REMARK SMILES CCC[N@H+]1CCC[C@H]([C@@H](C)Nc2cccc(C(=O)NCCCCNC(=O)c3ccc(-c4c5nc(c(-c6c(F)cc(S(=O)(=O)[O-])cc6F)c6ccc([nH]6)c(-c6c(F)cc(S(=O)(=O)[O-])cc6F)c6nc(c(-c7c(F)cc(S(=O)(=O)[O-])cc7F)c7ccc4[nH]7)C=C6)C=C5)cc3)c2)C1
REMARK SMILES IDX 20 1 19 2 17 3 18 4 16 6 12 7 13 8 93 9 14 10 15 11 11 12
REMARK SMILES IDX 9 14 10 15 8 16 4 17 5 18 94 19 6 21 7 22 3 23 2 24 1 25
REMARK SMILES IDX 21 26 22 27 23 28 24 29 25 30 26 32 27 33 28 34 92 35 29 36
REMARK SMILES IDX 91 37 30 38 31 39 32 40 85 41 33 42 90 43 84 44 86 45 34 46
REMARK SMILES IDX 89 47 83 48 82 49 35 51 69 52 48 53 68 54 49 55 52 56 67 57
REMARK SMILES IDX 87 58 50 59 51 60 66 62 88 63 53 64 36 65 37 66 46 67 38 68
REMARK SMILES IDX 39 69 45 70 47 71 40 72 41 73 42 74 43 75 44 76 70 77 71 78
REMARK SMILES IDX 80 79 72 80 73 81 79 82 81 83 74 84 75 85 76 86 77 87 78 88
REMARK SMILES IDX 54 89 55 90 64 91 56 92 57 93 63 94 65 95 58 96 59 97 60 98
REMARK SMILES IDX 61 99 62 100
REMARK H PARENT 19 5 11 13 4 20 24 31 86 50 52 61
REMARK Flexibility Score: inf
ROOT
ATOM      1  C   UNL A   1      44.310  21.385  24.781  1.00  0.00     0.116 C 
ENDROOT
BRANCH   1   2
ATOM      2  N   UNL A   1      43.846  20.026  25.023  1.00  0.00    -0.352 N 
ATOM      3  C   UNL A   1      42.743  19.558  25.716  1.00  0.00     0.251 C 
ATOM      4  O   UNL A   1      42.546  18.346  25.780  1.00  0.00    -0.269 OA
ATOM      5  H   UNL A   1      44.410  19.323  24.628  1.00  0.00     0.163 HD
BRANCH   3   6
ATOM      6  C   UNL A   1      41.837  20.480  26.453  1.00  0.00     0.041 A 
ATOM      7  C   UNL A   1      39.952  22.014  26.376  1.00  0.00     0.035 A 
ATOM      8  C   UNL A   1      40.380  22.546  27.596  1.00  0.00     0.026 A 
ATOM      9  C   UNL A   1      40.614  20.877  25.917  1.00  0.00     0.039 A 
ATOM     10  C   UNL A   1      41.490  22.020  28.269  1.00  0.00     0.003 A 
ATOM     11  C   UNL A   1      42.247  21.013  27.675  1.00  0.00     0.014 A 
BRANCH   7  12
ATOM     12  N   UNL A   1      38.927  22.624  25.677  1.00  0.00    -0.382 N 
ATOM     13  H   UNL A   1      39.135  23.457  25.196  1.00  0.00     0.160 HD
BRANCH  12  14
ATOM     14  C   UNL A   1      37.551  22.120  25.599  1.00  0.00     0.084 C 
ATOM     15  C   UNL A   1      37.457  21.139  24.427  1.00  0.00     0.031 C 
BRANCH  14  16
ATOM     16  C   UNL A   1      36.566  23.313  25.472  1.00  0.00     0.066 C 
ATOM     17  N   UNL A   1      34.556  21.930  25.909  1.00  0.00    -0.335 N 
ATOM     18  C   UNL A   1      34.007  22.165  24.570  1.00  0.00     0.262 C 
ATOM     19  C   UNL A   1      35.322  23.104  26.358  1.00  0.00     0.267 C 
ATOM     20  H   UNL A   1      35.175  21.123  25.825  1.00  0.00     0.348 HD
ATOM     21  C   UNL A   1      35.126  22.441  23.558  1.00  0.00     0.062 C 
ATOM     22  C   UNL A   1      36.082  23.541  24.026  1.00  0.00     0.017 C 
BRANCH  17  23
ATOM     23  C   UNL A   1      33.547  21.562  26.910  1.00  0.00     0.261 C 
BRANCH  23  24
ATOM     24  C   UNL A   1      32.879  22.749  27.614  1.00  0.00     0.058 C 
ATOM     25  C   UNL A   1      31.505  23.091  27.056  1.00  0.00     0.010 C 
ENDBRANCH  23  24
ENDBRANCH  17  23
ENDBRANCH  14  16
ENDBRANCH  12  14
ENDBRANCH   7  12
ENDBRANCH   3   6
ENDBRANCH   1   2
BRANCH   1  26
ATOM     26  C   UNL A   1      45.235  21.962  25.842  1.00  0.00     0.023 C 
BRANCH  26  27
ATOM     27  C   UNL A   1      45.219  23.473  26.010  1.00  0.00     0.023 C 
BRANCH  27  28
ATOM     28  C   UNL A   1      43.974  24.066  26.659  1.00  0.00     0.116 C 
BRANCH  28  29
ATOM     29  N   UNL A   1      42.957  24.503  25.714  1.00  0.00    -0.352 N 
ATOM     30  C   UNL A   1      41.968  25.453  25.860  1.00  0.00     0.251 C 
ATOM     31  H   UNL A   1      42.979  24.052  24.838  1.00  0.00     0.163 HD
ATOM     32  O   UNL A   1      41.166  25.638  24.957  1.00  0.00    -0.269 OA
BRANCH  30  33
ATOM     33  C   UNL A   1      41.853  26.212  27.129  1.00  0.00     0.039 A 
ATOM     34  C   UNL A   1      42.642  27.353  27.300  1.00  0.00     0.014 A 
ATOM     35  C   UNL A   1      40.955  25.828  28.127  1.00  0.00     0.014 A 
ATOM     36  C   UNL A   1      42.463  28.155  28.432  1.00  0.00     0.010 A 
ATOM     37  C   UNL A   1      40.718  26.672  29.209  1.00  0.00     0.010 A 
ATOM     38  C   UNL A   1      41.465  27.847  29.372  1.00  0.00    -0.014 A 
BRANCH  38  39
ATOM     39  C   UNL A   1      41.189  28.748  30.524  1.00  0.00     0.031 A 
ATOM     40  C   UNL A   1      42.014  28.649  31.779  1.00  0.00     0.074 A 
ATOM     41  C   UNL A   1      40.161  29.617  30.460  1.00  0.00     0.049 A 
ATOM     42  N   UNL A   1      41.899  29.318  32.899  1.00  0.00    -0.248 NA
ATOM     43  C   UNL A   1      43.094  27.648  31.790  1.00  0.00     0.031 C 
ATOM     44  C   UNL A   1      39.247  29.768  29.323  1.00  0.00     0.029 A 
ATOM     45  N   UNL A   1      39.705  30.538  31.371  1.00  0.00    -0.354 N 
ATOM     46  C   UNL A   1      42.881  28.816  33.744  1.00  0.00     0.074 A 
ATOM     47  C   UNL A   1      43.542  27.744  33.034  1.00  0.00     0.031 C 
ATOM     48  C   UNL A   1      38.365  30.745  29.592  1.00  0.00     0.029 A 
ATOM     49  C   UNL A   1      38.626  31.268  30.929  1.00  0.00     0.049 A 
ATOM     50  H   UNL A   1      40.113  30.664  32.258  1.00  0.00     0.167 HD
ATOM     51  C   UNL A   1      43.223  29.230  34.988  1.00  0.00     0.037 A 
ATOM     52  C   UNL A   1      37.928  32.250  31.531  1.00  0.00     0.037 A 
ATOM     53  C   UNL A   1      42.580  30.315  35.683  1.00  0.00     0.049 A 
ATOM     54  C   UNL A   1      38.333  32.699  32.910  1.00  0.00     0.074 A 
ATOM     55  C   UNL A   1      42.883  30.840  36.927  1.00  0.00     0.029 A 
ATOM     56  N   UNL A   1      41.508  31.045  35.192  1.00  0.00    -0.354 N 
ATOM     57  N   UNL A   1      39.304  32.251  33.671  1.00  0.00    -0.248 NA
ATOM     58  C   UNL A   1      37.555  33.791  33.509  1.00  0.00     0.031 C 
ATOM     59  C   UNL A   1      41.973  31.867  37.202  1.00  0.00     0.029 A 
ATOM     60  C   UNL A   1      41.131  32.009  36.112  1.00  0.00     0.049 A 
ATOM     61  H   UNL A   1      41.078  30.899  34.319  1.00  0.00     0.167 HD
ATOM     62  C   UNL A   1      39.271  33.027  34.824  1.00  0.00     0.074 A 
ATOM     63  C   UNL A   1      38.194  33.980  34.656  1.00  0.00     0.031 C 
ATOM     64  C   UNL A   1      40.062  32.958  35.923  1.00  0.00     0.037 A 
BRANCH  51  65
ATOM     65  C   UNL A   1      44.360  28.518  35.669  1.00  0.00     0.058 A 
ATOM     66  C   UNL A   1      44.135  27.414  36.507  1.00  0.00     0.135 A 
ATOM     67  C   UNL A   1      45.690  28.918  35.458  1.00  0.00     0.135 A 
ATOM     68  F   UNL A   1      42.882  26.999  36.757  1.00  0.00    -0.206 F 
ATOM     69  C   UNL A   1      45.183  26.751  37.136  1.00  0.00     0.059 A 
ATOM     70  C   UNL A   1      46.756  28.251  36.054  1.00  0.00     0.059 A 
ATOM     71  F   UNL A   1      45.962  29.967  34.666  1.00  0.00    -0.206 F 
ATOM     72  C   UNL A   1      46.491  27.177  36.904  1.00  0.00     0.060 A 
BRANCH  72  73
ATOM     73  S   UNL A   1      47.841  26.301  37.721  1.00  0.00     0.124 S 
ATOM     74  O   UNL A   1      47.273  24.964  37.866  1.00  0.00    -0.237 OA
ATOM     75  O   UNL A   1      48.926  26.426  36.753  1.00  0.00    -0.237 OA
ATOM     76  O   UNL A   1      48.025  27.042  38.964  1.00  0.00    -0.744 OA
ENDBRANCH  72  73
ENDBRANCH  51  65
BRANCH  52  77
ATOM     77  C   UNL A   1      36.796  32.907  30.824  1.00  0.00     0.058 A 
ATOM     78  C   UNL A   1      37.029  33.894  29.854  1.00  0.00     0.135 A 
ATOM     79  C   UNL A   1      35.463  32.571  31.106  1.00  0.00     0.135 A 
ATOM     80  F   UNL A   1      38.286  34.253  29.554  1.00  0.00    -0.206 F 
ATOM     81  C   UNL A   1      35.984  34.542  29.205  1.00  0.00     0.059 A 
ATOM     82  C   UNL A   1      34.400  33.187  30.452  1.00  0.00     0.059 A 
ATOM     83  F   UNL A   1      35.185  31.621  32.012  1.00  0.00    -0.206 F 
ATOM     84  C   UNL A   1      34.671  34.182  29.512  1.00  0.00     0.060 A 
BRANCH  84  85
ATOM     85  S   UNL A   1      33.319  35.007  28.642  1.00  0.00     0.124 S 
ATOM     86  O   UNL A   1      34.042  35.992  27.845  1.00  0.00    -0.237 OA
ATOM     87  O   UNL A   1      32.714  33.905  27.900  1.00  0.00    -0.237 OA
ATOM     88  O   UNL A   1      32.503  35.546  29.726  1.00  0.00    -0.744 OA
ENDBRANCH  84  85
ENDBRANCH  52  77
BRANCH  64  89
ATOM     89  C   UNL A   1      39.817  33.964  37.013  1.00  0.00     0.058 A 
ATOM     90  C   UNL A   1      39.129  33.627  38.189  1.00  0.00     0.135 A 
ATOM     91  C   UNL A   1      40.306  35.274  36.892  1.00  0.00     0.135 A 
ATOM     92  F   UNL A   1      38.636  32.389  38.351  1.00  0.00    -0.206 F 
ATOM     93  C   UNL A   1      38.910  34.562  39.195  1.00  0.00     0.059 A 
ATOM     94  C   UNL A   1      40.122  36.219  37.897  1.00  0.00     0.059 A 
ATOM     95  F   UNL A   1      40.980  35.646  35.792  1.00  0.00    -0.206 F 
ATOM     96  C   UNL A   1      39.409  35.856  39.039  1.00  0.00     0.060 A 
BRANCH  96  97
ATOM     97  S   UNL A   1      39.136  37.056  40.360  1.00  0.00     0.124 S 
ATOM     98  O   UNL A   1      38.096  36.397  41.144  1.00  0.00    -0.237 OA
ATOM     99  O   UNL A   1      40.449  37.135  40.990  1.00  0.00    -0.237 OA
ATOM    100  O   UNL A   1      38.717  38.258  39.645  1.00  0.00    -0.744 OA
ENDBRANCH  96  97
ENDBRANCH  64  89
ENDBRANCH  38  39
ENDBRANCH  30  33
ENDBRANCH  28  29
ENDBRANCH  27  28
ENDBRANCH  26  27
ENDBRANCH   1  26
TORSDOF 19
ENDMDL
MODEL 3
REMARK VINA RESULT:     -10.6      4.706     10.567
REMARK SMILES CCC[N@H+]1CCC[C@H]([C@@H](C)Nc2cccc(C(=O)NCCCCNC(=O)c3ccc(-c4c5nc(c(-c6c(F)cc(S(=O)(=O)[O-])cc6F)c6ccc([nH]6)c(-c6c(F)cc(S(=O)(=O)[O-])cc6F)c6nc(c(-c7c(F)cc(S(=O)(=O)[O-])cc7F)c7ccc4[nH]7)C=C6)C=C5)cc3)c2)C1
REMARK SMILES IDX 20 1 19 2 17 3 18 4 16 6 12 7 13 8 93 9 14 10 15 11 11 12
REMARK SMILES IDX 9 14 10 15 8 16 4 17 5 18 94 19 6 21 7 22 3 23 2 24 1 25
REMARK SMILES IDX 21 26 22 27 23 28 24 29 25 30 26 32 27 33 28 34 92 35 29 36
REMARK SMILES IDX 91 37 30 38 31 39 32 40 85 41 33 42 90 43 84 44 86 45 34 46
REMARK SMILES IDX 89 47 83 48 82 49 35 51 69 52 48 53 68 54 49 55 52 56 67 57
REMARK SMILES IDX 87 58 50 59 51 60 66 62 88 63 53 64 36 65 37 66 46 67 38 68
REMARK SMILES IDX 39 69 45 70 47 71 40 72 41 73 42 74 43 75 44 76 70 77 71 78
REMARK SMILES IDX 80 79 72 80 73 81 79 82 81 83 74 84 75 85 76 86 77 87 78 88
REMARK SMILES IDX 54 89 55 90 64 91 56 92 57 93 63 94 65 95 58 96 59 97 60 98
REMARK SMILES IDX 61 99 62 100
REMARK H PARENT 19 5 11 13 4 20 24 31 86 50 52 61
REMARK Flexibility Score: inf
ROOT
ATOM      1  C   UNL A   1      42.247  21.648  27.294  1.00  0.00     0.116 C 
ENDROOT
BRANCH   1   2
ATOM      2  N   UNL A   1      41.591  20.478  26.726  1.00  0.00    -0.352 N 
ATOM      3  C   UNL A   1      40.339  20.332  26.156  1.00  0.00     0.251 C 
ATOM      4  O   UNL A   1      40.000  19.230  25.729  1.00  0.00    -0.269 OA
ATOM      5  H   UNL A   1      42.128  19.654  26.753  1.00  0.00     0.163 HD
BRANCH   3   6
ATOM      6  C   UNL A   1      39.363  21.455  26.119  1.00  0.00     0.041 A 
ATOM      7  C   UNL A   1      37.500  22.529  24.985  1.00  0.00     0.035 A 
ATOM      8  C   UNL A   1      37.800  23.705  25.680  1.00  0.00     0.026 A 
ATOM      9  C   UNL A   1      38.203  21.384  25.351  1.00  0.00     0.039 A 
ATOM     10  C   UNL A   1      38.834  23.748  26.624  1.00  0.00     0.003 A 
ATOM     11  C   UNL A   1      39.646  22.632  26.812  1.00  0.00     0.014 A 
BRANCH   7  12
ATOM     12  N   UNL A   1      36.553  22.544  23.978  1.00  0.00    -0.382 N 
ATOM     13  H   UNL A   1      36.860  22.356  23.062  1.00  0.00     0.160 HD
BRANCH  12  14
ATOM     14  C   UNL A   1      35.125  22.818  24.175  1.00  0.00     0.084 C 
ATOM     15  C   UNL A   1      34.888  24.320  23.999  1.00  0.00     0.031 C 
BRANCH  14  16
ATOM     16  C   UNL A   1      34.681  22.292  25.566  1.00  0.00     0.066 C 
ATOM     17  N   UNL A   1      33.679  20.215  24.659  1.00  0.00    -0.335 N 
ATOM     18  C   UNL A   1      32.325  20.590  25.081  1.00  0.00     0.262 C 
ATOM     19  C   UNL A   1      34.673  20.751  25.602  1.00  0.00     0.267 C 
ATOM     20  H   UNL A   1      33.814  20.631  23.737  1.00  0.00     0.348 HD
ATOM     21  C   UNL A   1      32.173  22.115  25.146  1.00  0.00     0.062 C 
ATOM     22  C   UNL A   1      33.276  22.780  25.972  1.00  0.00     0.017 C 
BRANCH  17  23
ATOM     23  C   UNL A   1      33.867  18.770  24.480  1.00  0.00     0.261 C 
BRANCH  23  24
ATOM     24  C   UNL A   1      32.617  17.922  24.745  1.00  0.00     0.058 C 
ATOM     25  C   UNL A   1      32.898  16.426  24.796  1.00  0.00     0.010 C 
ENDBRANCH  23  24
ENDBRANCH  17  23
ENDBRANCH  14  16
ENDBRANCH  12  14
ENDBRANCH   7  12
ENDBRANCH   3   6
ENDBRANCH   1   2
BRANCH   1  26
ATOM     26  C   UNL A   1      43.457  22.160  26.527  1.00  0.00     0.023 C 
BRANCH  26  27
ATOM     27  C   UNL A   1      44.273  23.255  27.195  1.00  0.00     0.023 C 
BRANCH  27  28
ATOM     28  C   UNL A   1      44.377  24.575  26.440  1.00  0.00     0.116 C 
BRANCH  28  29
ATOM     29  N   UNL A   1      43.229  24.873  25.596  1.00  0.00    -0.352 N 
ATOM     30  C   UNL A   1      42.141  25.684  25.843  1.00  0.00     0.251 C 
ATOM     31  H   UNL A   1      43.229  24.430  24.717  1.00  0.00     0.163 HD
ATOM     32  O   UNL A   1      41.242  25.761  25.019  1.00  0.00    -0.269 OA
BRANCH  30  33
ATOM     33  C   UNL A   1      42.043  26.423  27.126  1.00  0.00     0.039 A 
ATOM     34  C   UNL A   1      42.711  27.645  27.248  1.00  0.00     0.014 A 
ATOM     35  C   UNL A   1      41.277  25.937  28.187  1.00  0.00     0.014 A 
ATOM     36  C   UNL A   1      42.535  28.417  28.399  1.00  0.00     0.010 A 
ATOM     37  C   UNL A   1      41.034  26.745  29.295  1.00  0.00     0.010 A 
ATOM     38  C   UNL A   1      41.657  27.996  29.412  1.00  0.00    -0.014 A 
BRANCH  38  39
ATOM     39  C   UNL A   1      41.374  28.857  30.593  1.00  0.00     0.031 A 
ATOM     40  C   UNL A   1      42.210  28.733  31.839  1.00  0.00     0.074 A 
ATOM     41  C   UNL A   1      40.332  29.711  30.562  1.00  0.00     0.049 A 
ATOM     42  N   UNL A   1      42.092  29.366  32.979  1.00  0.00    -0.248 NA
ATOM     43  C   UNL A   1      43.306  27.751  31.812  1.00  0.00     0.031 C 
ATOM     44  C   UNL A   1      39.407  29.882  29.437  1.00  0.00     0.029 A 
ATOM     45  N   UNL A   1      39.868  30.596  31.504  1.00  0.00    -0.354 N 
ATOM     46  C   UNL A   1      43.089  28.855  33.802  1.00  0.00     0.074 A 
ATOM     47  C   UNL A   1      43.761  27.816  33.055  1.00  0.00     0.031 C 
ATOM     48  C   UNL A   1      38.512  30.835  29.741  1.00  0.00     0.029 A 
ATOM     49  C   UNL A   1      38.774  31.322  31.092  1.00  0.00     0.049 A 
ATOM     50  H   UNL A   1      40.280  30.701  32.392  1.00  0.00     0.167 HD
ATOM     51  C   UNL A   1      43.433  29.236  35.055  1.00  0.00     0.037 A 
ATOM     52  C   UNL A   1      38.065  32.274  31.729  1.00  0.00     0.037 A 
ATOM     53  C   UNL A   1      42.778  30.288  35.788  1.00  0.00     0.049 A 
ATOM     54  C   UNL A   1      38.473  32.686  33.119  1.00  0.00     0.074 A 
ATOM     55  C   UNL A   1      43.082  30.781  37.046  1.00  0.00     0.029 A 
ATOM     56  N   UNL A   1      41.690  31.016  35.327  1.00  0.00    -0.354 N 
ATOM     57  N   UNL A   1      39.456  32.231  33.858  1.00  0.00    -0.248 NA
ATOM     58  C   UNL A   1      37.681  33.747  33.756  1.00  0.00     0.031 C 
ATOM     59  C   UNL A   1      42.157  31.783  37.358  1.00  0.00     0.029 A 
ATOM     60  C   UNL A   1      41.305  31.945  36.278  1.00  0.00     0.049 A 
ATOM     61  H   UNL A   1      41.257  30.889  34.452  1.00  0.00     0.167 HD
ATOM     62  C   UNL A   1      39.419  32.971  35.034  1.00  0.00     0.074 A 
ATOM     63  C   UNL A   1      38.325  33.911  34.903  1.00  0.00     0.031 C 
ATOM     64  C   UNL A   1      40.219  32.882  36.126  1.00  0.00     0.037 A 
BRANCH  51  65
ATOM     65  C   UNL A   1      44.586  28.522  35.706  1.00  0.00     0.058 A 
ATOM     66  C   UNL A   1      45.909  28.965  35.541  1.00  0.00     0.135 A 
ATOM     67  C   UNL A   1      44.370  27.404  36.528  1.00  0.00     0.135 A 
ATOM     68  F   UNL A   1      46.174  30.019  34.752  1.00  0.00    -0.206 F 
ATOM     69  C   UNL A   1      46.977  28.310  36.143  1.00  0.00     0.059 A 
ATOM     70  C   UNL A   1      45.421  26.750  37.163  1.00  0.00     0.059 A 
ATOM     71  F   UNL A   1      43.125  26.937  36.721  1.00  0.00    -0.206 F 
ATOM     72  C   UNL A   1      46.724  27.202  36.953  1.00  0.00     0.060 A 
BRANCH  72  73
ATOM     73  S   UNL A   1      48.121  26.368  37.732  1.00  0.00     0.124 S 
ATOM     74  O   UNL A   1      47.441  25.381  38.566  1.00  0.00    -0.237 OA
ATOM     75  O   UNL A   1      48.846  25.833  36.584  1.00  0.00    -0.237 OA
ATOM     76  O   UNL A   1      48.799  27.439  38.454  1.00  0.00    -0.744 OA
ENDBRANCH  72  73
ENDBRANCH  51  65
BRANCH  52  77
ATOM     77  C   UNL A   1      36.917  32.934  31.051  1.00  0.00     0.058 A 
ATOM     78  C   UNL A   1      35.597  32.552  31.336  1.00  0.00     0.135 A 
ATOM     79  C   UNL A   1      37.112  33.950  30.103  1.00  0.00     0.135 A 
ATOM     80  F   UNL A   1      35.359  31.582  32.232  1.00  0.00    -0.206 F 
ATOM     81  C   UNL A   1      34.512  33.134  30.689  1.00  0.00     0.059 A 
ATOM     82  C   UNL A   1      36.042  34.566  29.461  1.00  0.00     0.059 A 
ATOM     83  F   UNL A   1      38.353  34.365  29.807  1.00  0.00    -0.206 F 
ATOM     84  C   UNL A   1      34.745  34.140  29.751  1.00  0.00     0.060 A 
BRANCH  84  85
ATOM     85  S   UNL A   1      33.329  34.914  28.939  1.00  0.00     0.124 S 
ATOM     86  O   UNL A   1      33.972  35.992  28.195  1.00  0.00    -0.237 OA
ATOM     87  O   UNL A   1      32.795  33.817  28.139  1.00  0.00    -0.237 OA
ATOM     88  O   UNL A   1      32.489  35.332  30.057  1.00  0.00    -0.744 OA
ENDBRANCH  84  85
ENDBRANCH  52  77
BRANCH  64  89
ATOM     89  C   UNL A   1      39.966  33.849  37.248  1.00  0.00     0.058 A 
ATOM     90  C   UNL A   1      40.629  35.084  37.323  1.00  0.00     0.135 A 
ATOM     91  C   UNL A   1      39.020  33.550  38.242  1.00  0.00     0.135 A 
ATOM     92  F   UNL A   1      41.545  35.416  36.400  1.00  0.00    -0.206 F 
ATOM     93  C   UNL A   1      40.384  35.976  38.362  1.00  0.00     0.059 A 
ATOM     94  C   UNL A   1      38.741  34.439  39.276  1.00  0.00     0.059 A 
ATOM     95  F   UNL A   1      38.350  32.387  38.211  1.00  0.00    -0.206 F 
ATOM     96  C   UNL A   1      39.440  35.644  39.335  1.00  0.00     0.060 A 
BRANCH  96  97
ATOM     97  S   UNL A   1      39.117  36.819  40.667  1.00  0.00     0.124 S 
ATOM     98  O   UNL A   1      40.469  37.230  41.030  1.00  0.00    -0.237 OA
ATOM     99  O   UNL A   1      38.304  37.833  40.002  1.00  0.00    -0.237 OA
ATOM    100  O   UNL A   1      38.415  36.016  41.664  1.00  0.00    -0.744 OA
ENDBRANCH  96  97
ENDBRANCH  64  89
ENDBRANCH  38  39
ENDBRANCH  30  33
ENDBRANCH  28  29
ENDBRANCH  27  28
ENDBRANCH  26  27
ENDBRANCH   1  26
TORSDOF 19
ENDMDL
