MODEL 1
REMARK VINA RESULT:      -8.9      0.000      0.000
REMARK SMILES CCC(CC)(NC(=O)N(CCC#N)C1CC1)C(=O)NCCCCNC(=O)c1ccc(-c2c3nc(c(-c4c(F)cc(S(=O)(=O)[O-])cc4F)c4ccc([nH]4)c(-c4c(F)cc(S(=O)(=O)[O-])cc4F)c4nc(c(-c5c(F)cc(S(=O)(=O)[O-])cc5F)c5ccc2[nH]5)C=C4)C=C3)cc1
REMARK SMILES IDX 20 1 19 2 17 3 18 4 3 6 2 7 1 8 4 9 5 10 6 11 7 12 8 14 9 15
REMARK SMILES IDX 10 16 11 17 12 18 13 19 14 20 15 21 16 22 21 23 22 24 23 25
REMARK SMILES IDX 24 26 25 27 26 29 27 30 28 31 92 32 29 33 91 34 30 35 31 36
REMARK SMILES IDX 32 37 85 38 33 39 90 40 84 41 86 42 34 43 89 44 83 45 82 46
REMARK SMILES IDX 35 48 69 49 48 50 68 51 49 52 52 53 67 54 87 55 50 56 51 57
REMARK SMILES IDX 66 59 88 60 53 61 36 62 37 63 46 64 38 65 39 66 45 67 47 68
REMARK SMILES IDX 40 69 41 70 42 71 43 72 44 73 70 74 71 75 80 76 72 77 73 78
REMARK SMILES IDX 79 79 81 80 74 81 75 82 76 83 77 84 78 85 54 86 55 87 64 88
REMARK SMILES IDX 56 89 57 90 63 91 65 92 58 93 59 94 60 95 61 96 62 97
REMARK H PARENT 19 5 6 13 24 28 86 47 52 58
REMARK Flexibility Score: inf
ROOT
ATOM      1  C   UNL A   1      36.419  21.820  25.961  1.00  0.00     0.116 C 
ENDROOT
BRANCH   1   2
ATOM      2  N   UNL A   1      35.339  20.904  25.591  1.00  0.00    -0.354 N 
ATOM      3  C   UNL A   1      34.006  21.073  25.289  1.00  0.00     0.245 C 
ATOM      4  O   UNL A   1      33.428  20.104  24.788  1.00  0.00    -0.272 OA
ATOM      5  H   UNL A   1      35.629  19.964  25.546  1.00  0.00     0.163 HD
BRANCH   3   6
ATOM      6  C   UNL A   1      33.294  22.440  25.435  1.00  0.00     0.120 C 
BRANCH   6   7
ATOM      7  C   UNL A   1      33.208  23.091  26.845  1.00  0.00     0.035 C 
ATOM      8  C   UNL A   1      33.358  22.199  28.068  1.00  0.00     0.007 C 
ENDBRANCH   6   7
BRANCH   6   9
ATOM      9  C   UNL A   1      31.833  22.116  24.940  1.00  0.00     0.035 C 
ATOM     10  C   UNL A   1      30.668  22.774  25.662  1.00  0.00     0.007 C 
ENDBRANCH   6   9
BRANCH   6  11
ATOM     11  N   UNL A   1      33.997  23.409  24.573  1.00  0.00    -0.323 N 
ATOM     12  C   UNL A   1      33.789  24.629  24.037  1.00  0.00     0.318 C 
ATOM     13  H   UNL A   1      34.882  23.063  24.313  1.00  0.00     0.166 HD
ATOM     14  O   UNL A   1      34.585  24.872  23.116  1.00  0.00    -0.249 OA
BRANCH  12  15
ATOM     15  N   UNL A   1      32.928  25.608  24.507  1.00  0.00    -0.321 N 
BRANCH  15  16
ATOM     16  C   UNL A   1      32.986  26.407  25.758  1.00  0.00     0.137 C 
BRANCH  16  17
ATOM     17  C   UNL A   1      31.696  27.069  26.259  1.00  0.00     0.141 C 
BRANCH  17  18
ATOM     18  C   UNL A   1      31.838  28.382  26.885  1.00  0.00     0.064 C 
ATOM     19  N   UNL A   1      32.024  29.424  27.363  1.00  0.00    -0.198 NA
ENDBRANCH  17  18
ENDBRANCH  16  17
ENDBRANCH  15  16
BRANCH  15  20
ATOM     20  C   UNL A   1      31.694  25.732  23.709  1.00  0.00     0.087 C 
ATOM     21  C   UNL A   1      31.603  26.709  22.564  1.00  0.00     0.027 C 
ATOM     22  C   UNL A   1      31.424  25.245  22.315  1.00  0.00     0.027 C 
ENDBRANCH  15  20
ENDBRANCH  12  15
ENDBRANCH   6  11
ENDBRANCH   3   6
ENDBRANCH   1   2
BRANCH   1  23
ATOM     23  C   UNL A   1      37.833  21.555  25.437  1.00  0.00     0.023 C 
BRANCH  23  24
ATOM     24  C   UNL A   1      38.554  20.282  25.863  1.00  0.00     0.023 C 
BRANCH  24  25
ATOM     25  C   UNL A   1      39.940  20.077  25.281  1.00  0.00     0.116 C 
BRANCH  25  26
ATOM     26  N   UNL A   1      40.752  19.205  26.107  1.00  0.00    -0.352 N 
ATOM     27  C   UNL A   1      41.896  19.494  26.808  1.00  0.00     0.251 C 
ATOM     28  H   UNL A   1      40.438  18.274  26.176  1.00  0.00     0.163 HD
ATOM     29  O   UNL A   1      42.551  18.576  27.295  1.00  0.00    -0.269 OA
BRANCH  27  30
ATOM     30  C   UNL A   1      42.349  20.896  26.959  1.00  0.00     0.039 A 
ATOM     31  C   UNL A   1      42.556  21.401  28.246  1.00  0.00     0.014 A 
ATOM     32  C   UNL A   1      42.545  21.723  25.847  1.00  0.00     0.014 A 
ATOM     33  C   UNL A   1      42.996  22.715  28.416  1.00  0.00     0.010 A 
ATOM     34  C   UNL A   1      43.056  23.007  26.015  1.00  0.00     0.010 A 
ATOM     35  C   UNL A   1      43.271  23.524  27.300  1.00  0.00    -0.014 A 
BRANCH  35  36
ATOM     36  C   UNL A   1      43.759  24.918  27.464  1.00  0.00     0.031 A 
ATOM     37  C   UNL A   1      45.199  25.251  27.176  1.00  0.00     0.074 A 
ATOM     38  C   UNL A   1      42.920  25.872  27.914  1.00  0.00     0.049 A 
ATOM     39  N   UNL A   1      45.825  26.393  27.300  1.00  0.00    -0.248 NA
ATOM     40  C   UNL A   1      46.056  24.148  26.709  1.00  0.00     0.031 C 
ATOM     41  C   UNL A   1      41.515  25.663  28.270  1.00  0.00     0.029 A 
ATOM     42  N   UNL A   1      43.128  27.206  28.158  1.00  0.00    -0.354 N 
ATOM     43  C   UNL A   1      47.145  26.145  26.946  1.00  0.00     0.074 A 
ATOM     44  C   UNL A   1      47.243  24.733  26.647  1.00  0.00     0.031 C 
ATOM     45  C   UNL A   1      40.982  26.831  28.663  1.00  0.00     0.029 A 
ATOM     46  C   UNL A   1      42.014  27.863  28.624  1.00  0.00     0.049 A 
ATOM     47  H   UNL A   1      43.994  27.651  28.011  1.00  0.00     0.167 HD
ATOM     48  C   UNL A   1      48.177  27.018  26.856  1.00  0.00     0.037 A 
ATOM     49  C   UNL A   1      41.845  29.150  28.986  1.00  0.00     0.037 A 
ATOM     50  C   UNL A   1      48.065  28.427  27.129  1.00  0.00     0.049 A 
ATOM     51  C   UNL A   1      43.007  30.101  28.878  1.00  0.00     0.074 A 
ATOM     52  C   UNL A   1      49.034  29.407  27.004  1.00  0.00     0.029 A 
ATOM     53  N   UNL A   1      46.916  29.058  27.585  1.00  0.00    -0.354 N 
ATOM     54  N   UNL A   1      44.233  29.863  28.473  1.00  0.00    -0.248 NA
ATOM     55  C   UNL A   1      42.765  31.495  29.272  1.00  0.00     0.031 C 
ATOM     56  C   UNL A   1      48.485  30.622  27.428  1.00  0.00     0.029 A 
ATOM     57  C   UNL A   1      47.159  30.409  27.768  1.00  0.00     0.049 A 
ATOM     58  H   UNL A   1      46.055  28.610  27.754  1.00  0.00     0.167 HD
ATOM     59  C   UNL A   1      44.897  31.083  28.536  1.00  0.00     0.074 A 
ATOM     60  C   UNL A   1      43.935  32.058  29.007  1.00  0.00     0.031 C 
ATOM     61  C   UNL A   1      46.187  31.370  28.230  1.00  0.00     0.037 A 
BRANCH  48  62
ATOM     62  C   UNL A   1      49.520  26.475  26.445  1.00  0.00     0.058 A 
ATOM     63  C   UNL A   1      49.950  26.504  25.110  1.00  0.00     0.135 A 
ATOM     64  C   UNL A   1      50.405  25.958  27.406  1.00  0.00     0.135 A 
ATOM     65  F   UNL A   1      49.140  26.974  24.147  1.00  0.00    -0.206 F 
ATOM     66  C   UNL A   1      51.197  26.013  24.735  1.00  0.00     0.059 A 
ATOM     67  C   UNL A   1      51.668  25.487  27.058  1.00  0.00     0.059 A 
ATOM     68  F   UNL A   1      50.046  25.906  28.698  1.00  0.00    -0.206 F 
ATOM     69  C   UNL A   1      52.050  25.506  25.717  1.00  0.00     0.060 A 
BRANCH  69  70
ATOM     70  S   UNL A   1      53.666  24.879  25.216  1.00  0.00     0.124 S 
ATOM     71  O   UNL A   1      53.391  23.454  25.063  1.00  0.00    -0.237 OA
ATOM     72  O   UNL A   1      53.915  25.611  23.978  1.00  0.00    -0.237 OA
ATOM     73  O   UNL A   1      54.531  25.233  26.336  1.00  0.00    -0.744 OA
ENDBRANCH  69  70
ENDBRANCH  48  62
BRANCH  49  74
ATOM     74  C   UNL A   1      40.516  29.622  29.460  1.00  0.00     0.058 A 
ATOM     75  C   UNL A   1      40.298  29.922  30.812  1.00  0.00     0.135 A 
ATOM     76  C   UNL A   1      39.443  29.793  28.572  1.00  0.00     0.135 A 
ATOM     77  F   UNL A   1      41.292  29.769  31.701  1.00  0.00    -0.206 F 
ATOM     78  C   UNL A   1      39.059  30.356  31.273  1.00  0.00     0.059 A 
ATOM     79  C   UNL A   1      38.202  30.250  29.003  1.00  0.00     0.059 A 
ATOM     80  F   UNL A   1      39.604  29.534  27.265  1.00  0.00    -0.206 F 
ATOM     81  C   UNL A   1      38.017  30.518  30.360  1.00  0.00     0.060 A 
BRANCH  81  82
ATOM     82  S   UNL A   1      36.424  31.122  30.962  1.00  0.00     0.124 S 
ATOM     83  O   UNL A   1      35.918  29.955  31.675  1.00  0.00    -0.237 OA
ATOM     84  O   UNL A   1      36.820  32.255  31.793  1.00  0.00    -0.237 OA
ATOM     85  O   UNL A   1      35.712  31.472  29.737  1.00  0.00    -0.744 OA
ENDBRANCH  81  82
ENDBRANCH  49  74
BRANCH  61  86
ATOM     86  C   UNL A   1      46.628  32.802  28.356  1.00  0.00     0.058 A 
ATOM     87  C   UNL A   1      46.463  33.722  27.308  1.00  0.00     0.135 A 
ATOM     88  C   UNL A   1      47.174  33.272  29.561  1.00  0.00     0.135 A 
ATOM     89  F   UNL A   1      45.953  33.322  26.132  1.00  0.00    -0.206 F 
ATOM     90  C   UNL A   1      46.847  35.052  27.442  1.00  0.00     0.059 A 
ATOM     91  C   UNL A   1      47.537  34.606  29.728  1.00  0.00     0.059 A 
ATOM     92  F   UNL A   1      47.343  32.438  30.599  1.00  0.00    -0.206 F 
ATOM     93  C   UNL A   1      47.381  35.485  28.658  1.00  0.00     0.060 A 
BRANCH  93  94
ATOM     94  S   UNL A   1      47.840  37.222  28.832  1.00  0.00     0.124 S 
ATOM     95  O   UNL A   1      46.581  37.892  28.523  1.00  0.00    -0.237 OA
ATOM     96  O   UNL A   1      48.271  37.294  30.225  1.00  0.00    -0.237 OA
ATOM     97  O   UNL A   1      48.902  37.394  27.845  1.00  0.00    -0.744 OA
ENDBRANCH  93  94
ENDBRANCH  61  86
ENDBRANCH  35  36
ENDBRANCH  27  30
ENDBRANCH  25  26
ENDBRANCH  24  25
ENDBRANCH  23  24
ENDBRANCH   1  23
TORSDOF 22
ENDMDL
MODEL 2
REMARK VINA RESULT:      -8.9      2.394      3.722
REMARK SMILES CCC(CC)(NC(=O)N(CCC#N)C1CC1)C(=O)NCCCCNC(=O)c1ccc(-c2c3nc(c(-c4c(F)cc(S(=O)(=O)[O-])cc4F)c4ccc([nH]4)c(-c4c(F)cc(S(=O)(=O)[O-])cc4F)c4nc(c(-c5c(F)cc(S(=O)(=O)[O-])cc5F)c5ccc2[nH]5)C=C4)C=C3)cc1
REMARK SMILES IDX 20 1 19 2 17 3 18 4 3 6 2 7 1 8 4 9 5 10 6 11 7 12 8 14 9 15
REMARK SMILES IDX 10 16 11 17 12 18 13 19 14 20 15 21 16 22 21 23 22 24 23 25
REMARK SMILES IDX 24 26 25 27 26 29 27 30 28 31 92 32 29 33 91 34 30 35 31 36
REMARK SMILES IDX 32 37 85 38 33 39 90 40 84 41 86 42 34 43 89 44 83 45 82 46
REMARK SMILES IDX 35 48 69 49 48 50 68 51 49 52 52 53 67 54 87 55 50 56 51 57
REMARK SMILES IDX 66 59 88 60 53 61 36 62 37 63 46 64 38 65 39 66 45 67 47 68
REMARK SMILES IDX 40 69 41 70 42 71 43 72 44 73 70 74 71 75 80 76 72 77 73 78
REMARK SMILES IDX 79 79 81 80 74 81 75 82 76 83 77 84 78 85 54 86 55 87 64 88
REMARK SMILES IDX 56 89 57 90 63 91 65 92 58 93 59 94 60 95 61 96 62 97
REMARK H PARENT 19 5 6 13 24 28 86 47 52 58
REMARK Flexibility Score: inf
ROOT
ATOM      1  C   UNL A   1      33.120  22.780  26.221  1.00  0.00     0.116 C 
ENDROOT
BRANCH   1   2
ATOM      2  N   UNL A   1      32.823  22.350  24.854  1.00  0.00    -0.354 N 
ATOM      3  C   UNL A   1      32.585  23.018  23.674  1.00  0.00     0.245 C 
ATOM      4  O   UNL A   1      32.597  22.337  22.644  1.00  0.00    -0.272 OA
ATOM      5  H   UNL A   1      32.786  21.371  24.758  1.00  0.00     0.163 HD
BRANCH   3   6
ATOM      6  C   UNL A   1      32.450  24.559  23.611  1.00  0.00     0.120 C 
BRANCH   6   7
ATOM      7  C   UNL A   1      31.826  25.202  22.339  1.00  0.00     0.035 C 
ATOM      8  C   UNL A   1      32.741  25.941  21.375  1.00  0.00     0.007 C 
ENDBRANCH   6   7
BRANCH   6   9
ATOM      9  C   UNL A   1      33.946  25.037  23.734  1.00  0.00     0.035 C 
ATOM     10  C   UNL A   1      34.320  25.931  24.905  1.00  0.00     0.007 C 
ENDBRANCH   6   9
BRANCH   6  11
ATOM     11  N   UNL A   1      31.609  24.985  24.746  1.00  0.00    -0.323 N 
ATOM     12  C   UNL A   1      30.969  26.091  25.176  1.00  0.00     0.318 C 
ATOM     13  H   UNL A   1      31.473  24.240  25.375  1.00  0.00     0.166 HD
ATOM     14  O   UNL A   1      30.652  26.006  26.373  1.00  0.00    -0.249 OA
BRANCH  12  15
ATOM     15  N   UNL A   1      30.537  27.156  24.402  1.00  0.00    -0.321 N 
BRANCH  15  16
ATOM     16  C   UNL A   1      29.355  27.267  23.508  1.00  0.00     0.137 C 
BRANCH  16  17
ATOM     17  C   UNL A   1      28.722  28.650  23.307  1.00  0.00     0.141 C 
BRANCH  17  18
ATOM     18  C   UNL A   1      29.241  29.448  22.197  1.00  0.00     0.064 C 
ATOM     19  N   UNL A   1      29.681  30.128  21.366  1.00  0.00    -0.198 NA
ENDBRANCH  17  18
ENDBRANCH  16  17
ENDBRANCH  15  16
BRANCH  15  20
ATOM     20  C   UNL A   1      31.504  28.268  24.347  1.00  0.00     0.087 C 
ATOM     21  C   UNL A   1      31.390  29.445  25.282  1.00  0.00     0.027 C 
ATOM     22  C   UNL A   1      32.619  28.591  25.299  1.00  0.00     0.027 C 
ENDBRANCH  15  20
ENDBRANCH  12  15
ENDBRANCH   6  11
ENDBRANCH   3   6
ENDBRANCH   1   2
BRANCH   1  23
ATOM     23  C   UNL A   1      34.574  22.785  26.700  1.00  0.00     0.023 C 
BRANCH  23  24
ATOM     24  C   UNL A   1      35.693  22.868  25.670  1.00  0.00     0.023 C 
BRANCH  24  25
ATOM     25  C   UNL A   1      37.048  23.306  26.193  1.00  0.00     0.116 C 
BRANCH  25  26
ATOM     26  N   UNL A   1      37.994  22.209  26.238  1.00  0.00    -0.352 N 
ATOM     27  C   UNL A   1      39.349  22.243  26.455  1.00  0.00     0.251 C 
ATOM     28  H   UNL A   1      37.611  21.313  26.093  1.00  0.00     0.163 HD
ATOM     29  O   UNL A   1      40.014  21.227  26.265  1.00  0.00    -0.269 OA
BRANCH  27  30
ATOM     30  C   UNL A   1      40.008  23.495  26.894  1.00  0.00     0.039 A 
ATOM     31  C   UNL A   1      39.897  24.630  26.087  1.00  0.00     0.014 A 
ATOM     32  C   UNL A   1      40.754  23.550  28.076  1.00  0.00     0.014 A 
ATOM     33  C   UNL A   1      40.497  25.827  26.483  1.00  0.00     0.010 A 
ATOM     34  C   UNL A   1      41.287  24.762  28.507  1.00  0.00     0.010 A 
ATOM     35  C   UNL A   1      41.180  25.910  27.709  1.00  0.00    -0.014 A 
BRANCH  35  36
ATOM     36  C   UNL A   1      41.807  27.181  28.155  1.00  0.00     0.031 A 
ATOM     37  C   UNL A   1      43.286  27.398  27.968  1.00  0.00     0.074 A 
ATOM     38  C   UNL A   1      41.057  28.118  28.767  1.00  0.00     0.049 A 
ATOM     39  N   UNL A   1      44.024  28.416  28.329  1.00  0.00    -0.248 NA
ATOM     40  C   UNL A   1      44.039  26.317  27.310  1.00  0.00     0.031 C 
ATOM     41  C   UNL A   1      39.624  28.005  29.046  1.00  0.00     0.029 A 
ATOM     42  N   UNL A   1      41.396  29.347  29.274  1.00  0.00    -0.354 N 
ATOM     43  C   UNL A   1      45.324  28.094  27.959  1.00  0.00     0.074 A 
ATOM     44  C   UNL A   1      45.283  26.765  27.389  1.00  0.00     0.031 C 
ATOM     45  C   UNL A   1      39.203  29.126  29.652  1.00  0.00     0.029 A 
ATOM     46  C   UNL A   1      40.340  30.023  29.839  1.00  0.00     0.049 A 
ATOM     47  H   UNL A   1      42.310  29.711  29.237  1.00  0.00     0.167 HD
ATOM     48  C   UNL A   1      46.447  28.845  28.065  1.00  0.00     0.037 A 
ATOM     49  C   UNL A   1      40.295  31.225  30.445  1.00  0.00     0.037 A 
ATOM     50  C   UNL A   1      46.474  30.178  28.609  1.00  0.00     0.049 A 
ATOM     51  C   UNL A   1      41.555  32.041  30.551  1.00  0.00     0.074 A 
ATOM     52  C   UNL A   1      47.547  31.047  28.700  1.00  0.00     0.029 A 
ATOM     53  N   UNL A   1      45.382  30.834  29.157  1.00  0.00    -0.354 N 
ATOM     54  N   UNL A   1      42.764  31.749  30.131  1.00  0.00    -0.248 NA
ATOM     55  C   UNL A   1      41.447  33.350  31.208  1.00  0.00     0.031 C 
ATOM     56  C   UNL A   1      47.114  32.211  29.345  1.00  0.00     0.029 A 
ATOM     57  C   UNL A   1      45.760  32.087  29.609  1.00  0.00     0.049 A 
ATOM     58  H   UNL A   1      44.471  30.462  29.217  1.00  0.00     0.167 HD
ATOM     59  C   UNL A   1      43.552  32.851  30.449  1.00  0.00     0.074 A 
ATOM     60  C   UNL A   1      42.681  33.818  31.084  1.00  0.00     0.031 C 
ATOM     61  C   UNL A   1      44.877  33.044  30.231  1.00  0.00     0.037 A 
BRANCH  48  62
ATOM     62  C   UNL A   1      47.739  28.244  27.583  1.00  0.00     0.058 A 
ATOM     63  C   UNL A   1      48.575  27.506  28.436  1.00  0.00     0.135 A 
ATOM     64  C   UNL A   1      48.128  28.372  26.238  1.00  0.00     0.135 A 
ATOM     65  F   UNL A   1      48.260  27.363  29.734  1.00  0.00    -0.206 F 
ATOM     66  C   UNL A   1      49.762  26.941  27.984  1.00  0.00     0.059 A 
ATOM     67  C   UNL A   1      49.299  27.791  25.757  1.00  0.00     0.059 A 
ATOM     68  F   UNL A   1      47.368  29.066  25.378  1.00  0.00    -0.206 F 
ATOM     69  C   UNL A   1      50.116  27.089  26.641  1.00  0.00     0.060 A 
BRANCH  69  70
ATOM     70  S   UNL A   1      51.657  26.344  26.068  1.00  0.00     0.124 S 
ATOM     71  O   UNL A   1      51.549  24.994  26.614  1.00  0.00    -0.237 OA
ATOM     72  O   UNL A   1      51.537  26.451  24.618  1.00  0.00    -0.237 OA
ATOM     73  O   UNL A   1      52.686  27.183  26.673  1.00  0.00    -0.744 OA
ENDBRANCH  69  70
ENDBRANCH  48  62
BRANCH  49  74
ATOM     74  C   UNL A   1      39.005  31.744  30.975  1.00  0.00     0.058 A 
ATOM     75  C   UNL A   1      38.654  31.563  32.321  1.00  0.00     0.135 A 
ATOM     76  C   UNL A   1      38.104  32.438  30.154  1.00  0.00     0.135 A 
ATOM     77  F   UNL A   1      39.480  30.900  33.146  1.00  0.00    -0.206 F 
ATOM     78  C   UNL A   1      37.448  32.033  32.830  1.00  0.00     0.059 A 
ATOM     79  C   UNL A   1      36.903  32.941  30.645  1.00  0.00     0.059 A 
ATOM     80  F   UNL A   1      38.398  32.651  28.862  1.00  0.00    -0.206 F 
ATOM     81  C   UNL A   1      36.579  32.723  31.984  1.00  0.00     0.060 A 
BRANCH  81  82
ATOM     82  S   UNL A   1      35.035  33.366  32.666  1.00  0.00     0.124 S 
ATOM     83  O   UNL A   1      35.149  34.787  32.362  1.00  0.00    -0.237 OA
ATOM     84  O   UNL A   1      34.032  32.628  31.903  1.00  0.00    -0.237 OA
ATOM     85  O   UNL A   1      35.119  33.013  34.080  1.00  0.00    -0.744 OA
ENDBRANCH  81  82
ENDBRANCH  49  74
BRANCH  61  86
ATOM     86  C   UNL A   1      45.463  34.365  30.647  1.00  0.00     0.058 A 
ATOM     87  C   UNL A   1      46.029  34.555  31.918  1.00  0.00     0.135 A 
ATOM     88  C   UNL A   1      45.504  35.439  29.743  1.00  0.00     0.135 A 
ATOM     89  F   UNL A   1      46.009  33.563  32.822  1.00  0.00    -0.206 F 
ATOM     90  C   UNL A   1      46.596  35.771  32.285  1.00  0.00     0.059 A 
ATOM     91  C   UNL A   1      46.093  36.655  30.078  1.00  0.00     0.059 A 
ATOM     92  F   UNL A   1      44.987  35.307  28.511  1.00  0.00    -0.206 F 
ATOM     93  C   UNL A   1      46.625  36.815  31.357  1.00  0.00     0.060 A 
BRANCH  93  94
ATOM     94  S   UNL A   1      47.397  38.376  31.833  1.00  0.00     0.124 S 
ATOM     95  O   UNL A   1      48.755  38.199  31.330  1.00  0.00    -0.237 OA
ATOM     96  O   UNL A   1      46.580  39.357  31.125  1.00  0.00    -0.237 OA
ATOM     97  O   UNL A   1      47.263  38.392  33.287  1.00  0.00    -0.744 OA
ENDBRANCH  93  94
ENDBRANCH  61  86
ENDBRANCH  35  36
ENDBRANCH  27  30
ENDBRANCH  25  26
ENDBRANCH  24  25
ENDBRANCH  23  24
ENDBRANCH   1  23
TORSDOF 22
ENDMDL
MODEL 3
REMARK VINA RESULT:      -8.7      6.289      8.523
REMARK SMILES CCC(CC)(NC(=O)N(CCC#N)C1CC1)C(=O)NCCCCNC(=O)c1ccc(-c2c3nc(c(-c4c(F)cc(S(=O)(=O)[O-])cc4F)c4ccc([nH]4)c(-c4c(F)cc(S(=O)(=O)[O-])cc4F)c4nc(c(-c5c(F)cc(S(=O)(=O)[O-])cc5F)c5ccc2[nH]5)C=C4)C=C3)cc1
REMARK SMILES IDX 20 1 19 2 17 3 18 4 3 6 2 7 1 8 4 9 5 10 6 11 7 12 8 14 9 15
REMARK SMILES IDX 10 16 11 17 12 18 13 19 14 20 15 21 16 22 21 23 22 24 23 25
REMARK SMILES IDX 24 26 25 27 26 29 27 30 28 31 92 32 29 33 91 34 30 35 31 36
REMARK SMILES IDX 32 37 85 38 33 39 90 40 84 41 86 42 34 43 89 44 83 45 82 46
REMARK SMILES IDX 35 48 69 49 48 50 68 51 49 52 52 53 67 54 87 55 50 56 51 57
REMARK SMILES IDX 66 59 88 60 53 61 36 62 37 63 46 64 38 65 39 66 45 67 47 68
REMARK SMILES IDX 40 69 41 70 42 71 43 72 44 73 70 74 71 75 80 76 72 77 73 78
REMARK SMILES IDX 79 79 81 80 74 81 75 82 76 83 77 84 78 85 54 86 55 87 64 88
REMARK SMILES IDX 56 89 57 90 63 91 65 92 58 93 59 94 60 95 61 96 62 97
REMARK H PARENT 19 5 6 13 24 28 86 47 52 58
REMARK Flexibility Score: inf
ROOT
ATOM      1  C   UNL A   1      35.446  24.574  25.865  1.00  0.00     0.116 C 
ENDROOT
BRANCH   1   2
ATOM      2  N   UNL A   1      35.072  24.301  24.477  1.00  0.00    -0.354 N 
ATOM      3  C   UNL A   1      34.292  24.959  23.552  1.00  0.00     0.245 C 
ATOM      4  O   UNL A   1      34.375  24.567  22.384  1.00  0.00    -0.272 OA
ATOM      5  H   UNL A   1      35.462  23.467  24.129  1.00  0.00     0.163 HD
BRANCH   3   6
ATOM      6  C   UNL A   1      33.461  26.213  23.916  1.00  0.00     0.120 C 
BRANCH   6   7
ATOM      7  C   UNL A   1      34.202  27.562  24.140  1.00  0.00     0.035 C 
ATOM      8  C   UNL A   1      34.343  28.518  22.965  1.00  0.00     0.007 C 
ENDBRANCH   6   7
BRANCH   6   9
ATOM      9  C   UNL A   1      32.774  25.785  25.268  1.00  0.00     0.035 C 
ATOM     10  C   UNL A   1      32.613  26.835  26.355  1.00  0.00     0.007 C 
ENDBRANCH   6   9
BRANCH   6  11
ATOM     11  N   UNL A   1      32.496  26.448  22.823  1.00  0.00    -0.323 N 
ATOM     12  C   UNL A   1      31.258  26.055  22.460  1.00  0.00     0.318 C 
ATOM     13  H   UNL A   1      32.866  27.080  22.165  1.00  0.00     0.166 HD
ATOM     14  O   UNL A   1      31.022  26.313  21.269  1.00  0.00    -0.249 OA
BRANCH  12  15
ATOM     15  N   UNL A   1      30.262  25.572  23.292  1.00  0.00    -0.321 N 
BRANCH  15  16
ATOM     16  C   UNL A   1      29.339  26.303  24.198  1.00  0.00     0.137 C 
BRANCH  16  17
ATOM     17  C   UNL A   1      28.411  27.364  23.590  1.00  0.00     0.141 C 
BRANCH  17  18
ATOM     18  C   UNL A   1      29.042  28.606  23.152  1.00  0.00     0.064 C 
ATOM     19  N   UNL A   1      29.603  29.554  22.784  1.00  0.00    -0.198 NA
ENDBRANCH  17  18
ENDBRANCH  16  17
ENDBRANCH  15  16
BRANCH  15  20
ATOM     20  C   UNL A   1      30.253  24.101  23.401  1.00  0.00     0.087 C 
ATOM     21  C   UNL A   1      31.403  23.276  22.881  1.00  0.00     0.027 C 
ATOM     22  C   UNL A   1      31.041  23.224  24.332  1.00  0.00     0.027 C 
ENDBRANCH  15  20
ENDBRANCH  12  15
ENDBRANCH   6  11
ENDBRANCH   3   6
ENDBRANCH   1   2
BRANCH   1  23
ATOM     23  C   UNL A   1      36.543  23.730  26.520  1.00  0.00     0.023 C 
BRANCH  23  24
ATOM     24  C   UNL A   1      37.916  23.662  25.866  1.00  0.00     0.023 C 
BRANCH  24  25
ATOM     25  C   UNL A   1      39.104  23.670  26.810  1.00  0.00     0.116 C 
BRANCH  25  26
ATOM     26  N   UNL A   1      40.350  23.923  26.113  1.00  0.00    -0.352 N 
ATOM     27  C   UNL A   1      41.239  24.956  26.277  1.00  0.00     0.251 C 
ATOM     28  H   UNL A   1      40.594  23.259  25.427  1.00  0.00     0.163 HD
ATOM     29  O   UNL A   1      42.144  25.105  25.460  1.00  0.00    -0.269 OA
BRANCH  27  30
ATOM     30  C   UNL A   1      41.096  25.896  27.413  1.00  0.00     0.039 A 
ATOM     31  C   UNL A   1      42.008  26.949  27.532  1.00  0.00     0.014 A 
ATOM     32  C   UNL A   1      40.092  25.731  28.373  1.00  0.00     0.014 A 
ATOM     33  C   UNL A   1      41.888  27.857  28.586  1.00  0.00     0.010 A 
ATOM     34  C   UNL A   1      39.928  26.680  29.379  1.00  0.00     0.010 A 
ATOM     35  C   UNL A   1      40.834  27.743  29.508  1.00  0.00    -0.014 A 
BRANCH  35  36
ATOM     36  C   UNL A   1      40.681  28.712  30.624  1.00  0.00     0.031 A 
ATOM     37  C   UNL A   1      41.550  28.595  31.848  1.00  0.00     0.074 A 
ATOM     38  C   UNL A   1      39.732  29.667  30.555  1.00  0.00     0.049 A 
ATOM     39  N   UNL A   1      41.539  29.314  32.942  1.00  0.00    -0.248 NA
ATOM     40  C   UNL A   1      42.548  27.512  31.854  1.00  0.00     0.031 C 
ATOM     41  C   UNL A   1      38.799  29.853  29.442  1.00  0.00     0.029 A 
ATOM     42  N   UNL A   1      39.388  30.654  31.444  1.00  0.00    -0.354 N 
ATOM     43  C   UNL A   1      42.510  28.762  33.769  1.00  0.00     0.074 A 
ATOM     44  C   UNL A   1      43.059  27.620  33.072  1.00  0.00     0.031 C 
ATOM     45  C   UNL A   1      38.006  30.904  29.704  1.00  0.00     0.029 A 
ATOM     46  C   UNL A   1      38.346  31.443  31.017  1.00  0.00     0.049 A 
ATOM     47  H   UNL A   1      39.845  30.785  32.306  1.00  0.00     0.167 HD
ATOM     48  C   UNL A   1      42.922  29.183  34.989  1.00  0.00     0.037 A 
ATOM     49  C   UNL A   1      37.731  32.480  31.619  1.00  0.00     0.037 A 
ATOM     50  C   UNL A   1      42.390  30.338  35.664  1.00  0.00     0.049 A 
ATOM     51  C   UNL A   1      38.207  32.929  32.975  1.00  0.00     0.074 A 
ATOM     52  C   UNL A   1      42.784  30.885  36.872  1.00  0.00     0.029 A 
ATOM     53  N   UNL A   1      41.346  31.121  35.193  1.00  0.00    -0.354 N 
ATOM     54  N   UNL A   1      39.176  32.439  33.712  1.00  0.00    -0.248 NA
ATOM     55  C   UNL A   1      37.511  34.072  33.579  1.00  0.00     0.031 C 
ATOM     56  C   UNL A   1      41.949  31.972  37.154  1.00  0.00     0.029 A 
ATOM     57  C   UNL A   1      41.068  32.133  36.097  1.00  0.00     0.049 A 
ATOM     58  H   UNL A   1      40.871  30.978  34.342  1.00  0.00     0.167 HD
ATOM     59  C   UNL A   1      39.222  33.233  34.854  1.00  0.00     0.074 A 
ATOM     60  C   UNL A   1      38.194  34.241  34.703  1.00  0.00     0.031 C 
ATOM     61  C   UNL A   1      40.045  33.136  35.927  1.00  0.00     0.037 A 
BRANCH  48  62
ATOM     62  C   UNL A   1      44.003  28.391  35.674  1.00  0.00     0.058 A 
ATOM     63  C   UNL A   1      43.703  27.339  36.553  1.00  0.00     0.135 A 
ATOM     64  C   UNL A   1      45.358  28.660  35.416  1.00  0.00     0.135 A 
ATOM     65  F   UNL A   1      42.426  27.046  36.848  1.00  0.00    -0.206 F 
ATOM     66  C   UNL A   1      44.704  26.600  37.175  1.00  0.00     0.059 A 
ATOM     67  C   UNL A   1      46.377  27.916  36.005  1.00  0.00     0.059 A 
ATOM     68  F   UNL A   1      45.703  29.654  34.584  1.00  0.00    -0.206 F 
ATOM     69  C   UNL A   1      46.040  26.896  36.894  1.00  0.00     0.060 A 
BRANCH  69  70
ATOM     70  S   UNL A   1      47.327  25.924  37.704  1.00  0.00     0.124 S 
ATOM     71  O   UNL A   1      47.668  26.779  38.838  1.00  0.00    -0.237 OA
ATOM     72  O   UNL A   1      46.626  24.688  38.033  1.00  0.00    -0.237 OA
ATOM     73  O   UNL A   1      48.358  25.804  36.679  1.00  0.00    -0.744 OA
ENDBRANCH  69  70
ENDBRANCH  48  62
BRANCH  49  74
ATOM     74  C   UNL A   1      36.615  33.184  30.933  1.00  0.00     0.058 A 
ATOM     75  C   UNL A   1      36.858  34.026  29.837  1.00  0.00     0.135 A 
ATOM     76  C   UNL A   1      35.284  33.024  31.349  1.00  0.00     0.135 A 
ATOM     77  F   UNL A   1      38.114  34.217  29.405  1.00  0.00    -0.206 F 
ATOM     78  C   UNL A   1      35.827  34.699  29.191  1.00  0.00     0.059 A 
ATOM     79  C   UNL A   1      34.232  33.666  30.703  1.00  0.00     0.059 A 
ATOM     80  F   UNL A   1      34.996  32.218  32.383  1.00  0.00    -0.206 F 
ATOM     81  C   UNL A   1      34.516  34.511  29.630  1.00  0.00     0.060 A 
BRANCH  81  82
ATOM     82  S   UNL A   1      33.180  35.357  28.757  1.00  0.00     0.124 S 
ATOM     83  O   UNL A   1      33.920  36.314  27.944  1.00  0.00    -0.237 OA
ATOM     84  O   UNL A   1      32.545  34.261  28.031  1.00  0.00    -0.237 OA
ATOM     85  O   UNL A   1      32.381  35.928  29.837  1.00  0.00    -0.744 OA
ENDBRANCH  81  82
ENDBRANCH  49  74
BRANCH  61  86
ATOM     86  C   UNL A   1      39.895  34.169  37.011  1.00  0.00     0.058 A 
ATOM     87  C   UNL A   1      40.478  35.442  36.904  1.00  0.00     0.135 A 
ATOM     88  C   UNL A   1      39.114  33.897  38.146  1.00  0.00     0.135 A 
ATOM     89  F   UNL A   1      41.239  35.750  35.842  1.00  0.00    -0.206 F 
ATOM     90  C   UNL A   1      40.311  36.402  37.897  1.00  0.00     0.059 A 
ATOM     91  C   UNL A   1      38.909  34.853  39.138  1.00  0.00     0.059 A 
ATOM     92  F   UNL A   1      38.526  32.700  38.293  1.00  0.00    -0.206 F 
ATOM     93  C   UNL A   1      39.522  36.099  39.009  1.00  0.00     0.060 A 
BRANCH  93  94
ATOM     94  S   UNL A   1      39.283  37.366  40.272  1.00  0.00     0.124 S 
ATOM     95  O   UNL A   1      38.614  36.610  41.326  1.00  0.00    -0.237 OA
ATOM     96  O   UNL A   1      40.652  37.782  40.561  1.00  0.00    -0.237 OA
ATOM     97  O   UNL A   1      38.460  38.366  39.599  1.00  0.00    -0.744 OA
ENDBRANCH  93  94
ENDBRANCH  61  86
ENDBRANCH  35  36
ENDBRANCH  27  30
ENDBRANCH  25  26
ENDBRANCH  24  25
ENDBRANCH  23  24
ENDBRANCH   1  23
TORSDOF 22
ENDMDL
