MODEL 1
REMARK VINA RESULT:     -12.0      0.000      0.000
REMARK SMILES COC(=O)C1=C(C)N(c2ccccc2)C(=S)N[C@@H]1c1ccc(C(=O)NCCCCNC(=O)c2ccc(-c3c4nc(c(-c5c(F)cc(S(=O)(=O)[O-])cc5F)c5ccc([nH]5)c(-c5c(F)cc(S(=O)(=O)[O-])cc5F)c5nc(c(-c6c(F)cc(S(=O)(=O)[O-])cc6F)c6ccc3[nH]6)C=C5)C=C4)cc2)cc1
REMARK SMILES IDX 27 1 26 2 25 3 23 4 24 5 22 7 19 8 20 9 100 10 21 11 99 12
REMARK SMILES IDX 18 13 5 14 6 15 7 16 8 17 17 18 15 19 16 21 3 22 4 23 2 24
REMARK SMILES IDX 1 25 9 26 10 27 14 28 11 29 13 30 12 31 28 32 29 33 30 34
REMARK SMILES IDX 31 35 32 37 33 38 34 39 98 40 35 41 97 42 36 43 37 44 38 45
REMARK SMILES IDX 91 46 39 47 96 48 90 49 92 50 40 51 95 52 89 53 88 54 41 56
REMARK SMILES IDX 75 57 54 58 74 59 55 60 58 61 73 62 93 63 56 64 57 65 72 67
REMARK SMILES IDX 94 68 59 69 42 70 43 71 52 72 44 73 45 74 51 75 53 76 46 77
REMARK SMILES IDX 47 78 48 79 49 80 50 81 76 82 77 83 86 84 78 85 79 86 85 87
REMARK SMILES IDX 87 88 80 89 81 90 82 91 83 92 84 93 60 94 61 95 70 96 62 97
REMARK SMILES IDX 63 98 69 99 71 100 64 101 65 102 66 103 67 104 68 105
REMARK H PARENT 25 6 17 20 30 36 92 55 58 66
REMARK Flexibility Score: inf
ROOT
ATOM      1  C   UNL A   1      38.152  21.992  25.529  1.00  0.00     0.023 C 
ENDROOT
BRANCH   1   2
ATOM      2  C   UNL A   1      36.930  21.892  24.615  1.00  0.00     0.116 C 
BRANCH   2   3
ATOM      3  N   UNL A   1      35.963  20.948  25.140  1.00  0.00    -0.352 N 
ATOM      4  C   UNL A   1      34.619  21.073  25.377  1.00  0.00     0.251 C 
ATOM      5  O   UNL A   1      33.992  20.083  25.751  1.00  0.00    -0.269 OA
ATOM      6  H   UNL A   1      36.337  20.066  25.366  1.00  0.00     0.163 HD
BRANCH   4   7
ATOM      7  C   UNL A   1      33.883  22.344  25.149  1.00  0.00     0.039 A 
ATOM      8  C   UNL A   1      32.341  24.666  24.651  1.00  0.00    -0.021 A 
ATOM      9  C   UNL A   1      32.015  23.438  24.050  1.00  0.00     0.007 A 
ATOM     10  C   UNL A   1      33.450  24.707  25.510  1.00  0.00     0.007 A 
ATOM     11  C   UNL A   1      32.769  22.291  24.306  1.00  0.00     0.014 A 
ATOM     12  C   UNL A   1      34.199  23.553  25.771  1.00  0.00     0.014 A 
BRANCH   8  13
ATOM     13  C   UNL A   1      31.569  25.952  24.369  1.00  0.00     0.151 C 
ATOM     14  C   UNL A   1      32.331  26.982  23.601  1.00  0.00     0.083 C 
ATOM     15  C   UNL A   1      32.930  28.034  24.201  1.00  0.00     0.035 C 
ATOM     16  C   UNL A   1      33.836  28.990  23.457  1.00  0.00     0.065 C 
ATOM     17  N   UNL A   1      32.764  28.209  25.601  1.00  0.00    -0.291 N 
ATOM     18  N   UNL A   1      31.117  26.519  25.615  1.00  0.00    -0.351 N 
ATOM     19  C   UNL A   1      31.770  27.497  26.306  1.00  0.00     0.178 C 
ATOM     20  H   UNL A   1      30.276  26.175  25.994  1.00  0.00     0.163 HD
ATOM     21  S   UNL A   1      31.217  27.764  27.872  1.00  0.00    -0.040 S 
BRANCH  14  22
ATOM     22  C   UNL A   1      32.522  26.650  22.170  1.00  0.00     0.337 C 
ATOM     23  O   UNL A   1      33.561  26.229  21.689  1.00  0.00    -0.246 OA
BRANCH  22  24
ATOM     24  O   UNL A   1      31.360  26.858  21.500  1.00  0.00    -0.466 OA
ATOM     25  C   UNL A   1      30.529  27.857  22.094  1.00  0.00     0.282 C 
ENDBRANCH  22  24
ENDBRANCH  14  22
BRANCH  17  26
ATOM     26  C   UNL A   1      33.644  29.061  26.352  1.00  0.00     0.048 A 
ATOM     27  C   UNL A   1      34.877  28.607  26.829  1.00  0.00     0.027 A 
ATOM     28  C   UNL A   1      33.245  30.379  26.624  1.00  0.00     0.027 A 
ATOM     29  C   UNL A   1      35.689  29.452  27.590  1.00  0.00     0.002 A 
ATOM     30  C   UNL A   1      34.061  31.223  27.376  1.00  0.00     0.002 A 
ATOM     31  C   UNL A   1      35.280  30.757  27.864  1.00  0.00     0.000 A 
ENDBRANCH  17  26
ENDBRANCH   8  13
ENDBRANCH   4   7
ENDBRANCH   2   3
ENDBRANCH   1   2
BRANCH   1  32
ATOM     32  C   UNL A   1      38.325  23.347  26.220  1.00  0.00     0.023 C 
BRANCH  32  33
ATOM     33  C   UNL A   1      39.566  23.473  27.096  1.00  0.00     0.116 C 
BRANCH  33  34
ATOM     34  N   UNL A   1      40.779  23.722  26.334  1.00  0.00    -0.352 N 
ATOM     35  C   UNL A   1      41.620  24.808  26.396  1.00  0.00     0.251 C 
ATOM     36  H   UNL A   1      41.032  23.023  25.689  1.00  0.00     0.163 HD
ATOM     37  O   UNL A   1      42.548  24.912  25.600  1.00  0.00    -0.269 OA
BRANCH  35  38
ATOM     38  C   UNL A   1      41.368  25.865  27.397  1.00  0.00     0.039 A 
ATOM     39  C   UNL A   1      40.345  25.674  28.329  1.00  0.00     0.014 A 
ATOM     40  C   UNL A   1      42.149  27.023  27.431  1.00  0.00     0.014 A 
ATOM     41  C   UNL A   1      40.149  26.615  29.341  1.00  0.00     0.010 A 
ATOM     42  C   UNL A   1      41.987  27.934  28.471  1.00  0.00     0.010 A 
ATOM     43  C   UNL A   1      40.991  27.734  29.438  1.00  0.00    -0.014 A 
BRANCH  43  44
ATOM     44  C   UNL A   1      40.852  28.704  30.551  1.00  0.00     0.031 A 
ATOM     45  C   UNL A   1      41.721  28.579  31.771  1.00  0.00     0.074 A 
ATOM     46  C   UNL A   1      39.896  29.651  30.490  1.00  0.00     0.049 A 
ATOM     47  N   UNL A   1      41.693  29.276  32.877  1.00  0.00    -0.248 NA
ATOM     48  C   UNL A   1      42.737  27.515  31.754  1.00  0.00     0.031 C 
ATOM     49  C   UNL A   1      38.959  29.837  29.380  1.00  0.00     0.029 A 
ATOM     50  N   UNL A   1      39.544  30.626  31.389  1.00  0.00    -0.354 N 
ATOM     51  C   UNL A   1      42.672  28.725  33.695  1.00  0.00     0.074 A 
ATOM     52  C   UNL A   1      43.250  27.613  32.972  1.00  0.00     0.031 C 
ATOM     53  C   UNL A   1      38.148  30.870  29.659  1.00  0.00     0.029 A 
ATOM     54  C   UNL A   1      38.489  31.402  30.975  1.00  0.00     0.049 A 
ATOM     55  H   UNL A   1      40.005  30.756  32.249  1.00  0.00     0.167 HD
ATOM     56  C   UNL A   1      43.065  29.122  34.929  1.00  0.00     0.037 A 
ATOM     57  C   UNL A   1      37.865  32.425  31.589  1.00  0.00     0.037 A 
ATOM     58  C   UNL A   1      42.508  30.248  35.631  1.00  0.00     0.049 A 
ATOM     59  C   UNL A   1      38.342  32.870  32.943  1.00  0.00     0.074 A 
ATOM     60  C   UNL A   1      42.871  30.761  36.864  1.00  0.00     0.029 A 
ATOM     61  N   UNL A   1      41.472  31.039  35.158  1.00  0.00    -0.354 N 
ATOM     62  N   UNL A   1      39.301  32.367  33.683  1.00  0.00    -0.248 NA
ATOM     63  C   UNL A   1      37.658  34.024  33.543  1.00  0.00     0.031 C 
ATOM     64  C   UNL A   1      42.040  31.852  37.146  1.00  0.00     0.029 A 
ATOM     65  C   UNL A   1      41.179  32.034  36.075  1.00  0.00     0.049 A 
ATOM     66  H   UNL A   1      41.011  30.913  34.297  1.00  0.00     0.167 HD
ATOM     67  C   UNL A   1      39.349  33.154  34.827  1.00  0.00     0.074 A 
ATOM     68  C   UNL A   1      38.330  34.173  34.677  1.00  0.00     0.031 C 
ATOM     69  C   UNL A   1      40.165  33.044  35.904  1.00  0.00     0.037 A 
BRANCH  56  70
ATOM     70  C   UNL A   1      44.159  28.333  35.588  1.00  0.00     0.058 A 
ATOM     71  C   UNL A   1      43.871  27.256  36.442  1.00  0.00     0.135 A 
ATOM     72  C   UNL A   1      45.508  28.645  35.358  1.00  0.00     0.135 A 
ATOM     73  F   UNL A   1      42.597  26.928  36.709  1.00  0.00    -0.206 F 
ATOM     74  C   UNL A   1      44.881  26.538  37.072  1.00  0.00     0.059 A 
ATOM     75  C   UNL A   1      46.535  27.925  35.960  1.00  0.00     0.059 A 
ATOM     76  F   UNL A   1      45.837  29.667  34.551  1.00  0.00    -0.206 F 
ATOM     77  C   UNL A   1      46.211  26.885  36.829  1.00  0.00     0.060 A 
BRANCH  77  78
ATOM     78  S   UNL A   1      47.515  25.952  37.660  1.00  0.00     0.124 S 
ATOM     79  O   UNL A   1      47.637  24.788  36.789  1.00  0.00    -0.237 OA
ATOM     80  O   UNL A   1      48.638  26.884  37.633  1.00  0.00    -0.237 OA
ATOM     81  O   UNL A   1      46.954  25.692  38.982  1.00  0.00    -0.744 OA
ENDBRANCH  77  78
ENDBRANCH  56  70
BRANCH  57  82
ATOM     82  C   UNL A   1      36.739  33.116  30.911  1.00  0.00     0.058 A 
ATOM     83  C   UNL A   1      36.976  33.991  29.841  1.00  0.00     0.135 A 
ATOM     84  C   UNL A   1      35.410  32.895  31.297  1.00  0.00     0.135 A 
ATOM     85  F   UNL A   1      38.233  34.235  29.441  1.00  0.00    -0.206 F 
ATOM     86  C   UNL A   1      35.934  34.634  29.183  1.00  0.00     0.059 A 
ATOM     87  C   UNL A   1      34.348  33.512  30.641  1.00  0.00     0.059 A 
ATOM     88  F   UNL A   1      35.133  32.051  32.304  1.00  0.00    -0.206 F 
ATOM     89  C   UNL A   1      34.621  34.387  29.590  1.00  0.00     0.060 A 
BRANCH  89  90
ATOM     90  S   UNL A   1      33.268  35.175  28.691  1.00  0.00     0.124 S 
ATOM     91  O   UNL A   1      32.463  35.710  29.783  1.00  0.00    -0.237 OA
ATOM     92  O   UNL A   1      33.971  36.160  27.873  1.00  0.00    -0.237 OA
ATOM     93  O   UNL A   1      32.674  34.068  27.947  1.00  0.00    -0.744 OA
ENDBRANCH  89  90
ENDBRANCH  57  82
BRANCH  69  94
ATOM     94  C   UNL A   1      40.005  34.063  36.993  1.00  0.00     0.058 A 
ATOM     95  C   UNL A   1      40.711  35.275  36.970  1.00  0.00     0.135 A 
ATOM     96  C   UNL A   1      39.101  33.846  38.044  1.00  0.00     0.135 A 
ATOM     97  F   UNL A   1      41.593  35.526  35.990  1.00  0.00    -0.206 F 
ATOM     98  C   UNL A   1      40.536  36.234  37.962  1.00  0.00     0.059 A 
ATOM     99  C   UNL A   1      38.897  34.798  39.037  1.00  0.00     0.059 A 
ATOM    100  F   UNL A   1      38.398  32.703  38.104  1.00  0.00    -0.206 F 
ATOM    101  C   UNL A   1      39.627  35.986  38.993  1.00  0.00     0.060 A 
BRANCH 101 102
ATOM    102  S   UNL A   1      39.377  37.250  40.257  1.00  0.00     0.124 S 
ATOM    103  O   UNL A   1      40.749  37.660  40.537  1.00  0.00    -0.237 OA
ATOM    104  O   UNL A   1      38.549  38.233  39.563  1.00  0.00    -0.237 OA
ATOM    105  O   UNL A   1      38.706  36.524  41.331  1.00  0.00    -0.744 OA
ENDBRANCH 101 102
ENDBRANCH  69  94
ENDBRANCH  43  44
ENDBRANCH  35  38
ENDBRANCH  33  34
ENDBRANCH  32  33
ENDBRANCH   1  32
TORSDOF 18
ENDMDL
MODEL 2
REMARK VINA RESULT:     -12.0      1.534      8.334
REMARK SMILES COC(=O)C1=C(C)N(c2ccccc2)C(=S)N[C@@H]1c1ccc(C(=O)NCCCCNC(=O)c2ccc(-c3c4nc(c(-c5c(F)cc(S(=O)(=O)[O-])cc5F)c5ccc([nH]5)c(-c5c(F)cc(S(=O)(=O)[O-])cc5F)c5nc(c(-c6c(F)cc(S(=O)(=O)[O-])cc6F)c6ccc3[nH]6)C=C5)C=C4)cc2)cc1
REMARK SMILES IDX 27 1 26 2 25 3 23 4 24 5 22 7 19 8 20 9 100 10 21 11 99 12
REMARK SMILES IDX 18 13 5 14 6 15 7 16 8 17 17 18 15 19 16 21 3 22 4 23 2 24
REMARK SMILES IDX 1 25 9 26 10 27 14 28 11 29 13 30 12 31 28 32 29 33 30 34
REMARK SMILES IDX 31 35 32 37 33 38 34 39 98 40 35 41 97 42 36 43 37 44 38 45
REMARK SMILES IDX 91 46 39 47 96 48 90 49 92 50 40 51 95 52 89 53 88 54 41 56
REMARK SMILES IDX 75 57 54 58 74 59 55 60 58 61 73 62 93 63 56 64 57 65 72 67
REMARK SMILES IDX 94 68 59 69 42 70 43 71 52 72 44 73 45 74 51 75 53 76 46 77
REMARK SMILES IDX 47 78 48 79 49 80 50 81 76 82 77 83 86 84 78 85 79 86 85 87
REMARK SMILES IDX 87 88 80 89 81 90 82 91 83 92 84 93 60 94 61 95 70 96 62 97
REMARK SMILES IDX 63 98 69 99 71 100 64 101 65 102 66 103 67 104 68 105
REMARK H PARENT 25 6 17 20 30 36 92 55 58 66
REMARK Flexibility Score: inf
ROOT
ATOM      1  C   UNL A   1      39.600  21.814  25.974  1.00  0.00     0.023 C 
ENDROOT
BRANCH   1   2
ATOM      2  C   UNL A   1      38.156  22.291  25.804  1.00  0.00     0.116 C 
BRANCH   2   3
ATOM      3  N   UNL A   1      37.790  22.355  24.403  1.00  0.00    -0.352 N 
ATOM      4  C   UNL A   1      36.696  22.897  23.782  1.00  0.00     0.251 C 
ATOM      5  O   UNL A   1      36.657  22.900  22.553  1.00  0.00    -0.269 OA
ATOM      6  H   UNL A   1      38.440  21.935  23.793  1.00  0.00     0.163 HD
BRANCH   4   7
ATOM      7  C   UNL A   1      35.580  23.528  24.535  1.00  0.00     0.039 A 
ATOM      8  C   UNL A   1      33.399  24.802  25.814  1.00  0.00    -0.021 A 
ATOM      9  C   UNL A   1      33.823  25.203  24.536  1.00  0.00     0.007 A 
ATOM     10  C   UNL A   1      34.084  23.747  26.437  1.00  0.00     0.007 A 
ATOM     11  C   UNL A   1      34.892  24.565  23.901  1.00  0.00     0.014 A 
ATOM     12  C   UNL A   1      35.150  23.106  25.795  1.00  0.00     0.014 A 
BRANCH   8  13
ATOM     13  C   UNL A   1      32.262  25.495  26.560  1.00  0.00     0.151 C 
ATOM     14  C   UNL A   1      30.911  25.307  25.951  1.00  0.00     0.083 C 
ATOM     15  C   UNL A   1      30.336  26.247  25.168  1.00  0.00     0.035 C 
ATOM     16  C   UNL A   1      29.045  26.003  24.417  1.00  0.00     0.065 C 
ATOM     17  N   UNL A   1      31.004  27.486  24.981  1.00  0.00    -0.291 N 
ATOM     18  N   UNL A   1      32.550  26.903  26.666  1.00  0.00    -0.351 N 
ATOM     19  C   UNL A   1      32.082  27.859  25.814  1.00  0.00     0.178 C 
ATOM     20  H   UNL A   1      33.127  27.196  27.408  1.00  0.00     0.163 HD
ATOM     21  S   UNL A   1      32.807  29.370  25.957  1.00  0.00    -0.040 S 
BRANCH  14  22
ATOM     22  C   UNL A   1      30.351  23.947  26.129  1.00  0.00     0.337 C 
ATOM     23  O   UNL A   1      30.582  23.002  25.396  1.00  0.00    -0.246 OA
BRANCH  22  24
ATOM     24  O   UNL A   1      29.575  23.923  27.243  1.00  0.00    -0.466 OA
ATOM     25  C   UNL A   1      29.051  22.629  27.547  1.00  0.00     0.282 C 
ENDBRANCH  22  24
ENDBRANCH  14  22
BRANCH  17  26
ATOM     26  C   UNL A   1      30.651  28.364  23.901  1.00  0.00     0.048 A 
ATOM     27  C   UNL A   1      31.453  28.491  22.763  1.00  0.00     0.027 A 
ATOM     28  C   UNL A   1      29.476  29.126  24.002  1.00  0.00     0.027 A 
ATOM     29  C   UNL A   1      31.099  29.385  21.750  1.00  0.00     0.002 A 
ATOM     30  C   UNL A   1      29.119  30.011  22.985  1.00  0.00     0.002 A 
ATOM     31  C   UNL A   1      29.934  30.145  21.863  1.00  0.00     0.000 A 
ENDBRANCH  17  26
ENDBRANCH   8  13
ENDBRANCH   4   7
ENDBRANCH   2   3
ENDBRANCH   1   2
BRANCH   1  32
ATOM     32  C   UNL A   1      40.173  21.997  27.381  1.00  0.00     0.023 C 
BRANCH  32  33
ATOM     33  C   UNL A   1      41.128  23.174  27.543  1.00  0.00     0.116 C 
BRANCH  33  34
ATOM     34  N   UNL A   1      41.172  24.036  26.374  1.00  0.00    -0.352 N 
ATOM     35  C   UNL A   1      41.082  25.407  26.318  1.00  0.00     0.251 C 
ATOM     36  H   UNL A   1      41.281  23.580  25.508  1.00  0.00     0.163 HD
ATOM     37  O   UNL A   1      41.028  25.976  25.232  1.00  0.00    -0.269 OA
BRANCH  35  38
ATOM     38  C   UNL A   1      41.005  26.181  27.574  1.00  0.00     0.039 A 
ATOM     39  C   UNL A   1      42.043  27.066  27.879  1.00  0.00     0.014 A 
ATOM     40  C   UNL A   1      39.908  26.054  28.430  1.00  0.00     0.014 A 
ATOM     41  C   UNL A   1      41.948  27.875  29.012  1.00  0.00     0.010 A 
ATOM     42  C   UNL A   1      39.790  26.900  29.530  1.00  0.00     0.010 A 
ATOM     43  C   UNL A   1      40.806  27.821  29.826  1.00  0.00    -0.014 A 
BRANCH  43  44
ATOM     44  C   UNL A   1      40.648  28.729  30.988  1.00  0.00     0.031 A 
ATOM     45  C   UNL A   1      39.608  29.813  30.961  1.00  0.00     0.074 A 
ATOM     46  C   UNL A   1      41.489  28.618  32.034  1.00  0.00     0.049 A 
ATOM     47  N   UNL A   1      39.373  30.752  31.841  1.00  0.00    -0.248 NA
ATOM     48  C   UNL A   1      38.734  29.862  29.778  1.00  0.00     0.031 C 
ATOM     49  C   UNL A   1      42.571  27.638  32.151  1.00  0.00     0.029 A 
ATOM     50  N   UNL A   1      41.576  29.348  33.193  1.00  0.00    -0.354 N 
ATOM     51  C   UNL A   1      38.340  31.515  31.311  1.00  0.00     0.074 A 
ATOM     52  C   UNL A   1      38.018  30.951  30.017  1.00  0.00     0.031 C 
ATOM     53  C   UNL A   1      43.204  27.820  33.321  1.00  0.00     0.029 A 
ATOM     54  C   UNL A   1      42.592  28.943  34.024  1.00  0.00     0.049 A 
ATOM     55  H   UNL A   1      40.966  30.091  33.408  1.00  0.00     0.167 HD
ATOM     56  C   UNL A   1      37.704  32.577  31.862  1.00  0.00     0.037 A 
ATOM     57  C   UNL A   1      42.986  29.425  35.218  1.00  0.00     0.037 A 
ATOM     58  C   UNL A   1      38.008  33.115  33.162  1.00  0.00     0.049 A 
ATOM     59  C   UNL A   1      42.244  30.583  35.825  1.00  0.00     0.074 A 
ATOM     60  C   UNL A   1      37.389  34.158  33.829  1.00  0.00     0.029 A 
ATOM     61  N   UNL A   1      39.013  32.647  33.995  1.00  0.00    -0.354 N 
ATOM     62  N   UNL A   1      41.237  31.263  35.331  1.00  0.00    -0.248 NA
ATOM     63  C   UNL A   1      42.685  31.033  37.152  1.00  0.00     0.031 C 
ATOM     64  C   UNL A   1      38.035  34.333  35.059  1.00  0.00     0.029 A 
ATOM     65  C   UNL A   1      39.037  33.381  35.168  1.00  0.00     0.049 A 
ATOM     66  H   UNL A   1      39.622  31.902  33.783  1.00  0.00     0.167 HD
ATOM     67  C   UNL A   1      40.912  32.210  36.295  1.00  0.00     0.074 A 
ATOM     68  C   UNL A   1      41.822  32.008  37.404  1.00  0.00     0.031 C 
ATOM     69  C   UNL A   1      39.946  33.160  36.263  1.00  0.00     0.037 A 
BRANCH  56  70
ATOM     70  C   UNL A   1      36.611  33.217  31.056  1.00  0.00     0.058 A 
ATOM     71  C   UNL A   1      36.900  34.059  29.970  1.00  0.00     0.135 A 
ATOM     72  C   UNL A   1      35.262  32.980  31.362  1.00  0.00     0.135 A 
ATOM     73  F   UNL A   1      38.174  34.331  29.647  1.00  0.00    -0.206 F 
ATOM     74  C   UNL A   1      35.890  34.670  29.236  1.00  0.00     0.059 A 
ATOM     75  C   UNL A   1      34.235  33.564  30.627  1.00  0.00     0.059 A 
ATOM     76  F   UNL A   1      34.932  32.184  32.392  1.00  0.00    -0.206 F 
ATOM     77  C   UNL A   1      34.560  34.422  29.576  1.00  0.00     0.060 A 
BRANCH  77  78
ATOM     78  S   UNL A   1      33.256  35.230  28.624  1.00  0.00     0.124 S 
ATOM     79  O   UNL A   1      32.509  35.911  29.678  1.00  0.00    -0.237 OA
ATOM     80  O   UNL A   1      34.011  36.095  27.723  1.00  0.00    -0.237 OA
ATOM     81  O   UNL A   1      32.565  34.115  27.984  1.00  0.00    -0.744 OA
ENDBRANCH  77  78
ENDBRANCH  56  70
BRANCH  57  82
ATOM     82  C   UNL A   1      44.125  28.791  35.929  1.00  0.00     0.058 A 
ATOM     83  C   UNL A   1      43.912  27.730  36.821  1.00  0.00     0.135 A 
ATOM     84  C   UNL A   1      45.445  29.210  35.712  1.00  0.00     0.135 A 
ATOM     85  F   UNL A   1      42.664  27.298  37.062  1.00  0.00    -0.206 F 
ATOM     86  C   UNL A   1      44.966  27.112  37.483  1.00  0.00     0.059 A 
ATOM     87  C   UNL A   1      46.520  28.596  36.349  1.00  0.00     0.059 A 
ATOM     88  F   UNL A   1      45.701  30.210  34.853  1.00  0.00    -0.206 F 
ATOM     89  C   UNL A   1      46.269  27.552  37.239  1.00  0.00     0.060 A 
BRANCH  89  90
ATOM     90  S   UNL A   1      47.640  26.705  38.053  1.00  0.00     0.124 S 
ATOM     91  O   UNL A   1      47.869  25.583  37.150  1.00  0.00    -0.237 OA
ATOM     92  O   UNL A   1      48.676  27.734  38.068  1.00  0.00    -0.237 OA
ATOM     93  O   UNL A   1      47.091  26.363  39.362  1.00  0.00    -0.744 OA
ENDBRANCH  89  90
ENDBRANCH  57  82
BRANCH  69  94
ATOM     94  C   UNL A   1      39.807  34.038  37.472  1.00  0.00     0.058 A 
ATOM     95  C   UNL A   1      38.949  33.698  38.529  1.00  0.00     0.135 A 
ATOM     96  C   UNL A   1      40.576  35.205  37.596  1.00  0.00     0.135 A 
ATOM     97  F   UNL A   1      38.187  32.595  38.454  1.00  0.00    -0.206 F 
ATOM     98  C   UNL A   1      38.848  34.495  39.664  1.00  0.00     0.059 A 
ATOM     99  C   UNL A   1      40.504  36.007  38.731  1.00  0.00     0.059 A 
ATOM    100  F   UNL A   1      41.417  35.568  36.614  1.00  0.00    -0.206 F 
ATOM    101  C   UNL A   1      39.629  35.648  39.755  1.00  0.00     0.060 A 
BRANCH 101 102
ATOM    102  S   UNL A   1      39.520  36.659  41.248  1.00  0.00     0.124 S 
ATOM    103  O   UNL A   1      38.922  37.884  40.730  1.00  0.00    -0.237 OA
ATOM    104  O   UNL A   1      38.665  35.852  42.115  1.00  0.00    -0.237 OA
ATOM    105  O   UNL A   1      40.910  36.771  41.681  1.00  0.00    -0.744 OA
ENDBRANCH 101 102
ENDBRANCH  69  94
ENDBRANCH  43  44
ENDBRANCH  35  38
ENDBRANCH  33  34
ENDBRANCH  32  33
ENDBRANCH   1  32
TORSDOF 18
ENDMDL
MODEL 3
REMARK VINA RESULT:     -11.8      1.519      2.712
REMARK SMILES COC(=O)C1=C(C)N(c2ccccc2)C(=S)N[C@@H]1c1ccc(C(=O)NCCCCNC(=O)c2ccc(-c3c4nc(c(-c5c(F)cc(S(=O)(=O)[O-])cc5F)c5ccc([nH]5)c(-c5c(F)cc(S(=O)(=O)[O-])cc5F)c5nc(c(-c6c(F)cc(S(=O)(=O)[O-])cc6F)c6ccc3[nH]6)C=C5)C=C4)cc2)cc1
REMARK SMILES IDX 27 1 26 2 25 3 23 4 24 5 22 7 19 8 20 9 100 10 21 11 99 12
REMARK SMILES IDX 18 13 5 14 6 15 7 16 8 17 17 18 15 19 16 21 3 22 4 23 2 24
REMARK SMILES IDX 1 25 9 26 10 27 14 28 11 29 13 30 12 31 28 32 29 33 30 34
REMARK SMILES IDX 31 35 32 37 33 38 34 39 98 40 35 41 97 42 36 43 37 44 38 45
REMARK SMILES IDX 91 46 39 47 96 48 90 49 92 50 40 51 95 52 89 53 88 54 41 56
REMARK SMILES IDX 75 57 54 58 74 59 55 60 58 61 73 62 93 63 56 64 57 65 72 67
REMARK SMILES IDX 94 68 59 69 42 70 43 71 52 72 44 73 45 74 51 75 53 76 46 77
REMARK SMILES IDX 47 78 48 79 49 80 50 81 76 82 77 83 86 84 78 85 79 86 85 87
REMARK SMILES IDX 87 88 80 89 81 90 82 91 83 92 84 93 60 94 61 95 70 96 62 97
REMARK SMILES IDX 63 98 69 99 71 100 64 101 65 102 66 103 67 104 68 105
REMARK H PARENT 25 6 17 20 30 36 92 55 58 66
REMARK Flexibility Score: inf
ROOT
ATOM      1  C   UNL A   1      38.774  22.423  26.614  1.00  0.00     0.023 C 
ENDROOT
BRANCH   1   2
ATOM      2  C   UNL A   1      38.315  23.614  25.773  1.00  0.00     0.116 C 
BRANCH   2   3
ATOM      3  N   UNL A   1      37.792  23.177  24.493  1.00  0.00    -0.352 N 
ATOM      4  C   UNL A   1      36.546  23.308  23.938  1.00  0.00     0.251 C 
ATOM      5  O   UNL A   1      36.372  22.922  22.783  1.00  0.00    -0.269 OA
ATOM      6  H   UNL A   1      38.444  22.704  23.927  1.00  0.00     0.163 HD
BRANCH   4   7
ATOM      7  C   UNL A   1      35.413  23.946  24.658  1.00  0.00     0.039 A 
ATOM      8  C   UNL A   1      33.199  25.227  25.872  1.00  0.00    -0.021 A 
ATOM      9  C   UNL A   1      33.632  25.595  24.587  1.00  0.00     0.007 A 
ATOM     10  C   UNL A   1      33.891  24.201  26.534  1.00  0.00     0.007 A 
ATOM     11  C   UNL A   1      34.718  24.953  23.985  1.00  0.00     0.014 A 
ATOM     12  C   UNL A   1      34.973  23.556  25.925  1.00  0.00     0.014 A 
BRANCH   8  13
ATOM     13  C   UNL A   1      32.043  25.926  26.583  1.00  0.00     0.151 C 
ATOM     14  C   UNL A   1      30.699  25.679  25.980  1.00  0.00     0.083 C 
ATOM     15  C   UNL A   1      30.104  26.567  25.153  1.00  0.00     0.035 C 
ATOM     16  C   UNL A   1      28.821  26.258  24.412  1.00  0.00     0.065 C 
ATOM     17  N   UNL A   1      30.743  27.812  24.911  1.00  0.00    -0.291 N 
ATOM     18  N   UNL A   1      32.297  27.344  26.624  1.00  0.00    -0.351 N 
ATOM     19  C   UNL A   1      31.809  28.249  25.727  1.00  0.00     0.178 C 
ATOM     20  H   UNL A   1      32.865  27.685  27.353  1.00  0.00     0.163 HD
ATOM     21  S   UNL A   1      32.497  29.781  25.802  1.00  0.00    -0.040 S 
BRANCH  14  22
ATOM     22  C   UNL A   1      30.170  24.315  26.220  1.00  0.00     0.337 C 
ATOM     23  O   UNL A   1      29.503  23.992  27.187  1.00  0.00    -0.246 OA
BRANCH  22  24
ATOM     24  O   UNL A   1      30.521  23.509  25.186  1.00  0.00    -0.466 OA
ATOM     25  C   UNL A   1      31.058  22.251  25.599  1.00  0.00     0.282 C 
ENDBRANCH  22  24
ENDBRANCH  14  22
BRANCH  17  26
ATOM     26  C   UNL A   1      30.372  28.630  23.791  1.00  0.00     0.048 A 
ATOM     27  C   UNL A   1      31.082  28.595  22.586  1.00  0.00     0.027 A 
ATOM     28  C   UNL A   1      29.277  29.500  23.917  1.00  0.00     0.027 A 
ATOM     29  C   UNL A   1      30.717  29.435  21.532  1.00  0.00     0.002 A 
ATOM     30  C   UNL A   1      28.909  30.330  22.860  1.00  0.00     0.002 A 
ATOM     31  C   UNL A   1      29.633  30.302  21.670  1.00  0.00     0.000 A 
ENDBRANCH  17  26
ENDBRANCH   8  13
ENDBRANCH   4   7
ENDBRANCH   2   3
ENDBRANCH   1   2
BRANCH   1  32
ATOM     32  C   UNL A   1      40.258  22.075  26.476  1.00  0.00     0.023 C 
BRANCH  32  33
ATOM     33  C   UNL A   1      41.223  23.172  26.912  1.00  0.00     0.116 C 
BRANCH  33  34
ATOM     34  N   UNL A   1      41.688  23.994  25.807  1.00  0.00    -0.352 N 
ATOM     35  C   UNL A   1      41.924  25.348  25.789  1.00  0.00     0.251 C 
ATOM     36  H   UNL A   1      41.855  23.520  24.961  1.00  0.00     0.163 HD
ATOM     37  O   UNL A   1      42.213  25.908  24.736  1.00  0.00    -0.269 OA
BRANCH  35  38
ATOM     38  C   UNL A   1      41.784  26.127  27.038  1.00  0.00     0.039 A 
ATOM     39  C   UNL A   1      42.780  27.050  27.366  1.00  0.00     0.014 A 
ATOM     40  C   UNL A   1      40.668  25.965  27.863  1.00  0.00     0.014 A 
ATOM     41  C   UNL A   1      42.623  27.862  28.491  1.00  0.00     0.010 A 
ATOM     42  C   UNL A   1      40.488  26.812  28.953  1.00  0.00     0.010 A 
ATOM     43  C   UNL A   1      41.461  27.771  29.272  1.00  0.00    -0.014 A 
BRANCH  43  44
ATOM     44  C   UNL A   1      41.237  28.679  30.423  1.00  0.00     0.031 A 
ATOM     45  C   UNL A   1      42.078  28.546  31.661  1.00  0.00     0.074 A 
ATOM     46  C   UNL A   1      40.231  29.573  30.376  1.00  0.00     0.049 A 
ATOM     47  N   UNL A   1      41.980  29.188  32.797  1.00  0.00    -0.248 NA
ATOM     48  C   UNL A   1      43.153  27.542  31.627  1.00  0.00     0.031 C 
ATOM     49  C   UNL A   1      39.316  29.759  29.247  1.00  0.00     0.029 A 
ATOM     50  N   UNL A   1      39.800  30.484  31.306  1.00  0.00    -0.354 N 
ATOM     51  C   UNL A   1      42.965  28.655  33.618  1.00  0.00     0.074 A 
ATOM     52  C   UNL A   1      43.625  27.611  32.863  1.00  0.00     0.031 C 
ATOM     53  C   UNL A   1      38.440  30.731  29.548  1.00  0.00     0.029 A 
ATOM     54  C   UNL A   1      38.714  31.219  30.896  1.00  0.00     0.049 A 
ATOM     55  H   UNL A   1      40.229  30.599  32.185  1.00  0.00     0.167 HD
ATOM     56  C   UNL A   1      43.302  29.015  34.879  1.00  0.00     0.037 A 
ATOM     57  C   UNL A   1      38.016  32.176  31.537  1.00  0.00     0.037 A 
ATOM     58  C   UNL A   1      42.662  30.074  35.614  1.00  0.00     0.049 A 
ATOM     59  C   UNL A   1      38.430  32.583  32.923  1.00  0.00     0.074 A 
ATOM     60  C   UNL A   1      42.962  30.549  36.880  1.00  0.00     0.029 A 
ATOM     61  N   UNL A   1      41.597  30.828  35.147  1.00  0.00    -0.354 N 
ATOM     62  N   UNL A   1      39.395  32.100  33.668  1.00  0.00    -0.248 NA
ATOM     63  C   UNL A   1      37.665  33.669  33.553  1.00  0.00     0.031 C 
ATOM     64  C   UNL A   1      42.063  31.577  37.185  1.00  0.00     0.029 A 
ATOM     65  C   UNL A   1      41.222  31.762  36.098  1.00  0.00     0.049 A 
ATOM     66  H   UNL A   1      41.168  30.716  34.267  1.00  0.00     0.167 HD
ATOM     67  C   UNL A   1      39.367  32.835  34.847  1.00  0.00     0.074 A 
ATOM     68  C   UNL A   1      38.296  33.802  34.713  1.00  0.00     0.031 C 
ATOM     69  C   UNL A   1      40.158  32.720  35.942  1.00  0.00     0.037 A 
BRANCH  56  70
ATOM     70  C   UNL A   1      44.420  28.258  35.535  1.00  0.00     0.058 A 
ATOM     71  C   UNL A   1      44.168  27.141  36.348  1.00  0.00     0.135 A 
ATOM     72  C   UNL A   1      45.756  28.643  35.343  1.00  0.00     0.135 A 
ATOM     73  F   UNL A   1      42.907  26.742  36.577  1.00  0.00    -0.206 F 
ATOM     74  C   UNL A   1      45.201  26.451  36.974  1.00  0.00     0.059 A 
ATOM     75  C   UNL A   1      46.806  27.953  35.942  1.00  0.00     0.059 A 
ATOM     76  F   UNL A   1      46.050  29.705  34.577  1.00  0.00    -0.206 F 
ATOM     77  C   UNL A   1      46.516  26.869  36.771  1.00  0.00     0.060 A 
BRANCH  77  78
ATOM     78  S   UNL A   1      47.848  25.974  37.598  1.00  0.00     0.124 S 
ATOM     79  O   UNL A   1      48.231  26.923  38.638  1.00  0.00    -0.237 OA
ATOM     80  O   UNL A   1      47.177  24.764  38.061  1.00  0.00    -0.237 OA
ATOM     81  O   UNL A   1      48.830  25.774  36.537  1.00  0.00    -0.744 OA
ENDBRANCH  77  78
ENDBRANCH  56  70
BRANCH  57  82
ATOM     82  C   UNL A   1      36.872  32.835  30.857  1.00  0.00     0.058 A 
ATOM     83  C   UNL A   1      35.552  32.510  31.200  1.00  0.00     0.135 A 
ATOM     84  C   UNL A   1      37.073  33.816  29.876  1.00  0.00     0.135 A 
ATOM     85  F   UNL A   1      35.312  31.574  32.131  1.00  0.00    -0.206 F 
ATOM     86  C   UNL A   1      34.468  33.128  30.588  1.00  0.00     0.059 A 
ATOM     87  C   UNL A   1      36.005  34.462  29.261  1.00  0.00     0.059 A 
ATOM     88  F   UNL A   1      38.320  34.173  29.527  1.00  0.00    -0.206 F 
ATOM     89  C   UNL A   1      34.705  34.105  29.618  1.00  0.00     0.060 A 
BRANCH  89  90
ATOM     90  S   UNL A   1      33.294  34.949  28.871  1.00  0.00     0.124 S 
ATOM     91  O   UNL A   1      33.946  36.064  28.193  1.00  0.00    -0.237 OA
ATOM     92  O   UNL A   1      32.736  33.914  28.005  1.00  0.00    -0.237 OA
ATOM     93  O   UNL A   1      32.469  35.302  30.022  1.00  0.00    -0.744 OA
ENDBRANCH  89  90
ENDBRANCH  57  82
BRANCH  69  94
ATOM     94  C   UNL A   1      39.911  33.677  37.071  1.00  0.00     0.058 A 
ATOM     95  C   UNL A   1      40.567  34.915  37.138  1.00  0.00     0.135 A 
ATOM     96  C   UNL A   1      38.972  33.373  38.068  1.00  0.00     0.135 A 
ATOM     97  F   UNL A   1      41.480  35.248  36.211  1.00  0.00    -0.206 F 
ATOM     98  C   UNL A   1      40.311  35.816  38.166  1.00  0.00     0.059 A 
ATOM     99  C   UNL A   1      38.687  34.267  39.096  1.00  0.00     0.059 A 
ATOM    100  F   UNL A   1      38.313  32.203  38.043  1.00  0.00    -0.206 F 
ATOM    101  C   UNL A   1      39.370  35.482  39.142  1.00  0.00     0.060 A 
BRANCH 101 102
ATOM    102  S   UNL A   1      39.015  36.671  40.453  1.00  0.00     0.124 S 
ATOM    103  O   UNL A   1      38.017  35.953  41.238  1.00  0.00    -0.237 OA
ATOM    104  O   UNL A   1      40.319  36.842  41.087  1.00  0.00    -0.237 OA
ATOM    105  O   UNL A   1      38.523  37.838  39.726  1.00  0.00    -0.744 OA
ENDBRANCH 101 102
ENDBRANCH  69  94
ENDBRANCH  43  44
ENDBRANCH  35  38
ENDBRANCH  33  34
ENDBRANCH  32  33
ENDBRANCH   1  32
TORSDOF 18
ENDMDL
