MODEL 1
REMARK VINA RESULT:     -13.3      0.000      0.000
REMARK SMILES Cc1ccc(Nc2c(F)cccc2Cl)c(CC(=O)NCCCCNC(=O)c2ccc(-c3c4nc(c(-c5c(F)cc(S(=O)(=O)[O-])cc5F)c5ccc([nH]5)c(-c5c(F)cc(S(=O)(=O)[O-])cc5F)c5nc(c(-c6c(F)cc(S(=O)(=O)[O-])cc6F)c6ccc3[nH]6)C=C5)C=C4)cc2)c1
REMARK SMILES IDX 21 1 20 2 19 3 17 4 18 5 16 7 15 8 1 9 2 10 3 11 93 12 4 13
REMARK SMILES IDX 5 14 6 15 7 17 8 18 13 19 9 20 10 21 12 22 14 23 11 24 22 25
REMARK SMILES IDX 23 26 24 27 25 28 26 30 27 31 28 32 92 33 29 34 91 35 30 36
REMARK SMILES IDX 31 37 32 38 85 39 33 40 90 41 84 42 86 43 34 44 89 45 83 46
REMARK SMILES IDX 82 47 35 49 69 50 48 51 68 52 49 53 52 54 67 55 87 56 50 57
REMARK SMILES IDX 51 58 66 60 88 61 53 62 36 63 37 64 46 65 38 66 39 67 45 68
REMARK SMILES IDX 47 69 40 70 41 71 42 72 43 73 44 74 70 75 71 76 80 77 72 78
REMARK SMILES IDX 73 79 79 80 81 81 74 82 75 83 76 84 77 85 78 86 54 87 55 88
REMARK SMILES IDX 64 89 56 90 57 91 63 92 65 93 58 94 59 95 60 96 61 97 62 98
REMARK H PARENT 19 6 6 16 24 29 86 48 52 59
REMARK Flexibility Score: inf
ROOT
ATOM      1  C   UNL A   1      32.175  29.260  26.851  1.00  0.00     0.023 C 
ENDROOT
BRANCH   1   2
ATOM      2  C   UNL A   1      31.840  28.163  25.828  1.00  0.00     0.116 C 
BRANCH   2   3
ATOM      3  N   UNL A   1      31.482  26.893  26.441  1.00  0.00    -0.356 N 
ATOM      4  C   UNL A   1      32.149  25.707  26.443  1.00  0.00     0.224 C 
ATOM      5  O   UNL A   1      31.601  24.716  26.937  1.00  0.00    -0.275 OA
ATOM      6  H   UNL A   1      30.626  26.892  26.929  1.00  0.00     0.163 HD
BRANCH   4   7
ATOM      7  C   UNL A   1      33.527  25.578  25.823  1.00  0.00     0.137 C 
BRANCH   7   8
ATOM      8  C   UNL A   1      33.513  24.950  24.447  1.00  0.00    -0.015 A 
ATOM      9  C   UNL A   1      31.971  25.902  21.080  1.00  0.00     0.044 C 
ATOM     10  C   UNL A   1      32.732  25.155  22.134  1.00  0.00    -0.051 A 
ATOM     11  C   UNL A   1      33.202  23.870  21.883  1.00  0.00     0.005 A 
ATOM     12  C   UNL A   1      32.921  25.700  23.406  1.00  0.00     0.009 A 
ATOM     13  C   UNL A   1      33.839  23.139  22.890  1.00  0.00     0.026 A 
ATOM     14  C   UNL A   1      33.995  23.645  24.191  1.00  0.00     0.042 A 
BRANCH  14  15
ATOM     15  N   UNL A   1      34.615  22.878  25.203  1.00  0.00    -0.352 N 
ATOM     16  H   UNL A   1      34.231  22.983  26.104  1.00  0.00     0.167 HD
BRANCH  15  17
ATOM     17  C   UNL A   1      35.707  21.983  25.116  1.00  0.00     0.094 A 
ATOM     18  C   UNL A   1      35.536  20.609  24.881  1.00  0.00     0.148 A 
ATOM     19  C   UNL A   1      37.020  22.429  25.363  1.00  0.00     0.067 A 
ATOM     20  F   UNL A   1      34.317  20.113  24.612  1.00  0.00    -0.205 F 
ATOM     21  C   UNL A   1      36.608  19.716  24.898  1.00  0.00     0.041 A 
ATOM     22  C   UNL A   1      38.101  21.537  25.386  1.00  0.00     0.023 A 
ATOM     23  Cl  UNL A   1      37.351  24.095  25.696  1.00  0.00    -0.082 Cl
ATOM     24  C   UNL A   1      37.894  20.178  25.157  1.00  0.00     0.005 A 
ENDBRANCH  15  17
ENDBRANCH  14  15
ENDBRANCH   7   8
ENDBRANCH   4   7
ENDBRANCH   2   3
ENDBRANCH   1   2
BRANCH   1  25
ATOM     25  C   UNL A   1      33.470  29.057  27.640  1.00  0.00     0.023 C 
BRANCH  25  26
ATOM     26  C   UNL A   1      34.713  29.495  26.879  1.00  0.00     0.116 C 
BRANCH  26  27
ATOM     27  N   UNL A   1      35.313  30.720  27.374  1.00  0.00    -0.352 N 
ATOM     28  C   UNL A   1      36.472  30.855  28.139  1.00  0.00     0.251 C 
ATOM     29  H   UNL A   1      34.846  31.556  27.142  1.00  0.00     0.163 HD
ATOM     30  O   UNL A   1      36.791  31.888  28.651  1.00  0.00    -0.269 OA
BRANCH  28  31
ATOM     31  C   UNL A   1      37.353  29.660  28.200  1.00  0.00     0.039 A 
ATOM     32  C   UNL A   1      37.422  28.985  29.424  1.00  0.00     0.014 A 
ATOM     33  C   UNL A   1      38.270  29.404  27.185  1.00  0.00     0.014 A 
ATOM     34  C   UNL A   1      38.531  28.191  29.704  1.00  0.00     0.010 A 
ATOM     35  C   UNL A   1      39.405  28.674  27.491  1.00  0.00     0.010 A 
ATOM     36  C   UNL A   1      39.563  28.119  28.771  1.00  0.00    -0.014 A 
BRANCH  36  37
ATOM     37  C   UNL A   1      40.889  27.590  29.074  1.00  0.00     0.031 A 
ATOM     38  C   UNL A   1      41.224  26.182  28.763  1.00  0.00     0.074 A 
ATOM     39  C   UNL A   1      41.856  28.420  29.529  1.00  0.00     0.049 A 
ATOM     40  N   UNL A   1      42.333  25.614  29.099  1.00  0.00    -0.248 NA
ATOM     41  C   UNL A   1      40.292  25.268  28.103  1.00  0.00     0.031 C 
ATOM     42  C   UNL A   1      43.300  28.200  29.503  1.00  0.00     0.029 A 
ATOM     43  N   UNL A   1      41.692  29.538  30.353  1.00  0.00    -0.354 N 
ATOM     44  C   UNL A   1      42.392  24.409  28.450  1.00  0.00     0.074 A 
ATOM     45  C   UNL A   1      41.056  24.180  27.961  1.00  0.00     0.031 C 
ATOM     46  C   UNL A   1      43.872  28.951  30.454  1.00  0.00     0.029 A 
ATOM     47  C   UNL A   1      42.805  29.557  31.225  1.00  0.00     0.049 A 
ATOM     48  H   UNL A   1      40.949  30.183  30.330  1.00  0.00     0.167 HD
ATOM     49  C   UNL A   1      43.603  23.811  28.281  1.00  0.00     0.037 A 
ATOM     50  C   UNL A   1      42.630  29.391  32.571  1.00  0.00     0.037 A 
ATOM     51  C   UNL A   1      44.587  24.331  29.232  1.00  0.00     0.049 A 
ATOM     52  C   UNL A   1      43.245  28.129  33.145  1.00  0.00     0.074 A 
ATOM     53  C   UNL A   1      45.727  25.111  29.170  1.00  0.00     0.029 A 
ATOM     54  N   UNL A   1      44.293  24.204  30.580  1.00  0.00    -0.354 N 
ATOM     55  N   UNL A   1      43.956  27.269  32.467  1.00  0.00    -0.248 NA
ATOM     56  C   UNL A   1      43.037  27.701  34.532  1.00  0.00     0.031 C 
ATOM     57  C   UNL A   1      46.044  25.534  30.503  1.00  0.00     0.029 A 
ATOM     58  C   UNL A   1      45.122  24.974  31.370  1.00  0.00     0.049 A 
ATOM     59  H   UNL A   1      43.574  23.632  30.934  1.00  0.00     0.167 HD
ATOM     60  C   UNL A   1      44.220  26.178  33.252  1.00  0.00     0.074 A 
ATOM     61  C   UNL A   1      43.652  26.507  34.546  1.00  0.00     0.031 C 
ATOM     62  C   UNL A   1      44.832  25.049  32.793  1.00  0.00     0.037 A 
BRANCH  49  63
ATOM     63  C   UNL A   1      43.912  22.828  27.174  1.00  0.00     0.058 A 
ATOM     64  C   UNL A   1      43.205  21.613  27.069  1.00  0.00     0.135 A 
ATOM     65  C   UNL A   1      44.992  22.961  26.268  1.00  0.00     0.135 A 
ATOM     66  F   UNL A   1      42.183  21.337  27.893  1.00  0.00    -0.206 F 
ATOM     67  C   UNL A   1      43.541  20.616  26.144  1.00  0.00     0.059 A 
ATOM     68  C   UNL A   1      45.310  22.009  25.302  1.00  0.00     0.059 A 
ATOM     69  F   UNL A   1      45.851  23.987  26.325  1.00  0.00    -0.206 F 
ATOM     70  C   UNL A   1      44.597  20.823  25.264  1.00  0.00     0.060 A 
BRANCH  70  71
ATOM     71  S   UNL A   1      45.073  19.532  24.098  1.00  0.00     0.124 S 
ATOM     72  O   UNL A   1      44.531  20.049  22.845  1.00  0.00    -0.237 OA
ATOM     73  O   UNL A   1      46.527  19.524  24.209  1.00  0.00    -0.237 OA
ATOM     74  O   UNL A   1      44.406  18.342  24.622  1.00  0.00    -0.744 OA
ENDBRANCH  70  71
ENDBRANCH  49  63
BRANCH  50  75
ATOM     75  C   UNL A   1      41.403  30.074  33.066  1.00  0.00     0.058 A 
ATOM     76  C   UNL A   1      41.444  31.480  33.161  1.00  0.00     0.135 A 
ATOM     77  C   UNL A   1      40.145  29.463  32.995  1.00  0.00     0.135 A 
ATOM     78  F   UNL A   1      42.626  32.114  33.251  1.00  0.00    -0.206 F 
ATOM     79  C   UNL A   1      40.303  32.254  33.000  1.00  0.00     0.059 A 
ATOM     80  C   UNL A   1      38.984  30.222  32.848  1.00  0.00     0.059 A 
ATOM     81  F   UNL A   1      40.045  28.128  32.908  1.00  0.00    -0.206 F 
ATOM     82  C   UNL A   1      39.089  31.611  32.770  1.00  0.00     0.060 A 
BRANCH  82  83
ATOM     83  S   UNL A   1      37.715  32.614  32.158  1.00  0.00     0.124 S 
ATOM     84  O   UNL A   1      36.790  31.597  31.669  1.00  0.00    -0.237 OA
ATOM     85  O   UNL A   1      37.303  33.310  33.376  1.00  0.00    -0.237 OA
ATOM     86  O   UNL A   1      38.339  33.447  31.137  1.00  0.00    -0.744 OA
ENDBRANCH  82  83
ENDBRANCH  50  75
BRANCH  62  87
ATOM     87  C   UNL A   1      45.153  23.892  33.696  1.00  0.00     0.058 A 
ATOM     88  C   UNL A   1      46.444  23.702  34.218  1.00  0.00     0.135 A 
ATOM     89  C   UNL A   1      44.210  22.882  33.974  1.00  0.00     0.135 A 
ATOM     90  F   UNL A   1      47.415  24.596  33.977  1.00  0.00    -0.206 F 
ATOM     91  C   UNL A   1      46.774  22.591  34.994  1.00  0.00     0.059 A 
ATOM     92  C   UNL A   1      44.528  21.742  34.709  1.00  0.00     0.059 A 
ATOM     93  F   UNL A   1      42.937  22.990  33.561  1.00  0.00    -0.206 F 
ATOM     94  C   UNL A   1      45.809  21.614  35.232  1.00  0.00     0.060 A 
BRANCH  94  95
ATOM     95  S   UNL A   1      46.239  20.154  36.201  1.00  0.00     0.124 S 
ATOM     96  O   UNL A   1      47.680  20.042  35.996  1.00  0.00    -0.237 OA
ATOM     97  O   UNL A   1      45.823  20.561  37.539  1.00  0.00    -0.237 OA
ATOM     98  O   UNL A   1      45.444  19.097  35.585  1.00  0.00    -0.744 OA
ENDBRANCH  94  95
ENDBRANCH  62  87
ENDBRANCH  36  37
ENDBRANCH  28  31
ENDBRANCH  26  27
ENDBRANCH  25  26
ENDBRANCH   1  25
TORSDOF 17
ENDMDL
MODEL 2
REMARK VINA RESULT:     -13.2      2.223      3.086
REMARK SMILES Cc1ccc(Nc2c(F)cccc2Cl)c(CC(=O)NCCCCNC(=O)c2ccc(-c3c4nc(c(-c5c(F)cc(S(=O)(=O)[O-])cc5F)c5ccc([nH]5)c(-c5c(F)cc(S(=O)(=O)[O-])cc5F)c5nc(c(-c6c(F)cc(S(=O)(=O)[O-])cc6F)c6ccc3[nH]6)C=C5)C=C4)cc2)c1
REMARK SMILES IDX 21 1 20 2 19 3 17 4 18 5 16 7 15 8 1 9 2 10 3 11 93 12 4 13
REMARK SMILES IDX 5 14 6 15 7 17 8 18 13 19 9 20 10 21 12 22 14 23 11 24 22 25
REMARK SMILES IDX 23 26 24 27 25 28 26 30 27 31 28 32 92 33 29 34 91 35 30 36
REMARK SMILES IDX 31 37 32 38 85 39 33 40 90 41 84 42 86 43 34 44 89 45 83 46
REMARK SMILES IDX 82 47 35 49 69 50 48 51 68 52 49 53 52 54 67 55 87 56 50 57
REMARK SMILES IDX 51 58 66 60 88 61 53 62 36 63 37 64 46 65 38 66 39 67 45 68
REMARK SMILES IDX 47 69 40 70 41 71 42 72 43 73 44 74 70 75 71 76 80 77 72 78
REMARK SMILES IDX 73 79 79 80 81 81 74 82 75 83 76 84 77 85 78 86 54 87 55 88
REMARK SMILES IDX 64 89 56 90 57 91 63 92 65 93 58 94 59 95 60 96 61 97 62 98
REMARK H PARENT 19 6 6 16 24 29 86 48 52 59
REMARK Flexibility Score: inf
ROOT
ATOM      1  C   UNL A   1      31.691  27.906  27.193  1.00  0.00     0.023 C 
ENDROOT
BRANCH   1   2
ATOM      2  C   UNL A   1      31.540  26.693  26.263  1.00  0.00     0.116 C 
BRANCH   2   3
ATOM      3  N   UNL A   1      31.391  25.434  26.976  1.00  0.00    -0.356 N 
ATOM      4  C   UNL A   1      31.806  24.183  26.634  1.00  0.00     0.224 C 
ATOM      5  O   UNL A   1      31.471  23.229  27.344  1.00  0.00    -0.275 OA
ATOM      6  H   UNL A   1      30.917  25.495  27.837  1.00  0.00     0.163 HD
BRANCH   4   7
ATOM      7  C   UNL A   1      32.637  23.943  25.388  1.00  0.00     0.137 C 
BRANCH   7   8
ATOM      8  C   UNL A   1      33.916  23.180  25.654  1.00  0.00    -0.015 A 
ATOM      9  C   UNL A   1      37.590  24.160  26.057  1.00  0.00     0.044 C 
ATOM     10  C   UNL A   1      36.339  23.338  25.980  1.00  0.00    -0.051 A 
ATOM     11  C   UNL A   1      36.413  21.949  25.947  1.00  0.00     0.005 A 
ATOM     12  C   UNL A   1      35.087  23.943  25.866  1.00  0.00     0.009 A 
ATOM     13  C   UNL A   1      35.255  21.181  25.793  1.00  0.00     0.026 A 
ATOM     14  C   UNL A   1      33.990  21.768  25.624  1.00  0.00     0.042 A 
BRANCH  14  15
ATOM     15  N   UNL A   1      32.836  20.974  25.439  1.00  0.00    -0.352 N 
ATOM     16  H   UNL A   1      32.073  21.203  26.019  1.00  0.00     0.167 HD
BRANCH  15  17
ATOM     17  C   UNL A   1      32.612  19.900  24.546  1.00  0.00     0.094 A 
ATOM     18  C   UNL A   1      32.699  18.558  24.948  1.00  0.00     0.148 A 
ATOM     19  C   UNL A   1      32.387  20.143  23.177  1.00  0.00     0.067 A 
ATOM     20  F   UNL A   1      32.886  18.247  26.241  1.00  0.00    -0.205 F 
ATOM     21  C   UNL A   1      32.578  17.504  24.042  1.00  0.00     0.041 A 
ATOM     22  C   UNL A   1      32.269  19.089  22.259  1.00  0.00     0.023 A 
ATOM     23  Cl  UNL A   1      32.292  21.756  22.559  1.00  0.00    -0.082 Cl
ATOM     24  C   UNL A   1      32.369  17.769  22.692  1.00  0.00     0.005 A 
ENDBRANCH  15  17
ENDBRANCH  14  15
ENDBRANCH   7   8
ENDBRANCH   4   7
ENDBRANCH   2   3
ENDBRANCH   1   2
BRANCH   1  25
ATOM     25  C   UNL A   1      31.888  29.254  26.498  1.00  0.00     0.023 C 
BRANCH  25  26
ATOM     26  C   UNL A   1      33.331  29.736  26.519  1.00  0.00     0.116 C 
BRANCH  26  27
ATOM     27  N   UNL A   1      33.525  31.006  27.195  1.00  0.00    -0.352 N 
ATOM     28  C   UNL A   1      34.450  31.309  28.195  1.00  0.00     0.251 C 
ATOM     29  H   UNL A   1      32.933  31.742  26.914  1.00  0.00     0.163 HD
ATOM     30  O   UNL A   1      34.416  32.330  28.817  1.00  0.00    -0.269 OA
BRANCH  28  31
ATOM     31  C   UNL A   1      35.552  30.331  28.378  1.00  0.00     0.039 A 
ATOM     32  C   UNL A   1      35.737  29.818  29.667  1.00  0.00     0.014 A 
ATOM     33  C   UNL A   1      36.519  30.159  27.390  1.00  0.00     0.014 A 
ATOM     34  C   UNL A   1      36.979  29.298  30.023  1.00  0.00     0.010 A 
ATOM     35  C   UNL A   1      37.773  29.711  27.766  1.00  0.00     0.010 A 
ATOM     36  C   UNL A   1      38.019  29.338  29.098  1.00  0.00    -0.014 A 
BRANCH  36  37
ATOM     37  C   UNL A   1      39.420  29.124  29.447  1.00  0.00     0.031 A 
ATOM     38  C   UNL A   1      40.087  27.843  29.120  1.00  0.00     0.074 A 
ATOM     39  C   UNL A   1      40.147  30.141  29.962  1.00  0.00     0.049 A 
ATOM     40  N   UNL A   1      41.285  27.540  29.492  1.00  0.00    -0.248 NA
ATOM     41  C   UNL A   1      39.421  26.759  28.399  1.00  0.00     0.031 C 
ATOM     42  C   UNL A   1      41.602  30.265  29.996  1.00  0.00     0.029 A 
ATOM     43  N   UNL A   1      39.695  31.164  30.803  1.00  0.00    -0.354 N 
ATOM     44  C   UNL A   1      41.649  26.402  28.820  1.00  0.00     0.074 A 
ATOM     45  C   UNL A   1      40.424  25.884  28.268  1.00  0.00     0.031 C 
ATOM     46  C   UNL A   1      41.946  31.099  30.987  1.00  0.00     0.029 A 
ATOM     47  C   UNL A   1      40.738  31.415  31.724  1.00  0.00     0.049 A 
ATOM     48  H   UNL A   1      38.823  31.618  30.761  1.00  0.00     0.167 HD
ATOM     49  C   UNL A   1      42.972  26.109  28.692  1.00  0.00     0.037 A 
ATOM     50  C   UNL A   1      40.557  31.170  33.056  1.00  0.00     0.037 A 
ATOM     51  C   UNL A   1      43.770  26.815  29.696  1.00  0.00     0.049 A 
ATOM     52  C   UNL A   1      41.427  30.068  33.629  1.00  0.00     0.074 A 
ATOM     53  C   UNL A   1      44.697  27.841  29.702  1.00  0.00     0.029 A 
ATOM     54  N   UNL A   1      43.463  26.579  31.027  1.00  0.00    -0.354 N 
ATOM     55  N   UNL A   1      42.346  29.420  32.964  1.00  0.00    -0.248 NA
ATOM     56  C   UNL A   1      41.273  29.560  34.995  1.00  0.00     0.031 C 
ATOM     57  C   UNL A   1      44.856  28.283  31.057  1.00  0.00     0.029 A 
ATOM     58  C   UNL A   1      44.058  27.496  31.870  1.00  0.00     0.049 A 
ATOM     59  H   UNL A   1      42.885  25.844  31.337  1.00  0.00     0.167 HD
ATOM     60  C   UNL A   1      42.828  28.395  33.736  1.00  0.00     0.074 A 
ATOM     61  C   UNL A   1      42.150  28.542  35.011  1.00  0.00     0.031 C 
ATOM     62  C   UNL A   1      43.705  27.456  33.280  1.00  0.00     0.037 A 
BRANCH  49  63
ATOM     63  C   UNL A   1      43.545  25.262  27.578  1.00  0.00     0.058 A 
ATOM     64  C   UNL A   1      43.554  23.855  27.674  1.00  0.00     0.135 A 
ATOM     65  C   UNL A   1      44.229  25.780  26.453  1.00  0.00     0.135 A 
ATOM     66  F   UNL A   1      42.977  23.231  28.712  1.00  0.00    -0.206 F 
ATOM     67  C   UNL A   1      44.188  23.034  26.732  1.00  0.00     0.059 A 
ATOM     68  C   UNL A   1      44.818  24.982  25.473  1.00  0.00     0.059 A 
ATOM     69  F   UNL A   1      44.436  27.092  26.284  1.00  0.00    -0.206 F 
ATOM     70  C   UNL A   1      44.819  23.608  25.633  1.00  0.00     0.060 A 
BRANCH  70  71
ATOM     71  S   UNL A   1      45.679  22.569  24.437  1.00  0.00     0.124 S 
ATOM     72  O   UNL A   1      44.578  22.112  23.595  1.00  0.00    -0.237 OA
ATOM     73  O   UNL A   1      46.610  23.505  23.816  1.00  0.00    -0.237 OA
ATOM     74  O   UNL A   1      46.299  21.540  25.267  1.00  0.00    -0.744 OA
ENDBRANCH  70  71
ENDBRANCH  49  63
BRANCH  50  75
ATOM     75  C   UNL A   1      39.185  31.531  33.511  1.00  0.00     0.058 A 
ATOM     76  C   UNL A   1      38.915  32.900  33.713  1.00  0.00     0.135 A 
ATOM     77  C   UNL A   1      38.096  30.676  33.306  1.00  0.00     0.135 A 
ATOM     78  F   UNL A   1      39.925  33.760  33.933  1.00  0.00    -0.206 F 
ATOM     79  C   UNL A   1      37.644  33.426  33.528  1.00  0.00     0.059 A 
ATOM     80  C   UNL A   1      36.807  31.181  33.133  1.00  0.00     0.059 A 
ATOM     81  F   UNL A   1      38.292  29.363  33.114  1.00  0.00    -0.206 F 
ATOM     82  C   UNL A   1      36.613  32.563  33.165  1.00  0.00     0.060 A 
BRANCH  82  83
ATOM     83  S   UNL A   1      35.089  33.302  32.533  1.00  0.00     0.124 S 
ATOM     84  O   UNL A   1      34.432  32.158  31.908  1.00  0.00    -0.237 OA
ATOM     85  O   UNL A   1      34.472  33.789  33.765  1.00  0.00    -0.237 OA
ATOM     86  O   UNL A   1      35.571  34.331  31.619  1.00  0.00    -0.744 OA
ENDBRANCH  82  83
ENDBRANCH  50  75
BRANCH  62  87
ATOM     87  C   UNL A   1      44.253  26.378  34.171  1.00  0.00     0.058 A 
ATOM     88  C   UNL A   1      45.625  26.293  34.465  1.00  0.00     0.135 A 
ATOM     89  C   UNL A   1      43.441  25.336  34.663  1.00  0.00     0.135 A 
ATOM     90  F   UNL A   1      46.478  27.223  34.008  1.00  0.00    -0.206 F 
ATOM     91  C   UNL A   1      46.158  25.253  35.226  1.00  0.00     0.059 A 
ATOM     92  C   UNL A   1      43.957  24.264  35.389  1.00  0.00     0.059 A 
ATOM     93  F   UNL A   1      42.112  25.347  34.478  1.00  0.00    -0.206 F 
ATOM     94  C   UNL A   1      45.315  24.241  35.682  1.00  0.00     0.060 A 
BRANCH  94  95
ATOM     95  S   UNL A   1      46.002  22.871  36.634  1.00  0.00     0.124 S 
ATOM     96  O   UNL A   1      47.434  22.977  36.368  1.00  0.00    -0.237 OA
ATOM     97  O   UNL A   1      45.586  23.220  37.988  1.00  0.00    -0.237 OA
ATOM     98  O   UNL A   1      45.352  21.701  36.054  1.00  0.00    -0.744 OA
ENDBRANCH  94  95
ENDBRANCH  62  87
ENDBRANCH  36  37
ENDBRANCH  28  31
ENDBRANCH  26  27
ENDBRANCH  25  26
ENDBRANCH   1  25
TORSDOF 17
ENDMDL
MODEL 3
REMARK VINA RESULT:     -13.1      5.075     11.658
REMARK SMILES Cc1ccc(Nc2c(F)cccc2Cl)c(CC(=O)NCCCCNC(=O)c2ccc(-c3c4nc(c(-c5c(F)cc(S(=O)(=O)[O-])cc5F)c5ccc([nH]5)c(-c5c(F)cc(S(=O)(=O)[O-])cc5F)c5nc(c(-c6c(F)cc(S(=O)(=O)[O-])cc6F)c6ccc3[nH]6)C=C5)C=C4)cc2)c1
REMARK SMILES IDX 21 1 20 2 19 3 17 4 18 5 16 7 15 8 1 9 2 10 3 11 93 12 4 13
REMARK SMILES IDX 5 14 6 15 7 17 8 18 13 19 9 20 10 21 12 22 14 23 11 24 22 25
REMARK SMILES IDX 23 26 24 27 25 28 26 30 27 31 28 32 92 33 29 34 91 35 30 36
REMARK SMILES IDX 31 37 32 38 85 39 33 40 90 41 84 42 86 43 34 44 89 45 83 46
REMARK SMILES IDX 82 47 35 49 69 50 48 51 68 52 49 53 52 54 67 55 87 56 50 57
REMARK SMILES IDX 51 58 66 60 88 61 53 62 36 63 37 64 46 65 38 66 39 67 45 68
REMARK SMILES IDX 47 69 40 70 41 71 42 72 43 73 44 74 70 75 71 76 80 77 72 78
REMARK SMILES IDX 73 79 79 80 81 81 74 82 75 83 76 84 77 85 78 86 54 87 55 88
REMARK SMILES IDX 64 89 56 90 57 91 63 92 65 93 58 94 59 95 60 96 61 97 62 98
REMARK H PARENT 19 6 6 16 24 29 86 48 52 59
REMARK Flexibility Score: inf
ROOT
ATOM      1  C   UNL A   1      35.597  22.604  26.324  1.00  0.00     0.023 C 
ENDROOT
BRANCH   1   2
ATOM      2  C   UNL A   1      34.833  23.796  25.727  1.00  0.00     0.116 C 
BRANCH   2   3
ATOM      3  N   UNL A   1      33.459  23.894  26.196  1.00  0.00    -0.356 N 
ATOM      4  C   UNL A   1      32.441  24.682  25.754  1.00  0.00     0.224 C 
ATOM      5  O   UNL A   1      31.375  24.683  26.377  1.00  0.00    -0.275 OA
ATOM      6  H   UNL A   1      33.232  23.300  26.948  1.00  0.00     0.163 HD
BRANCH   4   7
ATOM      7  C   UNL A   1      32.607  25.574  24.539  1.00  0.00     0.137 C 
BRANCH   7   8
ATOM      8  C   UNL A   1      32.726  27.043  24.880  1.00  0.00    -0.015 A 
ATOM      9  C   UNL A   1      34.651  29.036  27.515  1.00  0.00     0.044 C 
ATOM     10  C   UNL A   1      33.756  28.701  26.361  1.00  0.00    -0.051 A 
ATOM     11  C   UNL A   1      32.940  29.679  25.799  1.00  0.00     0.005 A 
ATOM     12  C   UNL A   1      33.667  27.396  25.874  1.00  0.00     0.009 A 
ATOM     13  C   UNL A   1      32.044  29.352  24.777  1.00  0.00     0.026 A 
ATOM     14  C   UNL A   1      31.900  28.036  24.306  1.00  0.00     0.042 A 
BRANCH  14  15
ATOM     15  N   UNL A   1      30.966  27.721  23.293  1.00  0.00    -0.352 N 
ATOM     16  H   UNL A   1      31.135  26.876  22.816  1.00  0.00     0.167 HD
BRANCH  15  17
ATOM     17  C   UNL A   1      29.827  28.439  22.860  1.00  0.00     0.094 A 
ATOM     18  C   UNL A   1      29.924  29.633  22.128  1.00  0.00     0.148 A 
ATOM     19  C   UNL A   1      28.535  28.027  23.240  1.00  0.00     0.067 A 
ATOM     20  F   UNL A   1      31.120  30.078  21.709  1.00  0.00    -0.205 F 
ATOM     21  C   UNL A   1      28.800  30.389  21.793  1.00  0.00     0.041 A 
ATOM     22  C   UNL A   1      27.401  28.783  22.910  1.00  0.00     0.023 A 
ATOM     23  Cl  UNL A   1      28.292  26.587  24.169  1.00  0.00    -0.082 Cl
ATOM     24  C   UNL A   1      27.534  29.968  22.190  1.00  0.00     0.005 A 
ENDBRANCH  15  17
ENDBRANCH  14  15
ENDBRANCH   7   8
ENDBRANCH   4   7
ENDBRANCH   2   3
ENDBRANCH   1   2
BRANCH   1  25
ATOM     25  C   UNL A   1      37.023  22.406  25.808  1.00  0.00     0.023 C 
BRANCH  25  26
ATOM     26  C   UNL A   1      37.952  23.562  26.150  1.00  0.00     0.116 C 
BRANCH  26  27
ATOM     27  N   UNL A   1      39.152  23.170  26.867  1.00  0.00    -0.352 N 
ATOM     28  C   UNL A   1      40.065  23.998  27.522  1.00  0.00     0.251 C 
ATOM     29  H   UNL A   1      39.344  22.204  26.894  1.00  0.00     0.163 HD
ATOM     30  O   UNL A   1      41.116  23.602  27.931  1.00  0.00    -0.269 OA
BRANCH  28  31
ATOM     31  C   UNL A   1      39.612  25.389  27.779  1.00  0.00     0.039 A 
ATOM     32  C   UNL A   1      40.105  26.383  26.926  1.00  0.00     0.014 A 
ATOM     33  C   UNL A   1      38.968  25.716  28.969  1.00  0.00     0.014 A 
ATOM     34  C   UNL A   1      40.126  27.706  27.361  1.00  0.00     0.010 A 
ATOM     35  C   UNL A   1      39.056  27.018  29.429  1.00  0.00     0.010 A 
ATOM     36  C   UNL A   1      39.689  28.001  28.650  1.00  0.00    -0.014 A 
BRANCH  36  37
ATOM     37  C   UNL A   1      39.952  29.270  29.321  1.00  0.00     0.031 A 
ATOM     38  C   UNL A   1      38.993  30.391  29.209  1.00  0.00     0.074 A 
ATOM     39  C   UNL A   1      41.017  29.384  30.149  1.00  0.00     0.049 A 
ATOM     40  N   UNL A   1      39.208  31.573  29.682  1.00  0.00    -0.248 NA
ATOM     41  C   UNL A   1      37.728  30.288  28.482  1.00  0.00     0.031 C 
ATOM     42  C   UNL A   1      41.225  30.381  31.196  1.00  0.00     0.029 A 
ATOM     43  N   UNL A   1      42.258  28.752  30.023  1.00  0.00    -0.354 N 
ATOM     44  C   UNL A   1      38.029  32.267  29.605  1.00  0.00     0.074 A 
ATOM     45  C   UNL A   1      37.188  31.485  28.735  1.00  0.00     0.031 C 
ATOM     46  C   UNL A   1      42.539  30.493  31.436  1.00  0.00     0.029 A 
ATOM     47  C   UNL A   1      43.228  29.690  30.445  1.00  0.00     0.049 A 
ATOM     48  H   UNL A   1      42.423  27.836  29.703  1.00  0.00     0.167 HD
ATOM     49  C   UNL A   1      37.854  33.356  30.402  1.00  0.00     0.037 A 
ATOM     50  C   UNL A   1      44.151  30.175  29.560  1.00  0.00     0.037 A 
ATOM     51  C   UNL A   1      39.138  33.879  30.874  1.00  0.00     0.049 A 
ATOM     52  C   UNL A   1      44.039  31.658  29.267  1.00  0.00     0.074 A 
ATOM     53  C   UNL A   1      39.809  33.953  32.080  1.00  0.00     0.029 A 
ATOM     54  N   UNL A   1      40.056  34.266  29.909  1.00  0.00    -0.354 N 
ATOM     55  N   UNL A   1      43.193  32.471  29.839  1.00  0.00    -0.248 NA
ATOM     56  C   UNL A   1      44.838  32.329  28.237  1.00  0.00     0.031 C 
ATOM     57  C   UNL A   1      41.176  34.289  31.803  1.00  0.00     0.029 A 
ATOM     58  C   UNL A   1      41.316  34.459  30.437  1.00  0.00     0.049 A 
ATOM     59  H   UNL A   1      39.835  34.387  28.957  1.00  0.00     0.167 HD
ATOM     60  C   UNL A   1      43.258  33.698  29.231  1.00  0.00     0.074 A 
ATOM     61  C   UNL A   1      44.324  33.571  28.255  1.00  0.00     0.031 C 
ATOM     62  C   UNL A   1      42.408  34.726  29.515  1.00  0.00     0.037 A 
BRANCH  49  63
ATOM     63  C   UNL A   1      36.502  33.876  30.837  1.00  0.00     0.058 A 
ATOM     64  C   UNL A   1      35.595  34.405  29.895  1.00  0.00     0.135 A 
ATOM     65  C   UNL A   1      36.096  34.012  32.186  1.00  0.00     0.135 A 
ATOM     66  F   UNL A   1      35.872  34.381  28.582  1.00  0.00    -0.206 F 
ATOM     67  C   UNL A   1      34.389  35.016  30.263  1.00  0.00     0.059 A 
ATOM     68  C   UNL A   1      34.875  34.563  32.572  1.00  0.00     0.059 A 
ATOM     69  F   UNL A   1      36.897  33.691  33.210  1.00  0.00    -0.206 F 
ATOM     70  C   UNL A   1      34.037  35.091  31.606  1.00  0.00     0.060 A 
BRANCH  70  71
ATOM     71  S   UNL A   1      32.511  35.914  32.099  1.00  0.00     0.124 S 
ATOM     72  O   UNL A   1      33.012  36.966  32.978  1.00  0.00    -0.237 OA
ATOM     73  O   UNL A   1      31.963  36.357  30.822  1.00  0.00    -0.237 OA
ATOM     74  O   UNL A   1      31.755  34.855  32.762  1.00  0.00    -0.744 OA
ENDBRANCH  70  71
ENDBRANCH  49  63
BRANCH  50  75
ATOM     75  C   UNL A   1      44.627  29.126  28.615  1.00  0.00     0.058 A 
ATOM     76  C   UNL A   1      44.046  29.107  27.331  1.00  0.00     0.135 A 
ATOM     77  C   UNL A   1      45.872  28.505  28.777  1.00  0.00     0.135 A 
ATOM     78  F   UNL A   1      42.844  29.673  27.128  1.00  0.00    -0.206 F 
ATOM     79  C   UNL A   1      44.751  28.665  26.220  1.00  0.00     0.059 A 
ATOM     80  C   UNL A   1      46.591  28.039  27.675  1.00  0.00     0.059 A 
ATOM     81  F   UNL A   1      46.470  28.488  29.977  1.00  0.00    -0.206 F 
ATOM     82  C   UNL A   1      46.052  28.201  26.398  1.00  0.00     0.060 A 
BRANCH  82  83
ATOM     83  S   UNL A   1      47.085  28.024  24.925  1.00  0.00     0.124 S 
ATOM     84  O   UNL A   1      46.747  26.677  24.477  1.00  0.00    -0.237 OA
ATOM     85  O   UNL A   1      46.582  29.112  24.089  1.00  0.00    -0.237 OA
ATOM     86  O   UNL A   1      48.437  28.198  25.442  1.00  0.00    -0.744 OA
ENDBRANCH  82  83
ENDBRANCH  50  75
BRANCH  62  87
ATOM     87  C   UNL A   1      42.543  36.074  28.866  1.00  0.00     0.058 A 
ATOM     88  C   UNL A   1      41.953  36.355  27.622  1.00  0.00     0.135 A 
ATOM     89  C   UNL A   1      43.359  37.084  29.415  1.00  0.00     0.135 A 
ATOM     90  F   UNL A   1      41.188  35.438  27.009  1.00  0.00    -0.206 F 
ATOM     91  C   UNL A   1      42.136  37.575  26.972  1.00  0.00     0.059 A 
ATOM     92  C   UNL A   1      43.591  38.295  28.764  1.00  0.00     0.059 A 
ATOM     93  F   UNL A   1      43.932  36.935  30.619  1.00  0.00    -0.206 F 
ATOM     94  C   UNL A   1      42.960  38.539  27.551  1.00  0.00     0.060 A 
BRANCH  94  95
ATOM     95  S   UNL A   1      43.233  40.105  26.698  1.00  0.00     0.124 S 
ATOM     96  O   UNL A   1      42.001  40.277  25.933  1.00  0.00    -0.237 OA
ATOM     97  O   UNL A   1      43.410  41.020  27.821  1.00  0.00    -0.237 OA
ATOM     98  O   UNL A   1      44.426  39.847  25.899  1.00  0.00    -0.744 OA
ENDBRANCH  94  95
ENDBRANCH  62  87
ENDBRANCH  36  37
ENDBRANCH  28  31
ENDBRANCH  26  27
ENDBRANCH  25  26
ENDBRANCH   1  25
TORSDOF 17
ENDMDL
