MODEL 1
REMARK VINA RESULT:     -12.8      0.000      0.000
REMARK SMILES C[NH+]1CCN(C(=O)c2ccc3c(c2)N(CC(=O)NCCCCNC(=O)c2ccc(-c4c5nc(c(-c6c(F)cc(S(=O)(=O)[O-])cc6F)c6ccc([nH]6)c(-c6c(F)cc(S(=O)(=O)[O-])cc6F)c6nc(c(-c7c(F)cc(S(=O)(=O)[O-])cc7F)c7ccc4[nH]7)C=C6)C=C5)cc2)C(=O)CO3)CC1
REMARK SMILES IDX 21 1 20 2 19 3 18 4 16 5 17 6 15 8 14 9 8 10 9 11 13 12
REMARK SMILES IDX 10 13 12 14 11 15 95 16 92 17 94 18 93 19 6 20 1 21 2 22
REMARK SMILES IDX 3 23 97 24 4 26 96 27 5 28 7 29 22 30 23 31 24 32 25 34
REMARK SMILES IDX 26 35 27 36 91 37 28 38 90 39 29 40 30 41 31 42 84 43 32 44
REMARK SMILES IDX 89 45 83 46 85 47 33 48 88 49 82 50 81 51 34 53 68 54 47 55
REMARK SMILES IDX 67 56 48 57 51 58 66 59 86 60 49 61 50 62 65 64 87 65 52 66
REMARK SMILES IDX 35 67 36 68 45 69 37 70 38 71 44 72 46 73 39 74 40 75 41 76
REMARK SMILES IDX 42 77 43 78 69 79 70 80 79 81 71 82 72 83 78 84 80 85 73 86
REMARK SMILES IDX 74 87 75 88 76 89 77 90 53 91 54 92 63 93 55 94 56 95 62 96
REMARK SMILES IDX 64 97 57 98 58 99 59 100 60 101 61 102
REMARK H PARENT 18 7 2 25 23 33 85 52 51 63
REMARK Flexibility Score: inf
ROOT
ATOM      1  C   UNL A   1      40.845  21.881  27.588  1.00  0.00     0.023 C 
ENDROOT
BRANCH   1   2
ATOM      2  C   UNL A   1      40.606  21.028  26.339  1.00  0.00     0.023 C 
BRANCH   2   3
ATOM      3  C   UNL A   1      39.186  21.089  25.781  1.00  0.00     0.116 C 
BRANCH   3   4
ATOM      4  N   UNL A   1      38.498  22.305  26.165  1.00  0.00    -0.355 N 
ATOM      5  C   UNL A   1      37.469  22.943  25.540  1.00  0.00     0.240 C 
ATOM      6  O   UNL A   1      36.952  23.903  26.119  1.00  0.00    -0.273 OA
ATOM      7  H   UNL A   1      38.818  22.729  26.993  1.00  0.00     0.163 HD
BRANCH   5   8
ATOM      8  C   UNL A   1      36.907  22.449  24.198  1.00  0.00     0.225 C 
BRANCH   8   9
ATOM      9  N   UNL A   1      35.543  21.923  24.256  1.00  0.00    -0.296 N 
ATOM     10  C   UNL A   1      33.450  24.734  22.922  1.00  0.00     0.042 A 
ATOM     11  C   UNL A   1      32.224  24.092  22.742  1.00  0.00     0.018 A 
ATOM     12  C   UNL A   1      34.544  24.049  23.468  1.00  0.00     0.044 A 
ATOM     13  C   UNL A   1      32.101  22.747  23.078  1.00  0.00     0.049 A 
ATOM     14  C   UNL A   1      34.436  22.689  23.790  1.00  0.00     0.087 A 
ATOM     15  C   UNL A   1      33.194  22.057  23.608  1.00  0.00     0.143 A 
ATOM     16  O   UNL A   1      32.978  20.729  23.857  1.00  0.00    -0.482 OA
ATOM     17  C   UNL A   1      35.337  20.646  24.756  1.00  0.00     0.265 C 
ATOM     18  C   UNL A   1      33.887  20.182  24.790  1.00  0.00     0.330 C 
ATOM     19  O   UNL A   1      36.237  19.935  25.207  1.00  0.00    -0.270 OA
BRANCH  10  20
ATOM     20  C   UNL A   1      33.545  26.172  22.592  1.00  0.00     0.254 C 
ATOM     21  C   UNL A   1      32.171  30.007  26.420  1.00  0.00     0.332 C 
ATOM     22  N   UNL A   1      33.052  29.169  25.610  1.00  0.00    -0.334 N 
ATOM     23  C   UNL A   1      32.842  29.427  24.170  1.00  0.00     0.283 C 
ATOM     24  C   UNL A   1      32.807  27.740  25.894  1.00  0.00     0.283 C 
ATOM     25  H   UNL A   1      34.015  29.401  25.849  1.00  0.00     0.347 HD
ATOM     26  C   UNL A   1      33.716  28.525  23.276  1.00  0.00     0.181 C 
ATOM     27  C   UNL A   1      33.718  26.826  25.052  1.00  0.00     0.181 C 
ATOM     28  N   UNL A   1      33.576  27.107  23.617  1.00  0.00    -0.327 N 
ATOM     29  O   UNL A   1      33.601  26.461  21.398  1.00  0.00    -0.269 OA
ENDBRANCH  10  20
ENDBRANCH   8   9
ENDBRANCH   5   8
ENDBRANCH   3   4
ENDBRANCH   2   3
ENDBRANCH   1   2
BRANCH   1  30
ATOM     30  C   UNL A   1      41.885  22.989  27.442  1.00  0.00     0.116 C 
BRANCH  30  31
ATOM     31  N   UNL A   1      41.711  23.783  26.236  1.00  0.00    -0.352 N 
ATOM     32  C   UNL A   1      41.426  25.124  26.122  1.00  0.00     0.251 C 
ATOM     33  H   UNL A   1      41.811  23.297  25.388  1.00  0.00     0.163 HD
ATOM     34  O   UNL A   1      41.203  25.611  25.017  1.00  0.00    -0.269 OA
BRANCH  32  35
ATOM     35  C   UNL A   1      41.352  25.966  27.336  1.00  0.00     0.039 A 
ATOM     36  C   UNL A   1      42.369  26.895  27.574  1.00  0.00     0.014 A 
ATOM     37  C   UNL A   1      40.278  25.857  28.223  1.00  0.00     0.014 A 
ATOM     38  C   UNL A   1      42.271  27.765  28.663  1.00  0.00     0.010 A 
ATOM     39  C   UNL A   1      40.148  26.769  29.269  1.00  0.00     0.010 A 
ATOM     40  C   UNL A   1      41.141  27.734  29.496  1.00  0.00    -0.014 A 
BRANCH  40  41
ATOM     41  C   UNL A   1      40.970  28.711  30.603  1.00  0.00     0.031 A 
ATOM     42  C   UNL A   1      41.841  28.629  31.826  1.00  0.00     0.074 A 
ATOM     43  C   UNL A   1      39.987  29.630  30.535  1.00  0.00     0.049 A 
ATOM     44  N   UNL A   1      41.794  29.340  32.924  1.00  0.00    -0.248 NA
ATOM     45  C   UNL A   1      42.886  27.593  31.826  1.00  0.00     0.031 C 
ATOM     46  C   UNL A   1      39.049  29.786  29.420  1.00  0.00     0.029 A 
ATOM     47  N   UNL A   1      39.605  30.602  31.426  1.00  0.00    -0.354 N 
ATOM     48  C   UNL A   1      42.793  28.833  33.746  1.00  0.00     0.074 A 
ATOM     49  C   UNL A   1      43.391  27.719  33.044  1.00  0.00     0.031 C 
ATOM     50  C   UNL A   1      38.220  30.810  29.683  1.00  0.00     0.029 A 
ATOM     51  C   UNL A   1      38.538  31.356  30.998  1.00  0.00     0.049 A 
ATOM     52  H   UNL A   1      40.052  30.744  32.291  1.00  0.00     0.167 HD
ATOM     53  C   UNL A   1      43.191  29.271  34.966  1.00  0.00     0.037 A 
ATOM     54  C   UNL A   1      37.888  32.373  31.598  1.00  0.00     0.037 A 
ATOM     55  C   UNL A   1      42.604  30.392  35.653  1.00  0.00     0.049 A 
ATOM     56  C   UNL A   1      38.338  32.832  32.957  1.00  0.00     0.074 A 
ATOM     57  C   UNL A   1      42.965  30.940  36.871  1.00  0.00     0.029 A 
ATOM     58  N   UNL A   1      41.531  31.136  35.182  1.00  0.00    -0.354 N 
ATOM     59  N   UNL A   1      39.316  32.373  33.700  1.00  0.00    -0.248 NA
ATOM     60  C   UNL A   1      37.598  33.951  33.559  1.00  0.00     0.031 C 
ATOM     61  C   UNL A   1      42.087  31.994  37.154  1.00  0.00     0.029 A 
ATOM     62  C   UNL A   1      41.207  32.128  36.091  1.00  0.00     0.049 A 
ATOM     63  H   UNL A   1      41.069  30.981  34.327  1.00  0.00     0.167 HD
ATOM     64  C   UNL A   1      39.328  33.164  34.845  1.00  0.00     0.074 A 
ATOM     65  C   UNL A   1      38.264  34.134  34.692  1.00  0.00     0.031 C 
ATOM     66  C   UNL A   1      40.148  33.093  35.922  1.00  0.00     0.037 A 
BRANCH  53  67
ATOM     67  C   UNL A   1      44.321  28.531  35.628  1.00  0.00     0.058 A 
ATOM     68  C   UNL A   1      45.663  28.872  35.390  1.00  0.00     0.135 A 
ATOM     69  C   UNL A   1      44.063  27.474  36.516  1.00  0.00     0.135 A 
ATOM     70  F   UNL A   1      45.967  29.865  34.540  1.00  0.00    -0.206 F 
ATOM     71  C   UNL A   1      46.708  28.165  35.973  1.00  0.00     0.059 A 
ATOM     72  C   UNL A   1      45.094  26.772  37.135  1.00  0.00     0.059 A 
ATOM     73  F   UNL A   1      42.801  27.107  36.782  1.00  0.00    -0.206 F 
ATOM     74  C   UNL A   1      46.414  27.111  36.840  1.00  0.00     0.060 A 
BRANCH  74  75
ATOM     75  S   UNL A   1      47.782  26.189  37.572  1.00  0.00     0.124 S 
ATOM     76  O   UNL A   1      47.155  24.894  37.823  1.00  0.00    -0.237 OA
ATOM     77  O   UNL A   1      48.782  26.213  36.511  1.00  0.00    -0.237 OA
ATOM     78  O   UNL A   1      48.116  26.965  38.763  1.00  0.00    -0.744 OA
ENDBRANCH  74  75
ENDBRANCH  53  67
BRANCH  54  79
ATOM     79  C   UNL A   1      36.764  33.049  30.898  1.00  0.00     0.058 A 
ATOM     80  C   UNL A   1      35.436  32.820  31.288  1.00  0.00     0.135 A 
ATOM     81  C   UNL A   1      36.991  33.949  29.845  1.00  0.00     0.135 A 
ATOM     82  F   UNL A   1      35.169  31.963  32.285  1.00  0.00    -0.206 F 
ATOM     83  C   UNL A   1      34.371  33.451  30.654  1.00  0.00     0.059 A 
ATOM     84  C   UNL A   1      35.944  34.609  29.210  1.00  0.00     0.059 A 
ATOM     85  F   UNL A   1      38.245  34.213  29.445  1.00  0.00    -0.206 F 
ATOM     86  C   UNL A   1      34.636  34.347  29.616  1.00  0.00     0.060 A 
BRANCH  86  87
ATOM     87  S   UNL A   1      33.249  35.204  28.840  1.00  0.00     0.124 S 
ATOM     88  O   UNL A   1      33.935  36.236  28.072  1.00  0.00    -0.237 OA
ATOM     89  O   UNL A   1      32.625  34.138  28.064  1.00  0.00    -0.237 OA
ATOM     90  O   UNL A   1      32.468  35.678  29.979  1.00  0.00    -0.744 OA
ENDBRANCH  86  87
ENDBRANCH  54  79
BRANCH  66  91
ATOM     91  C   UNL A   1      39.952  34.114  37.008  1.00  0.00     0.058 A 
ATOM     92  C   UNL A   1      40.497  35.404  36.916  1.00  0.00     0.135 A 
ATOM     93  C   UNL A   1      39.166  33.811  38.132  1.00  0.00     0.135 A 
ATOM     94  F   UNL A   1      41.262  35.740  35.866  1.00  0.00    -0.206 F 
ATOM     95  C   UNL A   1      40.285  36.353  37.911  1.00  0.00     0.059 A 
ATOM     96  C   UNL A   1      38.921  34.754  39.126  1.00  0.00     0.059 A 
ATOM     97  F   UNL A   1      38.615  32.594  38.264  1.00  0.00    -0.206 F 
ATOM     98  C   UNL A   1      39.494  36.019  39.011  1.00  0.00     0.060 A 
BRANCH  98  99
ATOM     99  S   UNL A   1      39.194  37.272  40.276  1.00  0.00     0.124 S 
ATOM    100  O   UNL A   1      38.425  36.517  41.261  1.00  0.00    -0.237 OA
ATOM    101  O   UNL A   1      40.547  37.644  40.678  1.00  0.00    -0.237 OA
ATOM    102  O   UNL A   1      38.453  38.307  39.561  1.00  0.00    -0.744 OA
ENDBRANCH  98  99
ENDBRANCH  66  91
ENDBRANCH  40  41
ENDBRANCH  32  35
ENDBRANCH  30  31
ENDBRANCH   1  30
TORSDOF 16
ENDMDL
MODEL 2
REMARK VINA RESULT:     -12.7      3.445      9.455
REMARK SMILES C[NH+]1CCN(C(=O)c2ccc3c(c2)N(CC(=O)NCCCCNC(=O)c2ccc(-c4c5nc(c(-c6c(F)cc(S(=O)(=O)[O-])cc6F)c6ccc([nH]6)c(-c6c(F)cc(S(=O)(=O)[O-])cc6F)c6nc(c(-c7c(F)cc(S(=O)(=O)[O-])cc7F)c7ccc4[nH]7)C=C6)C=C5)cc2)C(=O)CO3)CC1
REMARK SMILES IDX 21 1 20 2 19 3 18 4 16 5 17 6 15 8 14 9 8 10 9 11 13 12
REMARK SMILES IDX 10 13 12 14 11 15 95 16 92 17 94 18 93 19 6 20 1 21 2 22
REMARK SMILES IDX 3 23 97 24 4 26 96 27 5 28 7 29 22 30 23 31 24 32 25 34
REMARK SMILES IDX 26 35 27 36 91 37 28 38 90 39 29 40 30 41 31 42 84 43 32 44
REMARK SMILES IDX 89 45 83 46 85 47 33 48 88 49 82 50 81 51 34 53 68 54 47 55
REMARK SMILES IDX 67 56 48 57 51 58 66 59 86 60 49 61 50 62 65 64 87 65 52 66
REMARK SMILES IDX 35 67 36 68 45 69 37 70 38 71 44 72 46 73 39 74 40 75 41 76
REMARK SMILES IDX 42 77 43 78 69 79 70 80 79 81 71 82 72 83 78 84 80 85 73 86
REMARK SMILES IDX 74 87 75 88 76 89 77 90 53 91 54 92 63 93 55 94 56 95 62 96
REMARK SMILES IDX 64 97 57 98 58 99 59 100 60 101 61 102
REMARK H PARENT 18 7 2 25 23 33 85 52 51 63
REMARK Flexibility Score: inf
ROOT
ATOM      1  C   UNL A   1      33.494  27.475  26.549  1.00  0.00     0.023 C 
ENDROOT
BRANCH   1   2
ATOM      2  C   UNL A   1      32.110  27.760  27.140  1.00  0.00     0.023 C 
BRANCH   2   3
ATOM      3  C   UNL A   1      31.013  26.793  26.703  1.00  0.00     0.116 C 
BRANCH   3   4
ATOM      4  N   UNL A   1      31.400  25.408  26.875  1.00  0.00    -0.355 N 
ATOM      5  C   UNL A   1      31.305  24.373  25.995  1.00  0.00     0.240 C 
ATOM      6  O   UNL A   1      31.819  23.297  26.315  1.00  0.00    -0.273 OA
ATOM      7  H   UNL A   1      31.788  25.184  27.751  1.00  0.00     0.163 HD
BRANCH   5   8
ATOM      8  C   UNL A   1      30.654  24.544  24.614  1.00  0.00     0.225 C 
BRANCH   8   9
ATOM      9  N   UNL A   1      31.579  24.887  23.533  1.00  0.00    -0.296 N 
ATOM     10  C   UNL A   1      31.497  28.635  23.448  1.00  0.00     0.042 A 
ATOM     11  C   UNL A   1      32.580  28.907  22.611  1.00  0.00     0.018 A 
ATOM     12  C   UNL A   1      31.119  27.314  23.724  1.00  0.00     0.044 A 
ATOM     13  C   UNL A   1      33.310  27.851  22.074  1.00  0.00     0.049 A 
ATOM     14  C   UNL A   1      31.862  26.244  23.205  1.00  0.00     0.087 A 
ATOM     15  C   UNL A   1      32.946  26.533  22.360  1.00  0.00     0.143 A 
ATOM     16  O   UNL A   1      33.760  25.575  21.821  1.00  0.00    -0.482 OA
ATOM     17  C   UNL A   1      32.203  23.864  22.836  1.00  0.00     0.265 C 
ATOM     18  C   UNL A   1      33.141  24.309  21.721  1.00  0.00     0.330 C 
ATOM     19  O   UNL A   1      31.987  22.668  23.038  1.00  0.00    -0.270 OA
BRANCH  10  20
ATOM     20  C   UNL A   1      30.715  29.773  23.977  1.00  0.00     0.254 C 
ATOM     21  C   UNL A   1      27.652  32.902  20.501  1.00  0.00     0.332 C 
ATOM     22  N   UNL A   1      27.921  31.872  21.502  1.00  0.00    -0.334 N 
ATOM     23  C   UNL A   1      28.539  32.463  22.709  1.00  0.00     0.283 C 
ATOM     24  C   UNL A   1      28.819  30.838  20.947  1.00  0.00     0.283 C 
ATOM     25  H   UNL A   1      27.033  31.445  21.762  1.00  0.00     0.347 HD
ATOM     26  C   UNL A   1      28.888  31.402  23.772  1.00  0.00     0.181 C 
ATOM     27  C   UNL A   1      29.128  29.736  21.980  1.00  0.00     0.181 C 
ATOM     28  N   UNL A   1      29.683  30.304  23.216  1.00  0.00    -0.327 N 
ATOM     29  O   UNL A   1      31.027  30.186  25.092  1.00  0.00    -0.269 OA
ENDBRANCH  10  20
ENDBRANCH   8   9
ENDBRANCH   5   8
ENDBRANCH   3   4
ENDBRANCH   2   3
ENDBRANCH   1   2
BRANCH   1  30
ATOM     30  C   UNL A   1      34.116  28.613  25.745  1.00  0.00     0.116 C 
BRANCH  30  31
ATOM     31  N   UNL A   1      33.793  29.930  26.272  1.00  0.00    -0.352 N 
ATOM     32  C   UNL A   1      34.437  30.646  27.254  1.00  0.00     0.251 C 
ATOM     33  H   UNL A   1      33.009  30.368  25.871  1.00  0.00     0.163 HD
ATOM     34  O   UNL A   1      33.959  31.704  27.654  1.00  0.00    -0.269 OA
BRANCH  32  35
ATOM     35  C   UNL A   1      35.683  30.119  27.852  1.00  0.00     0.039 A 
ATOM     36  C   UNL A   1      36.904  30.434  27.251  1.00  0.00     0.014 A 
ATOM     37  C   UNL A   1      35.651  29.336  29.009  1.00  0.00     0.014 A 
ATOM     38  C   UNL A   1      38.098  30.026  27.851  1.00  0.00     0.010 A 
ATOM     39  C   UNL A   1      36.842  28.988  29.642  1.00  0.00     0.010 A 
ATOM     40  C   UNL A   1      38.077  29.333  29.072  1.00  0.00    -0.014 A 
BRANCH  40  41
ATOM     41  C   UNL A   1      39.334  28.971  29.777  1.00  0.00     0.031 A 
ATOM     42  C   UNL A   1      39.761  29.732  31.001  1.00  0.00     0.074 A 
ATOM     43  C   UNL A   1      40.124  28.002  29.275  1.00  0.00     0.049 A 
ATOM     44  N   UNL A   1      40.858  29.615  31.706  1.00  0.00    -0.248 NA
ATOM     45  C   UNL A   1      38.848  30.781  31.482  1.00  0.00     0.031 C 
ATOM     46  C   UNL A   1      39.841  27.218  28.069  1.00  0.00     0.029 A 
ATOM     47  N   UNL A   1      41.332  27.515  29.708  1.00  0.00    -0.354 N 
ATOM     48  C   UNL A   1      40.771  30.578  32.704  1.00  0.00     0.074 A 
ATOM     49  C   UNL A   1      39.541  31.307  32.480  1.00  0.00     0.031 C 
ATOM     50  C   UNL A   1      40.831  26.332  27.877  1.00  0.00     0.029 A 
ATOM     51  C   UNL A   1      41.839  26.510  28.918  1.00  0.00     0.049 A 
ATOM     52  H   UNL A   1      41.793  27.855  30.509  1.00  0.00     0.167 HD
ATOM     53  C   UNL A   1      41.626  30.818  33.728  1.00  0.00     0.037 A 
ATOM     54  C   UNL A   1      42.987  25.812  29.019  1.00  0.00     0.037 A 
ATOM     55  C   UNL A   1      42.839  30.078  33.958  1.00  0.00     0.049 A 
ATOM     56  C   UNL A   1      43.927  26.105  30.156  1.00  0.00     0.074 A 
ATOM     57  C   UNL A   1      43.749  30.215  34.991  1.00  0.00     0.029 A 
ATOM     58  N   UNL A   1      43.314  29.061  33.141  1.00  0.00    -0.354 N 
ATOM     59  N   UNL A   1      43.806  26.987  31.119  1.00  0.00    -0.248 NA
ATOM     60  C   UNL A   1      45.160  25.307  30.221  1.00  0.00     0.031 C 
ATOM     61  C   UNL A   1      44.793  29.306  34.779  1.00  0.00     0.029 A 
ATOM     62  C   UNL A   1      44.510  28.573  33.637  1.00  0.00     0.049 A 
ATOM     63  H   UNL A   1      42.865  28.735  32.328  1.00  0.00     0.167 HD
ATOM     64  C   UNL A   1      44.931  26.831  31.922  1.00  0.00     0.074 A 
ATOM     65  C   UNL A   1      45.717  25.765  31.334  1.00  0.00     0.031 C 
ATOM     66  C   UNL A   1      45.279  27.506  33.045  1.00  0.00     0.037 A 
BRANCH  53  67
ATOM     67  C   UNL A   1      41.268  31.928  34.679  1.00  0.00     0.058 A 
ATOM     68  C   UNL A   1      40.436  31.706  35.789  1.00  0.00     0.135 A 
ATOM     69  C   UNL A   1      41.765  33.227  34.484  1.00  0.00     0.135 A 
ATOM     70  F   UNL A   1      39.922  30.487  36.015  1.00  0.00    -0.206 F 
ATOM     71  C   UNL A   1      40.075  32.739  36.647  1.00  0.00     0.059 A 
ATOM     72  C   UNL A   1      41.441  34.270  35.348  1.00  0.00     0.059 A 
ATOM     73  F   UNL A   1      42.566  33.496  33.442  1.00  0.00    -0.206 F 
ATOM     74  C   UNL A   1      40.577  34.020  36.414  1.00  0.00     0.060 A 
BRANCH  74  75
ATOM     75  S   UNL A   1      40.083  35.355  37.523  1.00  0.00     0.124 S 
ATOM     76  O   UNL A   1      41.271  35.490  38.361  1.00  0.00    -0.237 OA
ATOM     77  O   UNL A   1      39.832  36.455  36.599  1.00  0.00    -0.237 OA
ATOM     78  O   UNL A   1      38.901  34.820  38.193  1.00  0.00    -0.744 OA
ENDBRANCH  74  75
ENDBRANCH  53  67
BRANCH  54  79
ATOM     79  C   UNL A   1      43.292  24.742  28.034  1.00  0.00     0.058 A 
ATOM     80  C   UNL A   1      44.040  25.021  26.881  1.00  0.00     0.135 A 
ATOM     81  C   UNL A   1      42.865  23.420  28.233  1.00  0.00     0.135 A 
ATOM     82  F   UNL A   1      44.465  26.272  26.645  1.00  0.00    -0.206 F 
ATOM     83  C   UNL A   1      44.346  24.032  25.952  1.00  0.00     0.059 A 
ATOM     84  C   UNL A   1      43.177  22.408  27.330  1.00  0.00     0.059 A 
ATOM     85  F   UNL A   1      42.160  23.098  29.328  1.00  0.00    -0.206 F 
ATOM     86  C   UNL A   1      43.912  22.726  26.188  1.00  0.00     0.060 A 
BRANCH  86  87
ATOM     87  S   UNL A   1      44.365  21.439  25.005  1.00  0.00     0.124 S 
ATOM     88  O   UNL A   1      45.750  21.173  25.377  1.00  0.00    -0.237 OA
ATOM     89  O   UNL A   1      43.405  20.385  25.315  1.00  0.00    -0.237 OA
ATOM     90  O   UNL A   1      44.173  22.090  23.712  1.00  0.00    -0.744 OA
ENDBRANCH  86  87
ENDBRANCH  54  79
BRANCH  66  91
ATOM     91  C   UNL A   1      46.549  27.093  33.735  1.00  0.00     0.058 A 
ATOM     92  C   UNL A   1      46.556  26.124  34.750  1.00  0.00     0.135 A 
ATOM     93  C   UNL A   1      47.781  27.639  33.339  1.00  0.00     0.135 A 
ATOM     94  F   UNL A   1      45.405  25.578  35.170  1.00  0.00    -0.206 F 
ATOM     95  C   UNL A   1      47.740  25.724  35.362  1.00  0.00     0.059 A 
ATOM     96  C   UNL A   1      48.979  27.235  33.920  1.00  0.00     0.059 A 
ATOM     97  F   UNL A   1      47.830  28.564  32.366  1.00  0.00    -0.206 F 
ATOM     98  C   UNL A   1      48.947  26.284  34.939  1.00  0.00     0.060 A 
BRANCH  98  99
ATOM     99  S   UNL A   1      50.480  25.729  35.715  1.00  0.00     0.124 S 
ATOM    100  O   UNL A   1      51.212  25.197  34.569  1.00  0.00    -0.237 OA
ATOM    101  O   UNL A   1      51.008  26.963  36.287  1.00  0.00    -0.237 OA
ATOM    102  O   UNL A   1      50.029  24.737  36.687  1.00  0.00    -0.744 OA
ENDBRANCH  98  99
ENDBRANCH  66  91
ENDBRANCH  40  41
ENDBRANCH  32  35
ENDBRANCH  30  31
ENDBRANCH   1  30
TORSDOF 16
ENDMDL
MODEL 3
REMARK VINA RESULT:     -12.6      6.311     12.032
REMARK SMILES C[NH+]1CCN(C(=O)c2ccc3c(c2)N(CC(=O)NCCCCNC(=O)c2ccc(-c4c5nc(c(-c6c(F)cc(S(=O)(=O)[O-])cc6F)c6ccc([nH]6)c(-c6c(F)cc(S(=O)(=O)[O-])cc6F)c6nc(c(-c7c(F)cc(S(=O)(=O)[O-])cc7F)c7ccc4[nH]7)C=C6)C=C5)cc2)C(=O)CO3)CC1
REMARK SMILES IDX 21 1 20 2 19 3 18 4 16 5 17 6 15 8 14 9 8 10 9 11 13 12
REMARK SMILES IDX 10 13 12 14 11 15 95 16 92 17 94 18 93 19 6 20 1 21 2 22
REMARK SMILES IDX 3 23 97 24 4 26 96 27 5 28 7 29 22 30 23 31 24 32 25 34
REMARK SMILES IDX 26 35 27 36 91 37 28 38 90 39 29 40 30 41 31 42 84 43 32 44
REMARK SMILES IDX 89 45 83 46 85 47 33 48 88 49 82 50 81 51 34 53 68 54 47 55
REMARK SMILES IDX 67 56 48 57 51 58 66 59 86 60 49 61 50 62 65 64 87 65 52 66
REMARK SMILES IDX 35 67 36 68 45 69 37 70 38 71 44 72 46 73 39 74 40 75 41 76
REMARK SMILES IDX 42 77 43 78 69 79 70 80 79 81 71 82 72 83 78 84 80 85 73 86
REMARK SMILES IDX 74 87 75 88 76 89 77 90 53 91 54 92 63 93 55 94 56 95 62 96
REMARK SMILES IDX 64 97 57 98 58 99 59 100 60 101 61 102
REMARK H PARENT 18 7 2 25 23 33 85 52 51 63
REMARK Flexibility Score: inf
ROOT
ATOM      1  C   UNL A   1      35.582  32.884  28.042  1.00  0.00     0.023 C 
ENDROOT
BRANCH   1   2
ATOM      2  C   UNL A   1      34.071  33.088  28.185  1.00  0.00     0.023 C 
BRANCH   2   3
ATOM      3  C   UNL A   1      33.217  31.914  27.711  1.00  0.00     0.116 C 
BRANCH   3   4
ATOM      4  N   UNL A   1      34.001  30.714  27.503  1.00  0.00    -0.355 N 
ATOM      5  C   UNL A   1      33.577  29.438  27.284  1.00  0.00     0.240 C 
ATOM      6  O   UNL A   1      34.429  28.590  27.005  1.00  0.00    -0.273 OA
ATOM      7  H   UNL A   1      34.977  30.838  27.521  1.00  0.00     0.163 HD
BRANCH   5   8
ATOM      8  C   UNL A   1      32.086  29.068  27.302  1.00  0.00     0.225 C 
BRANCH   8   9
ATOM      9  N   UNL A   1      31.523  28.713  25.999  1.00  0.00    -0.296 N 
ATOM     10  C   UNL A   1      31.407  24.966  26.071  1.00  0.00     0.042 A 
ATOM     11  C   UNL A   1      30.622  24.701  24.948  1.00  0.00     0.018 A 
ATOM     12  C   UNL A   1      31.757  26.281  26.406  1.00  0.00     0.044 A 
ATOM     13  C   UNL A   1      30.157  25.760  24.175  1.00  0.00     0.049 A 
ATOM     14  C   UNL A   1      31.276  27.356  25.645  1.00  0.00     0.087 A 
ATOM     15  C   UNL A   1      30.492  27.074  24.514  1.00  0.00     0.143 A 
ATOM     16  O   UNL A   1      29.941  28.038  23.716  1.00  0.00    -0.482 OA
ATOM     17  C   UNL A   1      31.206  29.727  25.106  1.00  0.00     0.265 C 
ATOM     18  C   UNL A   1      30.634  29.268  23.771  1.00  0.00     0.330 C 
ATOM     19  O   UNL A   1      31.418  30.921  25.325  1.00  0.00    -0.270 OA
BRANCH  10  20
ATOM     20  C   UNL A   1      31.919  23.822  26.856  1.00  0.00     0.254 C 
ATOM     21  C   UNL A   1      36.656  21.285  25.314  1.00  0.00     0.332 C 
ATOM     22  N   UNL A   1      35.798  22.178  26.089  1.00  0.00    -0.334 N 
ATOM     23  C   UNL A   1      34.713  21.421  26.748  1.00  0.00     0.283 C 
ATOM     24  C   UNL A   1      35.213  23.216  25.215  1.00  0.00     0.283 C 
ATOM     25  H   UNL A   1      36.371  22.623  26.805  1.00  0.00     0.347 HD
ATOM     26  C   UNL A   1      33.751  22.334  27.535  1.00  0.00     0.181 C 
ATOM     27  C   UNL A   1      34.296  24.174  26.000  1.00  0.00     0.181 C 
ATOM     28  N   UNL A   1      33.246  23.440  26.718  1.00  0.00    -0.327 N 
ATOM     29  O   UNL A   1      31.121  23.268  27.609  1.00  0.00    -0.269 OA
ENDBRANCH  10  20
ENDBRANCH   8   9
ENDBRANCH   5   8
ENDBRANCH   3   4
ENDBRANCH   2   3
ENDBRANCH   1   2
BRANCH   1  30
ATOM     30  C   UNL A   1      36.376  32.895  29.346  1.00  0.00     0.116 C 
BRANCH  30  31
ATOM     31  N   UNL A   1      35.939  31.881  30.292  1.00  0.00    -0.352 N 
ATOM     32  C   UNL A   1      36.594  30.741  30.696  1.00  0.00     0.251 C 
ATOM     33  H   UNL A   1      35.056  32.029  30.698  1.00  0.00     0.163 HD
ATOM     34  O   UNL A   1      36.026  29.933  31.425  1.00  0.00    -0.269 OA
BRANCH  32  35
ATOM     35  C   UNL A   1      37.969  30.475  30.219  1.00  0.00     0.039 A 
ATOM     36  C   UNL A   1      39.009  30.429  31.151  1.00  0.00     0.014 A 
ATOM     37  C   UNL A   1      38.230  30.250  28.864  1.00  0.00     0.014 A 
ATOM     38  C   UNL A   1      40.297  30.087  30.735  1.00  0.00     0.010 A 
ATOM     39  C   UNL A   1      39.500  29.843  28.462  1.00  0.00     0.010 A 
ATOM     40  C   UNL A   1      40.545  29.753  29.393  1.00  0.00    -0.014 A 
BRANCH  40  41
ATOM     41  C   UNL A   1      41.886  29.295  28.946  1.00  0.00     0.031 A 
ATOM     42  C   UNL A   1      43.030  30.267  28.865  1.00  0.00     0.074 A 
ATOM     43  C   UNL A   1      42.056  28.018  28.550  1.00  0.00     0.049 A 
ATOM     44  N   UNL A   1      44.249  30.075  28.428  1.00  0.00    -0.248 NA
ATOM     45  C   UNL A   1      42.761  31.644  29.308  1.00  0.00     0.031 C 
ATOM     46  C   UNL A   1      41.014  26.987  28.543  1.00  0.00     0.029 A 
ATOM     47  N   UNL A   1      43.165  27.369  28.068  1.00  0.00    -0.354 N 
ATOM     48  C   UNL A   1      44.887  31.305  28.535  1.00  0.00     0.074 A 
ATOM     49  C   UNL A   1      43.905  32.248  29.024  1.00  0.00     0.031 C 
ATOM     50  C   UNL A   1      41.540  25.832  28.105  1.00  0.00     0.029 A 
ATOM     51  C   UNL A   1      42.943  26.047  27.763  1.00  0.00     0.049 A 
ATOM     52  H   UNL A   1      44.037  27.810  27.949  1.00  0.00     0.167 HD
ATOM     53  C   UNL A   1      46.180  31.614  28.272  1.00  0.00     0.037 A 
ATOM     54  C   UNL A   1      43.775  25.112  27.262  1.00  0.00     0.037 A 
ATOM     55  C   UNL A   1      47.158  30.668  27.802  1.00  0.00     0.049 A 
ATOM     56  C   UNL A   1      45.202  25.483  26.964  1.00  0.00     0.074 A 
ATOM     57  C   UNL A   1      48.503  30.874  27.548  1.00  0.00     0.029 A 
ATOM     58  N   UNL A   1      46.897  29.336  27.515  1.00  0.00    -0.354 N 
ATOM     59  N   UNL A   1      45.802  26.638  27.116  1.00  0.00    -0.248 NA
ATOM     60  C   UNL A   1      46.065  24.421  26.428  1.00  0.00     0.031 C 
ATOM     61  C   UNL A   1      49.047  29.674  27.072  1.00  0.00     0.029 A 
ATOM     62  C   UNL A   1      48.050  28.711  27.071  1.00  0.00     0.049 A 
ATOM     63  H   UNL A   1      46.020  28.899  27.612  1.00  0.00     0.167 HD
ATOM     64  C   UNL A   1      47.121  26.437  26.723  1.00  0.00     0.074 A 
ATOM     65  C   UNL A   1      47.231  25.047  26.332  1.00  0.00     0.031 C 
ATOM     66  C   UNL A   1      48.147  27.323  26.692  1.00  0.00     0.037 A 
BRANCH  53  67
ATOM     67  C   UNL A   1      46.605  33.040  28.493  1.00  0.00     0.058 A 
ATOM     68  C   UNL A   1      47.090  33.478  29.737  1.00  0.00     0.135 A 
ATOM     69  C   UNL A   1      46.535  33.980  27.451  1.00  0.00     0.135 A 
ATOM     70  F   UNL A   1      47.166  32.626  30.771  1.00  0.00    -0.206 F 
ATOM     71  C   UNL A   1      47.449  34.804  29.952  1.00  0.00     0.059 A 
ATOM     72  C   UNL A   1      46.918  35.306  27.637  1.00  0.00     0.059 A 
ATOM     73  F   UNL A   1      46.082  33.616  26.242  1.00  0.00    -0.206 F 
ATOM     74  C   UNL A   1      47.353  35.713  28.898  1.00  0.00     0.060 A 
BRANCH  74  75
ATOM     75  S   UNL A   1      47.801  37.435  29.198  1.00  0.00     0.124 S 
ATOM     76  O   UNL A   1      49.149  37.292  29.741  1.00  0.00    -0.237 OA
ATOM     77  O   UNL A   1      47.714  38.020  27.865  1.00  0.00    -0.237 OA
ATOM     78  O   UNL A   1      46.788  37.889  30.147  1.00  0.00    -0.744 OA
ENDBRANCH  74  75
ENDBRANCH  53  67
BRANCH  54  79
ATOM     79  C   UNL A   1      43.286  23.725  27.046  1.00  0.00     0.058 A 
ATOM     80  C   UNL A   1      42.961  23.272  25.759  1.00  0.00     0.135 A 
ATOM     81  C   UNL A   1      43.155  22.820  28.111  1.00  0.00     0.135 A 
ATOM     82  F   UNL A   1      43.065  24.103  24.711  1.00  0.00    -0.206 F 
ATOM     83  C   UNL A   1      42.513  21.975  25.533  1.00  0.00     0.059 A 
ATOM     84  C   UNL A   1      42.730  21.510  27.908  1.00  0.00     0.059 A 
ATOM     85  F   UNL A   1      43.468  23.200  29.359  1.00  0.00    -0.206 F 
ATOM     86  C   UNL A   1      42.403  21.100  26.616  1.00  0.00     0.060 A 
BRANCH  86  87
ATOM     87  S   UNL A   1      41.876  19.401  26.303  1.00  0.00     0.124 S 
ATOM     88  O   UNL A   1      42.347  18.722  27.505  1.00  0.00    -0.237 OA
ATOM     89  O   UNL A   1      40.431  19.546  26.174  1.00  0.00    -0.237 OA
ATOM     90  O   UNL A   1      42.575  19.056  25.068  1.00  0.00    -0.744 OA
ENDBRANCH  86  87
ENDBRANCH  54  79
BRANCH  66  91
ATOM     91  C   UNL A   1      49.490  26.810  26.252  1.00  0.00     0.058 A 
ATOM     92  C   UNL A   1      49.963  27.008  24.945  1.00  0.00     0.135 A 
ATOM     93  C   UNL A   1      50.333  26.156  27.165  1.00  0.00     0.135 A 
ATOM     94  F   UNL A   1      49.193  27.620  24.033  1.00  0.00    -0.206 F 
ATOM     95  C   UNL A   1      51.220  26.558  24.554  1.00  0.00     0.059 A 
ATOM     96  C   UNL A   1      51.604  25.721  26.801  1.00  0.00     0.059 A 
ATOM     97  F   UNL A   1      49.932  25.949  28.429  1.00  0.00    -0.206 F 
ATOM     98  C   UNL A   1      52.034  25.917  25.490  1.00  0.00     0.060 A 
BRANCH  98  99
ATOM     99  S   UNL A   1      53.678  25.372  24.980  1.00  0.00     0.124 S 
ATOM    100  O   UNL A   1      53.620  23.944  25.276  1.00  0.00    -0.237 OA
ATOM    101  O   UNL A   1      53.701  25.725  23.564  1.00  0.00    -0.237 OA
ATOM    102  O   UNL A   1      54.573  26.153  25.828  1.00  0.00    -0.744 OA
ENDBRANCH  98  99
ENDBRANCH  66  91
ENDBRANCH  40  41
ENDBRANCH  32  35
ENDBRANCH  30  31
ENDBRANCH   1  30
TORSDOF 16
ENDMDL
