MODEL 1
REMARK VINA RESULT:     -12.0      0.000      0.000
REMARK SMILES O=C(N/N=C/c1ccc(C(=O)NCCCCNC(=O)c2ccc(-c3c4nc(c(-c5c(F)cc(S(=O)(=O)[O-])cc5F)c5ccc([nH]5)c(-c5c(F)cc(S(=O)(=O)[O-])cc5F)c5nc(c(-c6c(F)cc(S(=O)(=O)[O-])cc6F)c6ccc3[nH]6)C=C5)C=C4)cc2)cc1)C(=O)Nc1cccc(Br)c1
REMARK SMILES IDX 14 1 13 2 12 3 10 4 11 5 9 7 6 8 7 9 87 10 8 11 86 12 5 13
REMARK SMILES IDX 4 14 3 15 1 16 2 17 88 19 89 20 90 21 91 23 92 24 97 25
REMARK SMILES IDX 93 26 95 27 94 28 96 29 15 30 16 31 17 32 18 33 19 35 20 36
REMARK SMILES IDX 21 37 85 38 22 39 84 40 23 41 24 42 25 43 78 44 26 45 83 46
REMARK SMILES IDX 77 47 79 48 27 49 82 50 76 51 75 52 28 54 62 55 41 56 61 57
REMARK SMILES IDX 42 58 45 59 60 60 80 61 43 62 44 63 59 65 81 66 46 67 29 68
REMARK SMILES IDX 30 69 39 70 31 71 32 72 38 73 40 74 33 75 34 76 35 77 36 78
REMARK SMILES IDX 37 79 63 80 64 81 73 82 65 83 66 84 72 85 74 86 67 87 68 88
REMARK SMILES IDX 69 89 70 90 71 91 47 92 48 93 57 94 49 95 50 96 56 97 58 98
REMARK SMILES IDX 51 99 52 100 53 101 54 102 55 103
REMARK H PARENT 12 6 3 18 90 22 17 34 79 53 45 64
REMARK Flexibility Score: inf
ROOT
ATOM      1  C   UNL A   1      46.259  23.354  25.745  1.00  0.00     0.023 C 
ENDROOT
BRANCH   1   2
ATOM      2  C   UNL A   1      45.213  22.497  26.457  1.00  0.00     0.116 C 
BRANCH   2   3
ATOM      3  N   UNL A   1      45.110  21.204  25.808  1.00  0.00    -0.352 N 
ATOM      4  C   UNL A   1      44.025  20.376  25.666  1.00  0.00     0.251 C 
ATOM      5  O   UNL A   1      44.156  19.294  25.101  1.00  0.00    -0.269 OA
ATOM      6  H   UNL A   1      45.945  20.869  25.410  1.00  0.00     0.163 HD
BRANCH   4   7
ATOM      7  C   UNL A   1      42.672  20.837  26.054  1.00  0.00     0.039 A 
ATOM      8  C   UNL A   1      39.710  21.713  26.078  1.00  0.00    -0.005 A 
ATOM      9  C   UNL A   1      40.310  20.319  26.112  1.00  0.00     0.010 A 
ATOM     10  C   UNL A   1      40.944  22.511  26.425  1.00  0.00     0.010 A 
ATOM     11  C   UNL A   1      41.667  19.906  26.084  1.00  0.00     0.014 A 
ATOM     12  C   UNL A   1      42.313  22.122  26.373  1.00  0.00     0.014 A 
BRANCH   8  13
ATOM     13  C   UNL A   1      37.718  22.327  25.631  1.00  0.00     0.141 C 
ATOM     14  N   UNL A   1      36.858  23.311  26.063  1.00  0.00    -0.180 NA
BRANCH  14  15
ATOM     15  N   UNL A   1      35.554  22.945  26.106  1.00  0.00    -0.239 N 
ATOM     16  O   UNL A   1      34.045  21.769  24.928  1.00  0.00    -0.262 OA
ATOM     17  C   UNL A   1      34.845  22.711  24.926  1.00  0.00     0.329 C 
ATOM     18  H   UNL A   1      35.103  22.842  26.975  1.00  0.00     0.194 HD
BRANCH  17  19
ATOM     19  C   UNL A   1      34.900  23.604  23.648  1.00  0.00     0.315 C 
ATOM     20  O   UNL A   1      35.615  23.204  22.721  1.00  0.00    -0.263 OA
ATOM     21  N   UNL A   1      34.160  24.748  23.376  1.00  0.00    -0.318 N 
ATOM     22  H   UNL A   1      34.316  25.167  22.500  1.00  0.00     0.170 HD
BRANCH  21  23
ATOM     23  C   UNL A   1      33.227  25.368  24.196  1.00  0.00     0.042 A 
ATOM     24  C   UNL A   1      33.949  26.248  25.618  1.00  0.00     0.026 A 
ATOM     25  C   UNL A   1      31.674  25.934  23.434  1.00  0.00     0.041 A 
ATOM     26  C   UNL A   1      33.065  27.704  26.322  1.00  0.00     0.003 A 
ATOM     27  C   UNL A   1      30.883  27.476  24.063  1.00  0.00     0.020 A 
ATOM     28  C   UNL A   1      31.556  28.315  25.520  1.00  0.00     0.016 A 
ATOM     29  Br  UNL A   1      29.458  28.274  23.097  1.00  0.00    -0.051 Br
ENDBRANCH  21  23
ENDBRANCH  17  19
ENDBRANCH  14  15
ENDBRANCH   8  13
ENDBRANCH   4   7
ENDBRANCH   2   3
ENDBRANCH   1   2
BRANCH   1  30
ATOM     30  C   UNL A   1      45.772  24.755  25.392  1.00  0.00     0.023 C 
BRANCH  30  31
ATOM     31  C   UNL A   1      44.571  25.216  26.198  1.00  0.00     0.116 C 
BRANCH  31  32
ATOM     32  N   UNL A   1      43.371  25.379  25.390  1.00  0.00    -0.352 N 
ATOM     33  C   UNL A   1      42.206  26.017  25.743  1.00  0.00     0.251 C 
ATOM     34  H   UNL A   1      43.397  24.989  24.486  1.00  0.00     0.163 HD
ATOM     35  O   UNL A   1      41.221  25.979  25.017  1.00  0.00    -0.269 OA
BRANCH  33  36
ATOM     36  C   UNL A   1      42.170  26.711  27.043  1.00  0.00     0.039 A 
ATOM     37  C   UNL A   1      42.750  27.974  27.155  1.00  0.00     0.014 A 
ATOM     38  C   UNL A   1      41.458  26.149  28.107  1.00  0.00     0.014 A 
ATOM     39  C   UNL A   1      42.562  28.706  28.326  1.00  0.00     0.010 A 
ATOM     40  C   UNL A   1      41.196  26.916  29.231  1.00  0.00     0.010 A 
ATOM     41  C   UNL A   1      41.753  28.197  29.357  1.00  0.00    -0.014 A 
BRANCH  41  42
ATOM     42  C   UNL A   1      41.496  28.978  30.590  1.00  0.00     0.031 A 
ATOM     43  C   UNL A   1      40.338  29.937  30.633  1.00  0.00     0.074 A 
ATOM     44  C   UNL A   1      42.332  28.868  31.640  1.00  0.00     0.049 A 
ATOM     45  N   UNL A   1      39.975  30.752  31.588  1.00  0.00    -0.248 NA
ATOM     46  C   UNL A   1      39.496  30.013  29.426  1.00  0.00     0.031 C 
ATOM     47  C   UNL A   1      43.517  28.008  31.695  1.00  0.00     0.029 A 
ATOM     48  N   UNL A   1      42.316  29.487  32.864  1.00  0.00    -0.354 N 
ATOM     49  C   UNL A   1      38.874  31.442  31.094  1.00  0.00     0.074 A 
ATOM     50  C   UNL A   1      38.674  31.003  29.731  1.00  0.00     0.031 C 
ATOM     51  C   UNL A   1      44.092  28.129  32.903  1.00  0.00     0.029 A 
ATOM     52  C   UNL A   1      43.342  29.100  33.693  1.00  0.00     0.049 A 
ATOM     53  H   UNL A   1      41.633  30.147  33.125  1.00  0.00     0.167 HD
ATOM     54  C   UNL A   1      38.081  32.336  31.731  1.00  0.00     0.037 A 
ATOM     55  C   UNL A   1      43.642  29.486  34.949  1.00  0.00     0.037 A 
ATOM     56  C   UNL A   1      38.277  32.748  33.095  1.00  0.00     0.049 A 
ATOM     57  C   UNL A   1      42.754  30.490  35.634  1.00  0.00     0.074 A 
ATOM     58  C   UNL A   1      37.506  33.611  33.852  1.00  0.00     0.029 A 
ATOM     59  N   UNL A   1      39.322  32.327  33.906  1.00  0.00    -0.354 N 
ATOM     60  N   UNL A   1      41.679  31.088  35.176  1.00  0.00    -0.248 NA
ATOM     61  C   UNL A   1      43.114  30.866  37.007  1.00  0.00     0.031 C 
ATOM     62  C   UNL A   1      38.110  33.747  35.108  1.00  0.00     0.029 A 
ATOM     63  C   UNL A   1      39.227  32.928  35.150  1.00  0.00     0.049 A 
ATOM     64  H   UNL A   1      40.027  31.695  33.636  1.00  0.00     0.167 HD
ATOM     65  C   UNL A   1      41.217  31.889  36.214  1.00  0.00     0.074 A 
ATOM     66  C   UNL A   1      42.125  31.690  37.327  1.00  0.00     0.031 C 
ATOM     67  C   UNL A   1      40.138  32.711  36.247  1.00  0.00     0.037 A 
BRANCH  54  68
ATOM     68  C   UNL A   1      36.931  32.915  30.952  1.00  0.00     0.058 A 
ATOM     69  C   UNL A   1      37.125  33.924  29.992  1.00  0.00     0.135 A 
ATOM     70  C   UNL A   1      35.620  32.461  31.166  1.00  0.00     0.135 A 
ATOM     71  F   UNL A   1      38.356  34.410  29.759  1.00  0.00    -0.206 F 
ATOM     72  C   UNL A   1      36.057  34.491  29.306  1.00  0.00     0.059 A 
ATOM     73  C   UNL A   1      34.540  32.991  30.466  1.00  0.00     0.059 A 
ATOM     74  F   UNL A   1      35.376  31.500  32.070  1.00  0.00    -0.206 F 
ATOM     75  C   UNL A   1      34.767  34.021  29.554  1.00  0.00     0.060 A 
BRANCH  75  76
ATOM     76  S   UNL A   1      33.389  34.782  28.670  1.00  0.00     0.124 S 
ATOM     77  O   UNL A   1      33.048  33.737  27.709  1.00  0.00    -0.237 OA
ATOM     78  O   UNL A   1      32.418  35.002  29.737  1.00  0.00    -0.237 OA
ATOM     79  O   UNL A   1      33.976  35.991  28.100  1.00  0.00    -0.744 OA
ENDBRANCH  75  76
ENDBRANCH  54  68
BRANCH  55  80
ATOM     80  C   UNL A   1      44.809  28.890  35.651  1.00  0.00     0.058 A 
ATOM     81  C   UNL A   1      44.658  27.751  36.457  1.00  0.00     0.135 A 
ATOM     82  C   UNL A   1      46.099  29.425  35.513  1.00  0.00     0.135 A 
ATOM     83  F   UNL A   1      43.444  27.205  36.624  1.00  0.00    -0.206 F 
ATOM     84  C   UNL A   1      45.740  27.172  37.113  1.00  0.00     0.059 A 
ATOM     85  C   UNL A   1      47.201  28.849  36.139  1.00  0.00     0.059 A 
ATOM     86  F   UNL A   1      46.300  30.504  34.740  1.00  0.00    -0.206 F 
ATOM     87  C   UNL A   1      47.009  27.726  36.943  1.00  0.00     0.060 A 
BRANCH  87  88
ATOM     88  S   UNL A   1      48.414  26.930  37.753  1.00  0.00     0.124 S 
ATOM     89  O   UNL A   1      47.876  26.664  39.081  1.00  0.00    -0.237 OA
ATOM     90  O   UNL A   1      48.633  25.762  36.904  1.00  0.00    -0.237 OA
ATOM     91  O   UNL A   1      49.460  27.948  37.686  1.00  0.00    -0.744 OA
ENDBRANCH  87  88
ENDBRANCH  55  80
BRANCH  67  92
ATOM     92  C   UNL A   1      39.858  33.433  37.535  1.00  0.00     0.058 A 
ATOM     93  C   UNL A   1      40.536  34.609  37.888  1.00  0.00     0.135 A 
ATOM     94  C   UNL A   1      38.854  32.969  38.403  1.00  0.00     0.135 A 
ATOM     95  F   UNL A   1      41.508  35.092  37.097  1.00  0.00    -0.206 F 
ATOM     96  C   UNL A   1      40.245  35.290  39.065  1.00  0.00     0.059 A 
ATOM     97  C   UNL A   1      38.526  33.649  39.570  1.00  0.00     0.059 A 
ATOM     98  F   UNL A   1      38.167  31.853  38.106  1.00  0.00    -0.206 F 
ATOM     99  C   UNL A   1      39.235  34.803  39.898  1.00  0.00     0.060 A 
BRANCH  99 100
ATOM    100  S   UNL A   1      38.842  35.717  41.405  1.00  0.00     0.124 S 
ATOM    101  O   UNL A   1      38.851  37.094  40.924  1.00  0.00    -0.237 OA
ATOM    102  O   UNL A   1      37.534  35.179  41.762  1.00  0.00    -0.237 OA
ATOM    103  O   UNL A   1      39.929  35.361  42.312  1.00  0.00    -0.744 OA
ENDBRANCH  99 100
ENDBRANCH  67  92
ENDBRANCH  41  42
ENDBRANCH  33  36
ENDBRANCH  31  32
ENDBRANCH  30  31
ENDBRANCH   1  30
TORSDOF 18
ENDMDL
MODEL 2
REMARK VINA RESULT:     -11.9      4.475     11.529
REMARK SMILES O=C(N/N=C/c1ccc(C(=O)NCCCCNC(=O)c2ccc(-c3c4nc(c(-c5c(F)cc(S(=O)(=O)[O-])cc5F)c5ccc([nH]5)c(-c5c(F)cc(S(=O)(=O)[O-])cc5F)c5nc(c(-c6c(F)cc(S(=O)(=O)[O-])cc6F)c6ccc3[nH]6)C=C5)C=C4)cc2)cc1)C(=O)Nc1cccc(Br)c1
REMARK SMILES IDX 14 1 13 2 12 3 10 4 11 5 9 7 6 8 7 9 87 10 8 11 86 12 5 13
REMARK SMILES IDX 4 14 3 15 1 16 2 17 88 19 89 20 90 21 91 23 92 24 97 25
REMARK SMILES IDX 93 26 95 27 94 28 96 29 15 30 16 31 17 32 18 33 19 35 20 36
REMARK SMILES IDX 21 37 85 38 22 39 84 40 23 41 24 42 25 43 78 44 26 45 83 46
REMARK SMILES IDX 77 47 79 48 27 49 82 50 76 51 75 52 28 54 62 55 41 56 61 57
REMARK SMILES IDX 42 58 45 59 60 60 80 61 43 62 44 63 59 65 81 66 46 67 29 68
REMARK SMILES IDX 30 69 39 70 31 71 32 72 38 73 40 74 33 75 34 76 35 77 36 78
REMARK SMILES IDX 37 79 63 80 64 81 73 82 65 83 66 84 72 85 74 86 67 87 68 88
REMARK SMILES IDX 69 89 70 90 71 91 47 92 48 93 57 94 49 95 50 96 56 97 58 98
REMARK SMILES IDX 51 99 52 100 53 101 54 102 55 103
REMARK H PARENT 12 6 3 18 90 22 17 34 79 53 45 64
REMARK Flexibility Score: inf
ROOT
ATOM      1  C   UNL A   1      33.674  34.726  28.375  1.00  0.00     0.023 C 
ENDROOT
BRANCH   1   2
ATOM      2  C   UNL A   1      34.148  35.279  29.719  1.00  0.00     0.116 C 
BRANCH   2   3
ATOM      3  N   UNL A   1      34.027  34.260  30.743  1.00  0.00    -0.352 N 
ATOM      4  C   UNL A   1      34.962  33.376  31.219  1.00  0.00     0.251 C 
ATOM      5  O   UNL A   1      34.645  32.561  32.081  1.00  0.00    -0.269 OA
ATOM      6  H   UNL A   1      33.137  34.191  31.160  1.00  0.00     0.163 HD
BRANCH   4   7
ATOM      7  C   UNL A   1      36.381  33.493  30.813  1.00  0.00     0.039 A 
ATOM      8  C   UNL A   1      39.129  34.497  29.822  1.00  0.00    -0.005 A 
ATOM      9  C   UNL A   1      38.499  34.596  31.200  1.00  0.00     0.010 A 
ATOM     10  C   UNL A   1      38.222  33.451  29.221  1.00  0.00     0.010 A 
ATOM     11  C   UNL A   1      37.232  34.153  31.660  1.00  0.00     0.014 A 
ATOM     12  C   UNL A   1      36.935  33.017  29.652  1.00  0.00     0.014 A 
BRANCH   8  13
ATOM     13  C   UNL A   1      40.782  35.563  29.002  1.00  0.00     0.141 C 
ATOM     14  N   UNL A   1      41.462  35.582  27.806  1.00  0.00    -0.180 NA
BRANCH  14  15
ATOM     15  N   UNL A   1      42.795  35.807  27.914  1.00  0.00    -0.239 N 
ATOM     16  O   UNL A   1      44.561  36.386  26.653  1.00  0.00    -0.262 OA
ATOM     17  C   UNL A   1      43.641  35.579  26.827  1.00  0.00     0.329 C 
ATOM     18  H   UNL A   1      43.168  36.133  28.764  1.00  0.00     0.194 HD
BRANCH  17  19
ATOM     19  C   UNL A   1      43.587  34.337  25.885  1.00  0.00     0.315 C 
ATOM     20  O   UNL A   1      43.069  34.505  24.774  1.00  0.00    -0.263 OA
ATOM     21  N   UNL A   1      44.144  33.083  26.097  1.00  0.00    -0.318 N 
ATOM     22  H   UNL A   1      44.024  32.427  25.373  1.00  0.00     0.170 HD
BRANCH  21  23
ATOM     23  C   UNL A   1      44.849  32.646  27.210  1.00  0.00     0.042 A 
ATOM     24  C   UNL A   1      43.815  32.337  28.677  1.00  0.00     0.026 A 
ATOM     25  C   UNL A   1      46.378  31.700  26.925  1.00  0.00     0.041 A 
ATOM     26  C   UNL A   1      44.354  31.081  29.914  1.00  0.00     0.003 A 
ATOM     27  C   UNL A   1      46.823  30.350  28.100  1.00  0.00     0.020 A 
ATOM     28  C   UNL A   1      45.838  30.086  29.597  1.00  0.00     0.016 A 
ATOM     29  Br  UNL A   1      48.216  29.137  27.668  1.00  0.00    -0.051 Br
ENDBRANCH  21  23
ENDBRANCH  17  19
ENDBRANCH  14  15
ENDBRANCH   8  13
ENDBRANCH   4   7
ENDBRANCH   2   3
ENDBRANCH   1   2
BRANCH   1  30
ATOM     30  C   UNL A   1      33.357  33.235  28.399  1.00  0.00     0.023 C 
BRANCH  30  31
ATOM     31  C   UNL A   1      34.422  32.364  27.758  1.00  0.00     0.116 C 
BRANCH  31  32
ATOM     32  N   UNL A   1      33.910  31.078  27.306  1.00  0.00    -0.352 N 
ATOM     33  C   UNL A   1      34.549  29.861  27.352  1.00  0.00     0.251 C 
ATOM     34  H   UNL A   1      33.003  31.080  26.924  1.00  0.00     0.163 HD
ATOM     35  O   UNL A   1      34.057  28.872  26.825  1.00  0.00    -0.269 OA
BRANCH  33  36
ATOM     36  C   UNL A   1      35.862  29.799  28.019  1.00  0.00     0.039 A 
ATOM     37  C   UNL A   1      35.922  29.451  29.367  1.00  0.00     0.014 A 
ATOM     38  C   UNL A   1      37.027  29.975  27.267  1.00  0.00     0.014 A 
ATOM     39  C   UNL A   1      37.166  29.217  29.953  1.00  0.00     0.010 A 
ATOM     40  C   UNL A   1      38.253  29.652  27.828  1.00  0.00     0.010 A 
ATOM     41  C   UNL A   1      38.337  29.280  29.178  1.00  0.00    -0.014 A 
BRANCH  41  42
ATOM     42  C   UNL A   1      39.665  28.985  29.764  1.00  0.00     0.031 A 
ATOM     43  C   UNL A   1      40.183  29.835  30.892  1.00  0.00     0.074 A 
ATOM     44  C   UNL A   1      40.423  28.000  29.246  1.00  0.00     0.049 A 
ATOM     45  N   UNL A   1      41.336  29.781  31.505  1.00  0.00    -0.248 NA
ATOM     46  C   UNL A   1      39.297  30.910  31.372  1.00  0.00     0.031 C 
ATOM     47  C   UNL A   1      40.047  27.143  28.120  1.00  0.00     0.029 A 
ATOM     48  N   UNL A   1      41.672  27.554  29.598  1.00  0.00    -0.354 N 
ATOM     49  C   UNL A   1      41.318  30.817  32.430  1.00  0.00     0.074 A 
ATOM     50  C   UNL A   1      40.071  31.527  32.250  1.00  0.00     0.031 C 
ATOM     51  C   UNL A   1      41.029  26.254  27.897  1.00  0.00     0.029 A 
ATOM     52  C   UNL A   1      42.117  26.500  28.836  1.00  0.00     0.049 A 
ATOM     53  H   UNL A   1      42.200  27.951  30.328  1.00  0.00     0.167 HD
ATOM     54  C   UNL A   1      42.242  31.129  33.370  1.00  0.00     0.037 A 
ATOM     55  C   UNL A   1      43.274  25.810  28.892  1.00  0.00     0.037 A 
ATOM     56  C   UNL A   1      43.470  30.402  33.555  1.00  0.00     0.049 A 
ATOM     57  C   UNL A   1      44.293  26.182  29.936  1.00  0.00     0.074 A 
ATOM     58  C   UNL A   1      44.453  30.602  34.506  1.00  0.00     0.029 A 
ATOM     59  N   UNL A   1      43.881  29.334  32.770  1.00  0.00    -0.354 N 
ATOM     60  N   UNL A   1      44.235  27.125  30.847  1.00  0.00    -0.248 NA
ATOM     61  C   UNL A   1      45.530  25.391  29.966  1.00  0.00     0.031 C 
ATOM     62  C   UNL A   1      45.482  29.684  34.268  1.00  0.00     0.029 A 
ATOM     63  C   UNL A   1      45.115  28.878  33.203  1.00  0.00     0.049 A 
ATOM     64  H   UNL A   1      43.372  28.957  32.017  1.00  0.00     0.167 HD
ATOM     65  C   UNL A   1      45.414  27.023  31.576  1.00  0.00     0.074 A 
ATOM     66  C   UNL A   1      46.161  25.919  31.007  1.00  0.00     0.031 C 
ATOM     67  C   UNL A   1      45.839  27.771  32.625  1.00  0.00     0.037 A 
BRANCH  54  68
ATOM     68  C   UNL A   1      41.948  32.302  34.265  1.00  0.00     0.058 A 
ATOM     69  C   UNL A   1      41.125  32.177  35.398  1.00  0.00     0.135 A 
ATOM     70  C   UNL A   1      42.491  33.567  33.989  1.00  0.00     0.135 A 
ATOM     71  F   UNL A   1      40.563  30.995  35.700  1.00  0.00    -0.206 F 
ATOM     72  C   UNL A   1      40.816  33.272  36.198  1.00  0.00     0.059 A 
ATOM     73  C   UNL A   1      42.222  34.669  34.796  1.00  0.00     0.059 A 
ATOM     74  F   UNL A   1      43.283  33.745  32.921  1.00  0.00    -0.206 F 
ATOM     75  C   UNL A   1      41.365  34.515  35.886  1.00  0.00     0.060 A 
BRANCH  75  76
ATOM     76  S   UNL A   1      40.938  35.930  36.922  1.00  0.00     0.124 S 
ATOM     77  O   UNL A   1      39.753  36.442  36.241  1.00  0.00    -0.237 OA
ATOM     78  O   UNL A   1      40.702  35.305  38.220  1.00  0.00    -0.237 OA
ATOM     79  O   UNL A   1      42.123  36.779  36.844  1.00  0.00    -0.744 OA
ENDBRANCH  75  76
ENDBRANCH  54  68
BRANCH  55  80
ATOM     80  C   UNL A   1      43.509  24.677  27.959  1.00  0.00     0.058 A 
ATOM     81  C   UNL A   1      44.192  24.873  26.749  1.00  0.00     0.135 A 
ATOM     82  C   UNL A   1      43.083  23.375  28.265  1.00  0.00     0.135 A 
ATOM     83  F   UNL A   1      44.616  26.099  26.410  1.00  0.00    -0.206 F 
ATOM     84  C   UNL A   1      44.432  23.822  25.868  1.00  0.00     0.059 A 
ATOM     85  C   UNL A   1      43.333  22.304  27.411  1.00  0.00     0.059 A 
ATOM     86  F   UNL A   1      42.439  23.132  29.417  1.00  0.00    -0.206 F 
ATOM     87  C   UNL A   1      44.002  22.540  26.212  1.00  0.00     0.060 A 
BRANCH  87  88
ATOM     88  S   UNL A   1      44.371  21.176  25.087  1.00  0.00     0.124 S 
ATOM     89  O   UNL A   1      43.286  20.248  25.383  1.00  0.00    -0.237 OA
ATOM     90  O   UNL A   1      44.314  21.832  23.784  1.00  0.00    -0.237 OA
ATOM     91  O   UNL A   1      45.702  20.745  25.506  1.00  0.00    -0.744 OA
ENDBRANCH  87  88
ENDBRANCH  55  80
BRANCH  67  92
ATOM     92  C   UNL A   1      47.156  27.402  33.249  1.00  0.00     0.058 A 
ATOM     93  C   UNL A   1      48.370  27.921  32.777  1.00  0.00     0.135 A 
ATOM     94  C   UNL A   1      47.196  26.560  34.373  1.00  0.00     0.135 A 
ATOM     95  F   UNL A   1      48.389  28.726  31.702  1.00  0.00    -0.206 F 
ATOM     96  C   UNL A   1      49.581  27.602  33.382  1.00  0.00     0.059 A 
ATOM     97  C   UNL A   1      48.391  26.250  35.013  1.00  0.00     0.059 A 
ATOM     98  F   UNL A   1      46.060  26.045  34.873  1.00  0.00    -0.206 F 
ATOM     99  C   UNL A   1      49.580  26.768  34.502  1.00  0.00     0.060 A 
BRANCH  99 100
ATOM    100  S   UNL A   1      51.155  26.392  35.301  1.00  0.00     0.124 S 
ATOM    101  O   UNL A   1      52.013  26.131  34.151  1.00  0.00    -0.237 OA
ATOM    102  O   UNL A   1      51.434  27.622  36.034  1.00  0.00    -0.237 OA
ATOM    103  O   UNL A   1      50.846  25.231  36.131  1.00  0.00    -0.744 OA
ENDBRANCH  99 100
ENDBRANCH  67  92
ENDBRANCH  41  42
ENDBRANCH  33  36
ENDBRANCH  31  32
ENDBRANCH  30  31
ENDBRANCH   1  30
TORSDOF 18
ENDMDL
MODEL 3
REMARK VINA RESULT:     -11.7      5.668     11.866
REMARK SMILES O=C(N/N=C/c1ccc(C(=O)NCCCCNC(=O)c2ccc(-c3c4nc(c(-c5c(F)cc(S(=O)(=O)[O-])cc5F)c5ccc([nH]5)c(-c5c(F)cc(S(=O)(=O)[O-])cc5F)c5nc(c(-c6c(F)cc(S(=O)(=O)[O-])cc6F)c6ccc3[nH]6)C=C5)C=C4)cc2)cc1)C(=O)Nc1cccc(Br)c1
REMARK SMILES IDX 14 1 13 2 12 3 10 4 11 5 9 7 6 8 7 9 87 10 8 11 86 12 5 13
REMARK SMILES IDX 4 14 3 15 1 16 2 17 88 19 89 20 90 21 91 23 92 24 97 25
REMARK SMILES IDX 93 26 95 27 94 28 96 29 15 30 16 31 17 32 18 33 19 35 20 36
REMARK SMILES IDX 21 37 85 38 22 39 84 40 23 41 24 42 25 43 78 44 26 45 83 46
REMARK SMILES IDX 77 47 79 48 27 49 82 50 76 51 75 52 28 54 62 55 41 56 61 57
REMARK SMILES IDX 42 58 45 59 60 60 80 61 43 62 44 63 59 65 81 66 46 67 29 68
REMARK SMILES IDX 30 69 39 70 31 71 32 72 38 73 40 74 33 75 34 76 35 77 36 78
REMARK SMILES IDX 37 79 63 80 64 81 73 82 65 83 66 84 72 85 74 86 67 87 68 88
REMARK SMILES IDX 69 89 70 90 71 91 47 92 48 93 57 94 49 95 50 96 56 97 58 98
REMARK SMILES IDX 51 99 52 100 53 101 54 102 55 103
REMARK H PARENT 12 6 3 18 90 22 17 34 79 53 45 64
REMARK Flexibility Score: inf
ROOT
ATOM      1  C   UNL A   1      36.093  29.132  27.752  1.00  0.00     0.023 C 
ENDROOT
BRANCH   1   2
ATOM      2  C   UNL A   1      35.071  29.328  26.633  1.00  0.00     0.116 C 
BRANCH   2   3
ATOM      3  N   UNL A   1      34.256  30.496  26.907  1.00  0.00    -0.352 N 
ATOM      4  C   UNL A   1      32.895  30.655  26.834  1.00  0.00     0.251 C 
ATOM      5  O   UNL A   1      32.397  31.750  27.083  1.00  0.00    -0.269 OA
ATOM      6  H   UNL A   1      34.755  31.296  27.189  1.00  0.00     0.163 HD
BRANCH   4   7
ATOM      7  C   UNL A   1      32.013  29.487  26.605  1.00  0.00     0.039 A 
ATOM      8  C   UNL A   1      30.862  26.649  26.210  1.00  0.00    -0.005 A 
ATOM      9  C   UNL A   1      31.166  27.402  27.492  1.00  0.00     0.010 A 
ATOM     10  C   UNL A   1      30.907  27.804  25.239  1.00  0.00     0.010 A 
ATOM     11  C   UNL A   1      31.710  28.699  27.684  1.00  0.00     0.014 A 
ATOM     12  C   UNL A   1      31.475  29.100  25.404  1.00  0.00     0.014 A 
BRANCH   8  13
ATOM     13  C   UNL A   1      30.515  24.568  25.903  1.00  0.00     0.141 C 
ATOM     14  N   UNL A   1      31.100  23.390  26.308  1.00  0.00    -0.180 NA
BRANCH  14  15
ATOM     15  N   UNL A   1      31.077  22.398  25.384  1.00  0.00    -0.239 N 
ATOM     16  O   UNL A   1      31.902  20.338  25.034  1.00  0.00    -0.262 OA
ATOM     17  C   UNL A   1      32.160  21.527  25.255  1.00  0.00     0.329 C 
ATOM     18  H   UNL A   1      30.292  22.292  24.801  1.00  0.00     0.194 HD
BRANCH  17  19
ATOM     19  C   UNL A   1      33.663  21.946  25.259  1.00  0.00     0.315 C 
ATOM     20  O   UNL A   1      34.478  21.088  25.622  1.00  0.00    -0.263 OA
ATOM     21  N   UNL A   1      34.216  23.136  24.805  1.00  0.00    -0.318 N 
ATOM     22  H   UNL A   1      35.195  23.211  24.869  1.00  0.00     0.170 HD
BRANCH  21  23
ATOM     23  C   UNL A   1      33.549  24.231  24.272  1.00  0.00     0.042 A 
ATOM     24  C   UNL A   1      34.132  25.839  24.900  1.00  0.00     0.026 A 
ATOM     25  C   UNL A   1      32.868  24.072  22.592  1.00  0.00     0.041 A 
ATOM     26  C   UNL A   1      33.982  27.333  23.831  1.00  0.00     0.003 A 
ATOM     27  C   UNL A   1      32.860  25.550  21.490  1.00  0.00     0.020 A 
ATOM     28  C   UNL A   1      33.371  27.166  22.130  1.00  0.00     0.016 A 
ATOM     29  Br  UNL A   1      32.467  25.356  19.644  1.00  0.00    -0.051 Br
ENDBRANCH  21  23
ENDBRANCH  17  19
ENDBRANCH  14  15
ENDBRANCH   8  13
ENDBRANCH   4   7
ENDBRANCH   2   3
ENDBRANCH   1   2
BRANCH   1  30
ATOM     30  C   UNL A   1      35.971  30.147  28.883  1.00  0.00     0.023 C 
BRANCH  30  31
ATOM     31  C   UNL A   1      36.519  29.663  30.213  1.00  0.00     0.116 C 
BRANCH  31  32
ATOM     32  N   UNL A   1      36.407  30.657  31.271  1.00  0.00    -0.352 N 
ATOM     33  C   UNL A   1      37.430  31.262  31.962  1.00  0.00     0.251 C 
ATOM     34  H   UNL A   1      35.494  30.927  31.521  1.00  0.00     0.163 HD
ATOM     35  O   UNL A   1      37.201  31.993  32.917  1.00  0.00    -0.269 OA
BRANCH  33  36
ATOM     36  C   UNL A   1      38.812  30.967  31.540  1.00  0.00     0.039 A 
ATOM     37  C   UNL A   1      39.596  30.125  32.327  1.00  0.00     0.014 A 
ATOM     38  C   UNL A   1      39.274  31.438  30.308  1.00  0.00     0.014 A 
ATOM     39  C   UNL A   1      40.833  29.702  31.843  1.00  0.00     0.010 A 
ATOM     40  C   UNL A   1      40.460  30.942  29.791  1.00  0.00     0.010 A 
ATOM     41  C   UNL A   1      41.257  30.078  30.556  1.00  0.00    -0.014 A 
BRANCH  41  42
ATOM     42  C   UNL A   1      42.544  29.600  29.999  1.00  0.00     0.031 A 
ATOM     43  C   UNL A   1      42.624  28.228  29.388  1.00  0.00     0.074 A 
ATOM     44  C   UNL A   1      43.645  30.370  30.096  1.00  0.00     0.049 A 
ATOM     45  N   UNL A   1      43.660  27.600  28.899  1.00  0.00    -0.248 NA
ATOM     46  C   UNL A   1      41.377  27.444  29.355  1.00  0.00     0.031 C 
ATOM     47  C   UNL A   1      43.699  31.698  30.712  1.00  0.00     0.029 A 
ATOM     48  N   UNL A   1      44.932  30.147  29.678  1.00  0.00    -0.354 N 
ATOM     49  C   UNL A   1      43.194  26.350  28.511  1.00  0.00     0.074 A 
ATOM     50  C   UNL A   1      41.800  26.281  28.888  1.00  0.00     0.031 C 
ATOM     51  C   UNL A   1      44.947  32.183  30.601  1.00  0.00     0.029 A 
ATOM     52  C   UNL A   1      45.788  31.190  29.942  1.00  0.00     0.049 A 
ATOM     53  H   UNL A   1      45.216  29.317  29.231  1.00  0.00     0.167 HD
ATOM     54  C   UNL A   1      43.858  25.361  27.867  1.00  0.00     0.037 A 
ATOM     55  C   UNL A   1      47.102  31.327  29.679  1.00  0.00     0.037 A 
ATOM     56  C   UNL A   1      45.240  25.449  27.477  1.00  0.00     0.049 A 
ATOM     57  C   UNL A   1      47.825  30.210  28.974  1.00  0.00     0.074 A 
ATOM     58  C   UNL A   1      45.998  24.527  26.780  1.00  0.00     0.029 A 
ATOM     59  N   UNL A   1      46.071  26.526  27.753  1.00  0.00    -0.354 N 
ATOM     60  N   UNL A   1      47.355  29.058  28.557  1.00  0.00    -0.248 NA
ATOM     61  C   UNL A   1      49.252  30.415  28.697  1.00  0.00     0.031 C 
ATOM     62  C   UNL A   1      47.301  25.026  26.673  1.00  0.00     0.029 A 
ATOM     63  C   UNL A   1      47.341  26.282  27.258  1.00  0.00     0.049 A 
ATOM     64  H   UNL A   1      45.799  27.342  28.231  1.00  0.00     0.167 HD
ATOM     65  C   UNL A   1      48.421  28.411  27.943  1.00  0.00     0.074 A 
ATOM     66  C   UNL A   1      49.558  29.307  28.034  1.00  0.00     0.031 C 
ATOM     67  C   UNL A   1      48.458  27.190  27.353  1.00  0.00     0.037 A 
BRANCH  54  68
ATOM     68  C   UNL A   1      43.089  24.108  27.547  1.00  0.00     0.058 A 
ATOM     69  C   UNL A   1      43.001  23.042  28.460  1.00  0.00     0.135 A 
ATOM     70  C   UNL A   1      42.432  23.967  26.314  1.00  0.00     0.135 A 
ATOM     71  F   UNL A   1      43.626  23.115  29.647  1.00  0.00    -0.206 F 
ATOM     72  C   UNL A   1      42.329  21.867  28.145  1.00  0.00     0.059 A 
ATOM     73  C   UNL A   1      41.725  22.812  25.992  1.00  0.00     0.059 A 
ATOM     74  F   UNL A   1      42.482  24.951  25.404  1.00  0.00    -0.206 F 
ATOM     75  C   UNL A   1      41.698  21.759  26.906  1.00  0.00     0.060 A 
BRANCH  75  76
ATOM     76  S   UNL A   1      40.847  20.218  26.504  1.00  0.00     0.124 S 
ATOM     77  O   UNL A   1      39.568  20.715  26.006  1.00  0.00    -0.237 OA
ATOM     78  O   UNL A   1      41.729  19.628  25.502  1.00  0.00    -0.237 OA
ATOM     79  O   UNL A   1      40.794  19.515  27.782  1.00  0.00    -0.744 OA
ENDBRANCH  75  76
ENDBRANCH  54  68
BRANCH  55  80
ATOM     80  C   UNL A   1      47.806  32.584  30.046  1.00  0.00     0.058 A 
ATOM     81  C   UNL A   1      47.862  33.664  29.152  1.00  0.00     0.135 A 
ATOM     82  C   UNL A   1      48.413  32.744  31.301  1.00  0.00     0.135 A 
ATOM     83  F   UNL A   1      47.300  33.558  27.938  1.00  0.00    -0.206 F 
ATOM     84  C   UNL A   1      48.506  34.853  29.482  1.00  0.00     0.059 A 
ATOM     85  C   UNL A   1      49.042  33.933  31.664  1.00  0.00     0.059 A 
ATOM     86  F   UNL A   1      48.374  31.747  32.200  1.00  0.00    -0.206 F 
ATOM     87  C   UNL A   1      49.088  34.979  30.744  1.00  0.00     0.060 A 
BRANCH  87  88
ATOM     88  S   UNL A   1      49.870  36.547  31.181  1.00  0.00     0.124 S 
ATOM     89  O   UNL A   1      51.026  36.096  31.947  1.00  0.00    -0.237 OA
ATOM     90  O   UNL A   1      50.156  37.121  29.869  1.00  0.00    -0.237 OA
ATOM     91  O   UNL A   1      48.835  37.236  31.946  1.00  0.00    -0.744 OA
ENDBRANCH  87  88
ENDBRANCH  55  80
BRANCH  67  92
ATOM     92  C   UNL A   1      49.757  26.762  26.729  1.00  0.00     0.058 A 
ATOM     93  C   UNL A   1      50.692  25.985  27.427  1.00  0.00     0.135 A 
ATOM     94  C   UNL A   1      50.041  27.089  25.392  1.00  0.00     0.135 A 
ATOM     95  F   UNL A   1      50.472  25.650  28.709  1.00  0.00    -0.206 F 
ATOM     96  C   UNL A   1      51.876  25.563  26.830  1.00  0.00     0.059 A 
ATOM     97  C   UNL A   1      51.204  26.654  24.765  1.00  0.00     0.059 A 
ATOM     98  F   UNL A   1      49.173  27.822  24.675  1.00  0.00    -0.206 F 
ATOM     99  C   UNL A   1      52.121  25.900  25.497  1.00  0.00     0.060 A 
BRANCH  99 100
ATOM    100  S   UNL A   1      53.643  25.315  24.723  1.00  0.00     0.124 S 
ATOM    101  O   UNL A   1      54.645  26.151  25.375  1.00  0.00    -0.237 OA
ATOM    102  O   UNL A   1      53.658  23.904  25.092  1.00  0.00    -0.237 OA
ATOM    103  O   UNL A   1      53.428  25.584  23.304  1.00  0.00    -0.744 OA
ENDBRANCH  99 100
ENDBRANCH  67  92
ENDBRANCH  41  42
ENDBRANCH  33  36
ENDBRANCH  31  32
ENDBRANCH  30  31
ENDBRANCH   1  30
TORSDOF 18
ENDMDL
