MODEL 1
REMARK VINA RESULT:     -11.0      0.000      0.000
REMARK SMILES C[C@@H](C(=O)NCCCCNC(=O)c1ccc(-c2c3nc(c(-c4c(F)cc(S(=O)(=O)[O-])cc4F)c4ccc([nH]4)c(-c4c(F)cc(S(=O)(=O)[O-])cc4F)c4nc(c(-c5c(F)cc(S(=O)(=O)[O-])cc5F)c5ccc2[nH]5)C=C4)C=C3)cc1)c1ccc2c(c1)[nH]c1ccc(Cl)cc12
REMARK SMILES IDX 8 1 7 2 6 3 5 4 3 5 4 6 2 8 1 9 79 10 80 11 84 12 81 13
REMARK SMILES IDX 83 14 82 15 85 16 92 17 86 18 91 20 87 21 89 22 88 23 90 24
REMARK SMILES IDX 9 25 10 26 11 27 12 29 13 30 14 31 78 32 15 33 77 34 16 35
REMARK SMILES IDX 17 36 18 37 71 38 19 39 76 40 70 41 72 42 20 43 75 44 69 45
REMARK SMILES IDX 68 46 21 48 55 49 34 50 54 51 35 52 38 53 53 54 73 55 36 56
REMARK SMILES IDX 37 57 52 59 74 60 39 61 22 62 23 63 32 64 24 65 25 66 31 67
REMARK SMILES IDX 33 68 26 69 27 70 28 71 29 72 30 73 56 74 57 75 66 76 58 77
REMARK SMILES IDX 59 78 65 79 67 80 60 81 61 82 62 83 63 84 64 85 40 86 41 87
REMARK SMILES IDX 50 88 42 89 43 90 49 91 51 92 44 93 45 94 46 95 47 96 48 97
REMARK H PARENT 5 7 85 19 10 28 72 47 38 58
REMARK Flexibility Score: inf
ROOT
ATOM      1  C   UNL A   1      33.926  34.054  27.966  1.00  0.00     0.023 C 
ENDROOT
BRANCH   1   2
ATOM      2  C   UNL A   1      34.324  35.317  28.733  1.00  0.00     0.023 C 
BRANCH   2   3
ATOM      3  C   UNL A   1      33.226  36.376  28.832  1.00  0.00     0.116 C 
BRANCH   3   4
ATOM      4  N   UNL A   1      33.433  37.251  29.972  1.00  0.00    -0.356 N 
ATOM      5  C   UNL A   1      33.232  37.014  31.305  1.00  0.00     0.227 C 
ATOM      6  O   UNL A   1      33.387  37.962  32.077  1.00  0.00    -0.274 OA
ATOM      7  H   UNL A   1      33.768  38.150  29.753  1.00  0.00     0.163 HD
BRANCH   5   8
ATOM      8  C   UNL A   1      32.830  35.607  31.766  1.00  0.00     0.105 C 
ATOM      9  C   UNL A   1      31.891  35.661  32.970  1.00  0.00     0.023 C 
BRANCH   8  10
ATOM     10  C   UNL A   1      34.024  34.697  32.036  1.00  0.00    -0.034 A 
ATOM     11  C   UNL A   1      33.962  33.310  31.834  1.00  0.00     0.005 A 
ATOM     12  C   UNL A   1      35.215  35.273  32.508  1.00  0.00     0.031 A 
ATOM     13  C   UNL A   1      35.081  32.490  32.048  1.00  0.00     0.011 A 
ATOM     14  C   UNL A   1      36.303  34.433  32.764  1.00  0.00     0.047 A 
ATOM     15  C   UNL A   1      36.279  33.062  32.523  1.00  0.00     0.007 A 
ATOM     16  N   UNL A   1      37.534  34.731  33.290  1.00  0.00    -0.355 N 
ATOM     17  C   UNL A   1      37.567  32.545  32.876  1.00  0.00     0.009 A 
ATOM     18  C   UNL A   1      38.297  33.598  33.429  1.00  0.00     0.047 A 
ATOM     19  H   UNL A   1      37.832  35.638  33.535  1.00  0.00     0.167 HD
ATOM     20  C   UNL A   1      38.170  31.271  32.813  1.00  0.00     0.031 A 
ATOM     21  C   UNL A   1      39.561  33.434  34.004  1.00  0.00     0.028 A 
ATOM     22  C   UNL A   1      39.449  31.101  33.353  1.00  0.00     0.041 A 
ATOM     23  C   UNL A   1      40.124  32.156  33.965  1.00  0.00     0.022 A 
ATOM     24  Cl  UNL A   1      40.205  29.554  33.269  1.00  0.00    -0.084 Cl
ENDBRANCH   8  10
ENDBRANCH   5   8
ENDBRANCH   3   4
ENDBRANCH   2   3
ENDBRANCH   1   2
BRANCH   1  25
ATOM     25  C   UNL A   1      34.709  32.800  28.334  1.00  0.00     0.116 C 
BRANCH  25  26
ATOM     26  N   UNL A   1      33.939  31.582  28.153  1.00  0.00    -0.352 N 
ATOM     27  C   UNL A   1      34.374  30.281  28.063  1.00  0.00     0.251 C 
ATOM     28  H   UNL A   1      32.964  31.705  28.085  1.00  0.00     0.163 HD
ATOM     29  O   UNL A   1      33.576  29.400  27.759  1.00  0.00    -0.269 OA
BRANCH  27  30
ATOM     30  C   UNL A   1      35.796  29.946  28.310  1.00  0.00     0.039 A 
ATOM     31  C   UNL A   1      36.701  30.043  27.250  1.00  0.00     0.014 A 
ATOM     32  C   UNL A   1      36.238  29.512  29.563  1.00  0.00     0.014 A 
ATOM     33  C   UNL A   1      38.048  29.736  27.455  1.00  0.00     0.010 A 
ATOM     34  C   UNL A   1      37.595  29.293  29.788  1.00  0.00     0.010 A 
ATOM     35  C   UNL A   1      38.512  29.376  28.732  1.00  0.00    -0.014 A 
BRANCH  35  36
ATOM     36  C   UNL A   1      39.942  29.037  28.958  1.00  0.00     0.031 A 
ATOM     37  C   UNL A   1      40.875  30.059  29.556  1.00  0.00     0.074 A 
ATOM     38  C   UNL A   1      40.409  27.825  28.599  1.00  0.00     0.049 A 
ATOM     39  N   UNL A   1      42.151  29.954  29.829  1.00  0.00    -0.248 NA
ATOM     40  C   UNL A   1      40.308  31.383  29.863  1.00  0.00     0.031 C 
ATOM     41  C   UNL A   1      39.620  26.768  27.963  1.00  0.00     0.029 A 
ATOM     42  N   UNL A   1      41.661  27.274  28.720  1.00  0.00    -0.354 N 
ATOM     43  C   UNL A   1      42.538  31.195  30.323  1.00  0.00     0.074 A 
ATOM     44  C   UNL A   1      41.378  32.057  30.253  1.00  0.00     0.031 C 
ATOM     45  C   UNL A   1      40.396  25.685  27.785  1.00  0.00     0.029 A 
ATOM     46  C   UNL A   1      41.744  25.980  28.262  1.00  0.00     0.049 A 
ATOM     47  H   UNL A   1      42.428  27.760  29.100  1.00  0.00     0.167 HD
ATOM     48  C   UNL A   1      43.741  31.576  30.815  1.00  0.00     0.037 A 
ATOM     49  C   UNL A   1      42.785  25.127  28.233  1.00  0.00     0.037 A 
ATOM     50  C   UNL A   1      44.884  30.705  30.909  1.00  0.00     0.049 A 
ATOM     51  C   UNL A   1      44.109  25.570  28.797  1.00  0.00     0.074 A 
ATOM     52  C   UNL A   1      46.128  30.973  31.451  1.00  0.00     0.029 A 
ATOM     53  N   UNL A   1      44.922  29.396  30.449  1.00  0.00    -0.354 N 
ATOM     54  N   UNL A   1      44.438  26.724  29.328  1.00  0.00    -0.248 NA
ATOM     55  C   UNL A   1      45.202  24.587  28.773  1.00  0.00     0.031 C 
ATOM     56  C   UNL A   1      46.936  29.846  31.269  1.00  0.00     0.029 A 
ATOM     57  C   UNL A   1      46.176  28.852  30.674  1.00  0.00     0.049 A 
ATOM     58  H   UNL A   1      44.169  28.925  30.025  1.00  0.00     0.167 HD
ATOM     59  C   UNL A   1      45.760  26.593  29.737  1.00  0.00     0.074 A 
ATOM     60  C   UNL A   1      46.168  25.244  29.400  1.00  0.00     0.031 C 
ATOM     61  C   UNL A   1      46.564  27.502  30.344  1.00  0.00     0.037 A 
BRANCH  48  62
ATOM     62  C   UNL A   1      43.885  32.999  31.291  1.00  0.00     0.058 A 
ATOM     63  C   UNL A   1      44.259  34.038  30.423  1.00  0.00     0.135 A 
ATOM     64  C   UNL A   1      43.616  33.333  32.629  1.00  0.00     0.135 A 
ATOM     65  F   UNL A   1      44.542  33.777  29.137  1.00  0.00    -0.206 F 
ATOM     66  C   UNL A   1      44.394  35.349  30.870  1.00  0.00     0.059 A 
ATOM     67  C   UNL A   1      43.713  34.643  33.091  1.00  0.00     0.059 A 
ATOM     68  F   UNL A   1      43.255  32.381  33.504  1.00  0.00    -0.206 F 
ATOM     69  C   UNL A   1      44.119  35.641  32.207  1.00  0.00     0.060 A 
BRANCH  69  70
ATOM     70  S   UNL A   1      44.298  37.346  32.770  1.00  0.00     0.124 S 
ATOM     71  O   UNL A   1      43.962  38.089  31.559  1.00  0.00    -0.237 OA
ATOM     72  O   UNL A   1      43.321  37.422  33.851  1.00  0.00    -0.237 OA
ATOM     73  O   UNL A   1      45.695  37.424  33.186  1.00  0.00    -0.744 OA
ENDBRANCH  69  70
ENDBRANCH  48  62
BRANCH  49  74
ATOM     74  C   UNL A   1      42.610  23.751  27.692  1.00  0.00     0.058 A 
ATOM     75  C   UNL A   1      42.681  23.502  26.313  1.00  0.00     0.135 A 
ATOM     76  C   UNL A   1      42.372  22.658  28.539  1.00  0.00     0.135 A 
ATOM     77  F   UNL A   1      42.901  24.515  25.460  1.00  0.00    -0.206 F 
ATOM     78  C   UNL A   1      42.498  22.226  25.790  1.00  0.00     0.059 A 
ATOM     79  C   UNL A   1      42.215  21.367  28.043  1.00  0.00     0.059 A 
ATOM     80  F   UNL A   1      42.312  22.837  29.869  1.00  0.00    -0.206 F 
ATOM     81  C   UNL A   1      42.268  21.163  26.665  1.00  0.00     0.060 A 
BRANCH  81  82
ATOM     82  S   UNL A   1      42.075  19.505  25.979  1.00  0.00     0.124 S 
ATOM     83  O   UNL A   1      42.910  19.582  24.785  1.00  0.00    -0.237 OA
ATOM     84  O   UNL A   1      42.580  18.665  27.059  1.00  0.00    -0.237 OA
ATOM     85  O   UNL A   1      40.638  19.407  25.738  1.00  0.00    -0.744 OA
ENDBRANCH  81  82
ENDBRANCH  49  74
BRANCH  61  86
ATOM     86  C   UNL A   1      47.947  27.055  30.735  1.00  0.00     0.058 A 
ATOM     87  C   UNL A   1      49.060  27.253  29.904  1.00  0.00     0.135 A 
ATOM     88  C   UNL A   1      48.162  26.440  31.980  1.00  0.00     0.135 A 
ATOM     89  F   UNL A   1      48.911  27.834  28.702  1.00  0.00    -0.206 F 
ATOM     90  C   UNL A   1      50.330  26.820  30.274  1.00  0.00     0.059 A 
ATOM     91  C   UNL A   1      49.428  26.031  32.386  1.00  0.00     0.059 A 
ATOM     92  F   UNL A   1      47.136  26.238  32.823  1.00  0.00    -0.206 F 
ATOM     93  C   UNL A   1      50.503  26.207  31.516  1.00  0.00     0.060 A 
BRANCH  93  94
ATOM     94  S   UNL A   1      52.155  25.655  31.987  1.00  0.00     0.124 S 
ATOM     95  O   UNL A   1      52.420  26.485  33.157  1.00  0.00    -0.237 OA
ATOM     96  O   UNL A   1      51.947  24.234  32.252  1.00  0.00    -0.237 OA
ATOM     97  O   UNL A   1      52.963  25.954  30.808  1.00  0.00    -0.744 OA
ENDBRANCH  93  94
ENDBRANCH  61  86
ENDBRANCH  35  36
ENDBRANCH  27  30
ENDBRANCH  25  26
ENDBRANCH   1  25
TORSDOF 15
ENDMDL
MODEL 2
REMARK VINA RESULT:     -10.8      5.082     12.000
REMARK SMILES C[C@@H](C(=O)NCCCCNC(=O)c1ccc(-c2c3nc(c(-c4c(F)cc(S(=O)(=O)[O-])cc4F)c4ccc([nH]4)c(-c4c(F)cc(S(=O)(=O)[O-])cc4F)c4nc(c(-c5c(F)cc(S(=O)(=O)[O-])cc5F)c5ccc2[nH]5)C=C4)C=C3)cc1)c1ccc2c(c1)[nH]c1ccc(Cl)cc12
REMARK SMILES IDX 8 1 7 2 6 3 5 4 3 5 4 6 2 8 1 9 79 10 80 11 84 12 81 13
REMARK SMILES IDX 83 14 82 15 85 16 92 17 86 18 91 20 87 21 89 22 88 23 90 24
REMARK SMILES IDX 9 25 10 26 11 27 12 29 13 30 14 31 78 32 15 33 77 34 16 35
REMARK SMILES IDX 17 36 18 37 71 38 19 39 76 40 70 41 72 42 20 43 75 44 69 45
REMARK SMILES IDX 68 46 21 48 55 49 34 50 54 51 35 52 38 53 53 54 73 55 36 56
REMARK SMILES IDX 37 57 52 59 74 60 39 61 22 62 23 63 32 64 24 65 25 66 31 67
REMARK SMILES IDX 33 68 26 69 27 70 28 71 29 72 30 73 56 74 57 75 66 76 58 77
REMARK SMILES IDX 59 78 65 79 67 80 60 81 61 82 62 83 63 84 64 85 40 86 41 87
REMARK SMILES IDX 50 88 42 89 43 90 49 91 51 92 44 93 45 94 46 95 47 96 48 97
REMARK H PARENT 5 7 85 19 10 28 72 47 38 58
REMARK Flexibility Score: inf
ROOT
ATOM      1  C   UNL A   1      40.213  22.194  27.207  1.00  0.00     0.023 C 
ENDROOT
BRANCH   1   2
ATOM      2  C   UNL A   1      39.072  22.877  26.451  1.00  0.00     0.023 C 
BRANCH   2   3
ATOM      3  C   UNL A   1      38.112  21.921  25.742  1.00  0.00     0.116 C 
BRANCH   3   4
ATOM      4  N   UNL A   1      37.769  22.397  24.415  1.00  0.00    -0.356 N 
ATOM      5  C   UNL A   1      36.547  22.708  23.885  1.00  0.00     0.227 C 
ATOM      6  O   UNL A   1      36.506  22.998  22.688  1.00  0.00    -0.274 OA
ATOM      7  H   UNL A   1      38.532  22.515  23.804  1.00  0.00     0.163 HD
BRANCH   5   8
ATOM      8  C   UNL A   1      35.307  22.679  24.789  1.00  0.00     0.105 C 
ATOM      9  C   UNL A   1      34.497  21.400  24.584  1.00  0.00     0.023 C 
BRANCH   8  10
ATOM     10  C   UNL A   1      34.429  23.919  24.649  1.00  0.00    -0.034 A 
ATOM     11  C   UNL A   1      33.505  24.061  23.604  1.00  0.00     0.005 A 
ATOM     12  C   UNL A   1      34.563  24.947  25.597  1.00  0.00     0.031 A 
ATOM     13  C   UNL A   1      32.676  25.189  23.510  1.00  0.00     0.011 A 
ATOM     14  C   UNL A   1      33.763  26.085  25.457  1.00  0.00     0.047 A 
ATOM     15  C   UNL A   1      32.805  26.225  24.457  1.00  0.00     0.007 A 
ATOM     16  N   UNL A   1      33.752  27.243  26.195  1.00  0.00    -0.355 N 
ATOM     17  C   UNL A   1      32.173  27.496  24.648  1.00  0.00     0.009 A 
ATOM     18  C   UNL A   1      32.845  28.139  25.688  1.00  0.00     0.047 A 
ATOM     19  H   UNL A   1      34.319  27.408  26.983  1.00  0.00     0.167 HD
ATOM     20  C   UNL A   1      31.116  28.177  24.009  1.00  0.00     0.031 A 
ATOM     21  C   UNL A   1      32.580  29.459  26.069  1.00  0.00     0.028 A 
ATOM     22  C   UNL A   1      30.819  29.486  24.404  1.00  0.00     0.041 A 
ATOM     23  C   UNL A   1      31.555  30.129  25.397  1.00  0.00     0.022 A 
ATOM     24  Cl  UNL A   1      29.519  30.326  23.643  1.00  0.00    -0.084 Cl
ENDBRANCH   8  10
ENDBRANCH   5   8
ENDBRANCH   3   4
ENDBRANCH   2   3
ENDBRANCH   1   2
BRANCH   1  25
ATOM     25  C   UNL A   1      41.450  23.056  27.429  1.00  0.00     0.116 C 
BRANCH  25  26
ATOM     26  N   UNL A   1      41.798  23.852  26.265  1.00  0.00    -0.352 N 
ATOM     27  C   UNL A   1      41.779  25.217  26.105  1.00  0.00     0.251 C 
ATOM     28  H   UNL A   1      42.089  23.339  25.475  1.00  0.00     0.163 HD
ATOM     29  O   UNL A   1      41.967  25.694  24.991  1.00  0.00    -0.269 OA
BRANCH  27  30
ATOM     30  C   UNL A   1      41.515  26.105  27.262  1.00  0.00     0.039 A 
ATOM     31  C   UNL A   1      42.399  27.155  27.517  1.00  0.00     0.014 A 
ATOM     32  C   UNL A   1      40.423  25.893  28.109  1.00  0.00     0.014 A 
ATOM     33  C   UNL A   1      42.171  28.009  28.599  1.00  0.00     0.010 A 
ATOM     34  C   UNL A   1      40.149  26.797  29.132  1.00  0.00     0.010 A 
ATOM     35  C   UNL A   1      41.033  27.850  29.407  1.00  0.00    -0.014 A 
BRANCH  35  36
ATOM     36  C   UNL A   1      40.787  28.747  30.567  1.00  0.00     0.031 A 
ATOM     37  C   UNL A   1      41.620  28.610  31.816  1.00  0.00     0.074 A 
ATOM     38  C   UNL A   1      39.799  29.662  30.511  1.00  0.00     0.049 A 
ATOM     39  N   UNL A   1      41.559  29.296  32.929  1.00  0.00    -0.248 NA
ATOM     40  C   UNL A   1      42.638  27.546  31.828  1.00  0.00     0.031 C 
ATOM     41  C   UNL A   1      38.890  29.857  29.379  1.00  0.00     0.029 A 
ATOM     42  N   UNL A   1      39.395  30.603  31.425  1.00  0.00    -0.354 N 
ATOM     43  C   UNL A   1      42.513  28.738  33.773  1.00  0.00     0.074 A 
ATOM     44  C   UNL A   1      43.097  27.618  33.068  1.00  0.00     0.031 C 
ATOM     45  C   UNL A   1      38.061  30.879  29.652  1.00  0.00     0.029 A 
ATOM     46  C   UNL A   1      38.355  31.389  30.988  1.00  0.00     0.049 A 
ATOM     47  H   UNL A   1      39.811  30.704  32.311  1.00  0.00     0.167 HD
ATOM     48  C   UNL A   1      42.891  29.138  35.011  1.00  0.00     0.037 A 
ATOM     49  C   UNL A   1      37.715  32.408  31.592  1.00  0.00     0.037 A 
ATOM     50  C   UNL A   1      42.327  30.272  35.696  1.00  0.00     0.049 A 
ATOM     51  C   UNL A   1      38.161  32.842  32.964  1.00  0.00     0.074 A 
ATOM     52  C   UNL A   1      42.683  30.800  36.925  1.00  0.00     0.029 A 
ATOM     53  N   UNL A   1      41.287  31.053  35.213  1.00  0.00    -0.354 N 
ATOM     54  N   UNL A   1      39.115  32.349  33.717  1.00  0.00    -0.248 NA
ATOM     55  C   UNL A   1      37.451  33.982  33.561  1.00  0.00     0.031 C 
ATOM     56  C   UNL A   1      41.823  31.865  37.209  1.00  0.00     0.029 A 
ATOM     57  C   UNL A   1      40.974  32.044  36.129  1.00  0.00     0.049 A 
ATOM     58  H   UNL A   1      40.838  30.921  34.347  1.00  0.00     0.167 HD
ATOM     59  C   UNL A   1      39.149  33.144  34.858  1.00  0.00     0.074 A 
ATOM     60  C   UNL A   1      38.123  34.154  34.691  1.00  0.00     0.031 C 
ATOM     61  C   UNL A   1      39.958  33.051  35.943  1.00  0.00     0.037 A 
BRANCH  48  62
ATOM     62  C   UNL A   1      43.966  28.343  35.707  1.00  0.00     0.058 A 
ATOM     63  C   UNL A   1      43.660  27.308  36.606  1.00  0.00     0.135 A 
ATOM     64  C   UNL A   1      45.322  28.602  35.449  1.00  0.00     0.135 A 
ATOM     65  F   UNL A   1      42.381  27.025  36.903  1.00  0.00    -0.206 F 
ATOM     66  C   UNL A   1      44.657  26.581  37.249  1.00  0.00     0.059 A 
ATOM     67  C   UNL A   1      46.337  27.865  36.055  1.00  0.00     0.059 A 
ATOM     68  F   UNL A   1      45.675  29.579  34.599  1.00  0.00    -0.206 F 
ATOM     69  C   UNL A   1      45.993  26.868  36.967  1.00  0.00     0.060 A 
BRANCH  69  70
ATOM     70  S   UNL A   1      47.274  25.915  37.807  1.00  0.00     0.124 S 
ATOM     71  O   UNL A   1      46.823  24.546  37.568  1.00  0.00    -0.237 OA
ATOM     72  O   UNL A   1      48.482  26.317  37.093  1.00  0.00    -0.237 OA
ATOM     73  O   UNL A   1      47.187  26.370  39.192  1.00  0.00    -0.744 OA
ENDBRANCH  69  70
ENDBRANCH  48  62
BRANCH  49  74
ATOM     74  C   UNL A   1      36.614  33.121  30.888  1.00  0.00     0.058 A 
ATOM     75  C   UNL A   1      35.276  32.938  31.268  1.00  0.00     0.135 A 
ATOM     76  C   UNL A   1      36.875  34.002  29.828  1.00  0.00     0.135 A 
ATOM     77  F   UNL A   1      34.972  32.103  32.273  1.00  0.00    -0.206 F 
ATOM     78  C   UNL A   1      34.234  33.580  30.607  1.00  0.00     0.059 A 
ATOM     79  C   UNL A   1      35.853  34.680  29.169  1.00  0.00     0.059 A 
ATOM     80  F   UNL A   1      38.139  34.228  29.435  1.00  0.00    -0.206 F 
ATOM     81  C   UNL A   1      34.534  34.453  29.559  1.00  0.00     0.060 A 
BRANCH  81  82
ATOM     82  S   UNL A   1      33.177  35.314  28.736  1.00  0.00     0.124 S 
ATOM     83  O   UNL A   1      33.896  36.296  27.933  1.00  0.00    -0.237 OA
ATOM     84  O   UNL A   1      32.532  34.233  27.997  1.00  0.00    -0.237 OA
ATOM     85  O   UNL A   1      32.399  35.854  29.847  1.00  0.00    -0.744 OA
ENDBRANCH  81  82
ENDBRANCH  49  74
BRANCH  61  86
ATOM     86  C   UNL A   1      39.808  34.101  37.011  1.00  0.00     0.058 A 
ATOM     87  C   UNL A   1      39.059  33.882  38.177  1.00  0.00     0.135 A 
ATOM     88  C   UNL A   1      40.453  35.343  36.874  1.00  0.00     0.135 A 
ATOM     89  F   UNL A   1      38.420  32.714  38.359  1.00  0.00    -0.206 F 
ATOM     90  C   UNL A   1      38.919  34.868  39.148  1.00  0.00     0.059 A 
ATOM     91  C   UNL A   1      40.356  36.330  37.848  1.00  0.00     0.059 A 
ATOM     92  F   UNL A   1      41.197  35.602  35.786  1.00  0.00    -0.206 F 
ATOM     93  C   UNL A   1      39.570  36.091  38.973  1.00  0.00     0.060 A 
BRANCH  93  94
ATOM     94  S   UNL A   1      39.385  37.361  40.242  1.00  0.00     0.124 S 
ATOM     95  O   UNL A   1      38.553  38.343  39.555  1.00  0.00    -0.237 OA
ATOM     96  O   UNL A   1      38.736  36.628  41.325  1.00  0.00    -0.237 OA
ATOM     97  O   UNL A   1      40.758  37.777  40.510  1.00  0.00    -0.744 OA
ENDBRANCH  93  94
ENDBRANCH  61  86
ENDBRANCH  35  36
ENDBRANCH  27  30
ENDBRANCH  25  26
ENDBRANCH   1  25
TORSDOF 15
ENDMDL
MODEL 3
REMARK VINA RESULT:     -10.7      4.740     12.394
REMARK SMILES C[C@@H](C(=O)NCCCCNC(=O)c1ccc(-c2c3nc(c(-c4c(F)cc(S(=O)(=O)[O-])cc4F)c4ccc([nH]4)c(-c4c(F)cc(S(=O)(=O)[O-])cc4F)c4nc(c(-c5c(F)cc(S(=O)(=O)[O-])cc5F)c5ccc2[nH]5)C=C4)C=C3)cc1)c1ccc2c(c1)[nH]c1ccc(Cl)cc12
REMARK SMILES IDX 8 1 7 2 6 3 5 4 3 5 4 6 2 8 1 9 79 10 80 11 84 12 81 13
REMARK SMILES IDX 83 14 82 15 85 16 92 17 86 18 91 20 87 21 89 22 88 23 90 24
REMARK SMILES IDX 9 25 10 26 11 27 12 29 13 30 14 31 78 32 15 33 77 34 16 35
REMARK SMILES IDX 17 36 18 37 71 38 19 39 76 40 70 41 72 42 20 43 75 44 69 45
REMARK SMILES IDX 68 46 21 48 55 49 34 50 54 51 35 52 38 53 53 54 73 55 36 56
REMARK SMILES IDX 37 57 52 59 74 60 39 61 22 62 23 63 32 64 24 65 25 66 31 67
REMARK SMILES IDX 33 68 26 69 27 70 28 71 29 72 30 73 56 74 57 75 66 76 58 77
REMARK SMILES IDX 59 78 65 79 67 80 60 81 61 82 62 83 63 84 64 85 40 86 41 87
REMARK SMILES IDX 50 88 42 89 43 90 49 91 51 92 44 93 45 94 46 95 47 96 48 97
REMARK H PARENT 5 7 85 19 10 28 72 47 38 58
REMARK Flexibility Score: inf
ROOT
ATOM      1  C   UNL A   1      45.940  24.396  27.150  1.00  0.00     0.023 C 
ENDROOT
BRANCH   1   2
ATOM      2  C   UNL A   1      45.214  24.126  28.469  1.00  0.00     0.023 C 
BRANCH   2   3
ATOM      3  C   UNL A   1      44.148  23.032  28.399  1.00  0.00     0.116 C 
BRANCH   3   4
ATOM      4  N   UNL A   1      43.960  22.559  27.041  1.00  0.00    -0.356 N 
ATOM      5  C   UNL A   1      42.964  21.782  26.513  1.00  0.00     0.227 C 
ATOM      6  O   UNL A   1      43.084  21.428  25.339  1.00  0.00    -0.274 OA
ATOM      7  H   UNL A   1      44.653  22.839  26.400  1.00  0.00     0.163 HD
BRANCH   5   8
ATOM      8  C   UNL A   1      41.769  21.394  27.394  1.00  0.00     0.105 C 
ATOM      9  C   UNL A   1      41.652  19.877  27.539  1.00  0.00     0.023 C 
BRANCH   8  10
ATOM     10  C   UNL A   1      40.452  22.008  26.929  1.00  0.00    -0.034 A 
ATOM     11  C   UNL A   1      40.052  23.293  27.322  1.00  0.00     0.005 A 
ATOM     12  C   UNL A   1      39.619  21.253  26.087  1.00  0.00     0.031 A 
ATOM     13  C   UNL A   1      38.857  23.861  26.855  1.00  0.00     0.011 A 
ATOM     14  C   UNL A   1      38.409  21.816  25.673  1.00  0.00     0.047 A 
ATOM     15  C   UNL A   1      38.015  23.108  26.011  1.00  0.00     0.007 A 
ATOM     16  N   UNL A   1      37.400  21.268  24.922  1.00  0.00    -0.355 N 
ATOM     17  C   UNL A   1      36.746  23.343  25.389  1.00  0.00     0.009 A 
ATOM     18  C   UNL A   1      36.354  22.146  24.789  1.00  0.00     0.047 A 
ATOM     19  H   UNL A   1      37.424  20.364  24.530  1.00  0.00     0.167 HD
ATOM     20  C   UNL A   1      35.876  24.450  25.313  1.00  0.00     0.031 A 
ATOM     21  C   UNL A   1      35.102  21.965  24.191  1.00  0.00     0.028 A 
ATOM     22  C   UNL A   1      34.634  24.291  24.688  1.00  0.00     0.041 A 
ATOM     23  C   UNL A   1      34.239  23.064  24.160  1.00  0.00     0.022 A 
ATOM     24  Cl  UNL A   1      33.566  25.639  24.572  1.00  0.00    -0.084 Cl
ENDBRANCH   8  10
ENDBRANCH   5   8
ENDBRANCH   3   4
ENDBRANCH   2   3
ENDBRANCH   1   2
BRANCH   1  25
ATOM     25  C   UNL A   1      45.551  25.694  26.452  1.00  0.00     0.116 C 
BRANCH  25  26
ATOM     26  N   UNL A   1      44.394  25.545  25.588  1.00  0.00    -0.352 N 
ATOM     27  C   UNL A   1      43.089  25.918  25.806  1.00  0.00     0.251 C 
ATOM     28  H   UNL A   1      44.569  25.114  24.720  1.00  0.00     0.163 HD
ATOM     29  O   UNL A   1      42.223  25.569  25.011  1.00  0.00    -0.269 OA
BRANCH  27  30
ATOM     30  C   UNL A   1      42.726  26.716  27.001  1.00  0.00     0.039 A 
ATOM     31  C   UNL A   1      41.977  26.108  28.011  1.00  0.00     0.014 A 
ATOM     32  C   UNL A   1      43.092  28.060  27.120  1.00  0.00     0.014 A 
ATOM     33  C   UNL A   1      41.624  26.837  29.150  1.00  0.00     0.010 A 
ATOM     34  C   UNL A   1      42.816  28.757  28.293  1.00  0.00     0.010 A 
ATOM     35  C   UNL A   1      42.056  28.164  29.311  1.00  0.00    -0.014 A 
BRANCH  35  36
ATOM     36  C   UNL A   1      41.676  28.951  30.514  1.00  0.00     0.031 A 
ATOM     37  C   UNL A   1      42.484  28.830  31.781  1.00  0.00     0.074 A 
ATOM     38  C   UNL A   1      40.591  29.749  30.478  1.00  0.00     0.049 A 
ATOM     39  N   UNL A   1      42.312  29.431  32.931  1.00  0.00    -0.248 NA
ATOM     40  C   UNL A   1      43.617  27.889  31.765  1.00  0.00     0.031 C 
ATOM     41  C   UNL A   1      39.698  29.913  29.329  1.00  0.00     0.029 A 
ATOM     42  N   UNL A   1      40.055  30.578  31.433  1.00  0.00    -0.354 N 
ATOM     43  C   UNL A   1      43.300  28.932  33.772  1.00  0.00     0.074 A 
ATOM     44  C   UNL A   1      44.029  27.933  33.022  1.00  0.00     0.031 C 
ATOM     45  C   UNL A   1      38.750  30.815  29.633  1.00  0.00     0.029 A 
ATOM     46  C   UNL A   1      38.945  31.268  31.008  1.00  0.00     0.049 A 
ATOM     47  H   UNL A   1      40.431  30.669  32.338  1.00  0.00     0.167 HD
ATOM     48  C   UNL A   1      43.594  29.292  35.045  1.00  0.00     0.037 A 
ATOM     49  C   UNL A   1      38.174  32.167  31.649  1.00  0.00     0.037 A 
ATOM     50  C   UNL A   1      42.884  30.308  35.777  1.00  0.00     0.049 A 
ATOM     51  C   UNL A   1      38.528  32.559  33.059  1.00  0.00     0.074 A 
ATOM     52  C   UNL A   1      43.142  30.793  37.047  1.00  0.00     0.029 A 
ATOM     53  N   UNL A   1      41.775  30.996  35.306  1.00  0.00    -0.354 N 
ATOM     54  N   UNL A   1      39.511  32.130  33.815  1.00  0.00    -0.248 NA
ATOM     55  C   UNL A   1      37.675  33.570  33.699  1.00  0.00     0.031 C 
ATOM     56  C   UNL A   1      42.157  31.733  37.365  1.00  0.00     0.029 A 
ATOM     57  C   UNL A   1      41.324  31.884  36.268  1.00  0.00     0.049 A 
ATOM     58  H   UNL A   1      41.369  30.870  34.418  1.00  0.00     0.167 HD
ATOM     59  C   UNL A   1      39.420  32.849  35.002  1.00  0.00     0.074 A 
ATOM     60  C   UNL A   1      38.290  33.745  34.861  1.00  0.00     0.031 C 
ATOM     61  C   UNL A   1      40.204  32.779  36.108  1.00  0.00     0.037 A 
BRANCH  48  62
ATOM     62  C   UNL A   1      44.734  28.581  35.729  1.00  0.00     0.058 A 
ATOM     63  C   UNL A   1      44.533  27.416  36.488  1.00  0.00     0.135 A 
ATOM     64  C   UNL A   1      46.049  29.056  35.600  1.00  0.00     0.135 A 
ATOM     65  F   UNL A   1      43.296  26.924  36.660  1.00  0.00    -0.206 F 
ATOM     66  C   UNL A   1      45.589  26.767  37.121  1.00  0.00     0.059 A 
ATOM     67  C   UNL A   1      47.125  28.404  36.197  1.00  0.00     0.059 A 
ATOM     68  F   UNL A   1      46.301  30.165  34.887  1.00  0.00    -0.206 F 
ATOM     69  C   UNL A   1      46.882  27.270  36.970  1.00  0.00     0.060 A 
BRANCH  69  70
ATOM     70  S   UNL A   1      48.240  26.415  37.796  1.00  0.00     0.124 S 
ATOM     71  O   UNL A   1      47.721  25.052  37.874  1.00  0.00    -0.237 OA
ATOM     72  O   UNL A   1      49.347  26.619  36.868  1.00  0.00    -0.237 OA
ATOM     73  O   UNL A   1      48.358  27.115  39.072  1.00  0.00    -0.744 OA
ENDBRANCH  69  70
ENDBRANCH  48  62
BRANCH  49  74
ATOM     74  C   UNL A   1      37.019  32.794  30.951  1.00  0.00     0.058 A 
ATOM     75  C   UNL A   1      37.210  33.832  30.027  1.00  0.00     0.135 A 
ATOM     76  C   UNL A   1      35.703  32.369  31.189  1.00  0.00     0.135 A 
ATOM     77  F   UNL A   1      38.448  34.279  29.767  1.00  0.00    -0.206 F 
ATOM     78  C   UNL A   1      36.139  34.443  29.382  1.00  0.00     0.059 A 
ATOM     79  C   UNL A   1      34.617  32.943  30.535  1.00  0.00     0.059 A 
ATOM     80  F   UNL A   1      35.465  31.367  32.052  1.00  0.00    -0.206 F 
ATOM     81  C   UNL A   1      34.844  33.989  29.641  1.00  0.00     0.060 A 
BRANCH  81  82
ATOM     82  S   UNL A   1      33.466  34.760  28.767  1.00  0.00     0.124 S 
ATOM     83  O   UNL A   1      33.130  33.735  27.786  1.00  0.00    -0.237 OA
ATOM     84  O   UNL A   1      32.498  34.961  29.840  1.00  0.00    -0.237 OA
ATOM     85  O   UNL A   1      34.054  35.982  28.226  1.00  0.00    -0.744 OA
ENDBRANCH  81  82
ENDBRANCH  49  74
BRANCH  61  86
ATOM     86  C   UNL A   1      39.904  33.735  37.232  1.00  0.00     0.058 A 
ATOM     87  C   UNL A   1      40.558  34.969  37.358  1.00  0.00     0.135 A 
ATOM     88  C   UNL A   1      38.921  33.416  38.185  1.00  0.00     0.135 A 
ATOM     89  F   UNL A   1      41.507  35.324  36.476  1.00  0.00    -0.206 F 
ATOM     90  C   UNL A   1      40.280  35.836  38.411  1.00  0.00     0.059 A 
ATOM     91  C   UNL A   1      38.602  34.282  39.225  1.00  0.00     0.059 A 
ATOM     92  F   UNL A   1      38.252  32.254  38.105  1.00  0.00    -0.206 F 
ATOM     93  C   UNL A   1      39.302  35.482  39.342  1.00  0.00     0.060 A 
BRANCH  93  94
ATOM     94  S   UNL A   1      38.946  36.615  40.699  1.00  0.00     0.124 S 
ATOM     95  O   UNL A   1      40.283  36.873  41.224  1.00  0.00    -0.237 OA
ATOM     96  O   UNL A   1      38.307  37.734  40.014  1.00  0.00    -0.237 OA
ATOM     97  O   UNL A   1      38.068  35.839  41.570  1.00  0.00    -0.744 OA
ENDBRANCH  93  94
ENDBRANCH  61  86
ENDBRANCH  35  36
ENDBRANCH  27  30
ENDBRANCH  25  26
ENDBRANCH   1  25
TORSDOF 15
ENDMDL
