MODEL 1
REMARK VINA RESULT:      -9.0      0.000      0.000
REMARK SMILES COc1ccc([C@H](NC(=O)[C@H]2CC(C)=C(C)C[C@@H]2C(=O)NCCCCNC(=O)c2ccc(-c3c4nc(c(-c5c(F)cc(S(=O)(=O)[O-])cc5F)c5ccc([nH]5)c(-c5c(F)cc(S(=O)(=O)[O-])cc5F)c5nc(c(-c6c(F)cc(S(=O)(=O)[O-])cc6F)c6ccc3[nH]6)C=C5)C=C4)cc2)c2ccccc2)cc1
REMARK SMILES IDX 23 1 22 2 21 3 19 4 20 5 18 7 11 8 12 9 13 10 17 11 14 12
REMARK SMILES IDX 15 13 16 14 9 15 8 16 10 18 7 19 6 20 3 21 4 22 102 23 5 24
REMARK SMILES IDX 101 25 2 26 1 27 95 28 96 29 100 30 97 31 99 32 98 33 24 34
REMARK SMILES IDX 25 35 26 36 27 37 28 39 29 40 30 41 94 42 31 43 93 44 32 45
REMARK SMILES IDX 33 46 34 47 87 48 35 49 92 50 86 51 88 52 36 53 91 54 85 55
REMARK SMILES IDX 84 56 37 58 71 59 50 60 70 61 51 62 54 63 69 64 89 65 52 66
REMARK SMILES IDX 53 67 68 69 90 70 55 71 38 72 39 73 48 74 40 75 41 76 47 77
REMARK SMILES IDX 49 78 42 79 43 80 44 81 45 82 46 83 72 84 73 85 82 86 74 87
REMARK SMILES IDX 75 88 81 89 83 90 76 91 77 92 78 93 79 94 80 95 56 96 57 97
REMARK SMILES IDX 66 98 58 99 59 100 65 101 67 102 60 103 61 104 62 105 63 106
REMARK SMILES IDX 64 107
REMARK H PARENT 21 6 8 17 26 38 88 57 54 68
REMARK Flexibility Score: inf
ROOT
ATOM      1  C   UNL A   1      44.981  25.029  25.366  1.00  0.00     0.023 C 
ENDROOT
BRANCH   1   2
ATOM      2  C   UNL A   1      46.411  25.511  25.089  1.00  0.00     0.116 C 
BRANCH   2   3
ATOM      3  N   UNL A   1      46.395  26.901  24.694  1.00  0.00    -0.356 N 
ATOM      4  C   UNL A   1      46.723  28.039  25.355  1.00  0.00     0.224 C 
ATOM      5  O   UNL A   1      46.464  29.078  24.739  1.00  0.00    -0.275 OA
ATOM      6  H   UNL A   1      46.088  27.049  23.771  1.00  0.00     0.163 HD
BRANCH   4   7
ATOM      7  C   UNL A   1      47.486  28.060  26.701  1.00  0.00     0.095 C 
ATOM      8  C   UNL A   1      46.861  27.370  27.901  1.00  0.00     0.095 C 
ATOM      9  C   UNL A   1      45.763  28.307  28.374  1.00  0.00     0.045 C 
ATOM     10  C   UNL A   1      46.217  29.596  29.352  1.00  0.00    -0.074 C 
ATOM     11  C   UNL A   1      47.773  29.516  27.123  1.00  0.00     0.045 C 
ATOM     12  C   UNL A   1      45.548  29.940  31.374  1.00  0.00     0.039 C 
ATOM     13  C   UNL A   1      47.095  30.234  28.357  1.00  0.00    -0.074 C 
ATOM     14  C   UNL A   1      47.694  31.663  28.244  1.00  0.00     0.039 C 
BRANCH   8  15
ATOM     15  C   UNL A   1      47.933  26.649  28.744  1.00  0.00     0.224 C 
ATOM     16  N   UNL A   1      47.703  26.019  29.922  1.00  0.00    -0.345 N 
ATOM     17  H   UNL A   1      47.839  25.044  29.903  1.00  0.00     0.164 HD
ATOM     18  O   UNL A   1      49.005  26.332  28.203  1.00  0.00    -0.275 OA
BRANCH  16  19
ATOM     19  C   UNL A   1      47.288  26.550  31.215  1.00  0.00     0.143 C 
BRANCH  19  20
ATOM     20  C   UNL A   1      46.264  25.698  31.969  1.00  0.00    -0.021 A 
ATOM     21  C   UNL A   1      44.302  24.084  33.232  1.00  0.00     0.118 A 
ATOM     22  C   UNL A   1      44.330  24.200  31.847  1.00  0.00     0.047 A 
ATOM     23  C   UNL A   1      45.271  24.741  33.989  1.00  0.00     0.047 A 
ATOM     24  C   UNL A   1      45.306  24.979  31.223  1.00  0.00     0.010 A 
ATOM     25  C   UNL A   1      46.237  25.549  33.364  1.00  0.00     0.010 A 
BRANCH  21  26
ATOM     26  O   UNL A   1      43.307  23.282  33.720  1.00  0.00    -0.497 OA
ATOM     27  C   UNL A   1      43.052  23.381  35.115  1.00  0.00     0.278 C 
ENDBRANCH  21  26
ENDBRANCH  19  20
BRANCH  19  28
ATOM     28  C   UNL A   1      48.451  26.982  32.046  1.00  0.00    -0.021 A 
ATOM     29  C   UNL A   1      48.643  28.691  32.647  1.00  0.00     0.006 A 
ATOM     30  C   UNL A   1      49.642  25.708  32.530  1.00  0.00     0.006 A 
ATOM     31  C   UNL A   1      49.995  29.098  33.792  1.00  0.00     0.000 A 
ATOM     32  C   UNL A   1      50.907  26.089  33.800  1.00  0.00     0.000 A 
ATOM     33  C   UNL A   1      51.076  27.773  34.428  1.00  0.00     0.000 A 
ENDBRANCH  19  28
ENDBRANCH  16  19
ENDBRANCH   8  15
ENDBRANCH   4   7
ENDBRANCH   2   3
ENDBRANCH   1   2
BRANCH   1  34
ATOM     34  C   UNL A   1      44.770  24.410  26.749  1.00  0.00     0.023 C 
BRANCH  34  35
ATOM     35  C   UNL A   1      43.348  23.945  27.020  1.00  0.00     0.116 C 
BRANCH  35  36
ATOM     36  N   UNL A   1      42.401  24.375  26.000  1.00  0.00    -0.352 N 
ATOM     37  C   UNL A   1      41.458  25.367  26.103  1.00  0.00     0.251 C 
ATOM     38  H   UNL A   1      42.443  23.900  25.139  1.00  0.00     0.163 HD
ATOM     39  O   UNL A   1      40.645  25.559  25.207  1.00  0.00    -0.269 OA
BRANCH  37  40
ATOM     40  C   UNL A   1      41.418  26.159  27.347  1.00  0.00     0.039 A 
ATOM     41  C   UNL A   1      42.317  27.214  27.502  1.00  0.00     0.014 A 
ATOM     42  C   UNL A   1      40.427  25.912  28.301  1.00  0.00     0.014 A 
ATOM     43  C   UNL A   1      42.180  28.069  28.594  1.00  0.00     0.010 A 
ATOM     44  C   UNL A   1      40.245  26.812  29.344  1.00  0.00     0.010 A 
ATOM     45  C   UNL A   1      41.121  27.896  29.501  1.00  0.00    -0.014 A 
BRANCH  45  46
ATOM     46  C   UNL A   1      40.912  28.842  30.625  1.00  0.00     0.031 A 
ATOM     47  C   UNL A   1      41.733  28.706  31.878  1.00  0.00     0.074 A 
ATOM     48  C   UNL A   1      39.936  29.768  30.543  1.00  0.00     0.049 A 
ATOM     49  N   UNL A   1      41.656  29.387  32.991  1.00  0.00    -0.248 NA
ATOM     50  C   UNL A   1      42.754  27.644  31.896  1.00  0.00     0.031 C 
ATOM     51  C   UNL A   1      39.028  29.944  29.406  1.00  0.00     0.029 A 
ATOM     52  N   UNL A   1      39.530  30.725  31.438  1.00  0.00    -0.354 N 
ATOM     53  C   UNL A   1      42.594  28.823  33.846  1.00  0.00     0.074 A 
ATOM     54  C   UNL A   1      43.199  27.715  33.142  1.00  0.00     0.031 C 
ATOM     55  C   UNL A   1      38.182  30.954  29.667  1.00  0.00     0.029 A 
ATOM     56  C   UNL A   1      38.464  31.476  31.001  1.00  0.00     0.049 A 
ATOM     57  H   UNL A   1      39.963  30.862  32.311  1.00  0.00     0.167 HD
ATOM     58  C   UNL A   1      42.933  29.209  35.098  1.00  0.00     0.037 A 
ATOM     59  C   UNL A   1      37.783  32.466  31.612  1.00  0.00     0.037 A 
ATOM     60  C   UNL A   1      42.360  30.346  35.769  1.00  0.00     0.049 A 
ATOM     61  C   UNL A   1      38.213  32.903  32.987  1.00  0.00     0.074 A 
ATOM     62  C   UNL A   1      42.707  30.881  36.995  1.00  0.00     0.029 A 
ATOM     63  N   UNL A   1      41.320  31.118  35.272  1.00  0.00    -0.354 N 
ATOM     64  N   UNL A   1      39.173  32.422  33.742  1.00  0.00    -0.248 NA
ATOM     65  C   UNL A   1      37.478  34.023  33.591  1.00  0.00     0.031 C 
ATOM     66  C   UNL A   1      41.846  31.949  37.264  1.00  0.00     0.029 A 
ATOM     67  C   UNL A   1      40.997  32.111  36.180  1.00  0.00     0.049 A 
ATOM     68  H   UNL A   1      40.879  30.980  34.403  1.00  0.00     0.167 HD
ATOM     69  C   UNL A   1      39.174  33.198  34.896  1.00  0.00     0.074 A 
ATOM     70  C   UNL A   1      38.130  34.189  34.734  1.00  0.00     0.031 C 
ATOM     71  C   UNL A   1      39.964  33.098  35.993  1.00  0.00     0.037 A 
BRANCH  58  72
ATOM     72  C   UNL A   1      43.979  28.412  35.826  1.00  0.00     0.058 A 
ATOM     73  C   UNL A   1      43.641  27.336  36.661  1.00  0.00     0.135 A 
ATOM     74  C   UNL A   1      45.343  28.683  35.624  1.00  0.00     0.135 A 
ATOM     75  F   UNL A   1      42.352  27.046  36.903  1.00  0.00    -0.206 F 
ATOM     76  C   UNL A   1      44.617  26.560  37.277  1.00  0.00     0.059 A 
ATOM     77  C   UNL A   1      46.336  27.903  36.209  1.00  0.00     0.059 A 
ATOM     78  F   UNL A   1      45.720  29.704  34.840  1.00  0.00    -0.206 F 
ATOM     79  C   UNL A   1      45.962  26.846  37.038  1.00  0.00     0.060 A 
BRANCH  79  80
ATOM     80  S   UNL A   1      47.214  25.797  37.806  1.00  0.00     0.124 S 
ATOM     81  O   UNL A   1      47.703  25.039  36.658  1.00  0.00    -0.237 OA
ATOM     82  O   UNL A   1      48.143  26.776  38.360  1.00  0.00    -0.237 OA
ATOM     83  O   UNL A   1      46.458  25.028  38.790  1.00  0.00    -0.744 OA
ENDBRANCH  79  80
ENDBRANCH  58  72
BRANCH  59  84
ATOM     84  C   UNL A   1      36.628  33.115  30.933  1.00  0.00     0.058 A 
ATOM     85  C   UNL A   1      36.821  34.038  29.894  1.00  0.00     0.135 A 
ATOM     86  C   UNL A   1      35.309  32.837  31.322  1.00  0.00     0.135 A 
ATOM     87  F   UNL A   1      38.063  34.339  29.486  1.00  0.00    -0.206 F 
ATOM     88  C   UNL A   1      35.751  34.690  29.289  1.00  0.00     0.059 A 
ATOM     89  C   UNL A   1      34.220  33.455  30.712  1.00  0.00     0.059 A 
ATOM     90  F   UNL A   1      35.067  31.946  32.295  1.00  0.00    -0.206 F 
ATOM     91  C   UNL A   1      34.453  34.393  29.708  1.00  0.00     0.060 A 
BRANCH  91  92
ATOM     92  S   UNL A   1      33.068  35.232  28.908  1.00  0.00     0.124 S 
ATOM     93  O   UNL A   1      32.593  34.202  27.991  1.00  0.00    -0.237 OA
ATOM     94  O   UNL A   1      32.196  35.533  30.039  1.00  0.00    -0.237 OA
ATOM     95  O   UNL A   1      33.696  36.393  28.284  1.00  0.00    -0.744 OA
ENDBRANCH  91  92
ENDBRANCH  59  84
BRANCH  71  96
ATOM     96  C   UNL A   1      39.763  34.108  37.088  1.00  0.00     0.058 A 
ATOM     97  C   UNL A   1      38.895  33.867  38.163  1.00  0.00     0.135 A 
ATOM     98  C   UNL A   1      40.495  35.307  37.089  1.00  0.00     0.135 A 
ATOM     99  F   UNL A   1      38.169  32.738  38.206  1.00  0.00    -0.206 F 
ATOM    100  C   UNL A   1      38.742  34.790  39.193  1.00  0.00     0.059 A 
ATOM    101  C   UNL A   1      40.379  36.231  38.122  1.00  0.00     0.059 A 
ATOM    102  F   UNL A   1      41.348  35.580  36.089  1.00  0.00    -0.206 F 
ATOM    103  C   UNL A   1      39.490  35.968  39.164  1.00  0.00     0.060 A 
BRANCH 103 104
ATOM    104  S   UNL A   1      39.309  37.143  40.523  1.00  0.00     0.124 S 
ATOM    105  O   UNL A   1      38.239  38.001  40.027  1.00  0.00    -0.237 OA
ATOM    106  O   UNL A   1      38.958  36.274  41.642  1.00  0.00    -0.237 OA
ATOM    107  O   UNL A   1      40.625  37.766  40.610  1.00  0.00    -0.744 OA
ENDBRANCH 103 104
ENDBRANCH  71  96
ENDBRANCH  45  46
ENDBRANCH  37  40
ENDBRANCH  35  36
ENDBRANCH  34  35
ENDBRANCH   1  34
TORSDOF 19
ENDMDL
MODEL 2
REMARK VINA RESULT:      -8.8      6.614     14.231
REMARK SMILES COc1ccc([C@H](NC(=O)[C@H]2CC(C)=C(C)C[C@@H]2C(=O)NCCCCNC(=O)c2ccc(-c3c4nc(c(-c5c(F)cc(S(=O)(=O)[O-])cc5F)c5ccc([nH]5)c(-c5c(F)cc(S(=O)(=O)[O-])cc5F)c5nc(c(-c6c(F)cc(S(=O)(=O)[O-])cc6F)c6ccc3[nH]6)C=C5)C=C4)cc2)c2ccccc2)cc1
REMARK SMILES IDX 23 1 22 2 21 3 19 4 20 5 18 7 11 8 12 9 13 10 17 11 14 12
REMARK SMILES IDX 15 13 16 14 9 15 8 16 10 18 7 19 6 20 3 21 4 22 102 23 5 24
REMARK SMILES IDX 101 25 2 26 1 27 95 28 96 29 100 30 97 31 99 32 98 33 24 34
REMARK SMILES IDX 25 35 26 36 27 37 28 39 29 40 30 41 94 42 31 43 93 44 32 45
REMARK SMILES IDX 33 46 34 47 87 48 35 49 92 50 86 51 88 52 36 53 91 54 85 55
REMARK SMILES IDX 84 56 37 58 71 59 50 60 70 61 51 62 54 63 69 64 89 65 52 66
REMARK SMILES IDX 53 67 68 69 90 70 55 71 38 72 39 73 48 74 40 75 41 76 47 77
REMARK SMILES IDX 49 78 42 79 43 80 44 81 45 82 46 83 72 84 73 85 82 86 74 87
REMARK SMILES IDX 75 88 81 89 83 90 76 91 77 92 78 93 79 94 80 95 56 96 57 97
REMARK SMILES IDX 66 98 58 99 59 100 65 101 67 102 60 103 61 104 62 105 63 106
REMARK SMILES IDX 64 107
REMARK H PARENT 21 6 8 17 26 38 88 57 54 68
REMARK Flexibility Score: inf
ROOT
ATOM      1  C   UNL A   1      34.516  28.506  25.837  1.00  0.00     0.023 C 
ENDROOT
BRANCH   1   2
ATOM      2  C   UNL A   1      33.618  28.697  24.607  1.00  0.00     0.116 C 
BRANCH   2   3
ATOM      3  N   UNL A   1      34.081  27.859  23.525  1.00  0.00    -0.356 N 
ATOM      4  C   UNL A   1      33.894  26.544  23.248  1.00  0.00     0.224 C 
ATOM      5  O   UNL A   1      34.551  26.128  22.288  1.00  0.00    -0.275 OA
ATOM      6  H   UNL A   1      34.636  28.332  22.864  1.00  0.00     0.163 HD
BRANCH   4   7
ATOM      7  C   UNL A   1      32.849  25.656  23.964  1.00  0.00     0.095 C 
ATOM      8  C   UNL A   1      31.661  25.147  23.165  1.00  0.00     0.095 C 
ATOM      9  C   UNL A   1      30.730  26.339  23.031  1.00  0.00     0.045 C 
ATOM     10  C   UNL A   1      29.715  26.674  24.328  1.00  0.00    -0.074 C 
ATOM     11  C   UNL A   1      32.278  26.395  25.191  1.00  0.00     0.045 C 
ATOM     12  C   UNL A   1      27.558  26.672  24.273  1.00  0.00     0.039 C 
ATOM     13  C   UNL A   1      30.793  26.925  25.299  1.00  0.00    -0.074 C 
ATOM     14  C   UNL A   1      30.821  27.629  26.683  1.00  0.00     0.039 C 
BRANCH   8  15
ATOM     15  C   UNL A   1      31.311  23.697  23.561  1.00  0.00     0.224 C 
ATOM     16  N   UNL A   1      32.171  22.816  24.128  1.00  0.00    -0.345 N 
ATOM     17  H   UNL A   1      31.941  22.549  25.047  1.00  0.00     0.164 HD
ATOM     18  O   UNL A   1      30.115  23.381  23.675  1.00  0.00    -0.275 OA
BRANCH  16  19
ATOM     19  C   UNL A   1      33.382  22.199  23.599  1.00  0.00     0.143 C 
BRANCH  19  20
ATOM     20  C   UNL A   1      34.689  22.704  24.214  1.00  0.00    -0.021 A 
ATOM     21  C   UNL A   1      37.041  23.655  25.485  1.00  0.00     0.118 A 
ATOM     22  C   UNL A   1      35.868  23.485  26.213  1.00  0.00     0.047 A 
ATOM     23  C   UNL A   1      37.056  23.318  24.133  1.00  0.00     0.047 A 
ATOM     24  C   UNL A   1      34.716  23.000  25.592  1.00  0.00     0.010 A 
ATOM     25  C   UNL A   1      35.888  22.856  23.500  1.00  0.00     0.010 A 
BRANCH  21  26
ATOM     26  O   UNL A   1      38.102  24.122  26.210  1.00  0.00    -0.497 OA
ATOM     27  C   UNL A   1      39.102  23.167  26.541  1.00  0.00     0.278 C 
ENDBRANCH  21  26
ENDBRANCH  19  20
BRANCH  19  28
ATOM     28  C   UNL A   1      33.273  20.712  23.534  1.00  0.00    -0.021 A 
ATOM     29  C   UNL A   1      32.224  19.859  22.314  1.00  0.00     0.006 A 
ATOM     30  C   UNL A   1      34.312  19.755  24.667  1.00  0.00     0.006 A 
ATOM     31  C   UNL A   1      32.276  18.046  22.189  1.00  0.00     0.000 A 
ATOM     32  C   UNL A   1      34.475  17.945  24.434  1.00  0.00     0.000 A 
ATOM     33  C   UNL A   1      33.466  17.100  23.198  1.00  0.00     0.000 A 
ENDBRANCH  19  28
ENDBRANCH  16  19
ENDBRANCH   8  15
ENDBRANCH   4   7
ENDBRANCH   2   3
ENDBRANCH   1   2
BRANCH   1  34
ATOM     34  C   UNL A   1      34.337  29.563  26.929  1.00  0.00     0.023 C 
BRANCH  34  35
ATOM     35  C   UNL A   1      35.212  29.352  28.156  1.00  0.00     0.116 C 
BRANCH  35  36
ATOM     36  N   UNL A   1      35.311  30.535  28.998  1.00  0.00    -0.352 N 
ATOM     37  C   UNL A   1      36.437  31.031  29.609  1.00  0.00     0.251 C 
ATOM     38  H   UNL A   1      34.478  31.037  29.146  1.00  0.00     0.163 HD
ATOM     39  O   UNL A   1      36.368  31.977  30.384  1.00  0.00    -0.269 OA
BRANCH  37  40
ATOM     40  C   UNL A   1      37.722  30.358  29.346  1.00  0.00     0.039 A 
ATOM     41  C   UNL A   1      38.097  30.117  28.024  1.00  0.00     0.014 A 
ATOM     42  C   UNL A   1      38.587  30.065  30.403  1.00  0.00     0.014 A 
ATOM     43  C   UNL A   1      39.377  29.634  27.757  1.00  0.00     0.010 A 
ATOM     44  C   UNL A   1      39.887  29.659  30.129  1.00  0.00     0.010 A 
ATOM     45  C   UNL A   1      40.293  29.437  28.804  1.00  0.00    -0.014 A 
BRANCH  45  46
ATOM     46  C   UNL A   1      41.684  28.999  28.533  1.00  0.00     0.031 A 
ATOM     47  C   UNL A   1      42.798  30.009  28.533  1.00  0.00     0.074 A 
ATOM     48  C   UNL A   1      41.926  27.712  28.213  1.00  0.00     0.049 A 
ATOM     49  N   UNL A   1      44.064  29.839  28.255  1.00  0.00    -0.248 NA
ATOM     50  C   UNL A   1      42.439  31.401  28.858  1.00  0.00     0.031 C 
ATOM     51  C   UNL A   1      40.911  26.659  28.109  1.00  0.00     0.029 A 
ATOM     52  N   UNL A   1      43.098  27.071  27.900  1.00  0.00    -0.354 N 
ATOM     53  C   UNL A   1      44.644  31.097  28.344  1.00  0.00     0.074 A 
ATOM     54  C   UNL A   1      43.588  32.032  28.660  1.00  0.00     0.031 C 
ATOM     55  C   UNL A   1      41.507  25.504  27.769  1.00  0.00     0.029 A 
ATOM     56  C   UNL A   1      42.937  25.738  27.598  1.00  0.00     0.049 A 
ATOM     57  H   UNL A   1      43.972  27.523  27.891  1.00  0.00     0.167 HD
ATOM     58  C   UNL A   1      45.946  31.438  28.197  1.00  0.00     0.037 A 
ATOM     59  C   UNL A   1      43.839  24.813  27.216  1.00  0.00     0.037 A 
ATOM     60  C   UNL A   1      46.997  30.491  27.934  1.00  0.00     0.049 A 
ATOM     61  C   UNL A   1      45.287  25.213  27.104  1.00  0.00     0.074 A 
ATOM     62  C   UNL A   1      48.359  30.720  27.868  1.00  0.00     0.029 A 
ATOM     63  N   UNL A   1      46.803  29.140  27.690  1.00  0.00    -0.354 N 
ATOM     64  N   UNL A   1      45.833  26.391  27.293  1.00  0.00    -0.248 NA
ATOM     65  C   UNL A   1      46.243  24.159  26.738  1.00  0.00     0.031 C 
ATOM     66  C   UNL A   1      48.988  29.515  27.538  1.00  0.00     0.029 A 
ATOM     67  C   UNL A   1      48.021  28.526  27.449  1.00  0.00     0.049 A 
ATOM     68  H   UNL A   1      45.930  28.685  27.689  1.00  0.00     0.167 HD
ATOM     69  C   UNL A   1      47.198  26.213  27.096  1.00  0.00     0.074 A 
ATOM     70  C   UNL A   1      47.397  24.811  26.790  1.00  0.00     0.031 C 
ATOM     71  C   UNL A   1      48.198  27.126  27.160  1.00  0.00     0.037 A 
BRANCH  58  72
ATOM     72  C   UNL A   1      46.318  32.888  28.329  1.00  0.00     0.058 A 
ATOM     73  C   UNL A   1      46.798  33.422  29.534  1.00  0.00     0.135 A 
ATOM     74  C   UNL A   1      46.265  33.737  27.210  1.00  0.00     0.135 A 
ATOM     75  F   UNL A   1      46.852  32.660  30.638  1.00  0.00    -0.206 F 
ATOM     76  C   UNL A   1      47.206  34.748  29.631  1.00  0.00     0.059 A 
ATOM     77  C   UNL A   1      46.692  35.060  27.277  1.00  0.00     0.059 A 
ATOM     78  F   UNL A   1      45.807  33.279  26.035  1.00  0.00    -0.206 F 
ATOM     79  C   UNL A   1      47.156  35.557  28.494  1.00  0.00     0.060 A 
BRANCH  79  80
ATOM     80  S   UNL A   1      47.736  37.262  28.625  1.00  0.00     0.124 S 
ATOM     81  O   UNL A   1      46.867  37.940  27.669  1.00  0.00    -0.237 OA
ATOM     82  O   UNL A   1      47.491  37.567  30.031  1.00  0.00    -0.237 OA
ATOM     83  O   UNL A   1      49.142  37.174  28.243  1.00  0.00    -0.744 OA
ENDBRANCH  79  80
ENDBRANCH  58  72
BRANCH  59  84
ATOM     84  C   UNL A   1      43.408  23.421  26.913  1.00  0.00     0.058 A 
ATOM     85  C   UNL A   1      43.040  22.535  27.937  1.00  0.00     0.135 A 
ATOM     86  C   UNL A   1      43.371  22.944  25.594  1.00  0.00     0.135 A 
ATOM     87  F   UNL A   1      43.061  22.943  29.215  1.00  0.00    -0.206 F 
ATOM     88  C   UNL A   1      42.687  21.217  27.670  1.00  0.00     0.059 A 
ATOM     89  C   UNL A   1      42.993  21.637  25.298  1.00  0.00     0.059 A 
ATOM     90  F   UNL A   1      43.692  23.756  24.575  1.00  0.00    -0.206 F 
ATOM     91  C   UNL A   1      42.670  20.776  26.345  1.00  0.00     0.060 A 
BRANCH  91  92
ATOM     92  S   UNL A   1      42.195  19.067  26.004  1.00  0.00     0.124 S 
ATOM     93  O   UNL A   1      43.028  18.757  24.848  1.00  0.00    -0.237 OA
ATOM     94  O   UNL A   1      42.553  18.395  27.249  1.00  0.00    -0.237 OA
ATOM     95  O   UNL A   1      40.762  19.164  25.743  1.00  0.00    -0.744 OA
ENDBRANCH  91  92
ENDBRANCH  59  84
BRANCH  71  96
ATOM     96  C   UNL A   1      49.601  26.636  26.936  1.00  0.00     0.058 A 
ATOM     97  C   UNL A   1      50.175  26.604  25.656  1.00  0.00     0.135 A 
ATOM     98  C   UNL A   1      50.400  26.251  28.025  1.00  0.00     0.135 A 
ATOM     99  F   UNL A   1      49.451  26.957  24.581  1.00  0.00    -0.206 F 
ATOM    100  C   UNL A   1      51.487  26.185  25.460  1.00  0.00     0.059 A 
ATOM    101  C   UNL A   1      51.723  25.856  27.855  1.00  0.00     0.059 A 
ATOM    102  F   UNL A   1      49.902  26.275  29.271  1.00  0.00    -0.206 F 
ATOM    103  C   UNL A   1      52.254  25.815  26.567  1.00  0.00     0.060 A 
BRANCH 103 104
ATOM    104  S   UNL A   1      53.965  25.306  26.303  1.00  0.00     0.124 S 
ATOM    105  O   UNL A   1      54.426  26.311  25.352  1.00  0.00    -0.237 OA
ATOM    106  O   UNL A   1      54.529  25.399  27.646  1.00  0.00    -0.237 OA
ATOM    107  O   UNL A   1      53.840  23.952  25.775  1.00  0.00    -0.744 OA
ENDBRANCH 103 104
ENDBRANCH  71  96
ENDBRANCH  45  46
ENDBRANCH  37  40
ENDBRANCH  35  36
ENDBRANCH  34  35
ENDBRANCH   1  34
TORSDOF 19
ENDMDL
MODEL 3
REMARK VINA RESULT:      -8.2      1.477      3.028
REMARK SMILES COc1ccc([C@H](NC(=O)[C@H]2CC(C)=C(C)C[C@@H]2C(=O)NCCCCNC(=O)c2ccc(-c3c4nc(c(-c5c(F)cc(S(=O)(=O)[O-])cc5F)c5ccc([nH]5)c(-c5c(F)cc(S(=O)(=O)[O-])cc5F)c5nc(c(-c6c(F)cc(S(=O)(=O)[O-])cc6F)c6ccc3[nH]6)C=C5)C=C4)cc2)c2ccccc2)cc1
REMARK SMILES IDX 23 1 22 2 21 3 19 4 20 5 18 7 11 8 12 9 13 10 17 11 14 12
REMARK SMILES IDX 15 13 16 14 9 15 8 16 10 18 7 19 6 20 3 21 4 22 102 23 5 24
REMARK SMILES IDX 101 25 2 26 1 27 95 28 96 29 100 30 97 31 99 32 98 33 24 34
REMARK SMILES IDX 25 35 26 36 27 37 28 39 29 40 30 41 94 42 31 43 93 44 32 45
REMARK SMILES IDX 33 46 34 47 87 48 35 49 92 50 86 51 88 52 36 53 91 54 85 55
REMARK SMILES IDX 84 56 37 58 71 59 50 60 70 61 51 62 54 63 69 64 89 65 52 66
REMARK SMILES IDX 53 67 68 69 90 70 55 71 38 72 39 73 48 74 40 75 41 76 47 77
REMARK SMILES IDX 49 78 42 79 43 80 44 81 45 82 46 83 72 84 73 85 82 86 74 87
REMARK SMILES IDX 75 88 81 89 83 90 76 91 77 92 78 93 79 94 80 95 56 96 57 97
REMARK SMILES IDX 66 98 58 99 59 100 65 101 67 102 60 103 61 104 62 105 63 106
REMARK SMILES IDX 64 107
REMARK H PARENT 21 6 8 17 26 38 88 57 54 68
REMARK Flexibility Score: inf
ROOT
ATOM      1  C   UNL A   1      45.442  24.540  25.838  1.00  0.00     0.023 C 
ENDROOT
BRANCH   1   2
ATOM      2  C   UNL A   1      46.881  24.590  26.366  1.00  0.00     0.116 C 
BRANCH   2   3
ATOM      3  N   UNL A   1      47.729  25.280  25.422  1.00  0.00    -0.356 N 
ATOM      4  C   UNL A   1      48.601  26.310  25.563  1.00  0.00     0.224 C 
ATOM      5  O   UNL A   1      49.069  26.731  24.500  1.00  0.00    -0.275 OA
ATOM      6  H   UNL A   1      47.661  24.938  24.501  1.00  0.00     0.163 HD
BRANCH   4   7
ATOM      7  C   UNL A   1      49.094  26.835  26.933  1.00  0.00     0.095 C 
ATOM      8  C   UNL A   1      49.164  28.337  27.150  1.00  0.00     0.095 C 
ATOM      9  C   UNL A   1      50.402  28.791  26.398  1.00  0.00     0.045 C 
ATOM     10  C   UNL A   1      51.884  28.610  27.169  1.00  0.00    -0.074 C 
ATOM     11  C   UNL A   1      50.496  26.273  27.241  1.00  0.00     0.045 C 
ATOM     12  C   UNL A   1      53.240  30.207  27.688  1.00  0.00     0.039 C 
ATOM     13  C   UNL A   1      51.815  27.143  27.278  1.00  0.00    -0.074 C 
ATOM     14  C   UNL A   1      52.889  26.056  27.554  1.00  0.00     0.039 C 
BRANCH   8  15
ATOM     15  C   UNL A   1      48.723  28.708  28.581  1.00  0.00     0.224 C 
ATOM     16  N   UNL A   1      47.980  27.919  29.396  1.00  0.00    -0.345 N 
ATOM     17  H   UNL A   1      48.447  27.604  30.203  1.00  0.00     0.164 HD
ATOM     18  O   UNL A   1      49.317  29.625  29.172  1.00  0.00    -0.275 OA
BRANCH  16  19
ATOM     19  C   UNL A   1      46.602  27.460  29.272  1.00  0.00     0.143 C 
BRANCH  19  20
ATOM     20  C   UNL A   1      46.150  26.463  30.341  1.00  0.00    -0.021 A 
ATOM     21  C   UNL A   1      45.410  24.678  32.419  1.00  0.00     0.118 A 
ATOM     22  C   UNL A   1      46.338  25.687  32.656  1.00  0.00     0.047 A 
ATOM     23  C   UNL A   1      44.822  24.579  31.159  1.00  0.00     0.047 A 
ATOM     24  C   UNL A   1      46.689  26.576  31.639  1.00  0.00     0.010 A 
ATOM     25  C   UNL A   1      45.196  25.456  30.126  1.00  0.00     0.010 A 
BRANCH  21  26
ATOM     26  O   UNL A   1      45.141  23.883  33.498  1.00  0.00    -0.497 OA
ATOM     27  C   UNL A   1      43.769  23.741  33.844  1.00  0.00     0.278 C 
ENDBRANCH  21  26
ENDBRANCH  19  20
BRANCH  19  28
ATOM     28  C   UNL A   1      45.651  28.590  29.052  1.00  0.00    -0.021 A 
ATOM     29  C   UNL A   1      44.969  29.578  30.422  1.00  0.00     0.006 A 
ATOM     30  C   UNL A   1      45.260  29.022  27.338  1.00  0.00     0.006 A 
ATOM     31  C   UNL A   1      43.953  31.041  30.062  1.00  0.00     0.000 A 
ATOM     32  C   UNL A   1      44.365  30.580  26.979  1.00  0.00     0.000 A 
ATOM     33  C   UNL A   1      43.722  31.583  28.336  1.00  0.00     0.000 A 
ENDBRANCH  19  28
ENDBRANCH  16  19
ENDBRANCH   8  15
ENDBRANCH   4   7
ENDBRANCH   2   3
ENDBRANCH   1   2
BRANCH   1  34
ATOM     34  C   UNL A   1      44.969  25.822  25.148  1.00  0.00     0.023 C 
BRANCH  34  35
ATOM     35  C   UNL A   1      43.492  26.130  25.340  1.00  0.00     0.116 C 
BRANCH  35  36
ATOM     36  N   UNL A   1      42.677  24.938  25.525  1.00  0.00    -0.352 N 
ATOM     37  C   UNL A   1      41.730  24.717  26.495  1.00  0.00     0.251 C 
ATOM     38  H   UNL A   1      42.821  24.207  24.882  1.00  0.00     0.163 HD
ATOM     39  O   UNL A   1      41.188  23.625  26.609  1.00  0.00    -0.269 OA
BRANCH  37  40
ATOM     40  C   UNL A   1      41.423  25.818  27.427  1.00  0.00     0.039 A 
ATOM     41  C   UNL A   1      40.285  25.723  28.229  1.00  0.00     0.014 A 
ATOM     42  C   UNL A   1      42.317  26.882  27.570  1.00  0.00     0.014 A 
ATOM     43  C   UNL A   1      40.076  26.674  29.227  1.00  0.00     0.010 A 
ATOM     44  C   UNL A   1      42.146  27.781  28.615  1.00  0.00     0.010 A 
ATOM     45  C   UNL A   1      41.024  27.687  29.451  1.00  0.00    -0.014 A 
BRANCH  45  46
ATOM     46  C   UNL A   1      40.857  28.659  30.559  1.00  0.00     0.031 A 
ATOM     47  C   UNL A   1      41.687  28.521  31.806  1.00  0.00     0.074 A 
ATOM     48  C   UNL A   1      39.909  29.614  30.469  1.00  0.00     0.049 A 
ATOM     49  N   UNL A   1      41.643  29.225  32.906  1.00  0.00    -0.248 NA
ATOM     50  C   UNL A   1      42.674  27.428  31.833  1.00  0.00     0.031 C 
ATOM     51  C   UNL A   1      38.995  29.797  29.338  1.00  0.00     0.029 A 
ATOM     52  N   UNL A   1      39.544  30.600  31.350  1.00  0.00    -0.354 N 
ATOM     53  C   UNL A   1      42.572  28.647  33.762  1.00  0.00     0.074 A 
ATOM     54  C   UNL A   1      43.135  27.508  33.073  1.00  0.00     0.031 C 
ATOM     55  C   UNL A   1      38.185  30.839  29.590  1.00  0.00     0.029 A 
ATOM     56  C   UNL A   1      38.497  31.376  30.910  1.00  0.00     0.049 A 
ATOM     57  H   UNL A   1      39.990  30.740  32.216  1.00  0.00     0.167 HD
ATOM     58  C   UNL A   1      42.937  29.046  35.003  1.00  0.00     0.037 A 
ATOM     59  C   UNL A   1      37.854  32.399  31.509  1.00  0.00     0.037 A 
ATOM     60  C   UNL A   1      42.407  30.212  35.658  1.00  0.00     0.049 A 
ATOM     61  C   UNL A   1      38.312  32.847  32.871  1.00  0.00     0.074 A 
ATOM     62  C   UNL A   1      42.784  30.760  36.871  1.00  0.00     0.029 A 
ATOM     63  N   UNL A   1      41.387  31.008  35.157  1.00  0.00    -0.354 N 
ATOM     64  N   UNL A   1      39.265  32.351  33.625  1.00  0.00    -0.248 NA
ATOM     65  C   UNL A   1      37.620  34.000  33.462  1.00  0.00     0.031 C 
ATOM     66  C   UNL A   1      41.960  31.859  37.128  1.00  0.00     0.029 A 
ATOM     67  C   UNL A   1      41.105  32.027  36.050  1.00  0.00     0.049 A 
ATOM     68  H   UNL A   1      40.932  30.867  34.296  1.00  0.00     0.167 HD
ATOM     69  C   UNL A   1      39.303  33.147  34.764  1.00  0.00     0.074 A 
ATOM     70  C   UNL A   1      38.289  34.168  34.594  1.00  0.00     0.031 C 
ATOM     71  C   UNL A   1      40.101  33.043  35.854  1.00  0.00     0.037 A 
BRANCH  58  72
ATOM     72  C   UNL A   1      43.965  28.230  35.735  1.00  0.00     0.058 A 
ATOM     73  C   UNL A   1      45.341  28.427  35.541  1.00  0.00     0.135 A 
ATOM     74  C   UNL A   1      43.567  27.291  36.702  1.00  0.00     0.135 A 
ATOM     75  F   UNL A   1      45.776  29.299  34.616  1.00  0.00    -0.206 F 
ATOM     76  C   UNL A   1      46.287  27.717  36.272  1.00  0.00     0.059 A 
ATOM     77  C   UNL A   1      44.496  26.589  37.463  1.00  0.00     0.059 A 
ATOM     78  F   UNL A   1      42.264  27.060  36.922  1.00  0.00    -0.206 F 
ATOM     79  C   UNL A   1      45.855  26.806  37.237  1.00  0.00     0.060 A 
BRANCH  79  80
ATOM     80  S   UNL A   1      47.097  25.930  38.211  1.00  0.00     0.124 S 
ATOM     81  O   UNL A   1      48.228  26.850  38.136  1.00  0.00    -0.237 OA
ATOM     82  O   UNL A   1      46.451  25.824  39.515  1.00  0.00    -0.237 OA
ATOM     83  O   UNL A   1      47.266  24.669  37.494  1.00  0.00    -0.744 OA
ENDBRANCH  79  80
ENDBRANCH  58  72
BRANCH  59  84
ATOM     84  C   UNL A   1      36.713  33.071  30.830  1.00  0.00     0.058 A 
ATOM     85  C   UNL A   1      36.925  33.995  29.795  1.00  0.00     0.135 A 
ATOM     86  C   UNL A   1      35.387  32.814  31.214  1.00  0.00     0.135 A 
ATOM     87  F   UNL A   1      38.173  34.276  29.393  1.00  0.00    -0.206 F 
ATOM     88  C   UNL A   1      35.869  34.669  29.191  1.00  0.00     0.059 A 
ATOM     89  C   UNL A   1      34.312  33.454  30.604  1.00  0.00     0.059 A 
ATOM     90  F   UNL A   1      35.127  31.923  32.182  1.00  0.00    -0.206 F 
ATOM     91  C   UNL A   1      34.564  34.393  29.605  1.00  0.00     0.060 A 
BRANCH  91  92
ATOM     92  S   UNL A   1      33.197  35.259  28.804  1.00  0.00     0.124 S 
ATOM     93  O   UNL A   1      32.619  34.200  27.984  1.00  0.00    -0.237 OA
ATOM     94  O   UNL A   1      32.396  35.692  29.946  1.00  0.00    -0.237 OA
ATOM     95  O   UNL A   1      33.864  36.333  28.073  1.00  0.00    -0.744 OA
ENDBRANCH  91  92
ENDBRANCH  59  84
BRANCH  71  96
ATOM     96  C   UNL A   1      39.944  34.079  36.932  1.00  0.00     0.058 A 
ATOM     97  C   UNL A   1      40.497  35.362  36.808  1.00  0.00     0.135 A 
ATOM     98  C   UNL A   1      39.178  33.800  38.076  1.00  0.00     0.135 A 
ATOM     99  F   UNL A   1      41.241  35.677  35.736  1.00  0.00    -0.206 F 
ATOM    100  C   UNL A   1      40.316  36.328  37.792  1.00  0.00     0.059 A 
ATOM    101  C   UNL A   1      38.960  34.759  39.060  1.00  0.00     0.059 A 
ATOM    102  F   UNL A   1      38.618  32.591  38.237  1.00  0.00    -0.206 F 
ATOM    103  C   UNL A   1      39.544  36.017  38.914  1.00  0.00     0.060 A 
BRANCH 103 104
ATOM    104  S   UNL A   1      39.287  37.290  40.168  1.00  0.00     0.124 S 
ATOM    105  O   UNL A   1      40.659  37.671  40.484  1.00  0.00    -0.237 OA
ATOM    106  O   UNL A   1      38.502  38.286  39.446  1.00  0.00    -0.237 OA
ATOM    107  O   UNL A   1      38.571  36.584  41.226  1.00  0.00    -0.744 OA
ENDBRANCH 103 104
ENDBRANCH  71  96
ENDBRANCH  45  46
ENDBRANCH  37  40
ENDBRANCH  35  36
ENDBRANCH  34  35
ENDBRANCH   1  34
TORSDOF 19
ENDMDL
