MODEL 1
REMARK VINA RESULT:     -10.9      0.000      0.000
REMARK SMILES O=C(CC1=c2ccccc2=NC1)NCCCCNC(=O)c1ccc(-c2c3nc(c(-c4c(F)cc(S(=O)(=O)[O-])cc4F)c4ccc([nH]4)c(-c4c(F)cc(S(=O)(=O)[O-])cc4F)c4nc(c(-c5c(F)cc(S(=O)(=O)[O-])cc5F)c5ccc2[nH]5)C=C4)C=C3)cc1
REMARK SMILES IDX 16 1 15 2 14 3 13 4 1 5 2 6 3 8 4 9 5 10 12 11 6 12 10 13
REMARK SMILES IDX 11 14 7 15 9 16 8 17 17 18 18 19 19 20 20 22 21 23 22 24
REMARK SMILES IDX 86 25 23 26 85 27 24 28 25 29 26 30 79 31 27 32 84 33 78 34
REMARK SMILES IDX 80 35 28 36 83 37 77 38 76 39 29 41 63 42 42 43 62 44 43 45
REMARK SMILES IDX 46 46 61 47 81 48 44 49 45 50 60 52 82 53 47 54 30 55 31 56
REMARK SMILES IDX 40 57 32 58 33 59 39 60 41 61 34 62 35 63 36 64 37 65 38 66
REMARK SMILES IDX 64 67 65 68 74 69 66 70 67 71 73 72 75 73 68 74 69 75 70 76
REMARK SMILES IDX 71 77 72 78 48 79 49 80 58 81 50 82 51 83 57 84 59 85 52 86
REMARK SMILES IDX 53 87 54 88 55 89 56 90
REMARK H PARENT 13 7 18 21 80 40 46 51
REMARK Flexibility Score: inf
ROOT
ATOM      1  C   UNL A   1      40.126  21.502  26.816  1.00  0.00     0.023 C 
ENDROOT
BRANCH   1   2
ATOM      2  C   UNL A   1      41.135  20.436  27.245  1.00  0.00     0.023 C 
BRANCH   2   3
ATOM      3  C   UNL A   1      42.012  19.879  26.125  1.00  0.00     0.116 C 
BRANCH   3   4
ATOM      4  N   UNL A   1      43.374  20.371  26.192  1.00  0.00    -0.356 N 
ATOM      5  O   UNL A   1      43.027  22.241  24.899  1.00  0.00    -0.275 OA
ATOM      6  C   UNL A   1      43.772  21.536  25.573  1.00  0.00     0.224 C 
ATOM      7  H   UNL A   1      44.039  19.853  26.699  1.00  0.00     0.163 HD
BRANCH   6   8
ATOM      8  C   UNL A   1      45.245  21.883  25.766  1.00  0.00     0.133 C 
BRANCH   8   9
ATOM      9  C   UNL A   1      45.427  23.099  26.610  1.00  0.00    -0.030 C 
ATOM     10  C   UNL A   1      44.821  23.414  27.753  1.00  0.00     0.001 A 
ATOM     11  C   UNL A   1      46.419  24.159  26.231  1.00  0.00     0.175 C 
ATOM     12  C   UNL A   1      43.835  22.798  28.582  1.00  0.00     0.010 A 
ATOM     13  C   UNL A   1      45.441  24.702  28.110  1.00  0.00     0.065 A 
ATOM     14  N   UNL A   1      46.341  25.178  27.305  1.00  0.00    -0.280 NA
ATOM     15  C   UNL A   1      43.463  23.424  29.711  1.00  0.00     0.001 A 
ATOM     16  C   UNL A   1      44.973  25.332  29.363  1.00  0.00     0.028 A 
ATOM     17  C   UNL A   1      44.038  24.703  30.096  1.00  0.00     0.002 A 
ENDBRANCH   8   9
ENDBRANCH   6   8
ENDBRANCH   3   4
ENDBRANCH   2   3
ENDBRANCH   1   2
BRANCH   1  18
ATOM     18  C   UNL A   1      40.446  22.929  27.246  1.00  0.00     0.116 C 
BRANCH  18  19
ATOM     19  N   UNL A   1      40.800  23.803  26.137  1.00  0.00    -0.352 N 
ATOM     20  C   UNL A   1      41.045  25.159  26.145  1.00  0.00     0.251 C 
ATOM     21  H   UNL A   1      40.875  23.364  25.259  1.00  0.00     0.163 HD
ATOM     22  O   UNL A   1      41.229  25.755  25.086  1.00  0.00    -0.269 OA
BRANCH  20  23
ATOM     23  C   UNL A   1      41.036  25.903  27.425  1.00  0.00     0.039 A 
ATOM     24  C   UNL A   1      39.994  25.744  28.340  1.00  0.00     0.014 A 
ATOM     25  C   UNL A   1      42.071  26.805  27.695  1.00  0.00     0.014 A 
ATOM     26  C   UNL A   1      39.892  26.609  29.426  1.00  0.00     0.010 A 
ATOM     27  C   UNL A   1      42.005  27.621  28.829  1.00  0.00     0.010 A 
ATOM     28  C   UNL A   1      40.885  27.572  29.673  1.00  0.00    -0.014 A 
BRANCH  28  29
ATOM     29  C   UNL A   1      40.709  28.535  30.794  1.00  0.00     0.031 A 
ATOM     30  C   UNL A   1      41.644  28.512  31.978  1.00  0.00     0.074 A 
ATOM     31  C   UNL A   1      39.748  29.476  30.718  1.00  0.00     0.049 A 
ATOM     32  N   UNL A   1      41.664  29.297  33.025  1.00  0.00    -0.248 NA
ATOM     33  C   UNL A   1      42.690  27.476  31.990  1.00  0.00     0.031 C 
ATOM     34  C   UNL A   1      38.783  29.607  29.625  1.00  0.00     0.029 A 
ATOM     35  N   UNL A   1      39.439  30.514  31.561  1.00  0.00    -0.354 N 
ATOM     36  C   UNL A   1      42.704  28.841  33.827  1.00  0.00     0.074 A 
ATOM     37  C   UNL A   1      43.279  27.695  33.158  1.00  0.00     0.031 C 
ATOM     38  C   UNL A   1      38.022  30.691  29.839  1.00  0.00     0.029 A 
ATOM     39  C   UNL A   1      38.411  31.305  31.105  1.00  0.00     0.049 A 
ATOM     40  H   UNL A   1      39.910  30.677  32.410  1.00  0.00     0.167 HD
ATOM     41  C   UNL A   1      43.150  29.339  35.006  1.00  0.00     0.037 A 
ATOM     42  C   UNL A   1      37.838  32.396  31.648  1.00  0.00     0.037 A 
ATOM     43  C   UNL A   1      42.602  30.500  35.657  1.00  0.00     0.049 A 
ATOM     44  C   UNL A   1      38.340  32.919  32.963  1.00  0.00     0.074 A 
ATOM     45  C   UNL A   1      43.011  31.097  36.838  1.00  0.00     0.029 A 
ATOM     46  N   UNL A   1      41.530  31.243  35.186  1.00  0.00    -0.354 N 
ATOM     47  N   UNL A   1      39.329  32.476  33.699  1.00  0.00    -0.248 NA
ATOM     48  C   UNL A   1      37.641  34.082  33.527  1.00  0.00     0.031 C 
ATOM     49  C   UNL A   1      42.169  32.183  37.095  1.00  0.00     0.029 A 
ATOM     50  C   UNL A   1      41.256  32.283  36.059  1.00  0.00     0.049 A 
ATOM     51  H   UNL A   1      41.038  31.059  34.354  1.00  0.00     0.167 HD
ATOM     52  C   UNL A   1      39.374  33.307  34.812  1.00  0.00     0.074 A 
ATOM     53  C   UNL A   1      38.326  34.292  34.643  1.00  0.00     0.031 C 
ATOM     54  C   UNL A   1      40.205  33.252  35.882  1.00  0.00     0.037 A 
BRANCH  41  55
ATOM     55  C   UNL A   1      44.294  28.635  35.679  1.00  0.00     0.058 A 
ATOM     56  C   UNL A   1      44.076  27.594  36.595  1.00  0.00     0.135 A 
ATOM     57  C   UNL A   1      45.621  28.954  35.352  1.00  0.00     0.135 A 
ATOM     58  F   UNL A   1      42.826  27.259  36.953  1.00  0.00    -0.206 F 
ATOM     59  C   UNL A   1      45.136  26.901  37.170  1.00  0.00     0.059 A 
ATOM     60  C   UNL A   1      46.697  28.262  35.901  1.00  0.00     0.059 A 
ATOM     61  F   UNL A   1      45.882  29.943  34.482  1.00  0.00    -0.206 F 
ATOM     62  C   UNL A   1      46.443  27.241  36.816  1.00  0.00     0.060 A 
BRANCH  62  63
ATOM     63  S   UNL A   1      47.805  26.313  37.555  1.00  0.00     0.124 S 
ATOM     64  O   UNL A   1      48.851  26.487  36.552  1.00  0.00    -0.237 OA
ATOM     65  O   UNL A   1      48.013  27.018  38.816  1.00  0.00    -0.237 OA
ATOM     66  O   UNL A   1      47.270  24.962  37.677  1.00  0.00    -0.744 OA
ENDBRANCH  62  63
ENDBRANCH  41  55
BRANCH  42  67
ATOM     67  C   UNL A   1      36.719  33.066  30.937  1.00  0.00     0.058 A 
ATOM     68  C   UNL A   1      35.397  32.927  31.380  1.00  0.00     0.135 A 
ATOM     69  C   UNL A   1      36.957  33.885  29.822  1.00  0.00     0.135 A 
ATOM     70  F   UNL A   1      35.121  32.148  32.436  1.00  0.00    -0.206 F 
ATOM     71  C   UNL A   1      34.345  33.576  30.742  1.00  0.00     0.059 A 
ATOM     72  C   UNL A   1      35.926  34.563  29.181  1.00  0.00     0.059 A 
ATOM     73  F   UNL A   1      38.209  34.059  29.370  1.00  0.00    -0.206 F 
ATOM     74  C   UNL A   1      34.621  34.396  29.646  1.00  0.00     0.060 A 
BRANCH  74  75
ATOM     75  S   UNL A   1      33.260  35.293  28.867  1.00  0.00     0.124 S 
ATOM     76  O   UNL A   1      32.560  35.827  30.030  1.00  0.00    -0.237 OA
ATOM     77  O   UNL A   1      33.965  36.268  28.042  1.00  0.00    -0.237 OA
ATOM     78  O   UNL A   1      32.555  34.251  28.127  1.00  0.00    -0.744 OA
ENDBRANCH  74  75
ENDBRANCH  42  67
BRANCH  54  79
ATOM     79  C   UNL A   1      40.018  34.283  36.956  1.00  0.00     0.058 A 
ATOM     80  C   UNL A   1      40.646  35.535  36.881  1.00  0.00     0.135 A 
ATOM     81  C   UNL A   1      39.156  34.043  38.037  1.00  0.00     0.135 A 
ATOM     82  F   UNL A   1      41.486  35.810  35.869  1.00  0.00    -0.206 F 
ATOM     83  C   UNL A   1      40.434  36.512  37.846  1.00  0.00     0.059 A 
ATOM     84  C   UNL A   1      38.914  35.012  39.005  1.00  0.00     0.059 A 
ATOM     85  F   UNL A   1      38.525  32.863  38.149  1.00  0.00    -0.206 F 
ATOM     86  C   UNL A   1      39.565  36.242  38.905  1.00  0.00     0.060 A 
BRANCH  86  87
ATOM     87  S   UNL A   1      39.264  37.534  40.130  1.00  0.00     0.124 S 
ATOM     88  O   UNL A   1      38.926  36.746  41.310  1.00  0.00    -0.237 OA
ATOM     89  O   UNL A   1      40.548  38.228  40.175  1.00  0.00    -0.237 OA
ATOM     90  O   UNL A   1      38.165  38.300  39.551  1.00  0.00    -0.744 OA
ENDBRANCH  86  87
ENDBRANCH  54  79
ENDBRANCH  28  29
ENDBRANCH  20  23
ENDBRANCH  18  19
ENDBRANCH   1  18
TORSDOF 15
ENDMDL
MODEL 2
REMARK VINA RESULT:     -10.6      2.891      4.930
REMARK SMILES O=C(CC1=c2ccccc2=NC1)NCCCCNC(=O)c1ccc(-c2c3nc(c(-c4c(F)cc(S(=O)(=O)[O-])cc4F)c4ccc([nH]4)c(-c4c(F)cc(S(=O)(=O)[O-])cc4F)c4nc(c(-c5c(F)cc(S(=O)(=O)[O-])cc5F)c5ccc2[nH]5)C=C4)C=C3)cc1
REMARK SMILES IDX 16 1 15 2 14 3 13 4 1 5 2 6 3 8 4 9 5 10 12 11 6 12 10 13
REMARK SMILES IDX 11 14 7 15 9 16 8 17 17 18 18 19 19 20 20 22 21 23 22 24
REMARK SMILES IDX 86 25 23 26 85 27 24 28 25 29 26 30 79 31 27 32 84 33 78 34
REMARK SMILES IDX 80 35 28 36 83 37 77 38 76 39 29 41 63 42 42 43 62 44 43 45
REMARK SMILES IDX 46 46 61 47 81 48 44 49 45 50 60 52 82 53 47 54 30 55 31 56
REMARK SMILES IDX 40 57 32 58 33 59 39 60 41 61 34 62 35 63 36 64 37 65 38 66
REMARK SMILES IDX 64 67 65 68 74 69 66 70 67 71 73 72 75 73 68 74 69 75 70 76
REMARK SMILES IDX 71 77 72 78 48 79 49 80 58 81 50 82 51 83 57 84 59 85 52 86
REMARK SMILES IDX 53 87 54 88 55 89 56 90
REMARK H PARENT 13 7 18 21 80 40 46 51
REMARK Flexibility Score: inf
ROOT
ATOM      1  C   UNL A   1      40.679  22.130  26.946  1.00  0.00     0.023 C 
ENDROOT
BRANCH   1   2
ATOM      2  C   UNL A   1      39.360  22.685  26.405  1.00  0.00     0.023 C 
BRANCH   2   3
ATOM      3  C   UNL A   1      38.609  21.763  25.446  1.00  0.00     0.116 C 
BRANCH   3   4
ATOM      4  N   UNL A   1      37.256  21.490  25.887  1.00  0.00    -0.356 N 
ATOM      5  O   UNL A   1      36.220  22.179  23.952  1.00  0.00    -0.275 OA
ATOM      6  C   UNL A   1      36.156  21.714  25.086  1.00  0.00     0.224 C 
ATOM      7  H   UNL A   1      37.116  21.133  26.794  1.00  0.00     0.163 HD
BRANCH   6   8
ATOM      8  C   UNL A   1      34.821  21.360  25.733  1.00  0.00     0.133 C 
BRANCH   8   9
ATOM      9  C   UNL A   1      33.900  20.679  24.777  1.00  0.00    -0.030 C 
ATOM     10  C   UNL A   1      33.917  19.412  24.370  1.00  0.00     0.001 A 
ATOM     11  C   UNL A   1      32.751  21.416  24.156  1.00  0.00     0.175 C 
ATOM     12  C   UNL A   1      34.735  18.271  24.635  1.00  0.00     0.010 A 
ATOM     13  C   UNL A   1      32.753  19.340  23.470  1.00  0.00     0.065 A 
ATOM     14  N   UNL A   1      32.056  20.423  23.302  1.00  0.00    -0.280 NA
ATOM     15  C   UNL A   1      34.431  17.109  24.033  1.00  0.00     0.001 A 
ATOM     16  C   UNL A   1      32.488  18.029  22.840  1.00  0.00     0.028 A 
ATOM     17  C   UNL A   1      33.299  16.996  23.126  1.00  0.00     0.002 A 
ENDBRANCH   8   9
ENDBRANCH   6   8
ENDBRANCH   3   4
ENDBRANCH   2   3
ENDBRANCH   1   2
BRANCH   1  18
ATOM     18  C   UNL A   1      41.845  23.111  26.984  1.00  0.00     0.116 C 
BRANCH  18  19
ATOM     19  N   UNL A   1      41.816  24.087  25.904  1.00  0.00    -0.352 N 
ATOM     20  C   UNL A   1      41.631  25.450  25.972  1.00  0.00     0.251 C 
ATOM     21  H   UNL A   1      41.948  23.722  24.999  1.00  0.00     0.163 HD
ATOM     22  O   UNL A   1      41.531  26.108  24.939  1.00  0.00    -0.269 OA
BRANCH  20  23
ATOM     23  C   UNL A   1      41.502  26.113  27.290  1.00  0.00     0.039 A 
ATOM     24  C   UNL A   1      40.347  25.959  28.060  1.00  0.00     0.014 A 
ATOM     25  C   UNL A   1      42.539  26.934  27.743  1.00  0.00     0.014 A 
ATOM     26  C   UNL A   1      40.156  26.759  29.184  1.00  0.00     0.010 A 
ATOM     27  C   UNL A   1      42.375  27.681  28.915  1.00  0.00     0.010 A 
ATOM     28  C   UNL A   1      41.159  27.646  29.612  1.00  0.00    -0.014 A 
BRANCH  28  29
ATOM     29  C   UNL A   1      40.895  28.546  30.768  1.00  0.00     0.031 A 
ATOM     30  C   UNL A   1      41.770  28.493  31.996  1.00  0.00     0.074 A 
ATOM     31  C   UNL A   1      39.908  29.459  30.688  1.00  0.00     0.049 A 
ATOM     32  N   UNL A   1      41.711  29.225  33.080  1.00  0.00    -0.248 NA
ATOM     33  C   UNL A   1      42.848  27.491  32.013  1.00  0.00     0.031 C 
ATOM     34  C   UNL A   1      38.995  29.614  29.554  1.00  0.00     0.029 A 
ATOM     35  N   UNL A   1      39.523  30.444  31.562  1.00  0.00    -0.354 N 
ATOM     36  C   UNL A   1      42.725  28.763  33.911  1.00  0.00     0.074 A 
ATOM     37  C   UNL A   1      43.370  27.670  33.218  1.00  0.00     0.031 C 
ATOM     38  C   UNL A   1      38.188  30.663  29.780  1.00  0.00     0.029 A 
ATOM     39  C   UNL A   1      38.493  31.224  31.093  1.00  0.00     0.049 A 
ATOM     40  H   UNL A   1      39.945  30.579  32.441  1.00  0.00     0.167 HD
ATOM     41  C   UNL A   1      43.094  29.215  35.134  1.00  0.00     0.037 A 
ATOM     42  C   UNL A   1      37.857  32.270  31.657  1.00  0.00     0.037 A 
ATOM     43  C   UNL A   1      42.475  30.325  35.811  1.00  0.00     0.049 A 
ATOM     44  C   UNL A   1      38.275  32.742  33.019  1.00  0.00     0.074 A 
ATOM     45  C   UNL A   1      42.805  30.875  37.039  1.00  0.00     0.029 A 
ATOM     46  N   UNL A   1      41.404  31.057  35.321  1.00  0.00    -0.354 N 
ATOM     47  N   UNL A   1      39.241  32.294  33.783  1.00  0.00    -0.248 NA
ATOM     48  C   UNL A   1      37.510  33.853  33.602  1.00  0.00     0.031 C 
ATOM     49  C   UNL A   1      41.915  31.921  37.304  1.00  0.00     0.029 A 
ATOM     50  C   UNL A   1      41.052  32.043  36.227  1.00  0.00     0.049 A 
ATOM     51  H   UNL A   1      40.961  30.900  34.457  1.00  0.00     0.167 HD
ATOM     52  C   UNL A   1      39.202  33.069  34.936  1.00  0.00     0.074 A 
ATOM     53  C   UNL A   1      38.131  34.028  34.761  1.00  0.00     0.031 C 
ATOM     54  C   UNL A   1      39.980  32.988  36.043  1.00  0.00     0.037 A 
BRANCH  41  55
ATOM     55  C   UNL A   1      44.225  28.514  35.831  1.00  0.00     0.058 A 
ATOM     56  C   UNL A   1      43.998  27.413  36.670  1.00  0.00     0.135 A 
ATOM     57  C   UNL A   1      45.555  28.902  35.601  1.00  0.00     0.135 A 
ATOM     58  F   UNL A   1      42.745  27.011  36.935  1.00  0.00    -0.206 F 
ATOM     59  C   UNL A   1      45.051  26.725  37.266  1.00  0.00     0.059 A 
ATOM     60  C   UNL A   1      46.625  28.217  36.171  1.00  0.00     0.059 A 
ATOM     61  F   UNL A   1      45.825  29.950  34.807  1.00  0.00    -0.206 F 
ATOM     62  C   UNL A   1      46.361  27.134  37.009  1.00  0.00     0.060 A 
BRANCH  62  63
ATOM     63  S   UNL A   1      47.716  26.215  37.771  1.00  0.00     0.124 S 
ATOM     64  O   UNL A   1      48.541  25.898  36.609  1.00  0.00    -0.237 OA
ATOM     65  O   UNL A   1      48.275  27.194  38.697  1.00  0.00    -0.237 OA
ATOM     66  O   UNL A   1      47.047  25.077  38.394  1.00  0.00    -0.744 OA
ENDBRANCH  62  63
ENDBRANCH  41  55
BRANCH  42  67
ATOM     67  C   UNL A   1      36.754  32.939  30.922  1.00  0.00     0.058 A 
ATOM     68  C   UNL A   1      35.415  32.609  31.174  1.00  0.00     0.135 A 
ATOM     69  C   UNL A   1      37.017  33.945  29.979  1.00  0.00     0.135 A 
ATOM     70  F   UNL A   1      35.116  31.648  32.060  1.00  0.00    -0.206 F 
ATOM     71  C   UNL A   1      34.372  33.252  30.516  1.00  0.00     0.059 A 
ATOM     72  C   UNL A   1      35.992  34.619  29.325  1.00  0.00     0.059 A 
ATOM     73  F   UNL A   1      38.284  34.304  29.715  1.00  0.00    -0.206 F 
ATOM     74  C   UNL A   1      34.672  34.260  29.596  1.00  0.00     0.060 A 
BRANCH  74  75
ATOM     75  S   UNL A   1      33.311  35.140  28.799  1.00  0.00     0.124 S 
ATOM     76  O   UNL A   1      34.028  36.149  28.028  1.00  0.00    -0.237 OA
ATOM     77  O   UNL A   1      32.670  34.082  28.027  1.00  0.00    -0.237 OA
ATOM     78  O   UNL A   1      32.531  35.641  29.928  1.00  0.00    -0.744 OA
ENDBRANCH  74  75
ENDBRANCH  42  67
BRANCH  54  79
ATOM     79  C   UNL A   1      39.705  33.958  37.154  1.00  0.00     0.058 A 
ATOM     80  C   UNL A   1      38.900  33.604  38.247  1.00  0.00     0.135 A 
ATOM     81  C   UNL A   1      40.300  35.229  37.158  1.00  0.00     0.135 A 
ATOM     82  F   UNL A   1      38.302  32.402  38.285  1.00  0.00    -0.206 F 
ATOM     83  C   UNL A   1      38.685  34.482  39.304  1.00  0.00     0.059 A 
ATOM     84  C   UNL A   1      40.116  36.116  38.214  1.00  0.00     0.059 A 
ATOM     85  F   UNL A   1      41.086  35.611  36.139  1.00  0.00    -0.206 F 
ATOM     86  C   UNL A   1      39.299  35.735  39.279  1.00  0.00     0.060 A 
BRANCH  86  87
ATOM     87  S   UNL A   1      39.048  36.850  40.678  1.00  0.00     0.124 S 
ATOM     88  O   UNL A   1      38.323  37.949  40.050  1.00  0.00    -0.237 OA
ATOM     89  O   UNL A   1      38.275  36.025  41.601  1.00  0.00    -0.237 OA
ATOM     90  O   UNL A   1      40.407  37.160  41.112  1.00  0.00    -0.744 OA
ENDBRANCH  86  87
ENDBRANCH  54  79
ENDBRANCH  28  29
ENDBRANCH  20  23
ENDBRANCH  18  19
ENDBRANCH   1  18
TORSDOF 15
ENDMDL
MODEL 3
REMARK VINA RESULT:     -10.6      5.714     13.209
REMARK SMILES O=C(CC1=c2ccccc2=NC1)NCCCCNC(=O)c1ccc(-c2c3nc(c(-c4c(F)cc(S(=O)(=O)[O-])cc4F)c4ccc([nH]4)c(-c4c(F)cc(S(=O)(=O)[O-])cc4F)c4nc(c(-c5c(F)cc(S(=O)(=O)[O-])cc5F)c5ccc2[nH]5)C=C4)C=C3)cc1
REMARK SMILES IDX 16 1 15 2 14 3 13 4 1 5 2 6 3 8 4 9 5 10 12 11 6 12 10 13
REMARK SMILES IDX 11 14 7 15 9 16 8 17 17 18 18 19 19 20 20 22 21 23 22 24
REMARK SMILES IDX 86 25 23 26 85 27 24 28 25 29 26 30 79 31 27 32 84 33 78 34
REMARK SMILES IDX 80 35 28 36 83 37 77 38 76 39 29 41 63 42 42 43 62 44 43 45
REMARK SMILES IDX 46 46 61 47 81 48 44 49 45 50 60 52 82 53 47 54 30 55 31 56
REMARK SMILES IDX 40 57 32 58 33 59 39 60 41 61 34 62 35 63 36 64 37 65 38 66
REMARK SMILES IDX 64 67 65 68 74 69 66 70 67 71 73 72 75 73 68 74 69 75 70 76
REMARK SMILES IDX 71 77 72 78 48 79 49 80 58 81 50 82 51 83 57 84 59 85 52 86
REMARK SMILES IDX 53 87 54 88 55 89 56 90
REMARK H PARENT 13 7 18 21 80 40 46 51
REMARK Flexibility Score: inf
ROOT
ATOM      1  C   UNL A   1      34.462  32.336  28.022  1.00  0.00     0.023 C 
ENDROOT
BRANCH   1   2
ATOM      2  C   UNL A   1      34.881  33.788  28.261  1.00  0.00     0.023 C 
BRANCH   2   3
ATOM      3  C   UNL A   1      33.943  34.598  29.154  1.00  0.00     0.116 C 
BRANCH   3   4
ATOM      4  N   UNL A   1      34.616  35.131  30.322  1.00  0.00    -0.356 N 
ATOM      5  O   UNL A   1      33.959  33.468  31.769  1.00  0.00    -0.275 OA
ATOM      6  C   UNL A   1      34.577  34.506  31.550  1.00  0.00     0.224 C 
ATOM      7  H   UNL A   1      35.119  35.973  30.235  1.00  0.00     0.163 HD
BRANCH   6   8
ATOM      8  C   UNL A   1      35.351  35.225  32.650  1.00  0.00     0.133 C 
BRANCH   8   9
ATOM      9  C   UNL A   1      36.478  34.399  33.172  1.00  0.00    -0.030 C 
ATOM     10  C   UNL A   1      37.571  33.991  32.533  1.00  0.00     0.001 A 
ATOM     11  C   UNL A   1      36.499  33.939  34.600  1.00  0.00     0.175 C 
ATOM     12  C   UNL A   1      38.090  34.140  31.211  1.00  0.00     0.010 A 
ATOM     13  C   UNL A   1      38.306  33.254  33.576  1.00  0.00     0.065 A 
ATOM     14  N   UNL A   1      37.765  33.183  34.755  1.00  0.00    -0.280 NA
ATOM     15  C   UNL A   1      39.276  33.581  30.919  1.00  0.00     0.001 A 
ATOM     16  C   UNL A   1      39.599  32.661  33.175  1.00  0.00     0.028 A 
ATOM     17  C   UNL A   1      40.030  32.833  31.914  1.00  0.00     0.002 A 
ENDBRANCH   8   9
ENDBRANCH   6   8
ENDBRANCH   3   4
ENDBRANCH   2   3
ENDBRANCH   1   2
BRANCH   1  18
ATOM     18  C   UNL A   1      35.361  31.275  28.650  1.00  0.00     0.116 C 
BRANCH  18  19
ATOM     19  N   UNL A   1      35.391  31.329  30.104  1.00  0.00    -0.352 N 
ATOM     20  C   UNL A   1      36.344  30.840  30.970  1.00  0.00     0.251 C 
ATOM     21  H   UNL A   1      34.624  31.778  30.528  1.00  0.00     0.163 HD
ATOM     22  O   UNL A   1      36.151  30.883  32.183  1.00  0.00    -0.269 OA
BRANCH  20  23
ATOM     23  C   UNL A   1      37.577  30.216  30.436  1.00  0.00     0.039 A 
ATOM     24  C   UNL A   1      38.401  29.442  31.255  1.00  0.00     0.014 A 
ATOM     25  C   UNL A   1      37.932  30.445  29.103  1.00  0.00     0.014 A 
ATOM     26  C   UNL A   1      39.656  29.051  30.797  1.00  0.00     0.010 A 
ATOM     27  C   UNL A   1      39.163  29.985  28.622  1.00  0.00     0.010 A 
ATOM     28  C   UNL A   1      40.062  29.337  29.482  1.00  0.00    -0.014 A 
BRANCH  28  29
ATOM     29  C   UNL A   1      41.439  28.979  29.046  1.00  0.00     0.031 A 
ATOM     30  C   UNL A   1      42.566  29.975  29.171  1.00  0.00     0.074 A 
ATOM     31  C   UNL A   1      41.693  27.734  28.598  1.00  0.00     0.049 A 
ATOM     32  N   UNL A   1      43.832  29.825  28.876  1.00  0.00    -0.248 NA
ATOM     33  C   UNL A   1      42.230  31.310  29.691  1.00  0.00     0.031 C 
ATOM     34  C   UNL A   1      40.692  26.678  28.434  1.00  0.00     0.029 A 
ATOM     35  N   UNL A   1      42.870  27.138  28.223  1.00  0.00    -0.354 N 
ATOM     36  C   UNL A   1      44.438  31.044  29.155  1.00  0.00     0.074 A 
ATOM     37  C   UNL A   1      43.397  31.934  29.620  1.00  0.00     0.031 C 
ATOM     38  C   UNL A   1      41.304  25.551  28.038  1.00  0.00     0.029 A 
ATOM     39  C   UNL A   1      42.730  25.815  27.874  1.00  0.00     0.049 A 
ATOM     40  H   UNL A   1      43.733  27.611  28.207  1.00  0.00     0.167 HD
ATOM     41  C   UNL A   1      45.744  31.389  29.047  1.00  0.00     0.037 A 
ATOM     42  C   UNL A   1      43.643  24.916  27.460  1.00  0.00     0.037 A 
ATOM     43  C   UNL A   1      46.788  30.496  28.617  1.00  0.00     0.049 A 
ATOM     44  C   UNL A   1      45.082  25.327  27.334  1.00  0.00     0.074 A 
ATOM     45  C   UNL A   1      48.146  30.748  28.509  1.00  0.00     0.029 A 
ATOM     46  N   UNL A   1      46.596  29.179  28.228  1.00  0.00    -0.354 N 
ATOM     47  N   UNL A   1      45.633  26.483  27.610  1.00  0.00    -0.248 NA
ATOM     48  C   UNL A   1      46.021  24.316  26.829  1.00  0.00     0.031 C 
ATOM     49  C   UNL A   1      48.770  29.593  28.027  1.00  0.00     0.029 A 
ATOM     50  C   UNL A   1      47.806  28.611  27.865  1.00  0.00     0.049 A 
ATOM     51  H   UNL A   1      45.728  28.716  28.212  1.00  0.00     0.167 HD
ATOM     52  C   UNL A   1      46.983  26.339  27.315  1.00  0.00     0.074 A 
ATOM     53  C   UNL A   1      47.170  24.977  26.859  1.00  0.00     0.031 C 
ATOM     54  C   UNL A   1      47.977  27.256  27.407  1.00  0.00     0.037 A 
BRANCH  41  55
ATOM     55  C   UNL A   1      46.131  32.797  29.401  1.00  0.00     0.058 A 
ATOM     56  C   UNL A   1      46.548  33.138  30.697  1.00  0.00     0.135 A 
ATOM     57  C   UNL A   1      46.154  33.800  28.419  1.00  0.00     0.135 A 
ATOM     58  F   UNL A   1      46.530  32.220  31.677  1.00  0.00    -0.206 F 
ATOM     59  C   UNL A   1      46.965  34.428  31.010  1.00  0.00     0.059 A 
ATOM     60  C   UNL A   1      46.585  35.093  28.704  1.00  0.00     0.059 A 
ATOM     61  F   UNL A   1      45.763  33.525  27.165  1.00  0.00    -0.206 F 
ATOM     62  C   UNL A   1      46.982  35.398  30.005  1.00  0.00     0.060 A 
BRANCH  62  63
ATOM     63  S   UNL A   1      47.550  37.061  30.423  1.00  0.00     0.124 S 
ATOM     64  O   UNL A   1      48.900  36.792  30.909  1.00  0.00    -0.237 OA
ATOM     65  O   UNL A   1      47.464  37.751  29.141  1.00  0.00    -0.237 OA
ATOM     66  O   UNL A   1      46.596  37.502  31.435  1.00  0.00    -0.744 OA
ENDBRANCH  62  63
ENDBRANCH  41  55
BRANCH  42  67
ATOM     67  C   UNL A   1      43.213  23.532  27.135  1.00  0.00     0.058 A 
ATOM     68  C   UNL A   1      43.038  23.124  25.806  1.00  0.00     0.135 A 
ATOM     69  C   UNL A   1      43.004  22.582  28.148  1.00  0.00     0.135 A 
ATOM     70  F   UNL A   1      43.220  23.999  24.806  1.00  0.00    -0.206 F 
ATOM     71  C   UNL A   1      42.668  21.821  25.489  1.00  0.00     0.059 A 
ATOM     72  C   UNL A   1      42.655  21.268  27.856  1.00  0.00     0.059 A 
ATOM     73  F   UNL A   1      43.173  22.924  29.435  1.00  0.00    -0.206 F 
ATOM     74  C   UNL A   1      42.484  20.899  26.522  1.00  0.00     0.060 A 
BRANCH  74  75
ATOM     75  S   UNL A   1      42.075  19.192  26.099  1.00  0.00     0.124 S 
ATOM     76  O   UNL A   1      42.871  18.991  24.894  1.00  0.00    -0.237 OA
ATOM     77  O   UNL A   1      42.516  18.466  27.285  1.00  0.00    -0.237 OA
ATOM     78  O   UNL A   1      40.628  19.235  25.903  1.00  0.00    -0.744 OA
ENDBRANCH  74  75
ENDBRANCH  42  67
BRANCH  54  79
ATOM     79  C   UNL A   1      49.357  26.823  27.007  1.00  0.00     0.058 A 
ATOM     80  C   UNL A   1      50.226  26.219  27.928  1.00  0.00     0.135 A 
ATOM     81  C   UNL A   1      49.792  26.957  25.680  1.00  0.00     0.135 A 
ATOM     82  F   UNL A   1      49.857  26.076  29.211  1.00  0.00    -0.206 F 
ATOM     83  C   UNL A   1      51.485  25.769  27.549  1.00  0.00     0.059 A 
ATOM     84  C   UNL A   1      51.041  26.496  25.273  1.00  0.00     0.059 A 
ATOM     85  F   UNL A   1      48.994  27.522  24.759  1.00  0.00    -0.206 F 
ATOM     86  C   UNL A   1      51.884  25.910  26.218  1.00  0.00     0.060 A 
BRANCH  86  87
ATOM     87  S   UNL A   1      53.504  25.283  25.728  1.00  0.00     0.124 S 
ATOM     88  O   UNL A   1      53.194  23.897  25.395  1.00  0.00    -0.237 OA
ATOM     89  O   UNL A   1      53.846  26.145  24.600  1.00  0.00    -0.237 OA
ATOM     90  O   UNL A   1      54.318  25.474  26.924  1.00  0.00    -0.744 OA
ENDBRANCH  86  87
ENDBRANCH  54  79
ENDBRANCH  28  29
ENDBRANCH  20  23
ENDBRANCH  18  19
ENDBRANCH   1  18
TORSDOF 15
ENDMDL
