MODEL 1
REMARK VINA RESULT:     -10.7      0.000      0.000
REMARK SMILES CCN(CC(C)(C)O)C(=O)[C@H]1CC=CC[C@H]1C(=O)NCCCCNC(=O)c1ccc(-c2c3nc(c(-c4c(F)cc(S(=O)(=O)[O-])cc4F)c4ccc([nH]4)c(-c4c(F)cc(S(=O)(=O)[O-])cc4F)c4nc(c(-c5c(F)cc(S(=O)(=O)[O-])cc5F)c5ccc2[nH]5)C=C4)C=C3)cc1
REMARK SMILES IDX 20 1 19 2 17 3 18 4 16 6 11 7 12 8 13 9 15 10 14 11 9 12
REMARK SMILES IDX 10 13 3 14 2 15 1 16 4 17 5 18 6 19 7 20 8 21 21 23 22 24
REMARK SMILES IDX 23 25 24 26 25 27 26 29 27 30 28 31 92 32 29 33 91 34 30 35
REMARK SMILES IDX 31 36 32 37 85 38 33 39 90 40 84 41 86 42 34 43 89 44 83 45
REMARK SMILES IDX 82 46 35 48 69 49 48 50 68 51 49 52 52 53 67 54 87 55 50 56
REMARK SMILES IDX 51 57 66 59 88 60 53 61 36 62 37 63 46 64 38 65 39 66 45 67
REMARK SMILES IDX 47 68 40 69 41 70 42 71 43 72 44 73 70 74 71 75 80 76 72 77
REMARK SMILES IDX 73 78 79 79 81 80 74 81 75 82 76 83 77 84 78 85 54 86 55 87
REMARK SMILES IDX 64 88 56 89 57 90 63 91 65 92 58 93 59 94 60 95 61 96 62 97
REMARK H PARENT 19 5 8 22 24 28 86 47 52 58
REMARK Flexibility Score: inf
ROOT
ATOM      1  C   UNL A   1      33.104  30.662  26.733  1.00  0.00     0.116 C 
ENDROOT
BRANCH   1   2
ATOM      2  N   UNL A   1      32.103  29.608  26.750  1.00  0.00    -0.356 N 
ATOM      3  C   UNL A   1      32.058  28.384  26.155  1.00  0.00     0.224 C 
ATOM      4  O   UNL A   1      31.277  27.575  26.681  1.00  0.00    -0.275 OA
ATOM      5  H   UNL A   1      31.310  29.818  27.294  1.00  0.00     0.163 HD
BRANCH   3   6
ATOM      6  C   UNL A   1      32.733  27.987  24.828  1.00  0.00     0.095 C 
ATOM      7  C   UNL A   1      32.129  26.949  23.890  1.00  0.00     0.095 C 
ATOM      8  C   UNL A   1      33.333  26.330  23.120  1.00  0.00     0.041 C 
ATOM      9  C   UNL A   1      34.097  27.381  22.364  1.00  0.00    -0.030 C 
ATOM     10  C   UNL A   1      33.361  29.132  23.992  1.00  0.00     0.041 C 
ATOM     11  C   UNL A   1      34.076  28.666  22.746  1.00  0.00    -0.030 C 
BRANCH   7  12
ATOM     12  C   UNL A   1      31.077  27.456  22.849  1.00  0.00     0.226 C 
ATOM     13  O   UNL A   1      31.086  27.027  21.691  1.00  0.00    -0.275 OA
BRANCH  12  14
ATOM     14  N   UNL A   1      30.002  28.254  23.282  1.00  0.00    -0.340 N 
BRANCH  14  15
ATOM     15  C   UNL A   1      29.059  27.570  24.210  1.00  0.00     0.116 C 
ATOM     16  C   UNL A   1      28.301  26.333  23.715  1.00  0.00     0.027 C 
ENDBRANCH  14  15
BRANCH  14  17
ATOM     17  C   UNL A   1      29.271  29.045  22.237  1.00  0.00     0.154 C 
BRANCH  17  18
ATOM     18  C   UNL A   1      28.237  30.190  22.594  1.00  0.00     0.077 C 
ATOM     19  C   UNL A   1      28.682  31.157  23.703  1.00  0.00     0.043 C 
ATOM     20  C   UNL A   1      28.057  31.089  21.356  1.00  0.00     0.043 C 
BRANCH  18  21
ATOM     21  O   UNL A   1      26.949  29.666  22.906  1.00  0.00    -0.389 OA
ATOM     22  H   UNL A   1      26.913  28.729  22.661  1.00  0.00     0.211 HD
ENDBRANCH  18  21
ENDBRANCH  17  18
ENDBRANCH  14  17
ENDBRANCH  12  14
ENDBRANCH   7  12
ENDBRANCH   3   6
ENDBRANCH   1   2
BRANCH   1  23
ATOM     23  C   UNL A   1      34.327  30.415  27.607  1.00  0.00     0.023 C 
BRANCH  23  24
ATOM     24  C   UNL A   1      35.283  31.604  27.746  1.00  0.00     0.023 C 
BRANCH  24  25
ATOM     25  C   UNL A   1      35.715  32.013  29.157  1.00  0.00     0.116 C 
BRANCH  25  26
ATOM     26  N   UNL A   1      35.623  30.960  30.159  1.00  0.00    -0.352 N 
ATOM     27  C   UNL A   1      36.591  30.094  30.631  1.00  0.00     0.251 C 
ATOM     28  H   UNL A   1      34.733  30.849  30.563  1.00  0.00     0.163 HD
ATOM     29  O   UNL A   1      36.322  29.295  31.510  1.00  0.00    -0.269 OA
BRANCH  27  30
ATOM     30  C   UNL A   1      37.937  30.087  30.006  1.00  0.00     0.039 A 
ATOM     31  C   UNL A   1      39.034  30.422  30.805  1.00  0.00     0.014 A 
ATOM     32  C   UNL A   1      38.130  29.681  28.686  1.00  0.00     0.014 A 
ATOM     33  C   UNL A   1      40.328  30.222  30.320  1.00  0.00     0.010 A 
ATOM     34  C   UNL A   1      39.420  29.407  28.231  1.00  0.00     0.010 A 
ATOM     35  C   UNL A   1      40.531  29.644  29.055  1.00  0.00    -0.014 A 
BRANCH  35  36
ATOM     36  C   UNL A   1      41.889  29.210  28.628  1.00  0.00     0.031 A 
ATOM     37  C   UNL A   1      43.021  30.195  28.536  1.00  0.00     0.074 A 
ATOM     38  C   UNL A   1      42.083  27.927  28.256  1.00  0.00     0.049 A 
ATOM     39  N   UNL A   1      44.260  29.995  28.163  1.00  0.00    -0.248 NA
ATOM     40  C   UNL A   1      42.716  31.593  28.879  1.00  0.00     0.031 C 
ATOM     41  C   UNL A   1      41.048  26.889  28.225  1.00  0.00     0.029 A 
ATOM     42  N   UNL A   1      43.214  27.274  27.831  1.00  0.00    -0.354 N 
ATOM     43  C   UNL A   1      44.879  31.237  28.219  1.00  0.00     0.074 A 
ATOM     44  C   UNL A   1      43.866  32.195  28.610  1.00  0.00     0.031 C 
ATOM     45  C   UNL A   1      41.598  25.727  27.837  1.00  0.00     0.029 A 
ATOM     46  C   UNL A   1      43.014  25.939  27.561  1.00  0.00     0.049 A 
ATOM     47  H   UNL A   1      44.085  27.719  27.727  1.00  0.00     0.167 HD
ATOM     48  C   UNL A   1      46.178  31.549  27.991  1.00  0.00     0.037 A 
ATOM     49  C   UNL A   1      43.875  24.990  27.144  1.00  0.00     0.037 A 
ATOM     50  C   UNL A   1      47.188  30.590  27.625  1.00  0.00     0.049 A 
ATOM     51  C   UNL A   1      45.319  25.354  26.927  1.00  0.00     0.074 A 
ATOM     52  C   UNL A   1      48.544  30.795  27.435  1.00  0.00     0.029 A 
ATOM     53  N   UNL A   1      46.955  29.241  27.391  1.00  0.00    -0.354 N 
ATOM     54  N   UNL A   1      45.902  26.521  27.062  1.00  0.00    -0.248 NA
ATOM     55  C   UNL A   1      46.221  24.272  26.512  1.00  0.00     0.031 C 
ATOM     56  C   UNL A   1      49.124  29.579  27.052  1.00  0.00     0.029 A 
ATOM     57  C   UNL A   1      48.137  28.608  27.043  1.00  0.00     0.049 A 
ATOM     58  H   UNL A   1      46.078  28.800  27.462  1.00  0.00     0.167 HD
ATOM     59  C   UNL A   1      47.243  26.310  26.766  1.00  0.00     0.074 A 
ATOM     60  C   UNL A   1      47.388  24.899  26.465  1.00  0.00     0.031 C 
ATOM     61  C   UNL A   1      48.263  27.203  26.742  1.00  0.00     0.037 A 
BRANCH  48  62
ATOM     62  C   UNL A   1      46.582  32.989  28.146  1.00  0.00     0.058 A 
ATOM     63  C   UNL A   1      47.088  33.483  29.359  1.00  0.00     0.135 A 
ATOM     64  C   UNL A   1      46.486  33.882  27.066  1.00  0.00     0.135 A 
ATOM     65  F   UNL A   1      47.188  32.677  30.428  1.00  0.00    -0.206 F 
ATOM     66  C   UNL A   1      47.452  34.818  29.507  1.00  0.00     0.059 A 
ATOM     67  C   UNL A   1      46.870  35.215  27.183  1.00  0.00     0.059 A 
ATOM     68  F   UNL A   1      46.011  33.462  25.882  1.00  0.00    -0.206 F 
ATOM     69  C   UNL A   1      47.336  35.677  28.413  1.00  0.00     0.060 A 
BRANCH  69  70
ATOM     70  S   UNL A   1      47.806  37.408  28.622  1.00  0.00     0.124 S 
ATOM     71  O   UNL A   1      49.178  37.399  28.122  1.00  0.00    -0.237 OA
ATOM     72  O   UNL A   1      46.832  38.100  27.785  1.00  0.00    -0.237 OA
ATOM     73  O   UNL A   1      47.663  37.627  30.058  1.00  0.00    -0.744 OA
ENDBRANCH  69  70
ENDBRANCH  48  62
BRANCH  49  74
ATOM     74  C   UNL A   1      43.402  23.595  26.938  1.00  0.00     0.058 A 
ATOM     75  C   UNL A   1      43.293  22.705  28.017  1.00  0.00     0.135 A 
ATOM     76  C   UNL A   1      43.039  23.126  25.665  1.00  0.00     0.135 A 
ATOM     77  F   UNL A   1      43.633  23.104  29.251  1.00  0.00    -0.206 F 
ATOM     78  C   UNL A   1      42.855  21.395  27.841  1.00  0.00     0.059 A 
ATOM     79  C   UNL A   1      42.577  21.828  25.468  1.00  0.00     0.059 A 
ATOM     80  F   UNL A   1      43.110  23.943  24.603  1.00  0.00    -0.206 F 
ATOM     81  C   UNL A   1      42.498  20.967  26.562  1.00  0.00     0.060 A 
BRANCH  81  82
ATOM     82  S   UNL A   1      41.882  19.282  26.352  1.00  0.00     0.124 S 
ATOM     83  O   UNL A   1      42.829  18.741  25.386  1.00  0.00    -0.237 OA
ATOM     84  O   UNL A   1      41.975  18.749  27.707  1.00  0.00    -0.237 OA
ATOM     85  O   UNL A   1      40.521  19.485  25.860  1.00  0.00    -0.744 OA
ENDBRANCH  81  82
ENDBRANCH  49  74
BRANCH  61  86
ATOM     86  C   UNL A   1      49.628  26.675  26.396  1.00  0.00     0.058 A 
ATOM     87  C   UNL A   1      50.125  26.725  25.084  1.00  0.00     0.135 A 
ATOM     88  C   UNL A   1      50.457  26.133  27.391  1.00  0.00     0.135 A 
ATOM     89  F   UNL A   1      49.369  27.229  24.094  1.00  0.00    -0.206 F 
ATOM     90  C   UNL A   1      51.383  26.228  24.764  1.00  0.00     0.059 A 
ATOM     91  C   UNL A   1      51.729  25.653  27.099  1.00  0.00     0.059 A 
ATOM     92  F   UNL A   1      50.033  26.071  28.664  1.00  0.00    -0.206 F 
ATOM     93  C   UNL A   1      52.177  25.689  25.779  1.00  0.00     0.060 A 
BRANCH  93  94
ATOM     94  S   UNL A   1      53.814  25.056  25.356  1.00  0.00     0.124 S 
ATOM     95  O   UNL A   1      54.292  26.076  24.428  1.00  0.00    -0.237 OA
ATOM     96  O   UNL A   1      54.482  25.016  26.653  1.00  0.00    -0.237 OA
ATOM     97  O   UNL A   1      53.530  23.752  24.764  1.00  0.00    -0.744 OA
ENDBRANCH  93  94
ENDBRANCH  61  86
ENDBRANCH  35  36
ENDBRANCH  27  30
ENDBRANCH  25  26
ENDBRANCH  24  25
ENDBRANCH  23  24
ENDBRANCH   1  23
TORSDOF 20
ENDMDL
MODEL 2
REMARK VINA RESULT:     -10.2      6.702     14.260
REMARK SMILES CCN(CC(C)(C)O)C(=O)[C@H]1CC=CC[C@H]1C(=O)NCCCCNC(=O)c1ccc(-c2c3nc(c(-c4c(F)cc(S(=O)(=O)[O-])cc4F)c4ccc([nH]4)c(-c4c(F)cc(S(=O)(=O)[O-])cc4F)c4nc(c(-c5c(F)cc(S(=O)(=O)[O-])cc5F)c5ccc2[nH]5)C=C4)C=C3)cc1
REMARK SMILES IDX 20 1 19 2 17 3 18 4 16 6 11 7 12 8 13 9 15 10 14 11 9 12
REMARK SMILES IDX 10 13 3 14 2 15 1 16 4 17 5 18 6 19 7 20 8 21 21 23 22 24
REMARK SMILES IDX 23 25 24 26 25 27 26 29 27 30 28 31 92 32 29 33 91 34 30 35
REMARK SMILES IDX 31 36 32 37 85 38 33 39 90 40 84 41 86 42 34 43 89 44 83 45
REMARK SMILES IDX 82 46 35 48 69 49 48 50 68 51 49 52 52 53 67 54 87 55 50 56
REMARK SMILES IDX 51 57 66 59 88 60 53 61 36 62 37 63 46 64 38 65 39 66 45 67
REMARK SMILES IDX 47 68 40 69 41 70 42 71 43 72 44 73 70 74 71 75 80 76 72 77
REMARK SMILES IDX 73 78 79 79 81 80 74 81 75 82 76 83 77 84 78 85 54 86 55 87
REMARK SMILES IDX 64 88 56 89 57 90 63 91 65 92 58 93 59 94 60 95 61 96 62 97
REMARK H PARENT 19 5 8 22 24 28 86 47 52 58
REMARK Flexibility Score: inf
ROOT
ATOM      1  C   UNL A   1      43.193  21.010  25.908  1.00  0.00     0.116 C 
ENDROOT
BRANCH   1   2
ATOM      2  N   UNL A   1      43.669  21.912  24.873  1.00  0.00    -0.356 N 
ATOM      3  C   UNL A   1      44.721  22.775  24.828  1.00  0.00     0.224 C 
ATOM      4  O   UNL A   1      45.091  23.090  23.686  1.00  0.00    -0.275 OA
ATOM      5  H   UNL A   1      43.129  21.896  24.050  1.00  0.00     0.163 HD
BRANCH   3   6
ATOM      6  C   UNL A   1      45.355  23.506  26.026  1.00  0.00     0.095 C 
ATOM      7  C   UNL A   1      46.549  24.440  25.868  1.00  0.00     0.095 C 
ATOM      8  C   UNL A   1      47.298  24.397  27.233  1.00  0.00     0.041 C 
ATOM      9  C   UNL A   1      46.403  24.830  28.361  1.00  0.00    -0.030 C 
ATOM     10  C   UNL A   1      44.383  24.090  27.084  1.00  0.00     0.041 C 
ATOM     11  C   UNL A   1      45.070  24.721  28.273  1.00  0.00    -0.030 C 
BRANCH   7  12
ATOM     12  C   UNL A   1      46.245  25.932  25.511  1.00  0.00     0.226 C 
ATOM     13  O   UNL A   1      45.140  26.255  25.063  1.00  0.00    -0.275 OA
BRANCH  12  14
ATOM     14  N   UNL A   1      47.161  26.934  25.879  1.00  0.00    -0.340 N 
BRANCH  14  15
ATOM     15  C   UNL A   1      46.539  28.244  26.224  1.00  0.00     0.116 C 
ATOM     16  C   UNL A   1      45.453  28.285  27.306  1.00  0.00     0.027 C 
ENDBRANCH  14  15
BRANCH  14  17
ATOM     17  C   UNL A   1      48.371  27.111  25.010  1.00  0.00     0.154 C 
BRANCH  17  18
ATOM     18  C   UNL A   1      49.845  27.157  25.588  1.00  0.00     0.077 C 
ATOM     19  C   UNL A   1      50.532  28.532  25.530  1.00  0.00     0.043 C 
ATOM     20  C   UNL A   1      49.791  26.823  27.091  1.00  0.00     0.043 C 
BRANCH  18  21
ATOM     21  O   UNL A   1      50.686  26.179  24.985  1.00  0.00    -0.389 OA
ATOM     22  H   UNL A   1      50.175  25.372  24.818  1.00  0.00     0.211 HD
ENDBRANCH  18  21
ENDBRANCH  17  18
ENDBRANCH  14  17
ENDBRANCH  12  14
ENDBRANCH   7  12
ENDBRANCH   3   6
ENDBRANCH   1   2
BRANCH   1  23
ATOM     23  C   UNL A   1      41.699  21.081  26.200  1.00  0.00     0.023 C 
BRANCH  23  24
ATOM     24  C   UNL A   1      41.307  21.949  27.399  1.00  0.00     0.023 C 
BRANCH  24  25
ATOM     25  C   UNL A   1      40.218  23.006  27.191  1.00  0.00     0.116 C 
BRANCH  25  26
ATOM     26  N   UNL A   1      40.511  23.999  26.168  1.00  0.00    -0.352 N 
ATOM     27  C   UNL A   1      40.864  25.330  26.293  1.00  0.00     0.251 C 
ATOM     28  H   UNL A   1      40.450  23.670  25.242  1.00  0.00     0.163 HD
ATOM     29  O   UNL A   1      41.107  25.994  25.302  1.00  0.00    -0.269 OA
BRANCH  27  30
ATOM     30  C   UNL A   1      40.865  25.964  27.634  1.00  0.00     0.039 A 
ATOM     31  C   UNL A   1      41.981  26.721  28.002  1.00  0.00     0.014 A 
ATOM     32  C   UNL A   1      39.760  25.887  28.483  1.00  0.00     0.014 A 
ATOM     33  C   UNL A   1      41.934  27.505  29.156  1.00  0.00     0.010 A 
ATOM     34  C   UNL A   1      39.684  26.730  29.592  1.00  0.00     0.010 A 
ATOM     35  C   UNL A   1      40.757  27.572  29.921  1.00  0.00    -0.014 A 
BRANCH  35  36
ATOM     36  C   UNL A   1      40.616  28.577  31.010  1.00  0.00     0.031 A 
ATOM     37  C   UNL A   1      41.477  28.508  32.241  1.00  0.00     0.074 A 
ATOM     38  C   UNL A   1      39.655  29.521  30.914  1.00  0.00     0.049 A 
ATOM     39  N   UNL A   1      41.474  29.287  33.293  1.00  0.00    -0.248 NA
ATOM     40  C   UNL A   1      42.447  27.406  32.314  1.00  0.00     0.031 C 
ATOM     41  C   UNL A   1      38.702  29.648  29.807  1.00  0.00     0.029 A 
ATOM     42  N   UNL A   1      39.316  30.550  31.757  1.00  0.00    -0.354 N 
ATOM     43  C   UNL A   1      42.432  28.767  34.154  1.00  0.00     0.074 A 
ATOM     44  C   UNL A   1      42.959  27.574  33.525  1.00  0.00     0.031 C 
ATOM     45  C   UNL A   1      37.913  30.712  30.023  1.00  0.00     0.029 A 
ATOM     46  C   UNL A   1      38.278  31.325  31.295  1.00  0.00     0.049 A 
ATOM     47  H   UNL A   1      39.773  30.717  32.613  1.00  0.00     0.167 HD
ATOM     48  C   UNL A   1      42.854  29.251  35.347  1.00  0.00     0.037 A 
ATOM     49  C   UNL A   1      37.687  32.412  31.831  1.00  0.00     0.037 A 
ATOM     50  C   UNL A   1      42.344  30.451  35.960  1.00  0.00     0.049 A 
ATOM     51  C   UNL A   1      38.194  32.949  33.143  1.00  0.00     0.074 A 
ATOM     52  C   UNL A   1      42.750  31.059  37.135  1.00  0.00     0.029 A 
ATOM     53  N   UNL A   1      41.313  31.227  35.447  1.00  0.00    -0.354 N 
ATOM     54  N   UNL A   1      39.156  32.486  33.905  1.00  0.00    -0.248 NA
ATOM     55  C   UNL A   1      37.542  34.159  33.661  1.00  0.00     0.031 C 
ATOM     56  C   UNL A   1      41.943  32.183  37.351  1.00  0.00     0.029 A 
ATOM     57  C   UNL A   1      41.060  32.297  36.290  1.00  0.00     0.049 A 
ATOM     58  H   UNL A   1      40.833  31.043  34.608  1.00  0.00     0.167 HD
ATOM     59  C   UNL A   1      39.237  33.358  34.983  1.00  0.00     0.074 A 
ATOM     60  C   UNL A   1      38.240  34.388  34.765  1.00  0.00     0.031 C 
ATOM     61  C   UNL A   1      40.060  33.311  36.060  1.00  0.00     0.037 A 
BRANCH  48  62
ATOM     62  C   UNL A   1      43.932  28.486  36.064  1.00  0.00     0.058 A 
ATOM     63  C   UNL A   1      43.628  27.407  36.909  1.00  0.00     0.135 A 
ATOM     64  C   UNL A   1      45.285  28.818  35.889  1.00  0.00     0.135 A 
ATOM     65  F   UNL A   1      42.350  27.056  37.124  1.00  0.00    -0.206 F 
ATOM     66  C   UNL A   1      44.623  26.705  37.582  1.00  0.00     0.059 A 
ATOM     67  C   UNL A   1      46.300  28.112  36.530  1.00  0.00     0.059 A 
ATOM     68  F   UNL A   1      45.633  29.840  35.091  1.00  0.00    -0.206 F 
ATOM     69  C   UNL A   1      45.957  27.067  37.388  1.00  0.00     0.060 A 
BRANCH  69  70
ATOM     70  S   UNL A   1      47.237  26.152  38.272  1.00  0.00     0.124 S 
ATOM     71  O   UNL A   1      48.336  27.112  38.269  1.00  0.00    -0.237 OA
ATOM     72  O   UNL A   1      46.611  25.912  39.568  1.00  0.00    -0.237 OA
ATOM     73  O   UNL A   1      47.437  24.965  37.447  1.00  0.00    -0.744 OA
ENDBRANCH  69  70
ENDBRANCH  48  62
BRANCH  49  74
ATOM     74  C   UNL A   1      36.575  33.086  31.111  1.00  0.00     0.058 A 
ATOM     75  C   UNL A   1      35.268  33.066  31.623  1.00  0.00     0.135 A 
ATOM     76  C   UNL A   1      36.794  33.774  29.907  1.00  0.00     0.135 A 
ATOM     77  F   UNL A   1      35.007  32.417  32.767  1.00  0.00    -0.206 F 
ATOM     78  C   UNL A   1      34.215  33.689  30.960  1.00  0.00     0.059 A 
ATOM     79  C   UNL A   1      35.761  34.424  29.238  1.00  0.00     0.059 A 
ATOM     80  F   UNL A   1      38.028  33.837  29.384  1.00  0.00    -0.206 F 
ATOM     81  C   UNL A   1      34.473  34.367  29.768  1.00  0.00     0.060 A 
BRANCH  81  82
ATOM     82  S   UNL A   1      33.110  35.218  28.942  1.00  0.00     0.124 S 
ATOM     83  O   UNL A   1      33.740  36.474  28.555  1.00  0.00    -0.237 OA
ATOM     84  O   UNL A   1      32.788  34.301  27.853  1.00  0.00    -0.237 OA
ATOM     85  O   UNL A   1      32.095  35.315  29.988  1.00  0.00    -0.744 OA
ENDBRANCH  81  82
ENDBRANCH  49  74
BRANCH  61  86
ATOM     86  C   UNL A   1      39.927  34.415  37.073  1.00  0.00     0.058 A 
ATOM     87  C   UNL A   1      40.650  35.612  36.955  1.00  0.00     0.135 A 
ATOM     88  C   UNL A   1      39.050  34.281  38.161  1.00  0.00     0.135 A 
ATOM     89  F   UNL A   1      41.506  35.787  35.936  1.00  0.00    -0.206 F 
ATOM     90  C   UNL A   1      40.532  36.627  37.899  1.00  0.00     0.059 A 
ATOM     91  C   UNL A   1      38.896  35.294  39.102  1.00  0.00     0.059 A 
ATOM     92  F   UNL A   1      38.327  33.160  38.313  1.00  0.00    -0.206 F 
ATOM     93  C   UNL A   1      39.654  36.457  38.972  1.00  0.00     0.060 A 
BRANCH  93  94
ATOM     94  S   UNL A   1      39.500  37.785  40.185  1.00  0.00     0.124 S 
ATOM     95  O   UNL A   1      38.353  38.522  39.666  1.00  0.00    -0.237 OA
ATOM     96  O   UNL A   1      39.273  37.053  41.427  1.00  0.00    -0.237 OA
ATOM     97  O   UNL A   1      40.783  38.474  40.097  1.00  0.00    -0.744 OA
ENDBRANCH  93  94
ENDBRANCH  61  86
ENDBRANCH  35  36
ENDBRANCH  27  30
ENDBRANCH  25  26
ENDBRANCH  24  25
ENDBRANCH  23  24
ENDBRANCH   1  23
TORSDOF 20
ENDMDL
MODEL 3
REMARK VINA RESULT:     -10.1      6.755     13.884
REMARK SMILES CCN(CC(C)(C)O)C(=O)[C@H]1CC=CC[C@H]1C(=O)NCCCCNC(=O)c1ccc(-c2c3nc(c(-c4c(F)cc(S(=O)(=O)[O-])cc4F)c4ccc([nH]4)c(-c4c(F)cc(S(=O)(=O)[O-])cc4F)c4nc(c(-c5c(F)cc(S(=O)(=O)[O-])cc5F)c5ccc2[nH]5)C=C4)C=C3)cc1
REMARK SMILES IDX 20 1 19 2 17 3 18 4 16 6 11 7 12 8 13 9 15 10 14 11 9 12
REMARK SMILES IDX 10 13 3 14 2 15 1 16 4 17 5 18 6 19 7 20 8 21 21 23 22 24
REMARK SMILES IDX 23 25 24 26 25 27 26 29 27 30 28 31 92 32 29 33 91 34 30 35
REMARK SMILES IDX 31 36 32 37 85 38 33 39 90 40 84 41 86 42 34 43 89 44 83 45
REMARK SMILES IDX 82 46 35 48 69 49 48 50 68 51 49 52 52 53 67 54 87 55 50 56
REMARK SMILES IDX 51 57 66 59 88 60 53 61 36 62 37 63 46 64 38 65 39 66 45 67
REMARK SMILES IDX 47 68 40 69 41 70 42 71 43 72 44 73 70 74 71 75 80 76 72 77
REMARK SMILES IDX 73 78 79 79 81 80 74 81 75 82 76 83 77 84 78 85 54 86 55 87
REMARK SMILES IDX 64 88 56 89 57 90 63 91 65 92 58 93 59 94 60 95 61 96 62 97
REMARK H PARENT 19 5 8 22 24 28 86 47 52 58
REMARK Flexibility Score: inf
ROOT
ATOM      1  C   UNL A   1      42.979  20.939  26.526  1.00  0.00     0.116 C 
ENDROOT
BRANCH   1   2
ATOM      2  N   UNL A   1      44.115  21.184  25.654  1.00  0.00    -0.356 N 
ATOM      3  C   UNL A   1      45.283  21.856  25.846  1.00  0.00     0.224 C 
ATOM      4  O   UNL A   1      46.199  21.545  25.069  1.00  0.00    -0.275 OA
ATOM      5  H   UNL A   1      44.023  20.790  24.757  1.00  0.00     0.163 HD
BRANCH   3   6
ATOM      6  C   UNL A   1      45.505  23.053  26.791  1.00  0.00     0.095 C 
ATOM      7  C   UNL A   1      46.413  24.220  26.424  1.00  0.00     0.095 C 
ATOM      8  C   UNL A   1      46.927  24.794  27.777  1.00  0.00     0.041 C 
ATOM      9  C   UNL A   1      45.786  25.235  28.653  1.00  0.00    -0.030 C 
ATOM     10  C   UNL A   1      44.261  23.587  27.548  1.00  0.00     0.041 C 
ATOM     11  C   UNL A   1      44.561  24.705  28.518  1.00  0.00    -0.030 C 
BRANCH   7  12
ATOM     12  C   UNL A   1      45.775  25.385  25.596  1.00  0.00     0.226 C 
ATOM     13  O   UNL A   1      44.684  25.232  25.037  1.00  0.00    -0.275 OA
BRANCH  12  14
ATOM     14  N   UNL A   1      46.350  26.668  25.648  1.00  0.00    -0.340 N 
BRANCH  14  15
ATOM     15  C   UNL A   1      45.366  27.786  25.677  1.00  0.00     0.116 C 
ATOM     16  C   UNL A   1      45.186  28.579  26.977  1.00  0.00     0.027 C 
ENDBRANCH  14  15
BRANCH  14  17
ATOM     17  C   UNL A   1      47.480  26.952  24.701  1.00  0.00     0.154 C 
BRANCH  17  18
ATOM     18  C   UNL A   1      48.937  27.331  25.191  1.00  0.00     0.077 C 
ATOM     19  C   UNL A   1      49.015  27.983  26.582  1.00  0.00     0.043 C 
ATOM     20  C   UNL A   1      49.758  26.036  25.332  1.00  0.00     0.043 C 
BRANCH  18  21
ATOM     21  O   UNL A   1      49.623  28.145  24.245  1.00  0.00    -0.389 OA
ATOM     22  H   UNL A   1      50.520  28.329  24.566  1.00  0.00     0.211 HD
ENDBRANCH  18  21
ENDBRANCH  17  18
ENDBRANCH  14  17
ENDBRANCH  12  14
ENDBRANCH   7  12
ENDBRANCH   3   6
ENDBRANCH   1   2
BRANCH   1  23
ATOM     23  C   UNL A   1      41.696  21.669  26.147  1.00  0.00     0.023 C 
BRANCH  23  24
ATOM     24  C   UNL A   1      40.738  21.955  27.308  1.00  0.00     0.023 C 
BRANCH  24  25
ATOM     25  C   UNL A   1      39.861  23.207  27.220  1.00  0.00     0.116 C 
BRANCH  25  26
ATOM     26  N   UNL A   1      40.253  24.162  26.193  1.00  0.00    -0.352 N 
ATOM     27  C   UNL A   1      40.754  25.445  26.315  1.00  0.00     0.251 C 
ATOM     28  H   UNL A   1      40.145  23.844  25.268  1.00  0.00     0.163 HD
ATOM     29  O   UNL A   1      41.059  26.079  25.321  1.00  0.00    -0.269 OA
BRANCH  27  30
ATOM     30  C   UNL A   1      40.840  26.073  27.656  1.00  0.00     0.039 A 
ATOM     31  C   UNL A   1      41.902  26.947  27.904  1.00  0.00     0.014 A 
ATOM     32  C   UNL A   1      39.855  25.875  28.623  1.00  0.00     0.014 A 
ATOM     33  C   UNL A   1      41.903  27.720  29.067  1.00  0.00     0.010 A 
ATOM     34  C   UNL A   1      39.816  26.703  29.746  1.00  0.00     0.010 A 
ATOM     35  C   UNL A   1      40.822  27.657  29.963  1.00  0.00    -0.014 A 
BRANCH  35  36
ATOM     36  C   UNL A   1      40.699  28.638  31.074  1.00  0.00     0.031 A 
ATOM     37  C   UNL A   1      39.673  29.737  31.025  1.00  0.00     0.074 A 
ATOM     38  C   UNL A   1      41.567  28.575  32.107  1.00  0.00     0.049 A 
ATOM     39  N   UNL A   1      39.441  30.687  31.895  1.00  0.00    -0.248 NA
ATOM     40  C   UNL A   1      38.814  29.792  29.832  1.00  0.00     0.031 C 
ATOM     41  C   UNL A   1      42.659  27.606  32.236  1.00  0.00     0.029 A 
ATOM     42  N   UNL A   1      41.673  29.341  33.242  1.00  0.00    -0.354 N 
ATOM     43  C   UNL A   1      38.419  31.457  31.353  1.00  0.00     0.074 A 
ATOM     44  C   UNL A   1      38.112  30.894  30.055  1.00  0.00     0.031 C 
ATOM     45  C   UNL A   1      43.300  27.813  33.398  1.00  0.00     0.029 A 
ATOM     46  C   UNL A   1      42.689  28.947  34.082  1.00  0.00     0.049 A 
ATOM     47  H   UNL A   1      41.078  30.101  33.436  1.00  0.00     0.167 HD
ATOM     48  C   UNL A   1      37.777  32.519  31.897  1.00  0.00     0.037 A 
ATOM     49  C   UNL A   1      43.083  29.439  35.274  1.00  0.00     0.037 A 
ATOM     50  C   UNL A   1      38.070  33.062  33.199  1.00  0.00     0.049 A 
ATOM     51  C   UNL A   1      42.335  30.599  35.871  1.00  0.00     0.074 A 
ATOM     52  C   UNL A   1      37.433  34.095  33.865  1.00  0.00     0.029 A 
ATOM     53  N   UNL A   1      39.085  32.618  34.034  1.00  0.00    -0.354 N 
ATOM     54  N   UNL A   1      41.318  31.265  35.376  1.00  0.00    -0.248 NA
ATOM     55  C   UNL A   1      42.780  31.069  37.190  1.00  0.00     0.031 C 
ATOM     56  C   UNL A   1      38.085  34.299  35.087  1.00  0.00     0.029 A 
ATOM     57  C   UNL A   1      39.103  33.366  35.200  1.00  0.00     0.049 A 
ATOM     58  H   UNL A   1      39.703  31.879  33.827  1.00  0.00     0.167 HD
ATOM     59  C   UNL A   1      40.990  32.220  36.332  1.00  0.00     0.074 A 
ATOM     60  C   UNL A   1      41.904  32.032  37.441  1.00  0.00     0.031 C 
ATOM     61  C   UNL A   1      40.022  33.169  36.294  1.00  0.00     0.037 A 
BRANCH  48  62
ATOM     62  C   UNL A   1      36.683  33.156  31.086  1.00  0.00     0.058 A 
ATOM     63  C   UNL A   1      36.967  34.084  30.071  1.00  0.00     0.135 A 
ATOM     64  C   UNL A   1      35.337  32.822  31.309  1.00  0.00     0.135 A 
ATOM     65  F   UNL A   1      38.235  34.450  29.825  1.00  0.00    -0.206 F 
ATOM     66  C   UNL A   1      35.954  34.683  29.327  1.00  0.00     0.059 A 
ATOM     67  C   UNL A   1      34.309  33.388  30.559  1.00  0.00     0.059 A 
ATOM     68  F   UNL A   1      35.008  31.940  32.266  1.00  0.00    -0.206 F 
ATOM     69  C   UNL A   1      34.628  34.331  29.581  1.00  0.00     0.060 A 
BRANCH  69  70
ATOM     70  S   UNL A   1      33.326  35.121  28.613  1.00  0.00     0.124 S 
ATOM     71  O   UNL A   1      34.089  36.096  27.839  1.00  0.00    -0.237 OA
ATOM     72  O   UNL A   1      32.776  34.003  27.854  1.00  0.00    -0.237 OA
ATOM     73  O   UNL A   1      32.440  35.682  29.629  1.00  0.00    -0.744 OA
ENDBRANCH  69  70
ENDBRANCH  48  62
BRANCH  49  74
ATOM     74  C   UNL A   1      44.221  28.812  35.998  1.00  0.00     0.058 A 
ATOM     75  C   UNL A   1      45.511  29.360  35.924  1.00  0.00     0.135 A 
ATOM     76  C   UNL A   1      44.042  27.665  36.787  1.00  0.00     0.135 A 
ATOM     77  F   UNL A   1      45.734  30.451  35.177  1.00  0.00    -0.206 F 
ATOM     78  C   UNL A   1      46.587  28.784  36.593  1.00  0.00     0.059 A 
ATOM     79  C   UNL A   1      45.098  27.086  37.484  1.00  0.00     0.059 A 
ATOM     80  F   UNL A   1      42.825  27.113  36.905  1.00  0.00    -0.206 F 
ATOM     81  C   UNL A   1      46.370  27.647  37.372  1.00  0.00     0.060 A 
BRANCH  81  82
ATOM     82  S   UNL A   1      47.762  26.938  38.279  1.00  0.00     0.124 S 
ATOM     83  O   UNL A   1      47.958  27.926  39.333  1.00  0.00    -0.237 OA
ATOM     84  O   UNL A   1      47.229  25.648  38.703  1.00  0.00    -0.237 OA
ATOM     85  O   UNL A   1      48.817  26.870  37.271  1.00  0.00    -0.744 OA
ENDBRANCH  81  82
ENDBRANCH  49  74
BRANCH  61  86
ATOM     86  C   UNL A   1      39.893  34.064  37.495  1.00  0.00     0.058 A 
ATOM     87  C   UNL A   1      40.585  35.282  37.583  1.00  0.00     0.135 A 
ATOM     88  C   UNL A   1      39.051  33.709  38.561  1.00  0.00     0.135 A 
ATOM     89  F   UNL A   1      41.407  35.664  36.593  1.00  0.00    -0.206 F 
ATOM     90  C   UNL A   1      40.471  36.103  38.699  1.00  0.00     0.059 A 
ATOM     91  C   UNL A   1      38.901  34.528  39.675  1.00  0.00     0.059 A 
ATOM     92  F   UNL A   1      38.358  32.559  38.522  1.00  0.00    -0.206 F 
ATOM     93  C   UNL A   1      39.629  35.715  39.743  1.00  0.00     0.060 A 
BRANCH  93  94
ATOM     94  S   UNL A   1      39.479  36.793  41.183  1.00  0.00     0.124 S 
ATOM     95  O   UNL A   1      38.815  37.959  40.608  1.00  0.00    -0.237 OA
ATOM     96  O   UNL A   1      38.671  35.991  42.096  1.00  0.00    -0.237 OA
ATOM     97  O   UNL A   1      40.863  36.999  41.597  1.00  0.00    -0.744 OA
ENDBRANCH  93  94
ENDBRANCH  61  86
ENDBRANCH  35  36
ENDBRANCH  27  30
ENDBRANCH  25  26
ENDBRANCH  24  25
ENDBRANCH  23  24
ENDBRANCH   1  23
TORSDOF 20
ENDMDL
