MODEL 1
REMARK VINA RESULT:     -13.1      0.000      0.000
REMARK SMILES CC(=O)N1CC[NH+]([C@@H](C(=O)NCCCCNC(=O)c2ccc(-c3c4nc(c(-c5c(F)cc(S(=O)(=O)[O-])cc5F)c5ccc([nH]5)c(-c5c(F)cc(S(=O)(=O)[O-])cc5F)c5nc(c(-c6c(F)cc(S(=O)(=O)[O-])cc6F)c6ccc3[nH]6)C=C5)C=C4)cc2)c2c[nH]c3ccc(Cl)cc23)CC1
REMARK SMILES IDX 14 1 13 2 12 3 11 4 9 5 10 6 8 8 7 9 1 10 2 11 3 12 4 13
REMARK SMILES IDX 5 14 96 15 6 16 95 17 85 19 86 20 94 21 87 22 88 23 93 24
REMARK SMILES IDX 89 26 91 27 90 28 92 29 15 30 16 31 17 32 18 34 19 35 20 36
REMARK SMILES IDX 84 37 21 38 83 39 22 40 23 41 24 42 77 43 25 44 82 45 76 46
REMARK SMILES IDX 78 47 26 48 81 49 75 50 74 51 27 53 61 54 40 55 60 56 41 57
REMARK SMILES IDX 44 58 59 59 79 60 42 61 43 62 58 64 80 65 45 66 28 67 29 68
REMARK SMILES IDX 38 69 30 70 31 71 37 72 39 73 32 74 33 75 34 76 35 77 36 78
REMARK SMILES IDX 62 79 63 80 72 81 64 82 65 83 71 84 73 85 66 86 67 87 68 88
REMARK SMILES IDX 69 89 70 90 46 91 47 92 56 93 48 94 49 95 55 96 57 97 50 98
REMARK SMILES IDX 51 99 52 100 53 101 54 102
REMARK H PARENT 11 7 7 18 87 25 16 33 78 52 44 63
REMARK Flexibility Score: inf
ROOT
ATOM      1  C   UNL A   1      37.425  23.250  25.740  1.00  0.00     0.023 C 
ENDROOT
BRANCH   1   2
ATOM      2  C   UNL A   1      35.939  23.384  26.096  1.00  0.00     0.023 C 
BRANCH   2   3
ATOM      3  C   UNL A   1      35.153  24.550  25.434  1.00  0.00     0.116 C 
BRANCH   3   4
ATOM      4  N   UNL A   1      34.716  24.348  24.047  1.00  0.00    -0.351 N 
ATOM      5  C   UNL A   1      33.519  24.301  23.361  1.00  0.00     0.283 C 
ATOM      6  O   UNL A   1      33.646  24.208  22.135  1.00  0.00    -0.268 OA
ATOM      7  H   UNL A   1      35.482  24.208  23.445  1.00  0.00     0.163 HD
BRANCH   5   8
ATOM      8  C   UNL A   1      32.124  24.415  24.042  1.00  0.00     0.307 C 
BRANCH   8   9
ATOM      9  N   UNL A   1      31.812  25.668  24.839  1.00  0.00    -0.318 N 
ATOM     10  C   UNL A   1      28.116  28.841  22.943  1.00  0.00     0.114 C 
ATOM     11  C   UNL A   1      29.542  28.568  22.553  1.00  0.00     0.219 C 
ATOM     12  O   UNL A   1      30.082  29.206  21.649  1.00  0.00    -0.275 OA
ATOM     13  N   UNL A   1      30.217  27.629  23.313  1.00  0.00    -0.332 N 
ATOM     14  C   UNL A   1      31.643  27.458  23.080  1.00  0.00     0.181 C 
ATOM     15  C   UNL A   1      29.559  26.550  24.049  1.00  0.00     0.181 C 
ATOM     16  C   UNL A   1      32.285  26.982  24.373  1.00  0.00     0.285 C 
ATOM     17  C   UNL A   1      30.405  25.883  25.168  1.00  0.00     0.285 C 
ATOM     18  H   UNL A   1      32.378  25.390  25.639  1.00  0.00     0.349 HD
ENDBRANCH   8   9
BRANCH   8  19
ATOM     19  C   UNL A   1      31.672  23.153  24.853  1.00  0.00     0.044 A 
ATOM     20  C   UNL A   1      31.496  23.180  26.238  1.00  0.00     0.094 A 
ATOM     21  C   UNL A   1      32.011  21.759  24.645  1.00  0.00     0.011 A 
ATOM     22  N   UNL A   1      32.582  22.446  26.679  1.00  0.00    -0.361 N 
ATOM     23  C   UNL A   1      32.802  21.441  25.761  1.00  0.00     0.046 A 
ATOM     24  C   UNL A   1      31.930  20.800  23.613  1.00  0.00     0.031 A 
ATOM     25  H   UNL A   1      33.102  22.611  27.500  1.00  0.00     0.166 HD
ATOM     26  C   UNL A   1      33.713  20.379  25.779  1.00  0.00     0.028 A 
ATOM     27  C   UNL A   1      32.708  19.634  23.709  1.00  0.00     0.041 A 
ATOM     28  C   UNL A   1      33.652  19.475  24.721  1.00  0.00     0.022 A 
ATOM     29  Cl  UNL A   1      32.513  18.370  22.554  1.00  0.00    -0.084 Cl
ENDBRANCH   8  19
ENDBRANCH   5   8
ENDBRANCH   3   4
ENDBRANCH   2   3
ENDBRANCH   1   2
BRANCH   1  30
ATOM     30  C   UNL A   1      38.327  24.200  26.496  1.00  0.00     0.116 C 
BRANCH  30  31
ATOM     31  N   UNL A   1      39.725  24.036  26.133  1.00  0.00    -0.352 N 
ATOM     32  C   UNL A   1      40.813  24.792  26.523  1.00  0.00     0.251 C 
ATOM     33  H   UNL A   1      39.923  23.286  25.527  1.00  0.00     0.163 HD
ATOM     34  O   UNL A   1      41.892  24.623  25.986  1.00  0.00    -0.269 OA
BRANCH  32  35
ATOM     35  C   UNL A   1      40.644  25.825  27.577  1.00  0.00     0.039 A 
ATOM     36  C   UNL A   1      39.648  25.658  28.542  1.00  0.00     0.014 A 
ATOM     37  C   UNL A   1      41.472  26.949  27.617  1.00  0.00     0.014 A 
ATOM     38  C   UNL A   1      39.517  26.596  29.570  1.00  0.00     0.010 A 
ATOM     39  C   UNL A   1      41.420  27.813  28.701  1.00  0.00     0.010 A 
ATOM     40  C   UNL A   1      40.422  27.666  29.672  1.00  0.00    -0.014 A 
BRANCH  40  41
ATOM     41  C   UNL A   1      40.320  28.679  30.751  1.00  0.00     0.031 A 
ATOM     42  C   UNL A   1      41.195  28.550  31.970  1.00  0.00     0.074 A 
ATOM     43  C   UNL A   1      39.397  29.656  30.664  1.00  0.00     0.049 A 
ATOM     44  N   UNL A   1      41.202  29.268  33.063  1.00  0.00    -0.248 NA
ATOM     45  C   UNL A   1      42.165  27.441  31.980  1.00  0.00     0.031 C 
ATOM     46  C   UNL A   1      38.455  29.837  29.556  1.00  0.00     0.029 A 
ATOM     47  N   UNL A   1      39.091  30.677  31.527  1.00  0.00    -0.354 N 
ATOM     48  C   UNL A   1      42.154  28.685  33.891  1.00  0.00     0.074 A 
ATOM     49  C   UNL A   1      42.655  27.515  33.208  1.00  0.00     0.031 C 
ATOM     50  C   UNL A   1      37.698  30.920  29.793  1.00  0.00     0.029 A 
ATOM     51  C   UNL A   1      38.071  31.487  31.084  1.00  0.00     0.049 A 
ATOM     52  H   UNL A   1      39.558  30.817  32.382  1.00  0.00     0.167 HD
ATOM     53  C   UNL A   1      42.595  29.107  35.100  1.00  0.00     0.037 A 
ATOM     54  C   UNL A   1      37.501  32.561  31.662  1.00  0.00     0.037 A 
ATOM     55  C   UNL A   1      42.114  30.298  35.748  1.00  0.00     0.049 A 
ATOM     56  C   UNL A   1      38.020  33.023  32.997  1.00  0.00     0.074 A 
ATOM     57  C   UNL A   1      42.532  30.858  36.939  1.00  0.00     0.029 A 
ATOM     58  N   UNL A   1      41.105  31.113  35.251  1.00  0.00    -0.354 N 
ATOM     59  N   UNL A   1      38.970  32.500  33.738  1.00  0.00    -0.248 NA
ATOM     60  C   UNL A   1      37.400  34.224  33.573  1.00  0.00     0.031 C 
ATOM     61  C   UNL A   1      41.745  31.987  37.188  1.00  0.00     0.029 A 
ATOM     62  C   UNL A   1      40.875  32.163  36.123  1.00  0.00     0.049 A 
ATOM     63  H   UNL A   1      40.626  30.966  34.405  1.00  0.00     0.167 HD
ATOM     64  C   UNL A   1      39.079  33.323  34.853  1.00  0.00     0.074 A 
ATOM     65  C   UNL A   1      38.109  34.386  34.681  1.00  0.00     0.031 C 
ATOM     66  C   UNL A   1      39.908  33.214  35.921  1.00  0.00     0.037 A 
BRANCH  53  67
ATOM     67  C   UNL A   1      43.653  28.285  35.787  1.00  0.00     0.058 A 
ATOM     68  C   UNL A   1      45.023  28.503  35.561  1.00  0.00     0.135 A 
ATOM     69  C   UNL A   1      43.296  27.281  36.701  1.00  0.00     0.135 A 
ATOM     70  F   UNL A   1      45.424  29.436  34.683  1.00  0.00    -0.206 F 
ATOM     71  C   UNL A   1      45.998  27.735  36.190  1.00  0.00     0.059 A 
ATOM     72  C   UNL A   1      44.255  26.522  37.367  1.00  0.00     0.059 A 
ATOM     73  F   UNL A   1      42.004  27.025  36.955  1.00  0.00    -0.206 F 
ATOM     74  C   UNL A   1      45.604  26.747  37.093  1.00  0.00     0.060 A 
BRANCH  74  75
ATOM     75  S   UNL A   1      46.883  25.766  37.905  1.00  0.00     0.124 S 
ATOM     76  O   UNL A   1      48.095  26.465  37.489  1.00  0.00    -0.237 OA
ATOM     77  O   UNL A   1      46.529  25.896  39.314  1.00  0.00    -0.237 OA
ATOM     78  O   UNL A   1      46.702  24.433  37.336  1.00  0.00    -0.744 OA
ENDBRANCH  74  75
ENDBRANCH  53  67
BRANCH  54  79
ATOM     79  C   UNL A   1      36.406  33.289  30.965  1.00  0.00     0.058 A 
ATOM     80  C   UNL A   1      35.091  33.251  31.450  1.00  0.00     0.135 A 
ATOM     81  C   UNL A   1      36.654  34.052  29.813  1.00  0.00     0.135 A 
ATOM     82  F   UNL A   1      34.801  32.534  32.547  1.00  0.00    -0.206 F 
ATOM     83  C   UNL A   1      34.057  33.928  30.812  1.00  0.00     0.059 A 
ATOM     84  C   UNL A   1      35.641  34.761  29.171  1.00  0.00     0.059 A 
ATOM     85  F   UNL A   1      37.898  34.138  29.317  1.00  0.00    -0.206 F 
ATOM     86  C   UNL A   1      34.342  34.682  29.673  1.00  0.00     0.060 A 
BRANCH  86  87
ATOM     87  S   UNL A   1      32.997  35.589  28.878  1.00  0.00     0.124 S 
ATOM     88  O   UNL A   1      33.723  36.664  28.211  1.00  0.00    -0.237 OA
ATOM     89  O   UNL A   1      32.418  34.573  28.005  1.00  0.00    -0.237 OA
ATOM     90  O   UNL A   1      32.156  35.996  29.999  1.00  0.00    -0.744 OA
ENDBRANCH  86  87
ENDBRANCH  54  79
BRANCH  66  91
ATOM     91  C   UNL A   1      39.830  34.289  36.968  1.00  0.00     0.058 A 
ATOM     92  C   UNL A   1      40.459  35.531  36.802  1.00  0.00     0.135 A 
ATOM     93  C   UNL A   1      39.060  34.091  38.127  1.00  0.00     0.135 A 
ATOM     94  F   UNL A   1      41.211  35.768  35.713  1.00  0.00    -0.206 F 
ATOM     95  C   UNL A   1      40.349  36.533  37.759  1.00  0.00     0.059 A 
ATOM     96  C   UNL A   1      38.912  35.091  39.082  1.00  0.00     0.059 A 
ATOM     97  F   UNL A   1      38.428  32.925  38.329  1.00  0.00    -0.206 F 
ATOM     98  C   UNL A   1      39.570  36.305  38.894  1.00  0.00     0.060 A 
BRANCH  98  99
ATOM     99  S   UNL A   1      39.404  37.629  40.109  1.00  0.00     0.124 S 
ATOM    100  O   UNL A   1      38.286  38.391  39.565  1.00  0.00    -0.237 OA
ATOM    101  O   UNL A   1      39.131  36.891  41.338  1.00  0.00    -0.237 OA
ATOM    102  O   UNL A   1      40.702  38.298  40.063  1.00  0.00    -0.744 OA
ENDBRANCH  98  99
ENDBRANCH  66  91
ENDBRANCH  40  41
ENDBRANCH  32  35
ENDBRANCH  30  31
ENDBRANCH   1  30
TORSDOF 16
ENDMDL
MODEL 2
REMARK VINA RESULT:     -12.7      6.562     11.738
REMARK SMILES CC(=O)N1CC[NH+]([C@@H](C(=O)NCCCCNC(=O)c2ccc(-c3c4nc(c(-c5c(F)cc(S(=O)(=O)[O-])cc5F)c5ccc([nH]5)c(-c5c(F)cc(S(=O)(=O)[O-])cc5F)c5nc(c(-c6c(F)cc(S(=O)(=O)[O-])cc6F)c6ccc3[nH]6)C=C5)C=C4)cc2)c2c[nH]c3ccc(Cl)cc23)CC1
REMARK SMILES IDX 14 1 13 2 12 3 11 4 9 5 10 6 8 8 7 9 1 10 2 11 3 12 4 13
REMARK SMILES IDX 5 14 96 15 6 16 95 17 85 19 86 20 94 21 87 22 88 23 93 24
REMARK SMILES IDX 89 26 91 27 90 28 92 29 15 30 16 31 17 32 18 34 19 35 20 36
REMARK SMILES IDX 84 37 21 38 83 39 22 40 23 41 24 42 77 43 25 44 82 45 76 46
REMARK SMILES IDX 78 47 26 48 81 49 75 50 74 51 27 53 61 54 40 55 60 56 41 57
REMARK SMILES IDX 44 58 59 59 79 60 42 61 43 62 58 64 80 65 45 66 28 67 29 68
REMARK SMILES IDX 38 69 30 70 31 71 37 72 39 73 32 74 33 75 34 76 35 77 36 78
REMARK SMILES IDX 62 79 63 80 72 81 64 82 65 83 71 84 73 85 66 86 67 87 68 88
REMARK SMILES IDX 69 89 70 90 46 91 47 92 56 93 48 94 49 95 55 96 57 97 50 98
REMARK SMILES IDX 51 99 52 100 53 101 54 102
REMARK H PARENT 11 7 7 18 87 25 16 33 78 52 44 63
REMARK Flexibility Score: inf
ROOT
ATOM      1  C   UNL A   1      34.063  29.874  27.305  1.00  0.00     0.023 C 
ENDROOT
BRANCH   1   2
ATOM      2  C   UNL A   1      33.240  28.583  27.213  1.00  0.00     0.023 C 
BRANCH   2   3
ATOM      3  C   UNL A   1      31.692  28.728  27.208  1.00  0.00     0.116 C 
BRANCH   3   4
ATOM      4  N   UNL A   1      30.913  27.492  27.068  1.00  0.00    -0.351 N 
ATOM      5  C   UNL A   1      30.745  26.505  26.118  1.00  0.00     0.283 C 
ATOM      6  O   UNL A   1      30.040  25.561  26.493  1.00  0.00    -0.268 OA
ATOM      7  H   UNL A   1      30.363  27.320  27.867  1.00  0.00     0.163 HD
BRANCH   5   8
ATOM      8  C   UNL A   1      31.421  26.525  24.716  1.00  0.00     0.307 C 
BRANCH   8   9
ATOM      9  N   UNL A   1      30.552  26.292  23.494  1.00  0.00    -0.318 N 
ATOM     10  C   UNL A   1      28.271  30.480  21.356  1.00  0.00     0.114 C 
ATOM     11  C   UNL A   1      28.001  29.680  22.600  1.00  0.00     0.219 C 
ATOM     12  O   UNL A   1      27.032  29.933  23.314  1.00  0.00    -0.275 OA
ATOM     13  N   UNL A   1      28.851  28.614  22.839  1.00  0.00    -0.332 N 
ATOM     14  C   UNL A   1      28.524  27.713  23.934  1.00  0.00     0.181 C 
ATOM     15  C   UNL A   1      30.221  28.534  22.337  1.00  0.00     0.181 C 
ATOM     16  C   UNL A   1      29.085  26.339  23.607  1.00  0.00     0.285 C 
ATOM     17  C   UNL A   1      30.855  27.115  22.327  1.00  0.00     0.285 C 
ATOM     18  H   UNL A   1      30.833  25.318  23.388  1.00  0.00     0.349 HD
ENDBRANCH   8   9
BRANCH   8  19
ATOM     19  C   UNL A   1      32.732  25.676  24.595  1.00  0.00     0.044 A 
ATOM     20  C   UNL A   1      33.884  26.166  23.977  1.00  0.00     0.094 A 
ATOM     21  C   UNL A   1      32.885  24.251  24.374  1.00  0.00     0.011 A 
ATOM     22  N   UNL A   1      33.910  25.440  22.801  1.00  0.00    -0.361 N 
ATOM     23  C   UNL A   1      33.440  24.174  23.086  1.00  0.00     0.046 A 
ATOM     24  C   UNL A   1      32.470  23.044  24.974  1.00  0.00     0.031 A 
ATOM     25  H   UNL A   1      34.210  25.766  21.921  1.00  0.00     0.166 HD
ATOM     26  C   UNL A   1      33.347  23.037  22.276  1.00  0.00     0.028 A 
ATOM     27  C   UNL A   1      32.545  21.855  24.228  1.00  0.00     0.041 A 
ATOM     28  C   UNL A   1      32.884  21.869  22.877  1.00  0.00     0.022 A 
ATOM     29  Cl  UNL A   1      32.204  20.343  24.979  1.00  0.00    -0.084 Cl
ENDBRANCH   8  19
ENDBRANCH   5   8
ENDBRANCH   3   4
ENDBRANCH   2   3
ENDBRANCH   1   2
BRANCH   1  30
ATOM     30  C   UNL A   1      35.416  29.697  27.957  1.00  0.00     0.116 C 
BRANCH  30  31
ATOM     31  N   UNL A   1      35.412  30.106  29.352  1.00  0.00    -0.352 N 
ATOM     32  C   UNL A   1      36.424  30.004  30.285  1.00  0.00     0.251 C 
ATOM     33  H   UNL A   1      34.574  30.511  29.675  1.00  0.00     0.163 HD
ATOM     34  O   UNL A   1      36.194  30.235  31.458  1.00  0.00    -0.269 OA
BRANCH  32  35
ATOM     35  C   UNL A   1      37.780  29.580  29.848  1.00  0.00     0.039 A 
ATOM     36  C   UNL A   1      38.220  29.920  28.566  1.00  0.00     0.014 A 
ATOM     37  C   UNL A   1      38.615  28.859  30.704  1.00  0.00     0.014 A 
ATOM     38  C   UNL A   1      39.514  29.575  28.166  1.00  0.00     0.010 A 
ATOM     39  C   UNL A   1      39.936  28.623  30.351  1.00  0.00     0.010 A 
ATOM     40  C   UNL A   1      40.391  28.949  29.067  1.00  0.00    -0.014 A 
BRANCH  40  41
ATOM     41  C   UNL A   1      41.773  28.571  28.682  1.00  0.00     0.031 A 
ATOM     42  C   UNL A   1      42.845  29.628  28.652  1.00  0.00     0.074 A 
ATOM     43  C   UNL A   1      42.036  27.309  28.293  1.00  0.00     0.049 A 
ATOM     44  N   UNL A   1      44.089  29.533  28.259  1.00  0.00    -0.248 NA
ATOM     45  C   UNL A   1      42.459  30.983  29.082  1.00  0.00     0.031 C 
ATOM     46  C   UNL A   1      41.057  26.220  28.224  1.00  0.00     0.029 A 
ATOM     47  N   UNL A   1      43.205  26.728  27.871  1.00  0.00    -0.354 N 
ATOM     48  C   UNL A   1      44.619  30.814  28.374  1.00  0.00     0.074 A 
ATOM     49  C   UNL A   1      43.549  31.682  28.804  1.00  0.00     0.031 C 
ATOM     50  C   UNL A   1      41.672  25.099  27.816  1.00  0.00     0.029 A 
ATOM     51  C   UNL A   1      43.077  25.396  27.555  1.00  0.00     0.049 A 
ATOM     52  H   UNL A   1      44.055  27.220  27.801  1.00  0.00     0.167 HD
ATOM     53  C   UNL A   1      45.895  31.221  28.169  1.00  0.00     0.037 A 
ATOM     54  C   UNL A   1      43.991  24.518  27.100  1.00  0.00     0.037 A 
ATOM     55  C   UNL A   1      46.958  30.335  27.778  1.00  0.00     0.049 A 
ATOM     56  C   UNL A   1      45.406  24.990  26.897  1.00  0.00     0.074 A 
ATOM     57  C   UNL A   1      48.298  30.621  27.606  1.00  0.00     0.029 A 
ATOM     58  N   UNL A   1      46.796  28.983  27.503  1.00  0.00    -0.354 N 
ATOM     59  N   UNL A   1      45.909  26.190  27.077  1.00  0.00    -0.248 NA
ATOM     60  C   UNL A   1      46.381  23.991  26.442  1.00  0.00     0.031 C 
ATOM     61  C   UNL A   1      48.941  29.455  27.181  1.00  0.00     0.029 A 
ATOM     62  C   UNL A   1      48.011  28.427  27.143  1.00  0.00     0.049 A 
ATOM     63  H   UNL A   1      45.945  28.494  27.555  1.00  0.00     0.167 HD
ATOM     64  C   UNL A   1      47.262  26.083  26.782  1.00  0.00     0.074 A 
ATOM     65  C   UNL A   1      47.502  24.698  26.427  1.00  0.00     0.031 C 
ATOM     66  C   UNL A   1      48.223  27.041  26.805  1.00  0.00     0.037 A 
BRANCH  53  67
ATOM     67  C   UNL A   1      46.206  32.680  28.376  1.00  0.00     0.058 A 
ATOM     68  C   UNL A   1      46.102  33.614  27.330  1.00  0.00     0.135 A 
ATOM     69  C   UNL A   1      46.590  33.157  29.639  1.00  0.00     0.135 A 
ATOM     70  F   UNL A   1      45.758  33.214  26.096  1.00  0.00    -0.206 F 
ATOM     71  C   UNL A   1      46.399  34.960  27.522  1.00  0.00     0.059 A 
ATOM     72  C   UNL A   1      46.861  34.505  29.862  1.00  0.00     0.059 A 
ATOM     73  F   UNL A   1      46.709  32.312  30.674  1.00  0.00    -0.206 F 
ATOM     74  C   UNL A   1      46.777  35.396  28.792  1.00  0.00     0.060 A 
BRANCH  74  75
ATOM     75  S   UNL A   1      47.152  37.147  29.023  1.00  0.00     0.124 S 
ATOM     76  O   UNL A   1      48.405  37.276  28.285  1.00  0.00    -0.237 OA
ATOM     77  O   UNL A   1      45.993  37.796  28.421  1.00  0.00    -0.237 OA
ATOM     78  O   UNL A   1      47.262  37.283  30.473  1.00  0.00    -0.744 OA
ENDBRANCH  74  75
ENDBRANCH  53  67
BRANCH  54  79
ATOM     79  C   UNL A   1      43.603  23.105  26.843  1.00  0.00     0.058 A 
ATOM     80  C   UNL A   1      43.298  22.237  27.901  1.00  0.00     0.135 A 
ATOM     81  C   UNL A   1      43.509  22.598  25.537  1.00  0.00     0.135 A 
ATOM     82  F   UNL A   1      43.374  22.671  29.168  1.00  0.00    -0.206 F 
ATOM     83  C   UNL A   1      42.930  20.913  27.677  1.00  0.00     0.059 A 
ATOM     84  C   UNL A   1      43.117  21.286  25.285  1.00  0.00     0.059 A 
ATOM     85  F   UNL A   1      43.771  23.392  24.487  1.00  0.00    -0.206 F 
ATOM     86  C   UNL A   1      42.841  20.447  26.365  1.00  0.00     0.060 A 
BRANCH  86  87
ATOM     87  S   UNL A   1      42.323  18.739  26.088  1.00  0.00     0.124 S 
ATOM     88  O   UNL A   1      43.241  18.321  25.035  1.00  0.00    -0.237 OA
ATOM     89  O   UNL A   1      42.541  18.138  27.401  1.00  0.00    -0.237 OA
ATOM     90  O   UNL A   1      40.925  18.871  25.691  1.00  0.00    -0.744 OA
ENDBRANCH  86  87
ENDBRANCH  54  79
BRANCH  66  91
ATOM     91  C   UNL A   1      49.627  26.618  26.474  1.00  0.00     0.058 A 
ATOM     92  C   UNL A   1      50.465  26.023  27.428  1.00  0.00     0.135 A 
ATOM     93  C   UNL A   1      50.115  26.756  25.164  1.00  0.00     0.135 A 
ATOM     94  F   UNL A   1      50.046  25.873  28.696  1.00  0.00    -0.206 F 
ATOM     95  C   UNL A   1      51.748  25.601  27.103  1.00  0.00     0.059 A 
ATOM     96  C   UNL A   1      51.384  26.313  24.809  1.00  0.00     0.059 A 
ATOM     97  F   UNL A   1      49.349  27.308  24.210  1.00  0.00    -0.206 F 
ATOM     98  C   UNL A   1      52.198  25.746  25.789  1.00  0.00     0.060 A 
BRANCH  98  99
ATOM     99  S   UNL A   1      53.852  25.158  25.371  1.00  0.00     0.124 S 
ATOM    100  O   UNL A   1      54.647  25.721  26.457  1.00  0.00    -0.237 OA
ATOM    101  O   UNL A   1      53.682  23.709  25.394  1.00  0.00    -0.237 OA
ATOM    102  O   UNL A   1      54.094  25.733  24.051  1.00  0.00    -0.744 OA
ENDBRANCH  98  99
ENDBRANCH  66  91
ENDBRANCH  40  41
ENDBRANCH  32  35
ENDBRANCH  30  31
ENDBRANCH   1  30
TORSDOF 16
ENDMDL
MODEL 3
REMARK VINA RESULT:     -12.7      6.671     12.108
REMARK SMILES CC(=O)N1CC[NH+]([C@@H](C(=O)NCCCCNC(=O)c2ccc(-c3c4nc(c(-c5c(F)cc(S(=O)(=O)[O-])cc5F)c5ccc([nH]5)c(-c5c(F)cc(S(=O)(=O)[O-])cc5F)c5nc(c(-c6c(F)cc(S(=O)(=O)[O-])cc6F)c6ccc3[nH]6)C=C5)C=C4)cc2)c2c[nH]c3ccc(Cl)cc23)CC1
REMARK SMILES IDX 14 1 13 2 12 3 11 4 9 5 10 6 8 8 7 9 1 10 2 11 3 12 4 13
REMARK SMILES IDX 5 14 96 15 6 16 95 17 85 19 86 20 94 21 87 22 88 23 93 24
REMARK SMILES IDX 89 26 91 27 90 28 92 29 15 30 16 31 17 32 18 34 19 35 20 36
REMARK SMILES IDX 84 37 21 38 83 39 22 40 23 41 24 42 77 43 25 44 82 45 76 46
REMARK SMILES IDX 78 47 26 48 81 49 75 50 74 51 27 53 61 54 40 55 60 56 41 57
REMARK SMILES IDX 44 58 59 59 79 60 42 61 43 62 58 64 80 65 45 66 28 67 29 68
REMARK SMILES IDX 38 69 30 70 31 71 37 72 39 73 32 74 33 75 34 76 35 77 36 78
REMARK SMILES IDX 62 79 63 80 72 81 64 82 65 83 71 84 73 85 66 86 67 87 68 88
REMARK SMILES IDX 69 89 70 90 46 91 47 92 56 93 48 94 49 95 55 96 57 97 50 98
REMARK SMILES IDX 51 99 52 100 53 101 54 102
REMARK H PARENT 11 7 7 18 87 25 16 33 78 52 44 63
REMARK Flexibility Score: inf
ROOT
ATOM      1  C   UNL A   1      33.965  29.519  26.926  1.00  0.00     0.023 C 
ENDROOT
BRANCH   1   2
ATOM      2  C   UNL A   1      33.796  28.572  25.731  1.00  0.00     0.023 C 
BRANCH   2   3
ATOM      3  C   UNL A   1      33.757  27.048  26.034  1.00  0.00     0.116 C 
BRANCH   3   4
ATOM      4  N   UNL A   1      32.446  26.474  26.362  1.00  0.00    -0.351 N 
ATOM      5  C   UNL A   1      31.568  25.571  25.798  1.00  0.00     0.283 C 
ATOM      6  O   UNL A   1      30.594  25.305  26.511  1.00  0.00    -0.268 OA
ATOM      7  H   UNL A   1      32.101  26.829  27.213  1.00  0.00     0.163 HD
BRANCH   5   8
ATOM      8  C   UNL A   1      31.792  24.890  24.416  1.00  0.00     0.307 C 
BRANCH   8   9
ATOM      9  N   UNL A   1      33.067  24.094  24.205  1.00  0.00    -0.318 N 
ATOM     10  C   UNL A   1      32.553  18.991  23.195  1.00  0.00     0.114 C 
ATOM     11  C   UNL A   1      32.413  19.815  24.445  1.00  0.00     0.219 C 
ATOM     12  O   UNL A   1      32.189  19.282  25.530  1.00  0.00    -0.275 OA
ATOM     13  N   UNL A   1      32.626  21.176  24.308  1.00  0.00    -0.332 N 
ATOM     14  C   UNL A   1      32.669  21.985  25.517  1.00  0.00     0.181 C 
ATOM     15  C   UNL A   1      32.439  21.910  23.058  1.00  0.00     0.181 C 
ATOM     16  C   UNL A   1      33.560  23.189  25.256  1.00  0.00     0.285 C 
ATOM     17  C   UNL A   1      33.131  23.300  22.981  1.00  0.00     0.285 C 
ATOM     18  H   UNL A   1      33.667  24.918  24.186  1.00  0.00     0.349 HD
ENDBRANCH   8   9
BRANCH   8  19
ATOM     19  C   UNL A   1      31.535  25.804  23.171  1.00  0.00     0.044 A 
ATOM     20  C   UNL A   1      32.562  26.205  22.314  1.00  0.00     0.094 A 
ATOM     21  C   UNL A   1      30.602  26.904  23.018  1.00  0.00     0.011 A 
ATOM     22  N   UNL A   1      32.695  27.543  22.633  1.00  0.00    -0.361 N 
ATOM     23  C   UNL A   1      31.435  28.031  22.910  1.00  0.00     0.046 A 
ATOM     24  C   UNL A   1      29.216  27.133  23.144  1.00  0.00     0.031 A 
ATOM     25  H   UNL A   1      33.536  28.056  22.656  1.00  0.00     0.166 HD
ATOM     26  C   UNL A   1      31.007  29.332  23.198  1.00  0.00     0.028 A 
ATOM     27  C   UNL A   1      28.753  28.455  23.249  1.00  0.00     0.041 A 
ATOM     28  C   UNL A   1      29.639  29.524  23.372  1.00  0.00     0.022 A 
ATOM     29  Cl  UNL A   1      27.061  28.780  23.239  1.00  0.00    -0.084 Cl
ENDBRANCH   8  19
ENDBRANCH   5   8
ENDBRANCH   3   4
ENDBRANCH   2   3
ENDBRANCH   1   2
BRANCH   1  30
ATOM     30  C   UNL A   1      35.256  29.324  27.689  1.00  0.00     0.116 C 
BRANCH  30  31
ATOM     31  N   UNL A   1      35.256  30.031  28.959  1.00  0.00    -0.352 N 
ATOM     32  C   UNL A   1      36.289  30.182  29.863  1.00  0.00     0.251 C 
ATOM     33  H   UNL A   1      34.406  30.459  29.209  1.00  0.00     0.163 HD
ATOM     34  O   UNL A   1      36.068  30.657  30.962  1.00  0.00    -0.269 OA
BRANCH  32  35
ATOM     35  C   UNL A   1      37.656  29.733  29.492  1.00  0.00     0.039 A 
ATOM     36  C   UNL A   1      38.073  29.844  28.164  1.00  0.00     0.014 A 
ATOM     37  C   UNL A   1      38.524  29.213  30.454  1.00  0.00     0.014 A 
ATOM     38  C   UNL A   1      39.375  29.477  27.816  1.00  0.00     0.010 A 
ATOM     39  C   UNL A   1      39.850  28.962  30.132  1.00  0.00     0.010 A 
ATOM     40  C   UNL A   1      40.282  29.060  28.803  1.00  0.00    -0.014 A 
BRANCH  40  41
ATOM     41  C   UNL A   1      41.674  28.667  28.475  1.00  0.00     0.031 A 
ATOM     42  C   UNL A   1      42.754  29.717  28.457  1.00  0.00     0.074 A 
ATOM     43  C   UNL A   1      41.944  27.395  28.124  1.00  0.00     0.049 A 
ATOM     44  N   UNL A   1      44.009  29.608  28.110  1.00  0.00    -0.248 NA
ATOM     45  C   UNL A   1      42.360  31.084  28.843  1.00  0.00     0.031 C 
ATOM     46  C   UNL A   1      40.961  26.310  28.046  1.00  0.00     0.029 A 
ATOM     47  N   UNL A   1      43.123  26.799  27.755  1.00  0.00    -0.354 N 
ATOM     48  C   UNL A   1      44.543  30.888  28.213  1.00  0.00     0.074 A 
ATOM     49  C   UNL A   1      43.463  31.771  28.587  1.00  0.00     0.031 C 
ATOM     50  C   UNL A   1      41.584  25.177  27.685  1.00  0.00     0.029 A 
ATOM     51  C   UNL A   1      42.998  25.461  27.465  1.00  0.00     0.049 A 
ATOM     52  H   UNL A   1      43.978  27.284  27.704  1.00  0.00     0.167 HD
ATOM     53  C   UNL A   1      45.827  31.284  28.044  1.00  0.00     0.037 A 
ATOM     54  C   UNL A   1      43.922  24.568  27.062  1.00  0.00     0.037 A 
ATOM     55  C   UNL A   1      46.897  30.383  27.710  1.00  0.00     0.049 A 
ATOM     56  C   UNL A   1      45.345  25.028  26.897  1.00  0.00     0.074 A 
ATOM     57  C   UNL A   1      48.245  30.659  27.577  1.00  0.00     0.029 A 
ATOM     58  N   UNL A   1      46.738  29.027  27.460  1.00  0.00    -0.354 N 
ATOM     59  N   UNL A   1      45.849  26.229  27.067  1.00  0.00    -0.248 NA
ATOM     60  C   UNL A   1      46.330  24.013  26.498  1.00  0.00     0.031 C 
ATOM     61  C   UNL A   1      48.895  29.480  27.201  1.00  0.00     0.029 A 
ATOM     62  C   UNL A   1      47.961  28.456  27.154  1.00  0.00     0.049 A 
ATOM     63  H   UNL A   1      45.882  28.543  27.494  1.00  0.00     0.167 HD
ATOM     64  C   UNL A   1      47.211  26.108  26.821  1.00  0.00     0.074 A 
ATOM     65  C   UNL A   1      47.455  24.715  26.506  1.00  0.00     0.031 C 
ATOM     66  C   UNL A   1      48.176  27.062  26.855  1.00  0.00     0.037 A 
BRANCH  53  67
ATOM     67  C   UNL A   1      46.139  32.745  28.227  1.00  0.00     0.058 A 
ATOM     68  C   UNL A   1      46.531  33.267  29.473  1.00  0.00     0.135 A 
ATOM     69  C   UNL A   1      46.069  33.633  27.142  1.00  0.00     0.135 A 
ATOM     70  F   UNL A   1      46.597  32.470  30.550  1.00  0.00    -0.206 F 
ATOM     71  C   UNL A   1      46.810  34.620  29.641  1.00  0.00     0.059 A 
ATOM     72  C   UNL A   1      46.376  34.985  27.281  1.00  0.00     0.059 A 
ATOM     73  F   UNL A   1      45.698  33.193  25.931  1.00  0.00    -0.206 F 
ATOM     74  C   UNL A   1      46.731  35.471  28.538  1.00  0.00     0.060 A 
BRANCH  74  75
ATOM     75  S   UNL A   1      47.103  37.222  28.776  1.00  0.00     0.124 S 
ATOM     76  O   UNL A   1      46.829  37.387  30.200  1.00  0.00    -0.237 OA
ATOM     77  O   UNL A   1      48.508  37.297  28.388  1.00  0.00    -0.237 OA
ATOM     78  O   UNL A   1      46.169  37.893  27.876  1.00  0.00    -0.744 OA
ENDBRANCH  74  75
ENDBRANCH  53  67
BRANCH  54  79
ATOM     79  C   UNL A   1      43.535  23.151  26.824  1.00  0.00     0.058 A 
ATOM     80  C   UNL A   1      43.487  22.625  25.525  1.00  0.00     0.135 A 
ATOM     81  C   UNL A   1      43.226  22.289  27.888  1.00  0.00     0.135 A 
ATOM     82  F   UNL A   1      43.771  23.408  24.473  1.00  0.00    -0.206 F 
ATOM     83  C   UNL A   1      43.129  21.301  25.285  1.00  0.00     0.059 A 
ATOM     84  C   UNL A   1      42.891  20.953  27.676  1.00  0.00     0.059 A 
ATOM     85  F   UNL A   1      43.275  22.736  29.152  1.00  0.00    -0.206 F 
ATOM     86  C   UNL A   1      42.835  20.472  26.368  1.00  0.00     0.060 A 
BRANCH  86  87
ATOM     87  S   UNL A   1      42.413  18.746  26.045  1.00  0.00     0.124 S 
ATOM     88  O   UNL A   1      43.348  18.411  24.977  1.00  0.00    -0.237 OA
ATOM     89  O   UNL A   1      42.672  18.121  27.339  1.00  0.00    -0.237 OA
ATOM     90  O   UNL A   1      41.008  18.809  25.658  1.00  0.00    -0.744 OA
ENDBRANCH  86  87
ENDBRANCH  54  79
BRANCH  66  91
ATOM     91  C   UNL A   1      49.588  26.625  26.582  1.00  0.00     0.058 A 
ATOM     92  C   UNL A   1      50.110  26.581  25.281  1.00  0.00     0.135 A 
ATOM     93  C   UNL A   1      50.446  26.306  27.647  1.00  0.00     0.135 A 
ATOM     94  F   UNL A   1      49.329  26.872  24.228  1.00  0.00    -0.206 F 
ATOM     95  C   UNL A   1      51.429  26.212  25.042  1.00  0.00     0.059 A 
ATOM     96  C   UNL A   1      51.777  25.964  27.433  1.00  0.00     0.059 A 
ATOM     97  F   UNL A   1      49.999  26.344  28.913  1.00  0.00    -0.206 F 
ATOM     98  C   UNL A   1      52.256  25.909  26.126  1.00  0.00     0.060 A 
BRANCH  98  99
ATOM     99  S   UNL A   1      53.976  25.469  25.803  1.00  0.00     0.124 S 
ATOM    100  O   UNL A   1      54.404  24.978  27.108  1.00  0.00    -0.237 OA
ATOM    101  O   UNL A   1      53.849  24.461  24.756  1.00  0.00    -0.237 OA
ATOM    102  O   UNL A   1      54.576  26.731  25.378  1.00  0.00    -0.744 OA
ENDBRANCH  98  99
ENDBRANCH  66  91
ENDBRANCH  40  41
ENDBRANCH  32  35
ENDBRANCH  30  31
ENDBRANCH   1  30
TORSDOF 16
ENDMDL
