MODEL 1
REMARK VINA RESULT:     -11.7      0.000      0.000
REMARK SMILES C[C@@H]1[C@@H](C(=O)NCCCCNC(=O)c2ccc(-c3c4nc(c(-c5c(F)cc(S(=O)(=O)[O-])cc5F)c5ccc([nH]5)c(-c5c(F)cc(S(=O)(=O)[O-])cc5F)c5nc(c(-c6c(F)cc(S(=O)(=O)[O-])cc6F)c6ccc3[nH]6)C=C5)C=C4)cc2)CCN1C(=O)[C@@H]1CCCN(C(N)=O)C1
REMARK SMILES IDX 8 1 7 2 6 3 4 4 5 5 3 7 1 8 2 9 82 10 80 11 81 12 83 13
REMARK SMILES IDX 84 14 85 15 86 16 93 17 87 18 89 19 88 20 90 21 91 22 92 23
REMARK SMILES IDX 9 26 10 27 11 28 12 29 13 31 14 32 15 33 79 34 16 35 78 36
REMARK SMILES IDX 17 37 18 38 19 39 72 40 20 41 77 42 71 43 73 44 21 45 76 46
REMARK SMILES IDX 70 47 69 48 22 50 56 51 35 52 55 53 36 54 39 55 54 56 74 57
REMARK SMILES IDX 37 58 38 59 53 61 75 62 40 63 23 64 24 65 33 66 25 67 26 68
REMARK SMILES IDX 32 69 34 70 27 71 28 72 29 73 30 74 31 75 57 76 58 77 67 78
REMARK SMILES IDX 59 79 60 80 66 81 68 82 61 83 62 84 63 85 64 86 65 87 41 88
REMARK SMILES IDX 42 89 51 90 43 91 44 92 50 93 52 94 45 95 46 96 47 97 48 98
REMARK SMILES IDX 49 99
REMARK H PARENT 6 6 91 24 91 25 11 30 73 49 39 60
REMARK Flexibility Score: inf
ROOT
ATOM      1  C   UNL A   1      33.928  28.106  23.910  1.00  0.00     0.023 C 
ENDROOT
BRANCH   1   2
ATOM      2  C   UNL A   1      33.109  27.477  22.790  1.00  0.00     0.116 C 
BRANCH   2   3
ATOM      3  N   UNL A   1      33.527  26.127  22.463  1.00  0.00    -0.356 N 
ATOM      4  C   UNL A   1      32.793  24.974  22.507  1.00  0.00     0.225 C 
ATOM      5  O   UNL A   1      33.260  23.962  21.989  1.00  0.00    -0.275 OA
ATOM      6  H   UNL A   1      34.462  26.026  22.171  1.00  0.00     0.163 HD
BRANCH   4   7
ATOM      7  C   UNL A   1      31.425  25.017  23.166  1.00  0.00     0.102 C 
ATOM      8  C   UNL A   1      30.123  25.901  25.107  1.00  0.00     0.032 C 
ATOM      9  C   UNL A   1      31.472  25.295  24.684  1.00  0.00     0.094 C 
ATOM     10  N   UNL A   1      31.668  23.972  25.288  1.00  0.00    -0.339 N 
ATOM     11  C   UNL A   1      30.767  23.636  23.109  1.00  0.00     0.037 C 
ATOM     12  C   UNL A   1      31.352  22.929  24.320  1.00  0.00     0.120 C 
BRANCH  10  13
ATOM     13  C   UNL A   1      32.239  23.582  26.476  1.00  0.00     0.227 C 
ATOM     14  O   UNL A   1      31.578  23.704  27.520  1.00  0.00    -0.275 OA
BRANCH  13  15
ATOM     15  C   UNL A   1      33.636  22.957  26.620  1.00  0.00     0.098 C 
ATOM     16  C   UNL A   1      34.754  23.422  25.691  1.00  0.00     0.017 C 
ATOM     17  C   UNL A   1      33.619  21.455  26.881  1.00  0.00     0.134 C 
ATOM     18  C   UNL A   1      35.122  22.465  24.562  1.00  0.00     0.022 C 
ATOM     19  N   UNL A   1      33.852  20.653  25.686  1.00  0.00    -0.324 N 
ATOM     20  C   UNL A   1      35.045  20.989  24.922  1.00  0.00     0.121 C 
BRANCH  19  21
ATOM     21  C   UNL A   1      33.222  19.458  25.414  1.00  0.00     0.314 C 
ATOM     22  N   UNL A   1      32.819  18.732  26.479  1.00  0.00    -0.351 N 
ATOM     23  O   UNL A   1      33.025  19.025  24.282  1.00  0.00    -0.249 OA
ATOM     24  H   UNL A   1      32.972  19.070  27.391  1.00  0.00     0.161 HD
ATOM     25  H   UNL A   1      32.372  17.865  26.344  1.00  0.00     0.161 HD
ENDBRANCH  19  21
ENDBRANCH  13  15
ENDBRANCH  10  13
ENDBRANCH   4   7
ENDBRANCH   2   3
ENDBRANCH   1   2
BRANCH   1  26
ATOM     26  C   UNL A   1      33.143  28.486  25.166  1.00  0.00     0.023 C 
BRANCH  26  27
ATOM     27  C   UNL A   1      33.961  28.612  26.445  1.00  0.00     0.116 C 
BRANCH  27  28
ATOM     28  N   UNL A   1      33.733  29.864  27.148  1.00  0.00    -0.352 N 
ATOM     29  C   UNL A   1      34.558  30.535  28.017  1.00  0.00     0.251 C 
ATOM     30  H   UNL A   1      32.863  30.292  26.977  1.00  0.00     0.163 HD
ATOM     31  O   UNL A   1      34.146  31.528  28.612  1.00  0.00    -0.269 OA
BRANCH  29  32
ATOM     32  C   UNL A   1      35.924  30.032  28.258  1.00  0.00     0.039 A 
ATOM     33  C   UNL A   1      36.858  30.095  27.221  1.00  0.00     0.014 A 
ATOM     34  C   UNL A   1      36.291  29.533  29.511  1.00  0.00     0.014 A 
ATOM     35  C   UNL A   1      38.181  29.721  27.463  1.00  0.00     0.010 A 
ATOM     36  C   UNL A   1      37.625  29.239  29.771  1.00  0.00     0.010 A 
ATOM     37  C   UNL A   1      38.582  29.323  28.749  1.00  0.00    -0.014 A 
BRANCH  37  38
ATOM     38  C   UNL A   1      39.995  28.970  29.040  1.00  0.00     0.031 A 
ATOM     39  C   UNL A   1      40.907  29.993  29.662  1.00  0.00     0.074 A 
ATOM     40  C   UNL A   1      40.470  27.758  28.692  1.00  0.00     0.049 A 
ATOM     41  N   UNL A   1      42.184  29.908  29.928  1.00  0.00    -0.248 NA
ATOM     42  C   UNL A   1      40.309  31.295  29.999  1.00  0.00     0.031 C 
ATOM     43  C   UNL A   1      39.695  26.700  28.038  1.00  0.00     0.029 A 
ATOM     44  N   UNL A   1      41.722  27.213  28.830  1.00  0.00    -0.354 N 
ATOM     45  C   UNL A   1      42.545  31.146  30.446  1.00  0.00     0.074 A 
ATOM     46  C   UNL A   1      41.367  31.983  30.401  1.00  0.00     0.031 C 
ATOM     47  C   UNL A   1      40.482  25.626  27.856  1.00  0.00     0.029 A 
ATOM     48  C   UNL A   1      41.824  25.930  28.346  1.00  0.00     0.049 A 
ATOM     49  H   UNL A   1      42.476  27.696  29.238  1.00  0.00     0.167 HD
ATOM     50  C   UNL A   1      43.743  31.543  30.938  1.00  0.00     0.037 A 
ATOM     51  C   UNL A   1      42.879  25.094  28.301  1.00  0.00     0.037 A 
ATOM     52  C   UNL A   1      44.903  30.693  31.008  1.00  0.00     0.049 A 
ATOM     53  C   UNL A   1      44.196  25.551  28.868  1.00  0.00     0.074 A 
ATOM     54  C   UNL A   1      46.150  30.979  31.536  1.00  0.00     0.029 A 
ATOM     55  N   UNL A   1      44.957  29.388  30.537  1.00  0.00    -0.354 N 
ATOM     56  N   UNL A   1      44.507  26.707  29.404  1.00  0.00    -0.248 NA
ATOM     57  C   UNL A   1      45.304  24.587  28.832  1.00  0.00     0.031 C 
ATOM     58  C   UNL A   1      46.968  29.860  31.350  1.00  0.00     0.029 A 
ATOM     59  C   UNL A   1      46.218  28.860  30.752  1.00  0.00     0.049 A 
ATOM     60  H   UNL A   1      44.208  28.910  30.113  1.00  0.00     0.167 HD
ATOM     61  C   UNL A   1      45.836  26.599  29.800  1.00  0.00     0.074 A 
ATOM     62  C   UNL A   1      46.267  25.261  29.447  1.00  0.00     0.031 C 
ATOM     63  C   UNL A   1      46.625  27.520  30.405  1.00  0.00     0.037 A 
BRANCH  50  64
ATOM     64  C   UNL A   1      43.850  32.955  31.446  1.00  0.00     0.058 A 
ATOM     65  C   UNL A   1      43.587  33.277  32.787  1.00  0.00     0.135 A 
ATOM     66  C   UNL A   1      44.233  33.997  30.587  1.00  0.00     0.135 A 
ATOM     67  F   UNL A   1      43.201  32.323  33.650  1.00  0.00    -0.206 F 
ATOM     68  C   UNL A   1      43.660  34.587  33.250  1.00  0.00     0.059 A 
ATOM     69  C   UNL A   1      44.343  35.311  31.034  1.00  0.00     0.059 A 
ATOM     70  F   UNL A   1      44.498  33.746  29.295  1.00  0.00    -0.206 F 
ATOM     71  C   UNL A   1      44.035  35.599  32.363  1.00  0.00     0.060 A 
BRANCH  71  72
ATOM     72  S   UNL A   1      44.118  37.294  32.976  1.00  0.00     0.124 S 
ATOM     73  O   UNL A   1      45.426  37.303  33.627  1.00  0.00    -0.237 OA
ATOM     74  O   UNL A   1      44.017  38.077  31.749  1.00  0.00    -0.237 OA
ATOM     75  O   UNL A   1      42.971  37.387  33.872  1.00  0.00    -0.744 OA
ENDBRANCH  71  72
ENDBRANCH  50  64
BRANCH  51  76
ATOM     76  C   UNL A   1      42.722  23.729  27.733  1.00  0.00     0.058 A 
ATOM     77  C   UNL A   1      42.490  22.625  28.568  1.00  0.00     0.135 A 
ATOM     78  C   UNL A   1      42.782  23.500  26.350  1.00  0.00     0.135 A 
ATOM     79  F   UNL A   1      42.429  22.792  29.897  1.00  0.00    -0.206 F 
ATOM     80  C   UNL A   1      42.337  21.341  28.055  1.00  0.00     0.059 A 
ATOM     81  C   UNL A   1      42.607  22.229  25.810  1.00  0.00     0.059 A 
ATOM     82  F   UNL A   1      42.984  24.525  25.508  1.00  0.00    -0.206 F 
ATOM     83  C   UNL A   1      42.394  21.154  26.673  1.00  0.00     0.060 A 
BRANCH  83  84
ATOM     84  S   UNL A   1      42.140  19.492  26.013  1.00  0.00     0.124 S 
ATOM     85  O   UNL A   1      42.946  19.532  24.798  1.00  0.00    -0.237 OA
ATOM     86  O   UNL A   1      42.653  18.653  27.093  1.00  0.00    -0.237 OA
ATOM     87  O   UNL A   1      40.695  19.428  25.812  1.00  0.00    -0.744 OA
ENDBRANCH  83  84
ENDBRANCH  51  76
BRANCH  63  88
ATOM     88  C   UNL A   1      48.022  27.103  30.770  1.00  0.00     0.058 A 
ATOM     89  C   UNL A   1      48.307  26.450  31.979  1.00  0.00     0.135 A 
ATOM     90  C   UNL A   1      49.081  27.313  29.872  1.00  0.00     0.135 A 
ATOM     91  F   UNL A   1      47.333  26.230  32.875  1.00  0.00    -0.206 F 
ATOM     92  C   UNL A   1      49.599  26.041  32.295  1.00  0.00     0.059 A 
ATOM     93  C   UNL A   1      50.374  26.889  30.154  1.00  0.00     0.059 A 
ATOM     94  F   UNL A   1      48.859  27.923  28.696  1.00  0.00    -0.206 F 
ATOM     95  C   UNL A   1      50.627  26.264  31.375  1.00  0.00     0.060 A 
BRANCH  95  96
ATOM     96  S   UNL A   1      52.292  25.700  31.782  1.00  0.00     0.124 S 
ATOM     97  O   UNL A   1      52.994  25.923  30.522  1.00  0.00    -0.237 OA
ATOM     98  O   UNL A   1      52.664  26.587  32.880  1.00  0.00    -0.237 OA
ATOM     99  O   UNL A   1      52.095  24.302  32.153  1.00  0.00    -0.744 OA
ENDBRANCH  95  96
ENDBRANCH  63  88
ENDBRANCH  37  38
ENDBRANCH  29  32
ENDBRANCH  27  28
ENDBRANCH  26  27
ENDBRANCH   1  26
TORSDOF 17
ENDMDL
MODEL 2
REMARK VINA RESULT:     -11.6      4.714     10.352
REMARK SMILES C[C@@H]1[C@@H](C(=O)NCCCCNC(=O)c2ccc(-c3c4nc(c(-c5c(F)cc(S(=O)(=O)[O-])cc5F)c5ccc([nH]5)c(-c5c(F)cc(S(=O)(=O)[O-])cc5F)c5nc(c(-c6c(F)cc(S(=O)(=O)[O-])cc6F)c6ccc3[nH]6)C=C5)C=C4)cc2)CCN1C(=O)[C@@H]1CCCN(C(N)=O)C1
REMARK SMILES IDX 8 1 7 2 6 3 4 4 5 5 3 7 1 8 2 9 82 10 80 11 81 12 83 13
REMARK SMILES IDX 84 14 85 15 86 16 93 17 87 18 89 19 88 20 90 21 91 22 92 23
REMARK SMILES IDX 9 26 10 27 11 28 12 29 13 31 14 32 15 33 79 34 16 35 78 36
REMARK SMILES IDX 17 37 18 38 19 39 72 40 20 41 77 42 71 43 73 44 21 45 76 46
REMARK SMILES IDX 70 47 69 48 22 50 56 51 35 52 55 53 36 54 39 55 54 56 74 57
REMARK SMILES IDX 37 58 38 59 53 61 75 62 40 63 23 64 24 65 33 66 25 67 26 68
REMARK SMILES IDX 32 69 34 70 27 71 28 72 29 73 30 74 31 75 57 76 58 77 67 78
REMARK SMILES IDX 59 79 60 80 66 81 68 82 61 83 62 84 63 85 64 86 65 87 41 88
REMARK SMILES IDX 42 89 51 90 43 91 44 92 50 93 52 94 45 95 46 96 47 97 48 98
REMARK SMILES IDX 49 99
REMARK H PARENT 6 6 91 24 91 25 11 30 73 49 39 60
REMARK Flexibility Score: inf
ROOT
ATOM      1  C   UNL A   1      39.499  21.260  25.907  1.00  0.00     0.023 C 
ENDROOT
BRANCH   1   2
ATOM      2  C   UNL A   1      38.093  21.829  25.756  1.00  0.00     0.116 C 
BRANCH   2   3
ATOM      3  N   UNL A   1      37.778  22.223  24.396  1.00  0.00    -0.356 N 
ATOM      4  C   UNL A   1      36.570  22.599  23.877  1.00  0.00     0.225 C 
ATOM      5  O   UNL A   1      36.546  23.102  22.755  1.00  0.00    -0.275 OA
ATOM      6  H   UNL A   1      38.532  22.219  23.763  1.00  0.00     0.163 HD
BRANCH   4   7
ATOM      7  C   UNL A   1      35.328  22.405  24.730  1.00  0.00     0.102 C 
ATOM      8  C   UNL A   1      32.989  21.526  24.757  1.00  0.00     0.032 C 
ATOM      9  C   UNL A   1      34.022  22.294  23.914  1.00  0.00     0.094 C 
ATOM     10  N   UNL A   1      33.605  23.685  23.708  1.00  0.00    -0.339 N 
ATOM     11  C   UNL A   1      35.073  23.650  25.583  1.00  0.00     0.037 C 
ATOM     12  C   UNL A   1      34.307  24.561  24.638  1.00  0.00     0.120 C 
BRANCH  10  13
ATOM     13  C   UNL A   1      32.849  24.280  22.726  1.00  0.00     0.227 C 
ATOM     14  O   UNL A   1      33.279  24.276  21.561  1.00  0.00    -0.275 OA
BRANCH  13  15
ATOM     15  C   UNL A   1      31.470  24.923  22.943  1.00  0.00     0.098 C 
ATOM     16  C   UNL A   1      31.360  26.446  22.967  1.00  0.00     0.017 C 
ATOM     17  C   UNL A   1      30.611  24.215  23.983  1.00  0.00     0.134 C 
ATOM     18  C   UNL A   1      31.183  27.079  24.343  1.00  0.00     0.022 C 
ATOM     19  N   UNL A   1      30.639  24.853  25.295  1.00  0.00    -0.324 N 
ATOM     20  C   UNL A   1      30.331  26.275  25.314  1.00  0.00     0.121 C 
BRANCH  19  21
ATOM     21  C   UNL A   1      30.634  24.171  26.493  1.00  0.00     0.314 C 
ATOM     22  N   UNL A   1      29.459  23.624  26.872  1.00  0.00    -0.351 N 
ATOM     23  O   UNL A   1      31.615  24.050  27.221  1.00  0.00    -0.249 OA
ATOM     24  H   UNL A   1      28.665  23.716  26.295  1.00  0.00     0.161 HD
ATOM     25  H   UNL A   1      29.395  23.134  27.723  1.00  0.00     0.161 HD
ENDBRANCH  19  21
ENDBRANCH  13  15
ENDBRANCH  10  13
ENDBRANCH   4   7
ENDBRANCH   2   3
ENDBRANCH   1   2
BRANCH   1  26
ATOM     26  C   UNL A   1      40.285  21.763  27.118  1.00  0.00     0.023 C 
BRANCH  26  27
ATOM     27  C   UNL A   1      40.264  23.270  27.341  1.00  0.00     0.116 C 
BRANCH  27  28
ATOM     28  N   UNL A   1      40.773  24.023  26.206  1.00  0.00    -0.352 N 
ATOM     29  C   UNL A   1      41.099  25.354  26.123  1.00  0.00     0.251 C 
ATOM     30  H   UNL A   1      40.902  23.505  25.379  1.00  0.00     0.163 HD
ATOM     31  O   UNL A   1      41.404  25.845  25.039  1.00  0.00    -0.269 OA
BRANCH  29  32
ATOM     32  C   UNL A   1      41.041  26.194  27.335  1.00  0.00     0.039 A 
ATOM     33  C   UNL A   1      41.963  27.234  27.478  1.00  0.00     0.014 A 
ATOM     34  C   UNL A   1      40.061  25.979  28.307  1.00  0.00     0.014 A 
ATOM     35  C   UNL A   1      41.857  28.102  28.566  1.00  0.00     0.010 A 
ATOM     36  C   UNL A   1      39.907  26.893  29.344  1.00  0.00     0.010 A 
ATOM     37  C   UNL A   1      40.808  27.958  29.489  1.00  0.00    -0.014 A 
BRANCH  37  38
ATOM     38  C   UNL A   1      40.646  28.902  30.625  1.00  0.00     0.031 A 
ATOM     39  C   UNL A   1      41.515  28.756  31.844  1.00  0.00     0.074 A 
ATOM     40  C   UNL A   1      39.684  29.843  30.584  1.00  0.00     0.049 A 
ATOM     41  N   UNL A   1      41.483  29.427  32.966  1.00  0.00    -0.248 NA
ATOM     42  C   UNL A   1      42.532  27.693  31.810  1.00  0.00     0.031 C 
ATOM     43  C   UNL A   1      38.746  30.050  29.476  1.00  0.00     0.029 A 
ATOM     44  N   UNL A   1      39.326  30.799  31.502  1.00  0.00    -0.354 N 
ATOM     45  C   UNL A   1      42.461  28.859  33.774  1.00  0.00     0.074 A 
ATOM     46  C   UNL A   1      43.026  27.750  33.038  1.00  0.00     0.031 C 
ATOM     47  C   UNL A   1      37.940  31.084  29.770  1.00  0.00     0.029 A 
ATOM     48  C   UNL A   1      38.277  31.590  31.097  1.00  0.00     0.049 A 
ATOM     49  H   UNL A   1      39.779  30.908  32.369  1.00  0.00     0.167 HD
ATOM     50  C   UNL A   1      42.869  29.241  35.008  1.00  0.00     0.037 A 
ATOM     51  C   UNL A   1      37.656  32.607  31.725  1.00  0.00     0.037 A 
ATOM     52  C   UNL A   1      42.322  30.365  35.722  1.00  0.00     0.049 A 
ATOM     53  C   UNL A   1      38.136  33.024  33.089  1.00  0.00     0.074 A 
ATOM     54  C   UNL A   1      42.699  30.869  36.954  1.00  0.00     0.029 A 
ATOM     55  N   UNL A   1      41.282  31.162  35.264  1.00  0.00    -0.354 N 
ATOM     56  N   UNL A   1      39.098  32.510  33.818  1.00  0.00    -0.248 NA
ATOM     57  C   UNL A   1      37.452  34.164  33.714  1.00  0.00     0.031 C 
ATOM     58  C   UNL A   1      41.862  31.948  37.257  1.00  0.00     0.029 A 
ATOM     59  C   UNL A   1      40.997  32.147  36.194  1.00  0.00     0.049 A 
ATOM     60  H   UNL A   1      40.816  31.044  34.404  1.00  0.00     0.167 HD
ATOM     61  C   UNL A   1      39.159  33.285  34.971  1.00  0.00     0.074 A 
ATOM     62  C   UNL A   1      38.140  34.306  34.840  1.00  0.00     0.031 C 
ATOM     63  C   UNL A   1      39.986  33.164  36.039  1.00  0.00     0.037 A 
BRANCH  50  64
ATOM     64  C   UNL A   1      43.965  28.439  35.655  1.00  0.00     0.058 A 
ATOM     65  C   UNL A   1      45.320  28.718  35.419  1.00  0.00     0.135 A 
ATOM     66  C   UNL A   1      43.658  27.385  36.531  1.00  0.00     0.135 A 
ATOM     67  F   UNL A   1      45.672  29.703  34.577  1.00  0.00    -0.206 F 
ATOM     68  C   UNL A   1      46.333  27.958  35.996  1.00  0.00     0.059 A 
ATOM     69  C   UNL A   1      44.655  26.630  37.144  1.00  0.00     0.059 A 
ATOM     70  F   UNL A   1      42.379  27.074  36.794  1.00  0.00    -0.206 F 
ATOM     71  C   UNL A   1      45.989  26.913  36.855  1.00  0.00     0.060 A 
BRANCH  71  72
ATOM     72  S   UNL A   1      47.313  25.931  37.590  1.00  0.00     0.124 S 
ATOM     73  O   UNL A   1      48.391  26.132  36.626  1.00  0.00    -0.237 OA
ATOM     74  O   UNL A   1      47.496  26.573  38.888  1.00  0.00    -0.237 OA
ATOM     75  O   UNL A   1      46.754  24.585  37.634  1.00  0.00    -0.744 OA
ENDBRANCH  71  72
ENDBRANCH  50  64
BRANCH  51  76
ATOM     76  C   UNL A   1      36.539  33.324  31.054  1.00  0.00     0.058 A 
ATOM     77  C   UNL A   1      36.784  34.188  29.976  1.00  0.00     0.135 A 
ATOM     78  C   UNL A   1      35.208  33.151  31.463  1.00  0.00     0.135 A 
ATOM     79  F   UNL A   1      38.041  34.391  29.552  1.00  0.00    -0.206 F 
ATOM     80  C   UNL A   1      35.752  34.865  29.334  1.00  0.00     0.059 A 
ATOM     81  C   UNL A   1      34.155  33.797  30.820  1.00  0.00     0.059 A 
ATOM     82  F   UNL A   1      34.919  32.322  32.477  1.00  0.00    -0.206 F 
ATOM     83  C   UNL A   1      34.440  34.660  29.762  1.00  0.00     0.060 A 
BRANCH  83  84
ATOM     84  S   UNL A   1      33.103  35.502  28.887  1.00  0.00     0.124 S 
ATOM     85  O   UNL A   1      32.515  34.407  28.124  1.00  0.00    -0.237 OA
ATOM     86  O   UNL A   1      32.295  36.020  29.987  1.00  0.00    -0.237 OA
ATOM     87  O   UNL A   1      33.802  36.515  28.101  1.00  0.00    -0.744 OA
ENDBRANCH  83  84
ENDBRANCH  51  76
BRANCH  63  88
ATOM     88  C   UNL A   1      39.859  34.189  37.131  1.00  0.00     0.058 A 
ATOM     89  C   UNL A   1      39.065  33.967  38.266  1.00  0.00     0.135 A 
ATOM     90  C   UNL A   1      40.586  35.389  37.063  1.00  0.00     0.135 A 
ATOM     91  F   UNL A   1      38.345  32.840  38.379  1.00  0.00    -0.206 F 
ATOM     92  C   UNL A   1      38.977  34.910  39.286  1.00  0.00     0.059 A 
ATOM     93  C   UNL A   1      40.536  36.334  38.081  1.00  0.00     0.059 A 
ATOM     94  F   UNL A   1      41.370  35.645  36.002  1.00  0.00    -0.206 F 
ATOM     95  C   UNL A   1      39.718  36.091  39.185  1.00  0.00     0.060 A 
BRANCH  95  96
ATOM     96  S   UNL A   1      39.621  37.292  40.528  1.00  0.00     0.124 S 
ATOM     97  O   UNL A   1      40.800  38.113  40.273  1.00  0.00    -0.237 OA
ATOM     98  O   UNL A   1      38.334  37.936  40.281  1.00  0.00    -0.237 OA
ATOM     99  O   UNL A   1      39.680  36.463  41.728  1.00  0.00    -0.744 OA
ENDBRANCH  95  96
ENDBRANCH  63  88
ENDBRANCH  37  38
ENDBRANCH  29  32
ENDBRANCH  27  28
ENDBRANCH  26  27
ENDBRANCH   1  26
TORSDOF 17
ENDMDL
MODEL 3
REMARK VINA RESULT:     -11.5      2.674      3.476
REMARK SMILES C[C@@H]1[C@@H](C(=O)NCCCCNC(=O)c2ccc(-c3c4nc(c(-c5c(F)cc(S(=O)(=O)[O-])cc5F)c5ccc([nH]5)c(-c5c(F)cc(S(=O)(=O)[O-])cc5F)c5nc(c(-c6c(F)cc(S(=O)(=O)[O-])cc6F)c6ccc3[nH]6)C=C5)C=C4)cc2)CCN1C(=O)[C@@H]1CCCN(C(N)=O)C1
REMARK SMILES IDX 8 1 7 2 6 3 4 4 5 5 3 7 1 8 2 9 82 10 80 11 81 12 83 13
REMARK SMILES IDX 84 14 85 15 86 16 93 17 87 18 89 19 88 20 90 21 91 22 92 23
REMARK SMILES IDX 9 26 10 27 11 28 12 29 13 31 14 32 15 33 79 34 16 35 78 36
REMARK SMILES IDX 17 37 18 38 19 39 72 40 20 41 77 42 71 43 73 44 21 45 76 46
REMARK SMILES IDX 70 47 69 48 22 50 56 51 35 52 55 53 36 54 39 55 54 56 74 57
REMARK SMILES IDX 37 58 38 59 53 61 75 62 40 63 23 64 24 65 33 66 25 67 26 68
REMARK SMILES IDX 32 69 34 70 27 71 28 72 29 73 30 74 31 75 57 76 58 77 67 78
REMARK SMILES IDX 59 79 60 80 66 81 68 82 61 83 62 84 63 85 64 86 65 87 41 88
REMARK SMILES IDX 42 89 51 90 43 91 44 92 50 93 52 94 45 95 46 96 47 97 48 98
REMARK SMILES IDX 49 99
REMARK H PARENT 6 6 91 24 91 25 11 30 73 49 39 60
REMARK Flexibility Score: inf
ROOT
ATOM      1  C   UNL A   1      33.943  28.161  23.386  1.00  0.00     0.023 C 
ENDROOT
BRANCH   1   2
ATOM      2  C   UNL A   1      33.217  27.335  22.330  1.00  0.00     0.116 C 
BRANCH   2   3
ATOM      3  N   UNL A   1      33.622  25.942  22.314  1.00  0.00    -0.356 N 
ATOM      4  C   UNL A   1      32.879  24.836  22.622  1.00  0.00     0.225 C 
ATOM      5  O   UNL A   1      33.334  23.729  22.342  1.00  0.00    -0.275 OA
ATOM      6  H   UNL A   1      34.553  25.770  22.046  1.00  0.00     0.163 HD
BRANCH   4   7
ATOM      7  C   UNL A   1      31.517  25.040  23.263  1.00  0.00     0.102 C 
ATOM      8  C   UNL A   1      30.300  26.090  25.176  1.00  0.00     0.032 C 
ATOM      9  C   UNL A   1      31.578  25.332  24.778  1.00  0.00     0.094 C 
ATOM     10  N   UNL A   1      31.620  24.005  25.401  1.00  0.00    -0.339 N 
ATOM     11  C   UNL A   1      30.711  23.740  23.216  1.00  0.00     0.037 C 
ATOM     12  C   UNL A   1      31.200  22.989  24.443  1.00  0.00     0.120 C 
BRANCH  10  13
ATOM     13  C   UNL A   1      32.131  23.571  26.601  1.00  0.00     0.227 C 
ATOM     14  O   UNL A   1      31.406  23.621  27.608  1.00  0.00    -0.275 OA
BRANCH  13  15
ATOM     15  C   UNL A   1      33.535  22.978  26.800  1.00  0.00     0.098 C 
ATOM     16  C   UNL A   1      34.704  23.568  26.015  1.00  0.00     0.017 C 
ATOM     17  C   UNL A   1      33.557  21.458  26.912  1.00  0.00     0.134 C 
ATOM     18  C   UNL A   1      35.198  22.740  24.833  1.00  0.00     0.022 C 
ATOM     19  N   UNL A   1      33.915  20.787  25.667  1.00  0.00    -0.324 N 
ATOM     20  C   UNL A   1      35.151  21.234  25.041  1.00  0.00     0.121 C 
BRANCH  19  21
ATOM     21  C   UNL A   1      33.356  19.606  25.230  1.00  0.00     0.314 C 
ATOM     22  N   UNL A   1      34.206  18.582  25.002  1.00  0.00    -0.351 N 
ATOM     23  O   UNL A   1      32.155  19.445  25.031  1.00  0.00    -0.249 OA
ATOM     24  H   UNL A   1      35.172  18.700  25.159  1.00  0.00     0.161 HD
ATOM     25  H   UNL A   1      33.863  17.718  24.680  1.00  0.00     0.161 HD
ENDBRANCH  19  21
ENDBRANCH  13  15
ENDBRANCH  10  13
ENDBRANCH   4   7
ENDBRANCH   2   3
ENDBRANCH   1   2
BRANCH   1  26
ATOM     26  C   UNL A   1      33.178  28.382  24.690  1.00  0.00     0.023 C 
BRANCH  26  27
ATOM     27  C   UNL A   1      34.023  28.775  25.895  1.00  0.00     0.116 C 
BRANCH  27  28
ATOM     28  N   UNL A   1      33.727  30.110  26.390  1.00  0.00    -0.352 N 
ATOM     29  C   UNL A   1      34.367  30.836  27.365  1.00  0.00     0.251 C 
ATOM     30  H   UNL A   1      32.959  30.556  25.968  1.00  0.00     0.163 HD
ATOM     31  O   UNL A   1      33.900  31.910  27.736  1.00  0.00    -0.269 OA
BRANCH  29  32
ATOM     32  C   UNL A   1      35.594  30.299  27.985  1.00  0.00     0.039 A 
ATOM     33  C   UNL A   1      36.815  30.483  27.332  1.00  0.00     0.014 A 
ATOM     34  C   UNL A   1      35.543  29.649  29.221  1.00  0.00     0.014 A 
ATOM     35  C   UNL A   1      37.996  30.074  27.954  1.00  0.00     0.010 A 
ATOM     36  C   UNL A   1      36.726  29.318  29.874  1.00  0.00     0.010 A 
ATOM     37  C   UNL A   1      37.963  29.520  29.244  1.00  0.00    -0.014 A 
BRANCH  37  38
ATOM     38  C   UNL A   1      39.212  29.126  29.945  1.00  0.00     0.031 A 
ATOM     39  C   UNL A   1      39.626  29.852  31.196  1.00  0.00     0.074 A 
ATOM     40  C   UNL A   1      39.998  28.163  29.425  1.00  0.00     0.049 A 
ATOM     41  N   UNL A   1      40.710  29.710  31.913  1.00  0.00    -0.248 NA
ATOM     42  C   UNL A   1      38.715  30.897  31.688  1.00  0.00     0.031 C 
ATOM     43  C   UNL A   1      39.727  27.422  28.190  1.00  0.00     0.029 A 
ATOM     44  N   UNL A   1      41.191  27.648  29.864  1.00  0.00    -0.354 N 
ATOM     45  C   UNL A   1      40.620  30.657  32.926  1.00  0.00     0.074 A 
ATOM     46  C   UNL A   1      39.405  31.407  32.697  1.00  0.00     0.031 C 
ATOM     47  C   UNL A   1      40.712  26.531  27.987  1.00  0.00     0.029 A 
ATOM     48  C   UNL A   1      41.700  26.660  29.054  1.00  0.00     0.049 A 
ATOM     49  H   UNL A   1      41.641  27.955  30.684  1.00  0.00     0.167 HD
ATOM     50  C   UNL A   1      41.459  30.865  33.969  1.00  0.00     0.037 A 
ATOM     51  C   UNL A   1      42.835  25.943  29.157  1.00  0.00     0.037 A 
ATOM     52  C   UNL A   1      42.651  30.094  34.207  1.00  0.00     0.049 A 
ATOM     53  C   UNL A   1      43.746  26.182  30.331  1.00  0.00     0.074 A 
ATOM     54  C   UNL A   1      43.542  30.189  35.261  1.00  0.00     0.029 A 
ATOM     55  N   UNL A   1      43.115  29.080  33.380  1.00  0.00    -0.354 N 
ATOM     56  N   UNL A   1      43.618  27.045  31.311  1.00  0.00    -0.248 NA
ATOM     57  C   UNL A   1      44.949  25.345  30.420  1.00  0.00     0.031 C 
ATOM     58  C   UNL A   1      44.566  29.258  35.051  1.00  0.00     0.029 A 
ATOM     59  C   UNL A   1      44.286  28.550  33.894  1.00  0.00     0.049 A 
ATOM     60  H   UNL A   1      42.676  28.783  32.551  1.00  0.00     0.167 HD
ATOM     61  C   UNL A   1      44.706  26.832  32.151  1.00  0.00     0.074 A 
ATOM     62  C   UNL A   1      45.478  25.754  31.566  1.00  0.00     0.031 C 
ATOM     63  C   UNL A   1      45.034  27.467  33.303  1.00  0.00     0.037 A 
BRANCH  50  64
ATOM     64  C   UNL A   1      41.109  31.968  34.931  1.00  0.00     0.058 A 
ATOM     65  C   UNL A   1      41.629  33.264  34.787  1.00  0.00     0.135 A 
ATOM     66  C   UNL A   1      40.232  31.731  36.002  1.00  0.00     0.135 A 
ATOM     67  F   UNL A   1      42.484  33.544  33.791  1.00  0.00    -0.206 F 
ATOM     68  C   UNL A   1      41.325  34.276  35.692  1.00  0.00     0.059 A 
ATOM     69  C   UNL A   1      39.890  32.736  36.903  1.00  0.00     0.059 A 
ATOM     70  F   UNL A   1      39.705  30.510  36.187  1.00  0.00    -0.206 F 
ATOM     71  C   UNL A   1      40.457  34.000  36.750  1.00  0.00     0.060 A 
BRANCH  71  72
ATOM     72  S   UNL A   1      40.079  35.321  37.921  1.00  0.00     0.124 S 
ATOM     73  O   UNL A   1      39.837  36.445  37.020  1.00  0.00    -0.237 OA
ATOM     74  O   UNL A   1      38.904  34.800  38.613  1.00  0.00    -0.237 OA
ATOM     75  O   UNL A   1      41.289  35.414  38.730  1.00  0.00    -0.744 OA
ENDBRANCH  71  72
ENDBRANCH  50  64
BRANCH  51  76
ATOM     76  C   UNL A   1      43.154  24.905  28.140  1.00  0.00     0.058 A 
ATOM     77  C   UNL A   1      43.785  25.247  26.936  1.00  0.00     0.135 A 
ATOM     78  C   UNL A   1      42.850  23.552  28.358  1.00  0.00     0.135 A 
ATOM     79  F   UNL A   1      44.090  26.528  26.680  1.00  0.00    -0.206 F 
ATOM     80  C   UNL A   1      44.094  24.289  25.975  1.00  0.00     0.059 A 
ATOM     81  C   UNL A   1      43.172  22.571  27.423  1.00  0.00     0.059 A 
ATOM     82  F   UNL A   1      42.263  23.170  29.502  1.00  0.00    -0.206 F 
ATOM     83  C   UNL A   1      43.786  22.952  26.230  1.00  0.00     0.060 A 
BRANCH  83  84
ATOM     84  S   UNL A   1      44.239  21.710  25.000  1.00  0.00     0.124 S 
ATOM     85  O   UNL A   1      45.616  21.413  25.376  1.00  0.00    -0.237 OA
ATOM     86  O   UNL A   1      43.264  20.654  25.257  1.00  0.00    -0.237 OA
ATOM     87  O   UNL A   1      44.068  22.415  23.733  1.00  0.00    -0.744 OA
ENDBRANCH  83  84
ENDBRANCH  51  76
BRANCH  63  88
ATOM     88  C   UNL A   1      46.253  26.984  34.037  1.00  0.00     0.058 A 
ATOM     89  C   UNL A   1      47.520  27.544  33.816  1.00  0.00     0.135 A 
ATOM     90  C   UNL A   1      46.140  25.981  35.013  1.00  0.00     0.135 A 
ATOM     91  F   UNL A   1      47.685  28.501  32.889  1.00  0.00    -0.206 F 
ATOM     92  C   UNL A   1      48.639  27.110  34.521  1.00  0.00     0.059 A 
ATOM     93  C   UNL A   1      47.237  25.550  35.750  1.00  0.00     0.059 A 
ATOM     94  F   UNL A   1      44.947  25.421  35.271  1.00  0.00    -0.206 F 
ATOM     95  C   UNL A   1      48.487  26.112  35.488  1.00  0.00     0.060 A 
BRANCH  95  96
ATOM     96  S   UNL A   1      49.937  25.580  36.419  1.00  0.00     0.124 S 
ATOM     97  O   UNL A   1      50.147  26.716  37.311  1.00  0.00    -0.237 OA
ATOM     98  O   UNL A   1      49.470  24.352  37.055  1.00  0.00    -0.237 OA
ATOM     99  O   UNL A   1      50.954  25.396  35.388  1.00  0.00    -0.744 OA
ENDBRANCH  95  96
ENDBRANCH  63  88
ENDBRANCH  37  38
ENDBRANCH  29  32
ENDBRANCH  27  28
ENDBRANCH  26  27
ENDBRANCH   1  26
TORSDOF 17
ENDMDL
