MODEL 1
REMARK VINA RESULT:     -11.1      0.000      0.000
REMARK SMILES CCC[NH2+]C[C@H]1CCC[N@@H+](Cc2ccc(C(=O)NCCCCNC(=O)c3ccc(-c4c5nc(c(-c6c(F)cc(S(=O)(=O)[O-])cc6F)c6ccc([nH]6)c(-c6c(F)cc(S(=O)(=O)[O-])cc6F)c6nc(c(-c7c(F)cc(S(=O)(=O)[O-])cc7F)c7ccc4[nH]7)C=C6)C=C5)cc3)cc2)C1
REMARK SMILES IDX 19 1 18 2 16 3 17 4 15 6 12 7 13 8 93 9 14 10 92 11 11 12
REMARK SMILES IDX 10 13 6 14 7 15 94 16 8 17 9 18 5 20 4 21 3 24 2 25 1 26
REMARK SMILES IDX 20 27 21 28 22 29 23 30 24 31 25 33 26 34 27 35 91 36 28 37
REMARK SMILES IDX 90 38 29 39 30 40 31 41 84 42 32 43 89 44 83 45 85 46 33 47
REMARK SMILES IDX 88 48 82 49 81 50 34 52 68 53 47 54 67 55 48 56 51 57 66 58
REMARK SMILES IDX 86 59 49 60 50 61 65 63 87 64 52 65 35 66 36 67 45 68 37 69
REMARK SMILES IDX 38 70 44 71 46 72 39 73 40 74 41 75 42 76 43 77 69 78 70 79
REMARK SMILES IDX 79 80 71 81 72 82 78 83 80 84 73 85 74 86 75 87 76 88 77 89
REMARK SMILES IDX 53 90 54 91 63 92 55 93 56 94 62 95 64 96 57 97 58 98 59 99
REMARK SMILES IDX 60 100 61 101
REMARK H PARENT 18 5 10 19 4 22 4 23 23 32 85 51 51 62
REMARK Flexibility Score: inf
ROOT
ATOM      1  C   UNL A   1      31.348  29.641  25.007  1.00  0.00     0.116 C 
ENDROOT
BRANCH   1   2
ATOM      2  N   UNL A   1      30.785  29.741  23.672  1.00  0.00    -0.352 N 
ATOM      3  C   UNL A   1      30.475  28.766  22.756  1.00  0.00     0.251 C 
ATOM      4  O   UNL A   1      29.897  29.080  21.717  1.00  0.00    -0.269 OA
ATOM      5  H   UNL A   1      30.596  30.660  23.374  1.00  0.00     0.163 HD
BRANCH   3   6
ATOM      6  C   UNL A   1      30.754  27.334  23.020  1.00  0.00     0.039 A 
ATOM      7  C   UNL A   1      31.294  24.590  23.286  1.00  0.00     0.006 A 
ATOM      8  C   UNL A   1      32.195  25.427  22.614  1.00  0.00     0.010 A 
ATOM      9  C   UNL A   1      30.177  25.161  23.912  1.00  0.00     0.010 A 
ATOM     10  C   UNL A   1      31.926  26.790  22.481  1.00  0.00     0.014 A 
ATOM     11  C   UNL A   1      29.917  26.526  23.790  1.00  0.00     0.014 A 
BRANCH   7  12
ATOM     12  C   UNL A   1      31.480  23.088  23.280  1.00  0.00     0.299 C 
BRANCH  12  13
ATOM     13  N   UNL A   1      32.151  22.522  24.466  1.00  0.00    -0.331 N 
ATOM     14  C   UNL A   1      33.978  21.101  25.362  1.00  0.00     0.099 C 
ATOM     15  C   UNL A   1      34.134  22.053  26.558  1.00  0.00     0.021 C 
ATOM     16  C   UNL A   1      33.428  21.867  24.147  1.00  0.00     0.271 C 
ATOM     17  C   UNL A   1      32.830  22.803  26.820  1.00  0.00     0.062 C 
ATOM     18  C   UNL A   1      32.309  23.489  25.556  1.00  0.00     0.262 C 
ATOM     19  H   UNL A   1      31.519  21.795  24.801  1.00  0.00     0.348 HD
BRANCH  14  20
ATOM     20  C   UNL A   1      35.307  20.416  24.977  1.00  0.00     0.269 C 
BRANCH  20  21
ATOM     21  N   UNL A   1      36.512  21.073  25.489  1.00  0.00    -0.346 N 
ATOM     22  H   UNL A   1      36.254  21.661  26.281  1.00  0.00     0.346 HD
ATOM     23  H   UNL A   1      37.170  20.343  25.765  1.00  0.00     0.346 HD
BRANCH  21  24
ATOM     24  C   UNL A   1      37.167  21.903  24.481  1.00  0.00     0.260 C 
BRANCH  24  25
ATOM     25  C   UNL A   1      36.974  23.397  24.754  1.00  0.00     0.058 C 
ATOM     26  C   UNL A   1      37.757  23.898  25.959  1.00  0.00     0.010 C 
ENDBRANCH  24  25
ENDBRANCH  21  24
ENDBRANCH  20  21
ENDBRANCH  14  20
ENDBRANCH  12  13
ENDBRANCH   7  12
ENDBRANCH   3   6
ENDBRANCH   1   2
BRANCH   1  27
ATOM     27  C   UNL A   1      32.873  29.524  24.960  1.00  0.00     0.023 C 
BRANCH  27  28
ATOM     28  C   UNL A   1      33.438  28.279  25.647  1.00  0.00     0.023 C 
BRANCH  28  29
ATOM     29  C   UNL A   1      33.726  28.435  27.135  1.00  0.00     0.116 C 
BRANCH  29  30
ATOM     30  N   UNL A   1      33.594  29.807  27.602  1.00  0.00    -0.352 N 
ATOM     31  C   UNL A   1      34.532  30.593  28.231  1.00  0.00     0.251 C 
ATOM     32  H   UNL A   1      32.718  30.227  27.448  1.00  0.00     0.163 HD
ATOM     33  O   UNL A   1      34.219  31.694  28.663  1.00  0.00    -0.269 OA
BRANCH  31  34
ATOM     34  C   UNL A   1      35.906  30.076  28.416  1.00  0.00     0.039 A 
ATOM     35  C   UNL A   1      36.795  30.128  27.339  1.00  0.00     0.014 A 
ATOM     36  C   UNL A   1      36.323  29.574  29.651  1.00  0.00     0.014 A 
ATOM     37  C   UNL A   1      38.124  29.742  27.521  1.00  0.00     0.010 A 
ATOM     38  C   UNL A   1      37.662  29.254  29.849  1.00  0.00     0.010 A 
ATOM     39  C   UNL A   1      38.576  29.337  28.788  1.00  0.00    -0.014 A 
BRANCH  39  40
ATOM     40  C   UNL A   1      40.004  29.008  29.027  1.00  0.00     0.031 A 
ATOM     41  C   UNL A   1      40.935  30.049  29.583  1.00  0.00     0.074 A 
ATOM     42  C   UNL A   1      40.477  27.798  28.669  1.00  0.00     0.049 A 
ATOM     43  N   UNL A   1      42.224  29.977  29.794  1.00  0.00    -0.248 NA
ATOM     44  C   UNL A   1      40.343  31.354  29.920  1.00  0.00     0.031 C 
ATOM     45  C   UNL A   1      39.683  26.723  28.069  1.00  0.00     0.029 A 
ATOM     46  N   UNL A   1      41.741  27.272  28.748  1.00  0.00    -0.354 N 
ATOM     47  C   UNL A   1      42.601  31.227  30.268  1.00  0.00     0.074 A 
ATOM     48  C   UNL A   1      41.413  32.054  30.270  1.00  0.00     0.031 C 
ATOM     49  C   UNL A   1      40.474  25.659  27.857  1.00  0.00     0.029 A 
ATOM     50  C   UNL A   1      41.835  25.985  28.272  1.00  0.00     0.049 A 
ATOM     51  H   UNL A   1      42.509  27.769  29.111  1.00  0.00     0.167 HD
ATOM     52  C   UNL A   1      43.821  31.643  30.684  1.00  0.00     0.037 A 
ATOM     53  C   UNL A   1      42.897  25.163  28.180  1.00  0.00     0.037 A 
ATOM     54  C   UNL A   1      44.991  30.806  30.710  1.00  0.00     0.049 A 
ATOM     55  C   UNL A   1      44.239  25.640  28.662  1.00  0.00     0.074 A 
ATOM     56  C   UNL A   1      46.257  31.109  31.181  1.00  0.00     0.029 A 
ATOM     57  N   UNL A   1      45.041  29.500  30.243  1.00  0.00    -0.354 N 
ATOM     58  N   UNL A   1      44.564  26.803  29.172  1.00  0.00    -0.248 NA
ATOM     59  C   UNL A   1      45.357  24.691  28.562  1.00  0.00     0.031 C 
ATOM     60  C   UNL A   1      47.081  29.998  30.965  1.00  0.00     0.029 A 
ATOM     61  C   UNL A   1      46.320  28.990  30.397  1.00  0.00     0.049 A 
ATOM     62  H   UNL A   1      44.279  29.008  29.859  1.00  0.00     0.167 HD
ATOM     63  C   UNL A   1      45.918  26.719  29.478  1.00  0.00     0.074 A 
ATOM     64  C   UNL A   1      46.349  25.388  29.102  1.00  0.00     0.031 C 
ATOM     65  C   UNL A   1      46.731  27.659  30.022  1.00  0.00     0.037 A 
BRANCH  52  66
ATOM     66  C   UNL A   1      43.947  33.069  31.144  1.00  0.00     0.058 A 
ATOM     67  C   UNL A   1      43.692  33.439  32.475  1.00  0.00     0.135 A 
ATOM     68  C   UNL A   1      44.335  34.077  30.248  1.00  0.00     0.135 A 
ATOM     69  F   UNL A   1      43.303  32.517  33.370  1.00  0.00    -0.206 F 
ATOM     70  C   UNL A   1      43.781  34.763  32.892  1.00  0.00     0.059 A 
ATOM     71  C   UNL A   1      44.457  35.404  30.649  1.00  0.00     0.059 A 
ATOM     72  F   UNL A   1      44.592  33.779  28.965  1.00  0.00    -0.206 F 
ATOM     73  C   UNL A   1      44.158  35.740  31.969  1.00  0.00     0.060 A 
BRANCH  73  74
ATOM     74  S   UNL A   1      44.251  37.458  32.519  1.00  0.00     0.124 S 
ATOM     75  O   UNL A   1      45.655  37.563  32.902  1.00  0.00    -0.237 OA
ATOM     76  O   UNL A   1      43.866  38.193  31.318  1.00  0.00    -0.237 OA
ATOM     77  O   UNL A   1      43.293  37.513  33.618  1.00  0.00    -0.744 OA
ENDBRANCH  73  74
ENDBRANCH  52  66
BRANCH  53  78
ATOM     78  C   UNL A   1      42.722  23.788  27.642  1.00  0.00     0.058 A 
ATOM     79  C   UNL A   1      42.492  22.705  28.504  1.00  0.00     0.135 A 
ATOM     80  C   UNL A   1      42.750  23.532  26.263  1.00  0.00     0.135 A 
ATOM     81  F   UNL A   1      42.463  22.901  29.830  1.00  0.00    -0.206 F 
ATOM     82  C   UNL A   1      42.302  21.416  28.020  1.00  0.00     0.059 A 
ATOM     83  C   UNL A   1      42.542  22.254  25.753  1.00  0.00     0.059 A 
ATOM     84  F   UNL A   1      42.950  24.538  25.396  1.00  0.00    -0.206 F 
ATOM     85  C   UNL A   1      42.324  21.201  26.640  1.00  0.00     0.060 A 
BRANCH  85  86
ATOM     86  S   UNL A   1      42.012  19.534  26.019  1.00  0.00     0.124 S 
ATOM     87  O   UNL A   1      40.581  19.585  25.746  1.00  0.00    -0.237 OA
ATOM     88  O   UNL A   1      42.884  19.474  24.849  1.00  0.00    -0.237 OA
ATOM     89  O   UNL A   1      42.414  18.681  27.134  1.00  0.00    -0.744 OA
ENDBRANCH  85  86
ENDBRANCH  53  78
BRANCH  65  90
ATOM     90  C   UNL A   1      48.160  27.273  30.273  1.00  0.00     0.058 A 
ATOM     91  C   UNL A   1      49.156  27.467  29.303  1.00  0.00     0.135 A 
ATOM     92  C   UNL A   1      48.548  26.754  31.518  1.00  0.00     0.135 A 
ATOM     93  F   UNL A   1      48.836  27.953  28.094  1.00  0.00    -0.206 F 
ATOM     94  C   UNL A   1      50.485  27.139  29.553  1.00  0.00     0.059 A 
ATOM     95  C   UNL A   1      49.874  26.442  31.799  1.00  0.00     0.059 A 
ATOM     96  F   UNL A   1      47.635  26.559  32.484  1.00  0.00    -0.206 F 
ATOM     97  C   UNL A   1      50.834  26.629  30.805  1.00  0.00     0.060 A 
BRANCH  97  98
ATOM     98  S   UNL A   1      52.568  26.243  31.131  1.00  0.00     0.124 S 
ATOM     99  O   UNL A   1      52.462  24.942  31.784  1.00  0.00    -0.237 OA
ATOM    100  O   UNL A   1      53.146  26.236  29.791  1.00  0.00    -0.237 OA
ATOM    101  O   UNL A   1      53.004  27.343  31.987  1.00  0.00    -0.744 OA
ENDBRANCH  97  98
ENDBRANCH  65  90
ENDBRANCH  39  40
ENDBRANCH  31  34
ENDBRANCH  29  30
ENDBRANCH  28  29
ENDBRANCH  27  28
ENDBRANCH   1  27
TORSDOF 20
ENDMDL
MODEL 2
REMARK VINA RESULT:     -10.2      3.688      6.604
REMARK SMILES CCC[NH2+]C[C@H]1CCC[N@@H+](Cc2ccc(C(=O)NCCCCNC(=O)c3ccc(-c4c5nc(c(-c6c(F)cc(S(=O)(=O)[O-])cc6F)c6ccc([nH]6)c(-c6c(F)cc(S(=O)(=O)[O-])cc6F)c6nc(c(-c7c(F)cc(S(=O)(=O)[O-])cc7F)c7ccc4[nH]7)C=C6)C=C5)cc3)cc2)C1
REMARK SMILES IDX 19 1 18 2 16 3 17 4 15 6 12 7 13 8 93 9 14 10 92 11 11 12
REMARK SMILES IDX 10 13 6 14 7 15 94 16 8 17 9 18 5 20 4 21 3 24 2 25 1 26
REMARK SMILES IDX 20 27 21 28 22 29 23 30 24 31 25 33 26 34 27 35 91 36 28 37
REMARK SMILES IDX 90 38 29 39 30 40 31 41 84 42 32 43 89 44 83 45 85 46 33 47
REMARK SMILES IDX 88 48 82 49 81 50 34 52 68 53 47 54 67 55 48 56 51 57 66 58
REMARK SMILES IDX 86 59 49 60 50 61 65 63 87 64 52 65 35 66 36 67 45 68 37 69
REMARK SMILES IDX 38 70 44 71 46 72 39 73 40 74 41 75 42 76 43 77 69 78 70 79
REMARK SMILES IDX 79 80 71 81 72 82 78 83 80 84 73 85 74 86 75 87 76 88 77 89
REMARK SMILES IDX 53 90 54 91 63 92 55 93 56 94 62 95 64 96 57 97 58 98 59 99
REMARK SMILES IDX 60 100 61 101
REMARK H PARENT 18 5 10 19 4 22 4 23 23 32 85 51 51 62
REMARK Flexibility Score: inf
ROOT
ATOM      1  C   UNL A   1      33.554  36.331  29.707  1.00  0.00     0.116 C 
ENDROOT
BRANCH   1   2
ATOM      2  N   UNL A   1      33.001  36.813  30.961  1.00  0.00    -0.352 N 
ATOM      3  C   UNL A   1      33.214  36.394  32.252  1.00  0.00     0.251 C 
ATOM      4  O   UNL A   1      32.716  37.029  33.179  1.00  0.00    -0.269 OA
ATOM      5  H   UNL A   1      32.370  37.561  30.871  1.00  0.00     0.163 HD
BRANCH   3   6
ATOM      6  C   UNL A   1      34.089  35.237  32.560  1.00  0.00     0.039 A 
ATOM      7  C   UNL A   1      35.838  33.070  32.929  1.00  0.00     0.006 A 
ATOM      8  C   UNL A   1      36.342  34.346  32.636  1.00  0.00     0.010 A 
ATOM      9  C   UNL A   1      34.461  32.918  33.137  1.00  0.00     0.010 A 
ATOM     10  C   UNL A   1      35.472  35.422  32.452  1.00  0.00     0.014 A 
ATOM     11  C   UNL A   1      33.594  33.998  32.967  1.00  0.00     0.014 A 
BRANCH   7  12
ATOM     12  C   UNL A   1      36.752  31.863  32.950  1.00  0.00     0.299 C 
BRANCH  12  13
ATOM     13  N   UNL A   1      37.439  31.603  34.229  1.00  0.00    -0.331 N 
ATOM     14  C   UNL A   1      39.403  30.634  35.395  1.00  0.00     0.099 C 
ATOM     15  C   UNL A   1      39.363  31.780  36.418  1.00  0.00     0.021 C 
ATOM     16  C   UNL A   1      38.809  31.103  34.056  1.00  0.00     0.271 C 
ATOM     17  C   UNL A   1      37.954  32.360  36.519  1.00  0.00     0.062 C 
ATOM     18  C   UNL A   1      37.403  32.747  35.146  1.00  0.00     0.262 C 
ATOM     19  H   UNL A   1      36.901  30.854  34.666  1.00  0.00     0.348 HD
BRANCH  14  20
ATOM     20  C   UNL A   1      40.833  30.102  35.163  1.00  0.00     0.269 C 
BRANCH  20  21
ATOM     21  N   UNL A   1      41.000  28.661  35.370  1.00  0.00    -0.346 N 
ATOM     22  H   UNL A   1      40.813  28.448  36.350  1.00  0.00     0.346 HD
ATOM     23  H   UNL A   1      40.346  28.181  34.751  1.00  0.00     0.346 HD
BRANCH  21  24
ATOM     24  C   UNL A   1      42.346  28.201  35.038  1.00  0.00     0.260 C 
BRANCH  24  25
ATOM     25  C   UNL A   1      42.665  28.383  33.551  1.00  0.00     0.058 C 
ATOM     26  C   UNL A   1      43.364  27.182  32.932  1.00  0.00     0.010 C 
ENDBRANCH  24  25
ENDBRANCH  21  24
ENDBRANCH  20  21
ENDBRANCH  14  20
ENDBRANCH  12  13
ENDBRANCH   7  12
ENDBRANCH   3   6
ENDBRANCH   1   2
BRANCH   1  27
ATOM     27  C   UNL A   1      33.448  34.809  29.601  1.00  0.00     0.023 C 
BRANCH  27  28
ATOM     28  C   UNL A   1      34.657  34.129  28.954  1.00  0.00     0.023 C 
BRANCH  28  29
ATOM     29  C   UNL A   1      34.888  32.683  29.376  1.00  0.00     0.116 C 
BRANCH  29  30
ATOM     30  N   UNL A   1      34.074  31.733  28.633  1.00  0.00    -0.352 N 
ATOM     31  C   UNL A   1      34.440  30.518  28.104  1.00  0.00     0.251 C 
ATOM     32  H   UNL A   1      33.136  31.996  28.491  1.00  0.00     0.163 HD
ATOM     33  O   UNL A   1      33.656  29.891  27.404  1.00  0.00    -0.269 OA
BRANCH  31  34
ATOM     34  C   UNL A   1      35.803  29.999  28.354  1.00  0.00     0.039 A 
ATOM     35  C   UNL A   1      36.754  30.086  27.334  1.00  0.00     0.014 A 
ATOM     36  C   UNL A   1      36.149  29.463  29.597  1.00  0.00     0.014 A 
ATOM     37  C   UNL A   1      38.072  29.698  27.583  1.00  0.00     0.010 A 
ATOM     38  C   UNL A   1      37.476  29.141  29.864  1.00  0.00     0.010 A 
ATOM     39  C   UNL A   1      38.450  29.257  28.862  1.00  0.00    -0.014 A 
BRANCH  39  40
ATOM     40  C   UNL A   1      39.863  28.925  29.175  1.00  0.00     0.031 A 
ATOM     41  C   UNL A   1      40.756  29.954  29.812  1.00  0.00     0.074 A 
ATOM     42  C   UNL A   1      40.360  27.726  28.815  1.00  0.00     0.049 A 
ATOM     43  N   UNL A   1      42.030  29.879  30.096  1.00  0.00    -0.248 NA
ATOM     44  C   UNL A   1      40.140  31.248  30.147  1.00  0.00     0.031 C 
ATOM     45  C   UNL A   1      39.607  26.665  28.142  1.00  0.00     0.029 A 
ATOM     46  N   UNL A   1      41.620  27.201  28.954  1.00  0.00    -0.354 N 
ATOM     47  C   UNL A   1      42.375  31.117  30.623  1.00  0.00     0.074 A 
ATOM     48  C   UNL A   1      41.186  31.941  30.577  1.00  0.00     0.031 C 
ATOM     49  C   UNL A   1      40.413  25.609  27.949  1.00  0.00     0.029 A 
ATOM     50  C   UNL A   1      41.746  25.927  28.451  1.00  0.00     0.049 A 
ATOM     51  H   UNL A   1      42.364  27.690  29.374  1.00  0.00     0.167 HD
ATOM     52  C   UNL A   1      43.567  31.525  31.120  1.00  0.00     0.037 A 
ATOM     53  C   UNL A   1      42.815  25.109  28.401  1.00  0.00     0.037 A 
ATOM     54  C   UNL A   1      44.737  30.690  31.193  1.00  0.00     0.049 A 
ATOM     55  C   UNL A   1      44.124  25.577  28.972  1.00  0.00     0.074 A 
ATOM     56  C   UNL A   1      45.972  30.983  31.745  1.00  0.00     0.029 A 
ATOM     57  N   UNL A   1      44.819  29.396  30.696  1.00  0.00    -0.354 N 
ATOM     58  N   UNL A   1      44.415  26.727  29.530  1.00  0.00    -0.248 NA
ATOM     59  C   UNL A   1      45.250  24.634  28.913  1.00  0.00     0.031 C 
ATOM     60  C   UNL A   1      46.811  29.881  31.548  1.00  0.00     0.029 A 
ATOM     61  C   UNL A   1      46.088  28.885  30.912  1.00  0.00     0.049 A 
ATOM     62  H   UNL A   1      44.083  28.913  30.256  1.00  0.00     0.167 HD
ATOM     63  C   UNL A   1      45.749  26.639  29.912  1.00  0.00     0.074 A 
ATOM     64  C   UNL A   1      46.206  25.319  29.528  1.00  0.00     0.031 C 
ATOM     65  C   UNL A   1      46.525  27.566  30.526  1.00  0.00     0.037 A 
BRANCH  52  66
ATOM     66  C   UNL A   1      43.660  32.939  31.623  1.00  0.00     0.058 A 
ATOM     67  C   UNL A   1      43.327  33.274  32.945  1.00  0.00     0.135 A 
ATOM     68  C   UNL A   1      44.098  33.970  30.778  1.00  0.00     0.135 A 
ATOM     69  F   UNL A   1      42.888  32.329  33.792  1.00  0.00    -0.206 F 
ATOM     70  C   UNL A   1      43.386  34.586  33.401  1.00  0.00     0.059 A 
ATOM     71  C   UNL A   1      44.191  35.287  31.219  1.00  0.00     0.059 A 
ATOM     72  F   UNL A   1      44.431  33.706  29.505  1.00  0.00    -0.206 F 
ATOM     73  C   UNL A   1      43.813  35.588  32.527  1.00  0.00     0.060 A 
BRANCH  73  74
ATOM     74  S   UNL A   1      43.868  37.291  33.126  1.00  0.00     0.124 S 
ATOM     75  O   UNL A   1      43.752  38.040  31.879  1.00  0.00    -0.237 OA
ATOM     76  O   UNL A   1      42.709  37.351  34.010  1.00  0.00    -0.237 OA
ATOM     77  O   UNL A   1      45.164  37.374  33.790  1.00  0.00    -0.744 OA
ENDBRANCH  73  74
ENDBRANCH  52  66
BRANCH  53  78
ATOM     78  C   UNL A   1      42.677  23.748  27.817  1.00  0.00     0.058 A 
ATOM     79  C   UNL A   1      42.454  22.636  28.642  1.00  0.00     0.135 A 
ATOM     80  C   UNL A   1      42.732  23.536  26.432  1.00  0.00     0.135 A 
ATOM     81  F   UNL A   1      42.400  22.790  29.974  1.00  0.00    -0.206 F 
ATOM     82  C   UNL A   1      42.299  21.358  28.116  1.00  0.00     0.059 A 
ATOM     83  C   UNL A   1      42.558  22.271  25.880  1.00  0.00     0.059 A 
ATOM     84  F   UNL A   1      42.926  24.572  25.600  1.00  0.00    -0.206 F 
ATOM     85  C   UNL A   1      42.348  21.187  26.731  1.00  0.00     0.060 A 
BRANCH  85  86
ATOM     86  S   UNL A   1      42.080  19.534  26.054  1.00  0.00     0.124 S 
ATOM     87  O   UNL A   1      40.634  19.520  25.874  1.00  0.00    -0.237 OA
ATOM     88  O   UNL A   1      42.876  19.570  24.831  1.00  0.00    -0.237 OA
ATOM     89  O   UNL A   1      42.595  18.656  27.101  1.00  0.00    -0.744 OA
ENDBRANCH  85  86
ENDBRANCH  53  78
BRANCH  65  90
ATOM     90  C   UNL A   1      47.939  27.177  30.851  1.00  0.00     0.058 A 
ATOM     91  C   UNL A   1      48.263  26.504  32.039  1.00  0.00     0.135 A 
ATOM     92  C   UNL A   1      48.974  27.432  29.937  1.00  0.00     0.135 A 
ATOM     93  F   UNL A   1      47.312  26.243  32.948  1.00  0.00    -0.206 F 
ATOM     94  C   UNL A   1      49.570  26.117  32.319  1.00  0.00     0.059 A 
ATOM     95  C   UNL A   1      50.283  27.032  30.184  1.00  0.00     0.059 A 
ATOM     96  F   UNL A   1      48.714  28.064  28.780  1.00  0.00    -0.206 F 
ATOM     97  C   UNL A   1      50.572  26.383  31.384  1.00  0.00     0.060 A 
BRANCH  97  98
ATOM     98  S   UNL A   1      52.258  25.841  31.742  1.00  0.00     0.124 S 
ATOM     99  O   UNL A   1      52.045  24.447  32.116  1.00  0.00    -0.237 OA
ATOM    100  O   UNL A   1      52.935  26.060  30.467  1.00  0.00    -0.237 OA
ATOM    101  O   UNL A   1      52.675  26.727  32.825  1.00  0.00    -0.744 OA
ENDBRANCH  97  98
ENDBRANCH  65  90
ENDBRANCH  39  40
ENDBRANCH  31  34
ENDBRANCH  29  30
ENDBRANCH  28  29
ENDBRANCH  27  28
ENDBRANCH   1  27
TORSDOF 20
ENDMDL
MODEL 3
REMARK VINA RESULT:     -10.1      2.561      3.337
REMARK SMILES CCC[NH2+]C[C@H]1CCC[N@@H+](Cc2ccc(C(=O)NCCCCNC(=O)c3ccc(-c4c5nc(c(-c6c(F)cc(S(=O)(=O)[O-])cc6F)c6ccc([nH]6)c(-c6c(F)cc(S(=O)(=O)[O-])cc6F)c6nc(c(-c7c(F)cc(S(=O)(=O)[O-])cc7F)c7ccc4[nH]7)C=C6)C=C5)cc3)cc2)C1
REMARK SMILES IDX 19 1 18 2 16 3 17 4 15 6 12 7 13 8 93 9 14 10 92 11 11 12
REMARK SMILES IDX 10 13 6 14 7 15 94 16 8 17 9 18 5 20 4 21 3 24 2 25 1 26
REMARK SMILES IDX 20 27 21 28 22 29 23 30 24 31 25 33 26 34 27 35 91 36 28 37
REMARK SMILES IDX 90 38 29 39 30 40 31 41 84 42 32 43 89 44 83 45 85 46 33 47
REMARK SMILES IDX 88 48 82 49 81 50 34 52 68 53 47 54 67 55 48 56 51 57 66 58
REMARK SMILES IDX 86 59 49 60 50 61 65 63 87 64 52 65 35 66 36 67 45 68 37 69
REMARK SMILES IDX 38 70 44 71 46 72 39 73 40 74 41 75 42 76 43 77 69 78 70 79
REMARK SMILES IDX 79 80 71 81 72 82 78 83 80 84 73 85 74 86 75 87 76 88 77 89
REMARK SMILES IDX 53 90 54 91 63 92 55 93 56 94 62 95 64 96 57 97 58 98 59 99
REMARK SMILES IDX 60 100 61 101
REMARK H PARENT 18 5 10 19 4 22 4 23 23 32 85 51 51 62
REMARK Flexibility Score: inf
ROOT
ATOM      1  C   UNL A   1      31.272  29.530  24.973  1.00  0.00     0.116 C 
ENDROOT
BRANCH   1   2
ATOM      2  N   UNL A   1      30.667  29.643  23.657  1.00  0.00    -0.352 N 
ATOM      3  C   UNL A   1      30.405  28.686  22.707  1.00  0.00     0.251 C 
ATOM      4  O   UNL A   1      29.778  28.999  21.697  1.00  0.00    -0.269 OA
ATOM      5  H   UNL A   1      30.402  30.556  23.404  1.00  0.00     0.163 HD
BRANCH   3   6
ATOM      6  C   UNL A   1      30.797  27.269  22.901  1.00  0.00     0.039 A 
ATOM      7  C   UNL A   1      31.556  24.568  23.034  1.00  0.00     0.006 A 
ATOM      8  C   UNL A   1      32.392  25.509  22.418  1.00  0.00     0.010 A 
ATOM      9  C   UNL A   1      30.391  25.014  23.673  1.00  0.00     0.010 A 
ATOM     10  C   UNL A   1      32.014  26.851  22.351  1.00  0.00     0.014 A 
ATOM     11  C   UNL A   1      30.022  26.358  23.618  1.00  0.00     0.014 A 
BRANCH   7  12
ATOM     12  C   UNL A   1      31.864  23.088  22.954  1.00  0.00     0.299 C 
BRANCH  12  13
ATOM     13  N   UNL A   1      32.130  22.419  24.242  1.00  0.00    -0.331 N 
ATOM     14  C   UNL A   1      32.574  20.297  25.449  1.00  0.00     0.099 C 
ATOM     15  C   UNL A   1      33.529  21.037  26.400  1.00  0.00     0.021 C 
ATOM     16  C   UNL A   1      32.528  21.013  24.089  1.00  0.00     0.271 C 
ATOM     17  C   UNL A   1      33.169  22.518  26.476  1.00  0.00     0.062 C 
ATOM     18  C   UNL A   1      33.080  23.150  25.086  1.00  0.00     0.262 C 
ATOM     19  H   UNL A   1      31.233  22.424  24.729  1.00  0.00     0.348 HD
BRANCH  14  20
ATOM     20  C   UNL A   1      32.978  18.822  25.239  1.00  0.00     0.269 C 
BRANCH  20  21
ATOM     21  N   UNL A   1      33.035  18.389  23.841  1.00  0.00    -0.346 N 
ATOM     22  H   UNL A   1      32.148  18.617  23.391  1.00  0.00     0.346 HD
ATOM     23  H   UNL A   1      33.816  18.873  23.397  1.00  0.00     0.346 HD
BRANCH  21  24
ATOM     24  C   UNL A   1      33.271  16.952  23.711  1.00  0.00     0.260 C 
BRANCH  24  25
ATOM     25  C   UNL A   1      33.626  16.305  25.052  1.00  0.00     0.058 C 
ATOM     26  C   UNL A   1      35.088  15.897  25.158  1.00  0.00     0.010 C 
ENDBRANCH  24  25
ENDBRANCH  21  24
ENDBRANCH  20  21
ENDBRANCH  14  20
ENDBRANCH  12  13
ENDBRANCH   7  12
ENDBRANCH   3   6
ENDBRANCH   1   2
BRANCH   1  27
ATOM     27  C   UNL A   1      32.793  29.392  24.875  1.00  0.00     0.023 C 
BRANCH  27  28
ATOM     28  C   UNL A   1      33.381  28.233  25.682  1.00  0.00     0.023 C 
BRANCH  28  29
ATOM     29  C   UNL A   1      33.919  28.609  27.057  1.00  0.00     0.116 C 
BRANCH  29  30
ATOM     30  N   UNL A   1      33.732  30.015  27.380  1.00  0.00    -0.352 N 
ATOM     31  C   UNL A   1      34.551  30.844  28.112  1.00  0.00     0.251 C 
ATOM     32  H   UNL A   1      32.912  30.428  27.027  1.00  0.00     0.163 HD
ATOM     33  O   UNL A   1      34.187  31.979  28.387  1.00  0.00    -0.269 OA
BRANCH  31  34
ATOM     34  C   UNL A   1      35.852  30.334  28.597  1.00  0.00     0.039 A 
ATOM     35  C   UNL A   1      37.014  30.692  27.909  1.00  0.00     0.014 A 
ATOM     36  C   UNL A   1      35.927  29.536  29.742  1.00  0.00     0.014 A 
ATOM     37  C   UNL A   1      38.260  30.307  28.410  1.00  0.00     0.010 A 
ATOM     38  C   UNL A   1      37.170  29.211  30.276  1.00  0.00     0.010 A 
ATOM     39  C   UNL A   1      38.348  29.595  29.617  1.00  0.00    -0.014 A 
BRANCH  39  40
ATOM     40  C   UNL A   1      39.663  29.254  30.215  1.00  0.00     0.031 A 
ATOM     41  C   UNL A   1      40.199  30.056  31.368  1.00  0.00     0.074 A 
ATOM     42  C   UNL A   1      40.407  28.272  29.669  1.00  0.00     0.049 A 
ATOM     43  N   UNL A   1      41.353  29.959  31.977  1.00  0.00    -0.248 NA
ATOM     44  C   UNL A   1      39.335  31.130  31.885  1.00  0.00     0.031 C 
ATOM     45  C   UNL A   1      40.019  27.458  28.515  1.00  0.00     0.029 A 
ATOM     46  N   UNL A   1      41.650  27.798  30.005  1.00  0.00    -0.354 N 
ATOM     47  C   UNL A   1      41.363  30.967  32.933  1.00  0.00     0.074 A 
ATOM     48  C   UNL A   1      40.119  31.694  32.793  1.00  0.00     0.031 C 
ATOM     49  C   UNL A   1      40.993  26.571  28.254  1.00  0.00     0.029 A 
ATOM     50  C   UNL A   1      42.088  26.774  29.198  1.00  0.00     0.049 A 
ATOM     51  H   UNL A   1      42.179  28.158  30.753  1.00  0.00     0.167 HD
ATOM     52  C   UNL A   1      42.311  31.249  33.857  1.00  0.00     0.037 A 
ATOM     53  C   UNL A   1      43.241  26.079  29.217  1.00  0.00     0.037 A 
ATOM     54  C   UNL A   1      43.531  30.500  34.012  1.00  0.00     0.049 A 
ATOM     55  C   UNL A   1      44.273  26.398  30.262  1.00  0.00     0.074 A 
ATOM     56  C   UNL A   1      44.523  30.658  34.965  1.00  0.00     0.029 A 
ATOM     57  N   UNL A   1      43.928  29.453  33.192  1.00  0.00    -0.354 N 
ATOM     58  N   UNL A   1      44.237  27.309  31.204  1.00  0.00    -0.248 NA
ATOM     59  C   UNL A   1      45.501  25.590  30.252  1.00  0.00     0.031 C 
ATOM     60  C   UNL A   1      45.537  29.731  34.698  1.00  0.00     0.029 A 
ATOM     61  C   UNL A   1      45.158  28.968  33.605  1.00  0.00     0.049 A 
ATOM     62  H   UNL A   1      43.411  29.106  32.430  1.00  0.00     0.167 HD
ATOM     63  C   UNL A   1      45.424  27.169  31.914  1.00  0.00     0.074 A 
ATOM     64  C   UNL A   1      46.153  26.080  31.299  1.00  0.00     0.031 C 
ATOM     65  C   UNL A   1      45.869  27.878  32.982  1.00  0.00     0.037 A 
BRANCH  52  66
ATOM     66  C   UNL A   1      42.063  32.416  34.772  1.00  0.00     0.058 A 
ATOM     67  C   UNL A   1      41.327  32.277  35.960  1.00  0.00     0.135 A 
ATOM     68  C   UNL A   1      42.574  33.686  34.463  1.00  0.00     0.135 A 
ATOM     69  F   UNL A   1      40.802  31.088  36.295  1.00  0.00    -0.206 F 
ATOM     70  C   UNL A   1      41.073  33.364  36.789  1.00  0.00     0.059 A 
ATOM     71  C   UNL A   1      42.356  34.783  35.292  1.00  0.00     0.059 A 
ATOM     72  F   UNL A   1      43.286  33.874  33.341  1.00  0.00    -0.206 F 
ATOM     73  C   UNL A   1      41.586  34.615  36.443  1.00  0.00     0.060 A 
BRANCH  73  74
ATOM     74  S   UNL A   1      41.234  36.022  37.520  1.00  0.00     0.124 S 
ATOM     75  O   UNL A   1      41.078  35.364  38.813  1.00  0.00    -0.237 OA
ATOM     76  O   UNL A   1      42.431  36.842  37.367  1.00  0.00    -0.237 OA
ATOM     77  O   UNL A   1      40.014  36.586  36.950  1.00  0.00    -0.744 OA
ENDBRANCH  73  74
ENDBRANCH  52  66
BRANCH  53  78
ATOM     78  C   UNL A   1      43.460  24.985  28.233  1.00  0.00     0.058 A 
ATOM     79  C   UNL A   1      43.123  23.661  28.549  1.00  0.00     0.135 A 
ATOM     80  C   UNL A   1      43.977  25.243  26.955  1.00  0.00     0.135 A 
ATOM     81  F   UNL A   1      42.631  23.366  29.762  1.00  0.00    -0.206 F 
ATOM     82  C   UNL A   1      43.298  22.627  27.635  1.00  0.00     0.059 A 
ATOM     83  C   UNL A   1      44.142  24.229  26.016  1.00  0.00     0.059 A 
ATOM     84  F   UNL A   1      44.299  26.497  26.600  1.00  0.00    -0.206 F 
ATOM     85  C   UNL A   1      43.804  22.923  26.369  1.00  0.00     0.060 A 
BRANCH  85  86
ATOM     86  S   UNL A   1      43.967  21.583  25.167  1.00  0.00     0.124 S 
ATOM     87  O   UNL A   1      42.836  20.734  25.520  1.00  0.00    -0.237 OA
ATOM     88  O   UNL A   1      43.859  22.295  23.897  1.00  0.00    -0.237 OA
ATOM     89  O   UNL A   1      45.287  21.032  25.458  1.00  0.00    -0.744 OA
ENDBRANCH  85  86
ENDBRANCH  53  78
BRANCH  65  90
ATOM     90  C   UNL A   1      47.191  27.479  33.573  1.00  0.00     0.058 A 
ATOM     91  C   UNL A   1      47.286  26.492  34.565  1.00  0.00     0.135 A 
ATOM     92  C   UNL A   1      48.382  28.054  33.101  1.00  0.00     0.135 A 
ATOM     93  F   UNL A   1      46.176  25.918  35.054  1.00  0.00    -0.206 F 
ATOM     94  C   UNL A   1      48.516  26.103  35.085  1.00  0.00     0.059 A 
ATOM     95  C   UNL A   1      49.625  27.662  33.588  1.00  0.00     0.059 A 
ATOM     96  F   UNL A   1      48.346  28.996  32.144  1.00  0.00    -0.206 F 
ATOM     97  C   UNL A   1      49.680  26.692  34.589  1.00  0.00     0.060 A 
BRANCH  97  98
ATOM     98  S   UNL A   1      51.274  26.151  35.244  1.00  0.00     0.124 S 
ATOM     99  O   UNL A   1      52.140  27.264  34.867  1.00  0.00    -0.237 OA
ATOM    100  O   UNL A   1      50.998  26.016  36.670  1.00  0.00    -0.237 OA
ATOM    101  O   UNL A   1      51.521  24.896  34.539  1.00  0.00    -0.744 OA
ENDBRANCH  97  98
ENDBRANCH  65  90
ENDBRANCH  39  40
ENDBRANCH  31  34
ENDBRANCH  29  30
ENDBRANCH  28  29
ENDBRANCH  27  28
ENDBRANCH   1  27
TORSDOF 20
ENDMDL
