MODEL 1
REMARK VINA RESULT:     -11.7      0.000      0.000
REMARK SMILES Cc1cc(-c2cc(C(=O)NCCCCNC(=O)c3ccc(-c4c5nc(c(-c6c(F)cc(S(=O)(=O)[O-])cc6F)c6ccc([nH]6)c(-c6c(F)cc(S(=O)(=O)[O-])cc6F)c6nc(c(-c7c(F)cc(S(=O)(=O)[O-])cc7F)c7ccc4[nH]7)C=C6)C=C5)cc3)c[nH]c2=O)ccc1Cl
REMARK SMILES IDX 13 1 12 2 11 3 10 4 8 5 9 6 7 8 5 9 6 10 86 11 85 12 87 13
REMARK SMILES IDX 84 14 4 16 1 17 2 18 3 19 90 20 89 21 91 22 88 23 14 24
REMARK SMILES IDX 15 25 16 26 17 28 18 29 19 30 83 31 20 32 82 33 21 34 22 35
REMARK SMILES IDX 23 36 76 37 24 38 81 39 75 40 77 41 25 42 80 43 74 44 73 45
REMARK SMILES IDX 26 47 60 48 39 49 59 50 40 51 43 52 58 53 78 54 41 55 42 56
REMARK SMILES IDX 57 58 79 59 44 60 27 61 28 62 37 63 29 64 30 65 36 66 38 67
REMARK SMILES IDX 31 68 32 69 33 70 34 71 35 72 61 73 62 74 71 75 63 76 64 77
REMARK SMILES IDX 70 78 72 79 65 80 66 81 67 82 68 83 69 84 45 85 46 86 55 87
REMARK SMILES IDX 47 88 48 89 54 90 56 91 49 92 50 93 51 94 52 95 53 96
REMARK H PARENT 10 7 85 15 15 27 77 46 43 57
REMARK Flexibility Score: inf
ROOT
ATOM      1  C   UNL A   1      34.009  28.195  25.634  1.00  0.00     0.023 C 
ENDROOT
BRANCH   1   2
ATOM      2  C   UNL A   1      33.283  29.222  24.757  1.00  0.00     0.023 C 
BRANCH   2   3
ATOM      3  C   UNL A   1      33.347  28.914  23.258  1.00  0.00     0.116 C 
BRANCH   3   4
ATOM      4  N   UNL A   1      32.020  28.658  22.733  1.00  0.00    -0.352 N 
ATOM      5  C   UNL A   1      31.092  27.693  22.972  1.00  0.00     0.252 C 
ATOM      6  O   UNL A   1      30.049  27.754  22.314  1.00  0.00    -0.269 OA
ATOM      7  H   UNL A   1      31.730  29.321  22.065  1.00  0.00     0.163 HD
BRANCH   5   8
ATOM      8  C   UNL A   1      31.259  26.629  24.019  1.00  0.00     0.056 A 
ATOM      9  C   UNL A   1      32.431  24.759  25.079  1.00  0.00     0.048 A 
ATOM     10  C   UNL A   1      32.234  25.560  24.016  1.00  0.00     0.029 A 
ATOM     11  C   UNL A   1      31.489  24.860  26.238  1.00  0.00     0.255 A 
ATOM     12  N   UNL A   1      30.515  25.826  26.122  1.00  0.00    -0.328 N 
ATOM     13  O   UNL A   1      31.559  24.128  27.220  1.00  0.00    -0.269 OA
ATOM     14  C   UNL A   1      30.411  26.697  25.062  1.00  0.00     0.099 A 
ATOM     15  H   UNL A   1      29.849  25.898  26.844  1.00  0.00     0.169 HD
BRANCH   9  16
ATOM     16  C   UNL A   1      33.564  23.824  25.056  1.00  0.00    -0.012 A 
ATOM     17  C   UNL A   1      37.243  23.729  26.025  1.00  0.00     0.046 C 
ATOM     18  C   UNL A   1      35.895  23.284  25.537  1.00  0.00    -0.032 A 
ATOM     19  C   UNL A   1      34.838  24.212  25.484  1.00  0.00     0.014 A 
ATOM     20  C   UNL A   1      35.654  21.959  25.137  1.00  0.00     0.044 A 
ATOM     21  C   UNL A   1      34.390  21.569  24.696  1.00  0.00     0.021 A 
ATOM     22  Cl  UNL A   1      36.899  20.761  25.177  1.00  0.00    -0.084 Cl
ATOM     23  C   UNL A   1      33.349  22.496  24.657  1.00  0.00     0.010 A 
ENDBRANCH   9  16
ENDBRANCH   5   8
ENDBRANCH   3   4
ENDBRANCH   2   3
ENDBRANCH   1   2
BRANCH   1  24
ATOM     24  C   UNL A   1      33.757  28.341  27.131  1.00  0.00     0.116 C 
BRANCH  24  25
ATOM     25  N   UNL A   1      33.549  29.718  27.547  1.00  0.00    -0.352 N 
ATOM     26  C   UNL A   1      34.436  30.568  28.167  1.00  0.00     0.251 C 
ATOM     27  H   UNL A   1      32.657  30.091  27.361  1.00  0.00     0.163 HD
ATOM     28  O   UNL A   1      34.065  31.664  28.556  1.00  0.00    -0.269 OA
BRANCH  26  29
ATOM     29  C   UNL A   1      35.828  30.120  28.388  1.00  0.00     0.039 A 
ATOM     30  C   UNL A   1      36.743  30.224  27.339  1.00  0.00     0.014 A 
ATOM     31  C   UNL A   1      36.232  29.620  29.629  1.00  0.00     0.014 A 
ATOM     32  C   UNL A   1      38.076  29.870  27.551  1.00  0.00     0.010 A 
ATOM     33  C   UNL A   1      37.576  29.345  29.861  1.00  0.00     0.010 A 
ATOM     34  C   UNL A   1      38.510  29.453  28.821  1.00  0.00    -0.014 A 
BRANCH  34  35
ATOM     35  C   UNL A   1      39.930  29.096  29.064  1.00  0.00     0.031 A 
ATOM     36  C   UNL A   1      40.875  30.122  29.631  1.00  0.00     0.074 A 
ATOM     37  C   UNL A   1      40.378  27.868  28.738  1.00  0.00     0.049 A 
ATOM     38  N   UNL A   1      42.156  30.021  29.875  1.00  0.00    -0.248 NA
ATOM     39  C   UNL A   1      40.312  31.448  29.938  1.00  0.00     0.031 C 
ATOM     40  C   UNL A   1      39.573  26.808  28.126  1.00  0.00     0.029 A 
ATOM     41  N   UNL A   1      41.622  27.304  28.870  1.00  0.00    -0.354 N 
ATOM     42  C   UNL A   1      42.549  31.262  30.363  1.00  0.00     0.074 A 
ATOM     43  C   UNL A   1      41.390  32.123  30.309  1.00  0.00     0.031 C 
ATOM     44  C   UNL A   1      40.339  25.718  27.954  1.00  0.00     0.029 A 
ATOM     45  C   UNL A   1      41.693  26.008  28.414  1.00  0.00     0.049 A 
ATOM     46  H   UNL A   1      42.392  27.782  29.254  1.00  0.00     0.167 HD
ATOM     47  C   UNL A   1      43.755  31.640  30.848  1.00  0.00     0.037 A 
ATOM     48  C   UNL A   1      42.733  25.153  28.372  1.00  0.00     0.037 A 
ATOM     49  C   UNL A   1      44.903  30.773  30.916  1.00  0.00     0.049 A 
ATOM     50  C   UNL A   1      44.062  25.592  28.928  1.00  0.00     0.074 A 
ATOM     51  C   UNL A   1      46.167  31.051  31.406  1.00  0.00     0.029 A 
ATOM     52  N   UNL A   1      44.922  29.454  30.488  1.00  0.00    -0.354 N 
ATOM     53  N   UNL A   1      44.403  26.758  29.428  1.00  0.00    -0.248 NA
ATOM     54  C   UNL A   1      45.141  24.596  28.934  1.00  0.00     0.031 C 
ATOM     55  C   UNL A   1      46.959  29.910  31.245  1.00  0.00     0.029 A 
ATOM     56  C   UNL A   1      46.175  28.904  30.702  1.00  0.00     0.049 A 
ATOM     57  H   UNL A   1      44.158  28.977  30.089  1.00  0.00     0.167 HD
ATOM     58  C   UNL A   1      45.724  26.621  29.840  1.00  0.00     0.074 A 
ATOM     59  C   UNL A   1      46.115  25.258  29.543  1.00  0.00     0.031 C 
ATOM     60  C   UNL A   1      46.541  27.539  30.414  1.00  0.00     0.037 A 
BRANCH  47  61
ATOM     61  C   UNL A   1      43.885  33.048  31.366  1.00  0.00     0.058 A 
ATOM     62  C   UNL A   1      44.300  34.098  30.531  1.00  0.00     0.135 A 
ATOM     63  C   UNL A   1      43.565  33.359  32.696  1.00  0.00     0.135 A 
ATOM     64  F   UNL A   1      44.638  33.855  29.254  1.00  0.00    -0.206 F 
ATOM     65  C   UNL A   1      44.421  35.401  31.002  1.00  0.00     0.059 A 
ATOM     66  C   UNL A   1      43.649  34.662  33.182  1.00  0.00     0.059 A 
ATOM     67  F   UNL A   1      43.166  32.396  33.541  1.00  0.00    -0.206 F 
ATOM     68  C   UNL A   1      44.092  35.673  32.331  1.00  0.00     0.060 A 
BRANCH  68  69
ATOM     69  S   UNL A   1      44.244  37.372  32.922  1.00  0.00     0.124 S 
ATOM     70  O   UNL A   1      45.589  37.362  33.490  1.00  0.00    -0.237 OA
ATOM     71  O   UNL A   1      44.079  38.145  31.695  1.00  0.00    -0.237 OA
ATOM     72  O   UNL A   1      43.157  37.494  33.889  1.00  0.00    -0.744 OA
ENDBRANCH  68  69
ENDBRANCH  47  61
BRANCH  48  73
ATOM     73  C   UNL A   1      42.556  23.789  27.804  1.00  0.00     0.058 A 
ATOM     74  C   UNL A   1      42.488  23.578  26.419  1.00  0.00     0.135 A 
ATOM     75  C   UNL A   1      42.446  22.666  28.640  1.00  0.00     0.135 A 
ATOM     76  F   UNL A   1      42.587  24.619  25.577  1.00  0.00    -0.206 F 
ATOM     77  C   UNL A   1      42.283  22.311  25.882  1.00  0.00     0.059 A 
ATOM     78  C   UNL A   1      42.269  21.384  28.125  1.00  0.00     0.059 A 
ATOM     79  F   UNL A   1      42.527  22.807  29.972  1.00  0.00    -0.206 F 
ATOM     80  C   UNL A   1      42.174  21.220  26.744  1.00  0.00     0.060 A 
BRANCH  80  81
ATOM     81  S   UNL A   1      41.934  19.576  26.038  1.00  0.00     0.124 S 
ATOM     82  O   UNL A   1      40.494  19.564  25.805  1.00  0.00    -0.237 OA
ATOM     83  O   UNL A   1      42.774  19.628  24.845  1.00  0.00    -0.237 OA
ATOM     84  O   UNL A   1      42.410  18.686  27.093  1.00  0.00    -0.744 OA
ENDBRANCH  80  81
ENDBRANCH  48  73
BRANCH  60  85
ATOM     85  C   UNL A   1      47.918  27.084  30.812  1.00  0.00     0.058 A 
ATOM     86  C   UNL A   1      49.030  27.252  29.974  1.00  0.00     0.135 A 
ATOM     87  C   UNL A   1      48.128  26.486  32.067  1.00  0.00     0.135 A 
ATOM     88  F   UNL A   1      48.886  27.815  28.764  1.00  0.00    -0.206 F 
ATOM     89  C   UNL A   1      50.295  26.806  30.346  1.00  0.00     0.059 A 
ATOM     90  C   UNL A   1      49.389  26.062  32.473  1.00  0.00     0.059 A 
ATOM     91  F   UNL A   1      47.102  26.315  32.915  1.00  0.00    -0.206 F 
ATOM     92  C   UNL A   1      50.463  26.208  31.597  1.00  0.00     0.060 A 
BRANCH  92  93
ATOM     93  S   UNL A   1      52.108  25.633  32.069  1.00  0.00     0.124 S 
ATOM     94  O   UNL A   1      52.859  25.855  30.838  1.00  0.00    -0.237 OA
ATOM     95  O   UNL A   1      52.440  26.515  33.182  1.00  0.00    -0.237 OA
ATOM     96  O   UNL A   1      51.888  24.235  32.427  1.00  0.00    -0.744 OA
ENDBRANCH  92  93
ENDBRANCH  60  85
ENDBRANCH  34  35
ENDBRANCH  26  29
ENDBRANCH  24  25
ENDBRANCH   1  24
TORSDOF 15
ENDMDL
MODEL 2
REMARK VINA RESULT:     -11.6      2.756      3.375
REMARK SMILES Cc1cc(-c2cc(C(=O)NCCCCNC(=O)c3ccc(-c4c5nc(c(-c6c(F)cc(S(=O)(=O)[O-])cc6F)c6ccc([nH]6)c(-c6c(F)cc(S(=O)(=O)[O-])cc6F)c6nc(c(-c7c(F)cc(S(=O)(=O)[O-])cc7F)c7ccc4[nH]7)C=C6)C=C5)cc3)c[nH]c2=O)ccc1Cl
REMARK SMILES IDX 13 1 12 2 11 3 10 4 8 5 9 6 7 8 5 9 6 10 86 11 85 12 87 13
REMARK SMILES IDX 84 14 4 16 1 17 2 18 3 19 90 20 89 21 91 22 88 23 14 24
REMARK SMILES IDX 15 25 16 26 17 28 18 29 19 30 83 31 20 32 82 33 21 34 22 35
REMARK SMILES IDX 23 36 76 37 24 38 81 39 75 40 77 41 25 42 80 43 74 44 73 45
REMARK SMILES IDX 26 47 60 48 39 49 59 50 40 51 43 52 58 53 78 54 41 55 42 56
REMARK SMILES IDX 57 58 79 59 44 60 27 61 28 62 37 63 29 64 30 65 36 66 38 67
REMARK SMILES IDX 31 68 32 69 33 70 34 71 35 72 61 73 62 74 71 75 63 76 64 77
REMARK SMILES IDX 70 78 72 79 65 80 66 81 67 82 68 83 69 84 45 85 46 86 55 87
REMARK SMILES IDX 47 88 48 89 54 90 56 91 49 92 50 93 51 94 52 95 53 96
REMARK H PARENT 10 7 85 15 15 27 77 46 43 57
REMARK Flexibility Score: inf
ROOT
ATOM      1  C   UNL A   1      33.587  27.283  25.153  1.00  0.00     0.023 C 
ENDROOT
BRANCH   1   2
ATOM      2  C   UNL A   1      33.710  27.923  23.766  1.00  0.00     0.023 C 
BRANCH   2   3
ATOM      3  C   UNL A   1      32.424  27.859  22.936  1.00  0.00     0.116 C 
BRANCH   3   4
ATOM      4  N   UNL A   1      32.649  27.132  21.702  1.00  0.00    -0.352 N 
ATOM      5  C   UNL A   1      32.949  25.835  21.424  1.00  0.00     0.252 C 
ATOM      6  O   UNL A   1      33.109  25.546  20.234  1.00  0.00    -0.269 OA
ATOM      7  H   UNL A   1      32.569  27.695  20.897  1.00  0.00     0.163 HD
BRANCH   5   8
ATOM      8  C   UNL A   1      33.025  24.763  22.473  1.00  0.00     0.056 A 
ATOM      9  C   UNL A   1      34.210  23.355  24.089  1.00  0.00     0.048 A 
ATOM     10  C   UNL A   1      34.229  24.180  23.026  1.00  0.00     0.029 A 
ATOM     11  C   UNL A   1      32.887  22.883  24.607  1.00  0.00     0.255 A 
ATOM     12  N   UNL A   1      31.785  23.393  23.959  1.00  0.00    -0.328 N 
ATOM     13  O   UNL A   1      32.779  22.084  25.532  1.00  0.00    -0.269 OA
ATOM     14  C   UNL A   1      31.844  24.318  22.941  1.00  0.00     0.099 A 
ATOM     15  H   UNL A   1      30.896  23.077  24.241  1.00  0.00     0.169 HD
BRANCH   9  16
ATOM     16  C   UNL A   1      35.487  22.957  24.695  1.00  0.00    -0.012 A 
ATOM     17  C   UNL A   1      37.791  19.931  24.836  1.00  0.00     0.046 C 
ATOM     18  C   UNL A   1      37.263  21.320  25.048  1.00  0.00    -0.032 A 
ATOM     19  C   UNL A   1      35.998  21.664  24.534  1.00  0.00     0.014 A 
ATOM     20  C   UNL A   1      38.001  22.293  25.740  1.00  0.00     0.044 A 
ATOM     21  C   UNL A   1      37.491  23.580  25.917  1.00  0.00     0.021 A 
ATOM     22  Cl  UNL A   1      39.562  21.949  26.397  1.00  0.00    -0.084 Cl
ATOM     23  C   UNL A   1      36.241  23.911  25.395  1.00  0.00     0.010 A 
ENDBRANCH   9  16
ENDBRANCH   5   8
ENDBRANCH   3   4
ENDBRANCH   2   3
ENDBRANCH   1   2
BRANCH   1  24
ATOM     24  C   UNL A   1      34.331  28.017  26.264  1.00  0.00     0.116 C 
BRANCH  24  25
ATOM     25  N   UNL A   1      33.859  29.376  26.471  1.00  0.00    -0.352 N 
ATOM     26  C   UNL A   1      34.404  30.359  27.265  1.00  0.00     0.251 C 
ATOM     27  H   UNL A   1      33.043  29.626  25.979  1.00  0.00     0.163 HD
ATOM     28  O   UNL A   1      33.816  31.417  27.420  1.00  0.00    -0.269 OA
BRANCH  26  29
ATOM     29  C   UNL A   1      35.686  30.099  27.957  1.00  0.00     0.039 A 
ATOM     30  C   UNL A   1      35.657  29.616  29.266  1.00  0.00     0.014 A 
ATOM     31  C   UNL A   1      36.906  30.311  27.309  1.00  0.00     0.014 A 
ATOM     32  C   UNL A   1      36.854  29.300  29.909  1.00  0.00     0.010 A 
ATOM     33  C   UNL A   1      38.092  29.920  27.923  1.00  0.00     0.010 A 
ATOM     34  C   UNL A   1      38.080  29.424  29.234  1.00  0.00    -0.014 A 
BRANCH  34  35
ATOM     35  C   UNL A   1      39.359  29.069  29.900  1.00  0.00     0.031 A 
ATOM     36  C   UNL A   1      39.820  29.849  31.103  1.00  0.00     0.074 A 
ATOM     37  C   UNL A   1      40.123  28.078  29.401  1.00  0.00     0.049 A 
ATOM     38  N   UNL A   1      40.921  29.724  31.797  1.00  0.00    -0.248 NA
ATOM     39  C   UNL A   1      38.938  30.933  31.571  1.00  0.00     0.031 C 
ATOM     40  C   UNL A   1      39.813  27.290  28.205  1.00  0.00     0.029 A 
ATOM     41  N   UNL A   1      41.320  27.565  29.833  1.00  0.00    -0.354 N 
ATOM     42  C   UNL A   1      40.865  30.706  32.779  1.00  0.00     0.074 A 
ATOM     43  C   UNL A   1      39.659  31.469  32.545  1.00  0.00     0.031 C 
ATOM     44  C   UNL A   1      40.784  26.383  28.012  1.00  0.00     0.029 A 
ATOM     45  C   UNL A   1      41.799  26.542  29.048  1.00  0.00     0.049 A 
ATOM     46  H   UNL A   1      41.792  27.899  30.629  1.00  0.00     0.167 HD
ATOM     47  C   UNL A   1      41.718  30.931  33.806  1.00  0.00     0.037 A 
ATOM     48  C   UNL A   1      42.929  25.816  29.153  1.00  0.00     0.037 A 
ATOM     49  C   UNL A   1      42.910  30.157  34.045  1.00  0.00     0.049 A 
ATOM     50  C   UNL A   1      43.858  26.076  30.311  1.00  0.00     0.074 A 
ATOM     51  C   UNL A   1      43.834  30.290  35.066  1.00  0.00     0.029 A 
ATOM     52  N   UNL A   1      43.336  29.099  33.255  1.00  0.00    -0.354 N 
ATOM     53  N   UNL A   1      43.764  26.981  31.257  1.00  0.00    -0.248 NA
ATOM     54  C   UNL A   1      45.034  25.203  30.427  1.00  0.00     0.031 C 
ATOM     55  C   UNL A   1      44.836  29.333  34.876  1.00  0.00     0.029 A 
ATOM     56  C   UNL A   1      44.509  28.570  33.766  1.00  0.00     0.049 A 
ATOM     57  H   UNL A   1      42.873  28.773  32.449  1.00  0.00     0.167 HD
ATOM     58  C   UNL A   1      44.848  26.762  32.100  1.00  0.00     0.074 A 
ATOM     59  C   UNL A   1      45.575  25.632  31.559  1.00  0.00     0.031 C 
ATOM     60  C   UNL A   1      45.211  27.433  33.222  1.00  0.00     0.037 A 
BRANCH  47  61
ATOM     61  C   UNL A   1      41.379  32.044  34.761  1.00  0.00     0.058 A 
ATOM     62  C   UNL A   1      41.919  33.331  34.605  1.00  0.00     0.135 A 
ATOM     63  C   UNL A   1      40.485  31.835  35.823  1.00  0.00     0.135 A 
ATOM     64  F   UNL A   1      42.794  33.583  33.619  1.00  0.00    -0.206 F 
ATOM     65  C   UNL A   1      41.609  34.363  35.483  1.00  0.00     0.059 A 
ATOM     66  C   UNL A   1      40.136  32.862  36.696  1.00  0.00     0.059 A 
ATOM     67  F   UNL A   1      39.941  30.625  36.022  1.00  0.00    -0.206 F 
ATOM     68  C   UNL A   1      40.715  34.119  36.527  1.00  0.00     0.060 A 
BRANCH  68  69
ATOM     69  S   UNL A   1      40.314  35.474  37.650  1.00  0.00     0.124 S 
ATOM     70  O   UNL A   1      39.311  34.852  38.510  1.00  0.00    -0.237 OA
ATOM     71  O   UNL A   1      41.603  35.751  38.277  1.00  0.00    -0.237 OA
ATOM     72  O   UNL A   1      39.816  36.518  36.759  1.00  0.00    -0.744 OA
ENDBRANCH  68  69
ENDBRANCH  47  61
BRANCH  48  73
ATOM     73  C   UNL A   1      43.235  24.760  28.151  1.00  0.00     0.058 A 
ATOM     74  C   UNL A   1      43.908  25.061  26.957  1.00  0.00     0.135 A 
ATOM     75  C   UNL A   1      42.854  23.426  28.365  1.00  0.00     0.135 A 
ATOM     76  F   UNL A   1      44.293  26.322  26.704  1.00  0.00    -0.206 F 
ATOM     77  C   UNL A   1      44.164  24.087  25.997  1.00  0.00     0.059 A 
ATOM     78  C   UNL A   1      43.123  22.429  27.433  1.00  0.00     0.059 A 
ATOM     79  F   UNL A   1      42.227  23.079  29.500  1.00  0.00    -0.206 F 
ATOM     80  C   UNL A   1      43.765  22.773  26.244  1.00  0.00     0.060 A 
BRANCH  80  81
ATOM     81  S   UNL A   1      44.123  21.510  25.004  1.00  0.00     0.124 S 
ATOM     82  O   UNL A   1      43.995  22.270  23.766  1.00  0.00    -0.237 OA
ATOM     83  O   UNL A   1      45.477  21.100  25.365  1.00  0.00    -0.237 OA
ATOM     84  O   UNL A   1      43.088  20.507  25.240  1.00  0.00    -0.744 OA
ENDBRANCH  80  81
ENDBRANCH  48  73
BRANCH  60  85
ATOM     85  C   UNL A   1      46.413  26.927  33.970  1.00  0.00     0.058 A 
ATOM     86  C   UNL A   1      47.708  27.399  33.708  1.00  0.00     0.135 A 
ATOM     87  C   UNL A   1      46.258  25.966  34.984  1.00  0.00     0.135 A 
ATOM     88  F   UNL A   1      47.911  28.316  32.748  1.00  0.00    -0.206 F 
ATOM     89  C   UNL A   1      48.814  26.906  34.393  1.00  0.00     0.059 A 
ATOM     90  C   UNL A   1      47.347  25.483  35.704  1.00  0.00     0.059 A 
ATOM     91  F   UNL A   1      45.040  25.492  35.288  1.00  0.00    -0.206 F 
ATOM     92  C   UNL A   1      48.623  25.944  35.387  1.00  0.00     0.060 A 
BRANCH  92  93
ATOM     93  S   UNL A   1      50.065  25.311  36.269  1.00  0.00     0.124 S 
ATOM     94  O   UNL A   1      50.929  26.486  36.298  1.00  0.00    -0.237 OA
ATOM     95  O   UNL A   1      49.496  24.910  37.552  1.00  0.00    -0.237 OA
ATOM     96  O   UNL A   1      50.525  24.213  35.424  1.00  0.00    -0.744 OA
ENDBRANCH  92  93
ENDBRANCH  60  85
ENDBRANCH  34  35
ENDBRANCH  26  29
ENDBRANCH  24  25
ENDBRANCH   1  24
TORSDOF 15
ENDMDL
MODEL 3
REMARK VINA RESULT:     -11.6      4.726     10.983
REMARK SMILES Cc1cc(-c2cc(C(=O)NCCCCNC(=O)c3ccc(-c4c5nc(c(-c6c(F)cc(S(=O)(=O)[O-])cc6F)c6ccc([nH]6)c(-c6c(F)cc(S(=O)(=O)[O-])cc6F)c6nc(c(-c7c(F)cc(S(=O)(=O)[O-])cc7F)c7ccc4[nH]7)C=C6)C=C5)cc3)c[nH]c2=O)ccc1Cl
REMARK SMILES IDX 13 1 12 2 11 3 10 4 8 5 9 6 7 8 5 9 6 10 86 11 85 12 87 13
REMARK SMILES IDX 84 14 4 16 1 17 2 18 3 19 90 20 89 21 91 22 88 23 14 24
REMARK SMILES IDX 15 25 16 26 17 28 18 29 19 30 83 31 20 32 82 33 21 34 22 35
REMARK SMILES IDX 23 36 76 37 24 38 81 39 75 40 77 41 25 42 80 43 74 44 73 45
REMARK SMILES IDX 26 47 60 48 39 49 59 50 40 51 43 52 58 53 78 54 41 55 42 56
REMARK SMILES IDX 57 58 79 59 44 60 27 61 28 62 37 63 29 64 30 65 36 66 38 67
REMARK SMILES IDX 31 68 32 69 33 70 34 71 35 72 61 73 62 74 71 75 63 76 64 77
REMARK SMILES IDX 70 78 72 79 65 80 66 81 67 82 68 83 69 84 45 85 46 86 55 87
REMARK SMILES IDX 47 88 48 89 54 90 56 91 49 92 50 93 51 94 52 95 53 96
REMARK H PARENT 10 7 85 15 15 27 77 46 43 57
REMARK Flexibility Score: inf
ROOT
ATOM      1  C   UNL A   1      41.753  21.110  27.526  1.00  0.00     0.023 C 
ENDROOT
BRANCH   1   2
ATOM      2  C   UNL A   1      42.163  19.661  27.238  1.00  0.00     0.023 C 
BRANCH   2   3
ATOM      3  C   UNL A   1      42.252  19.326  25.746  1.00  0.00     0.116 C 
BRANCH   3   4
ATOM      4  N   UNL A   1      43.537  18.731  25.433  1.00  0.00    -0.352 N 
ATOM      5  C   UNL A   1      44.744  19.248  25.076  1.00  0.00     0.252 C 
ATOM      6  O   UNL A   1      45.647  18.438  24.847  1.00  0.00    -0.269 OA
ATOM      7  H   UNL A   1      43.537  17.748  25.492  1.00  0.00     0.163 HD
BRANCH   5   8
ATOM      8  C   UNL A   1      45.023  20.722  25.016  1.00  0.00     0.056 A 
ATOM      9  C   UNL A   1      45.548  22.899  26.009  1.00  0.00     0.048 A 
ATOM     10  C   UNL A   1      45.117  21.630  26.139  1.00  0.00     0.029 A 
ATOM     11  C   UNL A   1      45.767  23.445  24.632  1.00  0.00     0.255 A 
ATOM     12  N   UNL A   1      45.550  22.554  23.605  1.00  0.00    -0.328 N 
ATOM     13  O   UNL A   1      46.100  24.606  24.421  1.00  0.00    -0.269 OA
ATOM     14  C   UNL A   1      45.211  21.233  23.785  1.00  0.00     0.099 A 
ATOM     15  H   UNL A   1      45.643  22.884  22.682  1.00  0.00     0.169 HD
BRANCH   9  16
ATOM     16  C   UNL A   1      45.786  23.690  27.224  1.00  0.00    -0.012 A 
ATOM     17  C   UNL A   1      44.168  24.329  30.609  1.00  0.00     0.046 C 
ATOM     18  C   UNL A   1      45.156  24.378  29.479  1.00  0.00    -0.032 A 
ATOM     19  C   UNL A   1      44.876  23.683  28.287  1.00  0.00     0.014 A 
ATOM     20  C   UNL A   1      46.360  25.093  29.581  1.00  0.00     0.044 A 
ATOM     21  C   UNL A   1      47.265  25.116  28.519  1.00  0.00     0.021 A 
ATOM     22  Cl  UNL A   1      46.776  25.967  31.012  1.00  0.00    -0.084 Cl
ATOM     23  C   UNL A   1      46.980  24.416  27.347  1.00  0.00     0.010 A 
ENDBRANCH   9  16
ENDBRANCH   5   8
ENDBRANCH   3   4
ENDBRANCH   2   3
ENDBRANCH   1   2
BRANCH   1  24
ATOM     24  C   UNL A   1      41.356  21.919  26.295  1.00  0.00     0.116 C 
BRANCH  24  25
ATOM     25  N   UNL A   1      39.923  21.931  26.053  1.00  0.00    -0.352 N 
ATOM     26  C   UNL A   1      39.026  22.949  26.280  1.00  0.00     0.251 C 
ATOM     27  H   UNL A   1      39.545  21.102  25.677  1.00  0.00     0.163 HD
ATOM     28  O   UNL A   1      37.830  22.756  26.130  1.00  0.00    -0.269 OA
BRANCH  26  29
ATOM     29  C   UNL A   1      39.527  24.261  26.745  1.00  0.00     0.039 A 
ATOM     30  C   UNL A   1      39.517  24.537  28.113  1.00  0.00     0.014 A 
ATOM     31  C   UNL A   1      40.022  25.202  25.839  1.00  0.00     0.014 A 
ATOM     32  C   UNL A   1      40.049  25.741  28.576  1.00  0.00     0.010 A 
ATOM     33  C   UNL A   1      40.624  26.365  26.309  1.00  0.00     0.010 A 
ATOM     34  C   UNL A   1      40.631  26.654  27.680  1.00  0.00    -0.014 A 
BRANCH  34  35
ATOM     35  C   UNL A   1      41.221  27.928  28.163  1.00  0.00     0.031 A 
ATOM     36  C   UNL A   1      42.708  28.147  28.076  1.00  0.00     0.074 A 
ATOM     37  C   UNL A   1      40.428  28.867  28.716  1.00  0.00     0.049 A 
ATOM     38  N   UNL A   1      43.419  29.168  28.480  1.00  0.00    -0.248 NA
ATOM     39  C   UNL A   1      43.507  27.062  27.480  1.00  0.00     0.031 C 
ATOM     40  C   UNL A   1      38.981  28.745  28.912  1.00  0.00     0.029 A 
ATOM     41  N   UNL A   1      40.726  30.107  29.221  1.00  0.00    -0.354 N 
ATOM     42  C   UNL A   1      44.740  28.851  28.188  1.00  0.00     0.074 A 
ATOM     43  C   UNL A   1      44.742  27.512  27.643  1.00  0.00     0.031 C 
ATOM     44  C   UNL A   1      38.517  29.872  29.476  1.00  0.00     0.029 A 
ATOM     45  C   UNL A   1      39.633  30.783  29.709  1.00  0.00     0.049 A 
ATOM     46  H   UNL A   1      41.638  30.478  29.233  1.00  0.00     0.167 HD
ATOM     47  C   UNL A   1      45.847  29.618  28.325  1.00  0.00     0.037 A 
ATOM     48  C   UNL A   1      39.542  31.999  30.282  1.00  0.00     0.037 A 
ATOM     49  C   UNL A   1      45.838  30.957  28.853  1.00  0.00     0.049 A 
ATOM     50  C   UNL A   1      40.785  32.839  30.413  1.00  0.00     0.074 A 
ATOM     51  C   UNL A   1      46.901  31.827  29.018  1.00  0.00     0.029 A 
ATOM     52  N   UNL A   1      44.704  31.624  29.294  1.00  0.00    -0.354 N 
ATOM     53  N   UNL A   1      42.022  32.538  30.089  1.00  0.00    -0.248 NA
ATOM     54  C   UNL A   1      40.620  34.189  30.968  1.00  0.00     0.031 C 
ATOM     55  C   UNL A   1      46.415  33.009  29.587  1.00  0.00     0.029 A 
ATOM     56  C   UNL A   1      45.041  32.895  29.730  1.00  0.00     0.049 A 
ATOM     57  H   UNL A   1      43.793  31.250  29.297  1.00  0.00     0.167 HD
ATOM     58  C   UNL A   1      42.773  33.675  30.366  1.00  0.00     0.074 A 
ATOM     59  C   UNL A   1      41.851  34.671  30.872  1.00  0.00     0.031 C 
ATOM     60  C   UNL A   1      44.106  33.879  30.216  1.00  0.00     0.037 A 
BRANCH  47  61
ATOM     61  C   UNL A   1      47.159  29.031  27.874  1.00  0.00     0.058 A 
ATOM     62  C   UNL A   1      47.484  28.929  26.511  1.00  0.00     0.135 A 
ATOM     63  C   UNL A   1      48.112  28.596  28.807  1.00  0.00     0.135 A 
ATOM     64  F   UNL A   1      46.602  29.311  25.574  1.00  0.00    -0.206 F 
ATOM     65  C   UNL A   1      48.693  28.389  26.089  1.00  0.00     0.059 A 
ATOM     66  C   UNL A   1      49.344  28.081  28.407  1.00  0.00     0.059 A 
ATOM     67  F   UNL A   1      47.856  28.667  30.122  1.00  0.00    -0.206 F 
ATOM     68  C   UNL A   1      49.618  27.968  27.046  1.00  0.00     0.060 A 
BRANCH  68  69
ATOM     69  S   UNL A   1      51.189  27.281  26.478  1.00  0.00     0.124 S 
ATOM     70  O   UNL A   1      51.664  28.339  25.592  1.00  0.00    -0.237 OA
ATOM     71  O   UNL A   1      51.928  27.120  27.727  1.00  0.00    -0.237 OA
ATOM     72  O   UNL A   1      50.798  26.039  25.819  1.00  0.00    -0.744 OA
ENDBRANCH  68  69
ENDBRANCH  47  61
BRANCH  48  73
ATOM     73  C   UNL A   1      38.225  32.507  30.753  1.00  0.00     0.058 A 
ATOM     74  C   UNL A   1      37.381  33.242  29.906  1.00  0.00     0.135 A 
ATOM     75  C   UNL A   1      37.786  32.273  32.066  1.00  0.00     0.135 A 
ATOM     76  F   UNL A   1      37.755  33.494  28.642  1.00  0.00    -0.206 F 
ATOM     77  C   UNL A   1      36.166  33.754  30.351  1.00  0.00     0.059 A 
ATOM     78  C   UNL A   1      36.562  32.750  32.525  1.00  0.00     0.059 A 
ATOM     79  F   UNL A   1      38.544  31.557  32.911  1.00  0.00    -0.206 F 
ATOM     80  C   UNL A   1      35.766  33.504  31.664  1.00  0.00     0.060 A 
BRANCH  80  81
ATOM     81  S   UNL A   1      34.177  34.151  32.225  1.00  0.00     0.124 S 
ATOM     82  O   UNL A   1      33.559  34.545  30.964  1.00  0.00    -0.237 OA
ATOM     83  O   UNL A   1      33.590  32.990  32.889  1.00  0.00    -0.237 OA
ATOM     84  O   UNL A   1      34.556  35.246  33.113  1.00  0.00    -0.744 OA
ENDBRANCH  80  81
ENDBRANCH  48  73
BRANCH  60  85
ATOM     85  C   UNL A   1      44.636  35.247  30.547  1.00  0.00     0.058 A 
ATOM     86  C   UNL A   1      45.116  35.571  31.824  1.00  0.00     0.135 A 
ATOM     87  C   UNL A   1      44.683  36.243  29.556  1.00  0.00     0.135 A 
ATOM     88  F   UNL A   1      45.093  34.658  32.807  1.00  0.00    -0.206 F 
ATOM     89  C   UNL A   1      45.584  36.848  32.123  1.00  0.00     0.059 A 
ATOM     90  C   UNL A   1      45.176  37.517  29.823  1.00  0.00     0.059 A 
ATOM     91  F   UNL A   1      44.252  35.982  28.312  1.00  0.00    -0.206 F 
ATOM     92  C   UNL A   1      45.605  37.815  31.115  1.00  0.00     0.060 A 
BRANCH  92  93
ATOM     93  S   UNL A   1      46.214  39.468  31.513  1.00  0.00     0.124 S 
ATOM     94  O   UNL A   1      47.345  39.590  30.600  1.00  0.00    -0.237 OA
ATOM     95  O   UNL A   1      45.060  40.307  31.210  1.00  0.00    -0.237 OA
ATOM     96  O   UNL A   1      46.556  39.371  32.929  1.00  0.00    -0.744 OA
ENDBRANCH  92  93
ENDBRANCH  60  85
ENDBRANCH  34  35
ENDBRANCH  26  29
ENDBRANCH  24  25
ENDBRANCH   1  24
TORSDOF 15
ENDMDL
