MODEL 1
REMARK VINA RESULT:     -11.9      0.000      0.000
REMARK SMILES Cc1c[nH]c(C[N@H+]2C[C@@H]3CN(S(C)(=O)=O)C[C@]3(C(=O)NCCCCNC(=O)c3ccc(-c4c5nc(c(-c6c(F)cc(S(=O)(=O)[O-])cc6F)c6ccc([nH]6)c(-c6c(F)cc(S(=O)(=O)[O-])cc6F)c6nc(c(-c7c(F)cc(S(=O)(=O)[O-])cc7F)c7ccc4[nH]7)C=C6)C=C5)cc3)C2)n1
REMARK SMILES IDX 23 1 22 2 21 3 20 4 18 5 19 6 17 8 7 9 8 10 94 11 9 13 10 14
REMARK SMILES IDX 16 15 11 16 6 17 5 18 1 19 2 20 3 21 95 22 4 23 12 25 13 26
REMARK SMILES IDX 14 27 15 28 24 29 25 30 26 31 27 33 28 34 29 35 93 36 30 37
REMARK SMILES IDX 92 38 31 39 32 40 33 41 86 42 34 43 91 44 85 45 87 46 35 47
REMARK SMILES IDX 90 48 84 49 83 50 36 52 70 53 49 54 69 55 50 56 53 57 68 58
REMARK SMILES IDX 88 59 51 60 52 61 67 63 89 64 54 65 37 66 38 67 47 68 39 69
REMARK SMILES IDX 40 70 46 71 48 72 41 73 42 74 43 75 44 76 45 77 71 78 72 79
REMARK SMILES IDX 81 80 73 81 74 82 80 83 82 84 75 85 76 86 77 87 78 88 79 89
REMARK SMILES IDX 55 90 56 91 65 92 57 93 58 94 64 95 66 96 59 97 60 98 61 99
REMARK SMILES IDX 62 100 63 101
REMARK H PARENT 20 7 7 12 4 24 25 32 87 51 53 62
REMARK Flexibility Score: inf
ROOT
ATOM      1  C   UNL A   1      32.563  29.224  26.124  1.00  0.00     0.023 C 
ENDROOT
BRANCH   1   2
ATOM      2  C   UNL A   1      31.804  27.916  26.259  1.00  0.00     0.023 C 
BRANCH   2   3
ATOM      3  C   UNL A   1      32.695  26.677  26.414  1.00  0.00     0.116 C 
BRANCH   3   4
ATOM      4  N   UNL A   1      31.883  25.528  26.770  1.00  0.00    -0.355 N 
ATOM      5  C   UNL A   1      31.494  24.506  25.927  1.00  0.00     0.233 C 
ATOM      6  O   UNL A   1      30.404  23.975  26.135  1.00  0.00    -0.274 OA
ATOM      7  H   UNL A   1      31.581  25.471  27.706  1.00  0.00     0.163 HD
BRANCH   5   8
ATOM      8  C   UNL A   1      32.505  24.090  24.782  1.00  0.00     0.121 C 
ATOM      9  N   UNL A   1      34.493  22.651  25.445  1.00  0.00    -0.327 N 
ATOM     10  C   UNL A   1      34.300  22.512  24.025  1.00  0.00     0.268 C 
ATOM     11  C   UNL A   1      33.235  23.256  25.946  1.00  0.00     0.281 C 
ATOM     12  H   UNL A   1      35.301  23.239  25.645  1.00  0.00     0.348 HD
ATOM     13  C   UNL A   1      32.829  22.820  23.844  1.00  0.00     0.082 C 
ATOM     14  C   UNL A   1      32.592  23.123  22.366  1.00  0.00     0.113 C 
ATOM     15  C   UNL A   1      31.294  24.364  23.812  1.00  0.00     0.125 C 
ATOM     16  N   UNL A   1      31.836  24.353  22.432  1.00  0.00    -0.200 NA
BRANCH   9  17
ATOM     17  C   UNL A   1      34.836  21.385  26.131  1.00  0.00     0.338 C 
BRANCH  17  18
ATOM     18  C   UNL A   1      34.186  20.148  25.566  1.00  0.00     0.161 A 
ATOM     19  C   UNL A   1      34.136  17.154  23.651  1.00  0.00     0.068 C 
ATOM     20  C   UNL A   1      33.825  18.277  24.561  1.00  0.00     0.056 A 
ATOM     21  C   UNL A   1      32.784  18.434  25.447  1.00  0.00     0.107 A 
ATOM     22  N   UNL A   1      34.665  19.358  24.627  1.00  0.00    -0.233 NA
ATOM     23  N   UNL A   1      33.005  19.640  26.054  1.00  0.00    -0.344 N 
ATOM     24  H   UNL A   1      32.422  20.068  26.722  1.00  0.00     0.167 HD
ENDBRANCH  17  18
ENDBRANCH   9  17
BRANCH  16  25
ATOM     25  S   UNL A   1      32.485  25.737  21.724  1.00  0.00     0.211 S 
ATOM     26  C   UNL A   1      31.843  27.100  22.692  1.00  0.00     0.176 C 
ATOM     27  O   UNL A   1      33.913  25.704  21.948  1.00  0.00    -0.213 OA
ATOM     28  O   UNL A   1      31.945  25.852  20.386  1.00  0.00    -0.213 OA
ENDBRANCH  16  25
ENDBRANCH   5   8
ENDBRANCH   3   4
ENDBRANCH   2   3
ENDBRANCH   1   2
BRANCH   1  29
ATOM     29  C   UNL A   1      33.723  29.355  27.090  1.00  0.00     0.116 C 
BRANCH  29  30
ATOM     30  N   UNL A   1      33.684  30.554  27.925  1.00  0.00    -0.352 N 
ATOM     31  C   UNL A   1      34.701  31.032  28.722  1.00  0.00     0.251 C 
ATOM     32  H   UNL A   1      32.846  31.070  27.919  1.00  0.00     0.163 HD
ATOM     33  O   UNL A   1      34.563  32.019  29.433  1.00  0.00    -0.269 OA
BRANCH  31  34
ATOM     34  C   UNL A   1      35.958  30.265  28.713  1.00  0.00     0.039 A 
ATOM     35  C   UNL A   1      36.794  30.351  27.600  1.00  0.00     0.014 A 
ATOM     36  C   UNL A   1      36.392  29.686  29.908  1.00  0.00     0.014 A 
ATOM     37  C   UNL A   1      38.116  29.921  27.714  1.00  0.00     0.010 A 
ATOM     38  C   UNL A   1      37.733  29.371  30.048  1.00  0.00     0.010 A 
ATOM     39  C   UNL A   1      38.607  29.476  28.952  1.00  0.00    -0.014 A 
BRANCH  39  40
ATOM     40  C   UNL A   1      40.022  29.070  29.143  1.00  0.00     0.031 A 
ATOM     41  C   UNL A   1      41.005  30.103  29.623  1.00  0.00     0.074 A 
ATOM     42  C   UNL A   1      40.438  27.835  28.798  1.00  0.00     0.049 A 
ATOM     43  N   UNL A   1      42.308  30.037  29.691  1.00  0.00    -0.248 NA
ATOM     44  C   UNL A   1      40.447  31.403  30.036  1.00  0.00     0.031 C 
ATOM     45  C   UNL A   1      39.585  26.759  28.287  1.00  0.00     0.029 A 
ATOM     46  N   UNL A   1      41.695  27.282  28.807  1.00  0.00    -0.354 N 
ATOM     47  C   UNL A   1      42.722  31.291  30.121  1.00  0.00     0.074 A 
ATOM     48  C   UNL A   1      41.543  32.119  30.230  1.00  0.00     0.031 C 
ATOM     49  C   UNL A   1      40.340  25.673  28.051  1.00  0.00     0.029 A 
ATOM     50  C   UNL A   1      41.735  25.987  28.342  1.00  0.00     0.049 A 
ATOM     51  H   UNL A   1      42.494  27.767  29.117  1.00  0.00     0.167 HD
ATOM     52  C   UNL A   1      43.972  31.708  30.427  1.00  0.00     0.037 A 
ATOM     53  C   UNL A   1      42.782  25.158  28.154  1.00  0.00     0.037 A 
ATOM     54  C   UNL A   1      45.131  30.863  30.354  1.00  0.00     0.049 A 
ATOM     55  C   UNL A   1      44.167  25.646  28.494  1.00  0.00     0.074 A 
ATOM     56  C   UNL A   1      46.436  31.165  30.695  1.00  0.00     0.029 A 
ATOM     57  N   UNL A   1      45.123  29.546  29.916  1.00  0.00    -0.354 N 
ATOM     58  N   UNL A   1      44.539  26.821  28.944  1.00  0.00    -0.248 NA
ATOM     59  C   UNL A   1      45.275  24.699  28.304  1.00  0.00     0.031 C 
ATOM     60  C   UNL A   1      47.228  30.050  30.411  1.00  0.00     0.029 A 
ATOM     61  C   UNL A   1      46.406  29.029  29.959  1.00  0.00     0.049 A 
ATOM     62  H   UNL A   1      44.325  29.054  29.616  1.00  0.00     0.167 HD
ATOM     63  C   UNL A   1      45.915  26.739  29.134  1.00  0.00     0.074 A 
ATOM     64  C   UNL A   1      46.311  25.401  28.745  1.00  0.00     0.031 C 
ATOM     65  C   UNL A   1      46.772  27.681  29.598  1.00  0.00     0.037 A 
BRANCH  52  66
ATOM     66  C   UNL A   1      44.143  33.135  30.871  1.00  0.00     0.058 A 
ATOM     67  C   UNL A   1      44.055  33.506  32.223  1.00  0.00     0.135 A 
ATOM     68  C   UNL A   1      44.422  34.141  29.933  1.00  0.00     0.135 A 
ATOM     69  F   UNL A   1      43.769  32.589  33.161  1.00  0.00    -0.206 F 
ATOM     70  C   UNL A   1      44.204  34.829  32.624  1.00  0.00     0.059 A 
ATOM     71  C   UNL A   1      44.611  35.466  30.316  1.00  0.00     0.059 A 
ATOM     72  F   UNL A   1      44.511  33.844  28.627  1.00  0.00    -0.206 F 
ATOM     73  C   UNL A   1      44.485  35.801  31.663  1.00  0.00     0.060 A 
BRANCH  73  74
ATOM     74  S   UNL A   1      44.686  37.510  32.204  1.00  0.00     0.124 S 
ATOM     75  O   UNL A   1      43.854  38.221  31.239  1.00  0.00    -0.237 OA
ATOM     76  O   UNL A   1      44.175  37.466  33.570  1.00  0.00    -0.237 OA
ATOM     77  O   UNL A   1      46.123  37.739  32.082  1.00  0.00    -0.744 OA
ENDBRANCH  73  74
ENDBRANCH  52  66
BRANCH  53  78
ATOM     78  C   UNL A   1      42.563  23.778  27.638  1.00  0.00     0.058 A 
ATOM     79  C   UNL A   1      42.459  22.687  28.515  1.00  0.00     0.135 A 
ATOM     80  C   UNL A   1      42.449  23.520  26.263  1.00  0.00     0.135 A 
ATOM     81  F   UNL A   1      42.568  22.879  29.839  1.00  0.00    -0.206 F 
ATOM     82  C   UNL A   1      42.271  21.390  28.049  1.00  0.00     0.059 A 
ATOM     83  C   UNL A   1      42.232  22.235  25.773  1.00  0.00     0.059 A 
ATOM     84  F   UNL A   1      42.524  24.528  25.380  1.00  0.00    -0.206 F 
ATOM     85  C   UNL A   1      42.156  21.174  26.674  1.00  0.00     0.060 A 
BRANCH  85  86
ATOM     86  S   UNL A   1      41.873  19.490  26.085  1.00  0.00     0.124 S 
ATOM     87  O   UNL A   1      42.757  19.431  24.926  1.00  0.00    -0.237 OA
ATOM     88  O   UNL A   1      42.278  18.691  27.238  1.00  0.00    -0.237 OA
ATOM     89  O   UNL A   1      40.443  19.473  25.790  1.00  0.00    -0.744 OA
ENDBRANCH  85  86
ENDBRANCH  53  78
BRANCH  65  90
ATOM     90  C   UNL A   1      48.213  27.296  29.786  1.00  0.00     0.058 A 
ATOM     91  C   UNL A   1      49.192  27.578  28.822  1.00  0.00     0.135 A 
ATOM     92  C   UNL A   1      48.632  26.737  31.005  1.00  0.00     0.135 A 
ATOM     93  F   UNL A   1      48.844  28.106  27.638  1.00  0.00    -0.206 F 
ATOM     94  C   UNL A   1      50.538  27.313  29.058  1.00  0.00     0.059 A 
ATOM     95  C   UNL A   1      49.974  26.493  31.275  1.00  0.00     0.059 A 
ATOM     96  F   UNL A   1      47.735  26.459  31.966  1.00  0.00    -0.206 F 
ATOM     97  C   UNL A   1      50.920  26.783  30.293  1.00  0.00     0.060 A 
BRANCH  97  98
ATOM     98  S   UNL A   1      52.676  26.520  30.615  1.00  0.00     0.124 S 
ATOM     99  O   UNL A   1      53.077  27.818  31.144  1.00  0.00    -0.237 OA
ATOM    100  O   UNL A   1      52.653  25.421  31.577  1.00  0.00    -0.237 OA
ATOM    101  O   UNL A   1      53.217  26.182  29.301  1.00  0.00    -0.744 OA
ENDBRANCH  97  98
ENDBRANCH  65  90
ENDBRANCH  39  40
ENDBRANCH  31  34
ENDBRANCH  29  30
ENDBRANCH   1  29
TORSDOF 17
ENDMDL
MODEL 2
REMARK VINA RESULT:     -11.8      2.616      3.449
REMARK SMILES Cc1c[nH]c(C[N@H+]2C[C@@H]3CN(S(C)(=O)=O)C[C@]3(C(=O)NCCCCNC(=O)c3ccc(-c4c5nc(c(-c6c(F)cc(S(=O)(=O)[O-])cc6F)c6ccc([nH]6)c(-c6c(F)cc(S(=O)(=O)[O-])cc6F)c6nc(c(-c7c(F)cc(S(=O)(=O)[O-])cc7F)c7ccc4[nH]7)C=C6)C=C5)cc3)C2)n1
REMARK SMILES IDX 23 1 22 2 21 3 20 4 18 5 19 6 17 8 7 9 8 10 94 11 9 13 10 14
REMARK SMILES IDX 16 15 11 16 6 17 5 18 1 19 2 20 3 21 95 22 4 23 12 25 13 26
REMARK SMILES IDX 14 27 15 28 24 29 25 30 26 31 27 33 28 34 29 35 93 36 30 37
REMARK SMILES IDX 92 38 31 39 32 40 33 41 86 42 34 43 91 44 85 45 87 46 35 47
REMARK SMILES IDX 90 48 84 49 83 50 36 52 70 53 49 54 69 55 50 56 53 57 68 58
REMARK SMILES IDX 88 59 51 60 52 61 67 63 89 64 54 65 37 66 38 67 47 68 39 69
REMARK SMILES IDX 40 70 46 71 48 72 41 73 42 74 43 75 44 76 45 77 71 78 72 79
REMARK SMILES IDX 81 80 73 81 74 82 80 83 82 84 75 85 76 86 77 87 78 88 79 89
REMARK SMILES IDX 55 90 56 91 65 92 57 93 58 94 64 95 66 96 59 97 60 98 61 99
REMARK SMILES IDX 62 100 63 101
REMARK H PARENT 20 7 7 12 4 24 25 32 87 51 53 62
REMARK Flexibility Score: inf
ROOT
ATOM      1  C   UNL A   1      33.722  29.580  27.013  1.00  0.00     0.023 C 
ENDROOT
BRANCH   1   2
ATOM      2  C   UNL A   1      32.985  28.391  27.600  1.00  0.00     0.023 C 
BRANCH   2   3
ATOM      3  C   UNL A   1      31.538  28.236  27.113  1.00  0.00     0.116 C 
BRANCH   3   4
ATOM      4  N   UNL A   1      31.145  26.840  27.173  1.00  0.00    -0.355 N 
ATOM      5  C   UNL A   1      30.799  26.039  26.103  1.00  0.00     0.233 C 
ATOM      6  O   UNL A   1      29.962  25.158  26.293  1.00  0.00    -0.274 OA
ATOM      7  H   UNL A   1      31.125  26.422  28.065  1.00  0.00     0.163 HD
BRANCH   5   8
ATOM      8  C   UNL A   1      31.538  26.310  24.729  1.00  0.00     0.121 C 
ATOM      9  N   UNL A   1      33.633  24.956  24.242  1.00  0.00    -0.327 N 
ATOM     10  C   UNL A   1      33.136  25.465  22.991  1.00  0.00     0.268 C 
ATOM     11  C   UNL A   1      32.512  25.120  25.198  1.00  0.00     0.281 C 
ATOM     12  H   UNL A   1      34.462  25.471  24.540  1.00  0.00     0.348 HD
ATOM     13  C   UNL A   1      31.658  25.658  23.260  1.00  0.00     0.082 C 
ATOM     14  C   UNL A   1      31.101  26.580  22.177  1.00  0.00     0.113 C 
ATOM     15  C   UNL A   1      30.143  26.865  24.254  1.00  0.00     0.125 C 
ATOM     16  N   UNL A   1      30.369  27.550  22.958  1.00  0.00    -0.200 NA
BRANCH   9  17
ATOM     17  C   UNL A   1      34.128  23.562  24.169  1.00  0.00     0.338 C 
BRANCH  17  18
ATOM     18  C   UNL A   1      35.442  23.307  24.858  1.00  0.00     0.161 A 
ATOM     19  C   UNL A   1      38.418  21.467  25.487  1.00  0.00     0.068 C 
ATOM     20  C   UNL A   1      37.347  22.485  25.441  1.00  0.00     0.056 A 
ATOM     21  C   UNL A   1      37.333  23.775  25.920  1.00  0.00     0.107 A 
ATOM     22  N   UNL A   1      36.161  22.204  24.814  1.00  0.00    -0.233 NA
ATOM     23  N   UNL A   1      36.107  24.275  25.574  1.00  0.00    -0.344 N 
ATOM     24  H   UNL A   1      35.762  25.170  25.798  1.00  0.00     0.167 HD
ENDBRANCH  17  18
ENDBRANCH   9  17
BRANCH  16  25
ATOM     25  S   UNL A   1      30.837  29.166  22.880  1.00  0.00     0.211 S 
ATOM     26  C   UNL A   1      29.729  29.914  21.689  1.00  0.00     0.176 C 
ATOM     27  O   UNL A   1      30.534  29.763  24.162  1.00  0.00    -0.213 OA
ATOM     28  O   UNL A   1      32.176  29.220  22.333  1.00  0.00    -0.213 OA
ENDBRANCH  16  25
ENDBRANCH   5   8
ENDBRANCH   3   4
ENDBRANCH   2   3
ENDBRANCH   1   2
BRANCH   1  29
ATOM     29  C   UNL A   1      35.127  29.752  27.555  1.00  0.00     0.116 C 
BRANCH  29  30
ATOM     30  N   UNL A   1      35.208  30.519  28.796  1.00  0.00    -0.352 N 
ATOM     31  C   UNL A   1      36.283  30.576  29.656  1.00  0.00     0.251 C 
ATOM     32  H   UNL A   1      34.415  31.047  29.043  1.00  0.00     0.163 HD
ATOM     33  O   UNL A   1      36.246  31.205  30.705  1.00  0.00    -0.269 OA
BRANCH  31  34
ATOM     34  C   UNL A   1      37.474  29.799  29.271  1.00  0.00     0.039 A 
ATOM     35  C   UNL A   1      37.934  29.875  27.956  1.00  0.00     0.014 A 
ATOM     36  C   UNL A   1      38.246  29.221  30.281  1.00  0.00     0.014 A 
ATOM     37  C   UNL A   1      39.226  29.435  27.667  1.00  0.00     0.010 A 
ATOM     38  C   UNL A   1      39.564  28.896  30.011  1.00  0.00     0.010 A 
ATOM     39  C   UNL A   1      40.065  28.991  28.701  1.00  0.00    -0.014 A 
BRANCH  39  40
ATOM     40  C   UNL A   1      41.469  28.574  28.456  1.00  0.00     0.031 A 
ATOM     41  C   UNL A   1      42.539  29.632  28.452  1.00  0.00     0.074 A 
ATOM     42  C   UNL A   1      41.766  27.297  28.146  1.00  0.00     0.049 A 
ATOM     43  N   UNL A   1      43.791  29.541  28.088  1.00  0.00    -0.248 NA
ATOM     44  C   UNL A   1      42.131  30.986  28.865  1.00  0.00     0.031 C 
ATOM     45  C   UNL A   1      40.809  26.189  28.083  1.00  0.00     0.029 A 
ATOM     46  N   UNL A   1      42.962  26.716  27.802  1.00  0.00    -0.354 N 
ATOM     47  C   UNL A   1      44.305  30.827  28.200  1.00  0.00     0.074 A 
ATOM     48  C   UNL A   1      43.217  31.691  28.595  1.00  0.00     0.031 C 
ATOM     49  C   UNL A   1      41.459  25.064  27.743  1.00  0.00     0.029 A 
ATOM     50  C   UNL A   1      42.866  25.375  27.511  1.00  0.00     0.049 A 
ATOM     51  H   UNL A   1      43.811  27.215  27.766  1.00  0.00     0.167 HD
ATOM     52  C   UNL A   1      45.578  31.245  28.019  1.00  0.00     0.037 A 
ATOM     53  C   UNL A   1      43.802  24.503  27.087  1.00  0.00     0.037 A 
ATOM     54  C   UNL A   1      46.660  30.368  27.666  1.00  0.00     0.049 A 
ATOM     55  C   UNL A   1      45.214  24.992  26.883  1.00  0.00     0.074 A 
ATOM     56  C   UNL A   1      47.999  30.676  27.513  1.00  0.00     0.029 A 
ATOM     57  N   UNL A   1      46.527  29.009  27.419  1.00  0.00    -0.354 N 
ATOM     58  N   UNL A   1      45.696  26.203  27.037  1.00  0.00    -0.248 NA
ATOM     59  C   UNL A   1      46.210  24.001  26.451  1.00  0.00     0.031 C 
ATOM     60  C   UNL A   1      48.668  29.515  27.118  1.00  0.00     0.029 A 
ATOM     61  C   UNL A   1      47.759  28.468  27.095  1.00  0.00     0.049 A 
ATOM     62  H   UNL A   1      45.683  28.505  27.465  1.00  0.00     0.167 HD
ATOM     63  C   UNL A   1      47.058  26.109  26.766  1.00  0.00     0.074 A 
ATOM     64  C   UNL A   1      47.322  24.724  26.433  1.00  0.00     0.031 C 
ATOM     65  C   UNL A   1      48.005  27.078  26.798  1.00  0.00     0.037 A 
BRANCH  52  66
ATOM     66  C   UNL A   1      45.865  32.710  28.202  1.00  0.00     0.058 A 
ATOM     67  C   UNL A   1      46.256  33.239  29.444  1.00  0.00     0.135 A 
ATOM     68  C   UNL A   1      45.769  33.594  27.116  1.00  0.00     0.135 A 
ATOM     69  F   UNL A   1      46.342  32.443  30.523  1.00  0.00    -0.206 F 
ATOM     70  C   UNL A   1      46.509  34.595  29.609  1.00  0.00     0.059 A 
ATOM     71  C   UNL A   1      46.054  34.950  27.250  1.00  0.00     0.059 A 
ATOM     72  F   UNL A   1      45.395  33.145  25.908  1.00  0.00    -0.206 F 
ATOM     73  C   UNL A   1      46.408  35.443  28.505  1.00  0.00     0.060 A 
BRANCH  73  74
ATOM     74  S   UNL A   1      46.752  37.199  28.736  1.00  0.00     0.124 S 
ATOM     75  O   UNL A   1      47.411  37.197  30.038  1.00  0.00    -0.237 OA
ATOM     76  O   UNL A   1      47.607  37.501  27.593  1.00  0.00    -0.237 OA
ATOM     77  O   UNL A   1      45.427  37.812  28.705  1.00  0.00    -0.744 OA
ENDBRANCH  73  74
ENDBRANCH  52  66
BRANCH  53  78
ATOM     78  C   UNL A   1      43.446  23.077  26.846  1.00  0.00     0.058 A 
ATOM     79  C   UNL A   1      43.390  22.556  25.543  1.00  0.00     0.135 A 
ATOM     80  C   UNL A   1      43.157  22.204  27.907  1.00  0.00     0.135 A 
ATOM     81  F   UNL A   1      43.650  23.350  24.492  1.00  0.00    -0.206 F 
ATOM     82  C   UNL A   1      43.043  21.231  25.300  1.00  0.00     0.059 A 
ATOM     83  C   UNL A   1      42.835  20.868  27.691  1.00  0.00     0.059 A 
ATOM     84  F   UNL A   1      43.211  22.645  29.174  1.00  0.00    -0.206 F 
ATOM     85  C   UNL A   1      42.769  20.393  26.382  1.00  0.00     0.060 A 
BRANCH  85  86
ATOM     86  S   UNL A   1      42.358  18.665  26.054  1.00  0.00     0.124 S 
ATOM     87  O   UNL A   1      40.949  18.761  25.689  1.00  0.00    -0.237 OA
ATOM     88  O   UNL A   1      43.277  18.333  24.969  1.00  0.00    -0.237 OA
ATOM     89  O   UNL A   1      42.637  18.005  27.326  1.00  0.00    -0.744 OA
ENDBRANCH  85  86
ENDBRANCH  53  78
BRANCH  65  90
ATOM     90  C   UNL A   1      49.432  26.681  26.540  1.00  0.00     0.058 A 
ATOM     91  C   UNL A   1      50.235  26.101  27.533  1.00  0.00     0.135 A 
ATOM     92  C   UNL A   1      49.961  26.784  25.243  1.00  0.00     0.135 A 
ATOM     93  F   UNL A   1      49.779  25.986  28.790  1.00  0.00    -0.206 F 
ATOM     94  C   UNL A   1      51.517  25.640  27.249  1.00  0.00     0.059 A 
ATOM     95  C   UNL A   1      51.227  26.302  24.929  1.00  0.00     0.059 A 
ATOM     96  F   UNL A   1      49.228  27.322  24.254  1.00  0.00    -0.206 F 
ATOM     97  C   UNL A   1      51.998  25.733  25.941  1.00  0.00     0.060 A 
BRANCH  97  98
ATOM     98  S   UNL A   1      53.631  25.059  25.571  1.00  0.00     0.124 S 
ATOM     99  O   UNL A   1      54.005  25.825  24.387  1.00  0.00    -0.237 OA
ATOM    100  O   UNL A   1      54.377  25.368  26.788  1.00  0.00    -0.237 OA
ATOM    101  O   UNL A   1      53.372  23.641  25.345  1.00  0.00    -0.744 OA
ENDBRANCH  97  98
ENDBRANCH  65  90
ENDBRANCH  39  40
ENDBRANCH  31  34
ENDBRANCH  29  30
ENDBRANCH   1  29
TORSDOF 17
ENDMDL
MODEL 3
REMARK VINA RESULT:     -11.7      1.491      2.170
REMARK SMILES Cc1c[nH]c(C[N@H+]2C[C@@H]3CN(S(C)(=O)=O)C[C@]3(C(=O)NCCCCNC(=O)c3ccc(-c4c5nc(c(-c6c(F)cc(S(=O)(=O)[O-])cc6F)c6ccc([nH]6)c(-c6c(F)cc(S(=O)(=O)[O-])cc6F)c6nc(c(-c7c(F)cc(S(=O)(=O)[O-])cc7F)c7ccc4[nH]7)C=C6)C=C5)cc3)C2)n1
REMARK SMILES IDX 23 1 22 2 21 3 20 4 18 5 19 6 17 8 7 9 8 10 94 11 9 13 10 14
REMARK SMILES IDX 16 15 11 16 6 17 5 18 1 19 2 20 3 21 95 22 4 23 12 25 13 26
REMARK SMILES IDX 14 27 15 28 24 29 25 30 26 31 27 33 28 34 29 35 93 36 30 37
REMARK SMILES IDX 92 38 31 39 32 40 33 41 86 42 34 43 91 44 85 45 87 46 35 47
REMARK SMILES IDX 90 48 84 49 83 50 36 52 70 53 49 54 69 55 50 56 53 57 68 58
REMARK SMILES IDX 88 59 51 60 52 61 67 63 89 64 54 65 37 66 38 67 47 68 39 69
REMARK SMILES IDX 40 70 46 71 48 72 41 73 42 74 43 75 44 76 45 77 71 78 72 79
REMARK SMILES IDX 81 80 73 81 74 82 80 83 82 84 75 85 76 86 77 87 78 88 79 89
REMARK SMILES IDX 55 90 56 91 65 92 57 93 58 94 64 95 66 96 59 97 60 98 61 99
REMARK SMILES IDX 62 100 63 101
REMARK H PARENT 20 7 7 12 4 24 25 32 87 51 53 62
REMARK Flexibility Score: inf
ROOT
ATOM      1  C   UNL A   1      33.657  28.020  26.901  1.00  0.00     0.023 C 
ENDROOT
BRANCH   1   2
ATOM      2  C   UNL A   1      32.298  28.065  27.574  1.00  0.00     0.023 C 
BRANCH   2   3
ATOM      3  C   UNL A   1      31.138  27.574  26.698  1.00  0.00     0.116 C 
BRANCH   3   4
ATOM      4  N   UNL A   1      31.110  26.123  26.686  1.00  0.00    -0.355 N 
ATOM      5  C   UNL A   1      31.022  25.314  25.570  1.00  0.00     0.233 C 
ATOM      6  O   UNL A   1      30.428  24.243  25.684  1.00  0.00    -0.274 OA
ATOM      7  H   UNL A   1      31.158  25.671  27.560  1.00  0.00     0.163 HD
BRANCH   5   8
ATOM      8  C   UNL A   1      31.725  25.828  24.248  1.00  0.00     0.121 C 
ATOM      9  N   UNL A   1      33.878  24.675  23.545  1.00  0.00    -0.327 N 
ATOM     10  C   UNL A   1      33.336  25.341  22.390  1.00  0.00     0.268 C 
ATOM     11  C   UNL A   1      32.765  24.633  24.523  1.00  0.00     0.281 C 
ATOM     12  H   UNL A   1      34.684  25.181  23.911  1.00  0.00     0.348 HD
ATOM     13  C   UNL A   1      31.855  25.414  22.696  1.00  0.00     0.082 C 
ATOM     14  C   UNL A   1      31.235  26.459  21.770  1.00  0.00     0.113 C 
ATOM     15  C   UNL A   1      30.296  26.375  23.874  1.00  0.00     0.125 C 
ATOM     16  N   UNL A   1      30.468  27.260  22.696  1.00  0.00    -0.200 NA
BRANCH   9  17
ATOM     17  C   UNL A   1      34.441  23.336  23.256  1.00  0.00     0.338 C 
BRANCH  17  18
ATOM     18  C   UNL A   1      35.561  22.898  24.163  1.00  0.00     0.161 A 
ATOM     19  C   UNL A   1      38.382  23.448  26.255  1.00  0.00     0.068 C 
ATOM     20  C   UNL A   1      37.235  22.874  25.519  1.00  0.00     0.056 A 
ATOM     21  C   UNL A   1      36.645  21.635  25.629  1.00  0.00     0.107 A 
ATOM     22  N   UNL A   1      36.570  23.629  24.589  1.00  0.00    -0.233 NA
ATOM     23  N   UNL A   1      35.605  21.650  24.740  1.00  0.00    -0.344 N 
ATOM     24  H   UNL A   1      34.997  20.901  24.548  1.00  0.00     0.167 HD
ENDBRANCH  17  18
ENDBRANCH   9  17
BRANCH  16  25
ATOM     25  S   UNL A   1      30.853  28.891  22.862  1.00  0.00     0.211 S 
ATOM     26  C   UNL A   1      32.642  28.954  22.813  1.00  0.00     0.176 C 
ATOM     27  O   UNL A   1      30.381  29.567  21.674  1.00  0.00    -0.213 OA
ATOM     28  O   UNL A   1      30.432  29.321  24.179  1.00  0.00    -0.213 OA
ENDBRANCH  16  25
ENDBRANCH   5   8
ENDBRANCH   3   4
ENDBRANCH   2   3
ENDBRANCH   1   2
BRANCH   1  29
ATOM     29  C   UNL A   1      34.168  29.381  26.470  1.00  0.00     0.116 C 
BRANCH  29  30
ATOM     30  N   UNL A   1      34.007  30.432  27.472  1.00  0.00    -0.352 N 
ATOM     31  C   UNL A   1      34.912  30.778  28.452  1.00  0.00     0.251 C 
ATOM     32  H   UNL A   1      33.166  30.944  27.446  1.00  0.00     0.163 HD
ATOM     33  O   UNL A   1      34.673  31.640  29.286  1.00  0.00    -0.269 OA
BRANCH  31  34
ATOM     34  C   UNL A   1      36.176  30.021  28.474  1.00  0.00     0.039 A 
ATOM     35  C   UNL A   1      37.065  30.160  27.408  1.00  0.00     0.014 A 
ATOM     36  C   UNL A   1      36.556  29.397  29.664  1.00  0.00     0.014 A 
ATOM     37  C   UNL A   1      38.384  29.735  27.571  1.00  0.00     0.010 A 
ATOM     38  C   UNL A   1      37.890  29.086  29.858  1.00  0.00     0.010 A 
ATOM     39  C   UNL A   1      38.817  29.244  28.812  1.00  0.00    -0.014 A 
BRANCH  39  40
ATOM     40  C   UNL A   1      40.224  28.841  29.056  1.00  0.00     0.031 A 
ATOM     41  C   UNL A   1      41.181  29.870  29.592  1.00  0.00     0.074 A 
ATOM     42  C   UNL A   1      40.660  27.612  28.713  1.00  0.00     0.049 A 
ATOM     43  N   UNL A   1      42.481  29.809  29.714  1.00  0.00    -0.248 NA
ATOM     44  C   UNL A   1      40.601  31.162  29.999  1.00  0.00     0.031 C 
ATOM     45  C   UNL A   1      39.835  26.540  28.150  1.00  0.00     0.029 A 
ATOM     46  N   UNL A   1      41.918  27.064  28.766  1.00  0.00    -0.354 N 
ATOM     47  C   UNL A   1      42.871  31.059  30.179  1.00  0.00     0.074 A 
ATOM     48  C   UNL A   1      41.684  31.880  30.249  1.00  0.00     0.031 C 
ATOM     49  C   UNL A   1      40.604  25.461  27.932  1.00  0.00     0.029 A 
ATOM     50  C   UNL A   1      41.985  25.776  28.285  1.00  0.00     0.049 A 
ATOM     51  H   UNL A   1      42.701  27.548  29.116  1.00  0.00     0.167 HD
ATOM     52  C   UNL A   1      44.105  31.476  30.543  1.00  0.00     0.037 A 
ATOM     53  C   UNL A   1      43.042  24.954  28.130  1.00  0.00     0.037 A 
ATOM     54  C   UNL A   1      45.270  30.636  30.507  1.00  0.00     0.049 A 
ATOM     55  C   UNL A   1      44.410  25.443  28.534  1.00  0.00     0.074 A 
ATOM     56  C   UNL A   1      46.558  30.940  30.906  1.00  0.00     0.029 A 
ATOM     57  N   UNL A   1      45.287  29.327  30.049  1.00  0.00    -0.354 N 
ATOM     58  N   UNL A   1      44.757  26.613  29.016  1.00  0.00    -0.248 NA
ATOM     59  C   UNL A   1      45.529  24.503  28.378  1.00  0.00     0.031 C 
ATOM     60  C   UNL A   1      47.367  29.832  30.640  1.00  0.00     0.029 A 
ATOM     61  C   UNL A   1      46.568  28.814  30.140  1.00  0.00     0.049 A 
ATOM     62  H   UNL A   1      44.504  28.835  29.710  1.00  0.00     0.167 HD
ATOM     63  C   UNL A   1      46.124  26.534  29.263  1.00  0.00     0.074 A 
ATOM     64  C   UNL A   1      46.542  25.203  28.872  1.00  0.00     0.031 C 
ATOM     65  C   UNL A   1      46.956  27.473  29.775  1.00  0.00     0.037 A 
BRANCH  52  66
ATOM     66  C   UNL A   1      44.250  32.897  31.013  1.00  0.00     0.058 A 
ATOM     67  C   UNL A   1      44.443  33.959  30.113  1.00  0.00     0.135 A 
ATOM     68  C   UNL A   1      44.174  33.204  32.380  1.00  0.00     0.135 A 
ATOM     69  F   UNL A   1      44.546  33.721  28.795  1.00  0.00    -0.206 F 
ATOM     70  C   UNL A   1      44.588  35.269  30.556  1.00  0.00     0.059 A 
ATOM     71  C   UNL A   1      44.280  34.513  32.843  1.00  0.00     0.059 A 
ATOM     72  F   UNL A   1      43.996  32.228  33.285  1.00  0.00    -0.206 F 
ATOM     73  C   UNL A   1      44.501  35.536  31.923  1.00  0.00     0.060 A 
BRANCH  73  74
ATOM     74  S   UNL A   1      44.680  37.243  32.477  1.00  0.00     0.124 S 
ATOM     75  O   UNL A   1      46.131  37.407  32.452  1.00  0.00    -0.237 OA
ATOM     76  O   UNL A   1      43.942  37.980  31.457  1.00  0.00    -0.237 OA
ATOM     77  O   UNL A   1      44.073  37.236  33.804  1.00  0.00    -0.744 OA
ENDBRANCH  73  74
ENDBRANCH  52  66
BRANCH  53  78
ATOM     78  C   UNL A   1      42.851  23.581  27.586  1.00  0.00     0.058 A 
ATOM     79  C   UNL A   1      42.499  22.513  28.426  1.00  0.00     0.135 A 
ATOM     80  C   UNL A   1      43.012  23.306  26.218  1.00  0.00     0.135 A 
ATOM     81  F   UNL A   1      42.341  22.721  29.743  1.00  0.00    -0.206 F 
ATOM     82  C   UNL A   1      42.334  21.221  27.937  1.00  0.00     0.059 A 
ATOM     83  C   UNL A   1      42.824  22.028  25.700  1.00  0.00     0.059 A 
ATOM     84  F   UNL A   1      43.332  24.293  25.366  1.00  0.00    -0.206 F 
ATOM     85  C   UNL A   1      42.496  20.989  26.570  1.00  0.00     0.060 A 
BRANCH  85  86
ATOM     86  S   UNL A   1      42.240  19.315  25.942  1.00  0.00     0.124 S 
ATOM     87  O   UNL A   1      43.029  19.336  24.716  1.00  0.00    -0.237 OA
ATOM     88  O   UNL A   1      42.770  18.497  27.029  1.00  0.00    -0.237 OA
ATOM     89  O   UNL A   1      40.793  19.241  25.760  1.00  0.00    -0.744 OA
ENDBRANCH  85  86
ENDBRANCH  53  78
BRANCH  65  90
ATOM     90  C   UNL A   1      48.390  27.091  30.018  1.00  0.00     0.058 A 
ATOM     91  C   UNL A   1      49.405  27.382  29.096  1.00  0.00     0.135 A 
ATOM     92  C   UNL A   1      48.761  26.525  31.250  1.00  0.00     0.135 A 
ATOM     93  F   UNL A   1      49.103  27.917  27.903  1.00  0.00    -0.206 F 
ATOM     94  C   UNL A   1      50.741  27.120  29.384  1.00  0.00     0.059 A 
ATOM     95  C   UNL A   1      50.092  26.284  31.571  1.00  0.00     0.059 A 
ATOM     96  F   UNL A   1      47.828  26.239  32.171  1.00  0.00    -0.206 F 
ATOM     97  C   UNL A   1      51.076  26.584  30.630  1.00  0.00     0.060 A 
BRANCH  97  98
ATOM     98  S   UNL A   1      52.819  26.323  31.020  1.00  0.00     0.124 S 
ATOM     99  O   UNL A   1      53.401  26.181  29.690  1.00  0.00    -0.237 OA
ATOM    100  O   UNL A   1      53.162  27.550  31.736  1.00  0.00    -0.237 OA
ATOM    101  O   UNL A   1      52.809  25.112  31.834  1.00  0.00    -0.744 OA
ENDBRANCH  97  98
ENDBRANCH  65  90
ENDBRANCH  39  40
ENDBRANCH  31  34
ENDBRANCH  29  30
ENDBRANCH   1  29
TORSDOF 17
ENDMDL
