MODEL 1
REMARK VINA RESULT:     -11.2      0.000      0.000
REMARK SMILES Cc1ccc(S(=O)(=O)N[C@@H](C)C(=O)Oc2csc(C(=O)NCCCCNC(=O)c3ccc(-c4c5nc(c(-c6c(F)cc(S(=O)(=O)[O-])cc6F)c6ccc([nH]6)c(-c6c(F)cc(S(=O)(=O)[O-])cc6F)c6nc(c(-c7c(F)cc(S(=O)(=O)[O-])cc7F)c7ccc4[nH]7)C=C6)C=C5)cc3)c2C)cc1
REMARK SMILES IDX 22 1 21 2 19 3 20 4 18 6 15 7 16 8 95 9 17 10 96 11 14 12
REMARK SMILES IDX 12 13 13 14 10 15 11 16 9 17 6 19 7 20 8 21 5 22 1 23 2 24
REMARK SMILES IDX 3 25 98 26 4 27 97 28 23 29 24 30 25 31 26 32 27 33 28 35
REMARK SMILES IDX 29 36 30 37 94 38 31 39 93 40 32 41 33 42 34 43 87 44 35 45
REMARK SMILES IDX 92 46 86 47 88 48 36 49 91 50 85 51 84 52 37 54 71 55 50 56
REMARK SMILES IDX 70 57 51 58 54 59 69 60 89 61 52 62 53 63 68 65 90 66 55 67
REMARK SMILES IDX 38 68 39 69 48 70 40 71 41 72 47 73 49 74 42 75 43 76 44 77
REMARK SMILES IDX 45 78 46 79 72 80 73 81 82 82 74 83 75 84 81 85 83 86 76 87
REMARK SMILES IDX 77 88 78 89 79 90 80 91 56 92 57 93 66 94 58 95 59 96 65 97
REMARK SMILES IDX 67 98 60 99 61 100 62 101 63 102 64 103
REMARK H PARENT 21 5 9 18 26 34 88 53 54 64
REMARK Flexibility Score: inf
ROOT
ATOM      1  C   UNL A   1      40.953  34.286  30.568  1.00  0.00     0.116 C 
ENDROOT
BRANCH   1   2
ATOM      2  N   UNL A   1      41.857  33.287  30.041  1.00  0.00    -0.351 N 
ATOM      3  C   UNL A   1      42.935  33.305  29.193  1.00  0.00     0.261 C 
ATOM      4  O   UNL A   1      43.413  32.175  29.017  1.00  0.00    -0.268 OA
ATOM      5  H   UNL A   1      41.650  32.381  30.367  1.00  0.00     0.163 HD
BRANCH   3   6
ATOM      6  C   UNL A   1      43.518  34.503  28.563  1.00  0.00     0.099 A 
ATOM      7  C   UNL A   1      44.134  36.512  27.506  1.00  0.00     0.145 A 
ATOM      8  C   UNL A   1      45.371  36.061  27.867  1.00  0.00     0.113 A 
ATOM      9  C   UNL A   1      43.069  35.584  27.797  1.00  0.00     0.015 A 
ATOM     10  S   UNL A   1      45.260  34.602  28.726  1.00  0.00    -0.134 S 
ATOM     11  C   UNL A   1      41.716  35.851  27.244  1.00  0.00     0.050 C 
BRANCH   7  12
ATOM     12  O   UNL A   1      43.979  37.669  26.814  1.00  0.00    -0.424 OA
BRANCH  12  13
ATOM     13  C   UNL A   1      44.182  38.823  27.529  1.00  0.00     0.329 C 
ATOM     14  O   UNL A   1      43.684  39.075  28.621  1.00  0.00    -0.250 OA
BRANCH  13  15
ATOM     15  C   UNL A   1      45.210  39.731  26.853  1.00  0.00     0.177 C 
ATOM     16  C   UNL A   1      45.884  40.691  27.819  1.00  0.00     0.038 C 
BRANCH  15  17
ATOM     17  N   UNL A   1      44.521  40.411  25.752  1.00  0.00    -0.197 NA
ATOM     18  H   UNL A   1      45.251  40.662  25.085  1.00  0.00     0.142 HD
BRANCH  17  19
ATOM     19  S   UNL A   1      43.589  41.771  25.924  1.00  0.00     0.241 S 
ATOM     20  O   UNL A   1      44.423  42.793  26.545  1.00  0.00    -0.207 OA
ATOM     21  O   UNL A   1      42.373  41.335  26.543  1.00  0.00    -0.207 OA
BRANCH  19  22
ATOM     22  C   UNL A   1      43.184  42.341  24.296  1.00  0.00     0.082 A 
ATOM     23  C   UNL A   1      41.830  43.778  20.476  1.00  0.00     0.044 C 
ATOM     24  C   UNL A   1      42.318  43.273  21.801  1.00  0.00    -0.051 A 
ATOM     25  C   UNL A   1      41.657  42.209  22.425  1.00  0.00     0.005 A 
ATOM     26  C   UNL A   1      43.438  43.843  22.424  1.00  0.00     0.005 A 
ATOM     27  C   UNL A   1      42.078  41.752  23.673  1.00  0.00     0.022 A 
ATOM     28  C   UNL A   1      43.884  43.368  23.661  1.00  0.00     0.022 A 
ENDBRANCH  19  22
ENDBRANCH  17  19
ENDBRANCH  15  17
ENDBRANCH  13  15
ENDBRANCH  12  13
ENDBRANCH   7  12
ENDBRANCH   3   6
ENDBRANCH   1   2
BRANCH   1  29
ATOM     29  C   UNL A   1      39.621  34.298  29.797  1.00  0.00     0.023 C 
BRANCH  29  30
ATOM     30  C   UNL A   1      38.529  33.384  30.339  1.00  0.00     0.023 C 
BRANCH  30  31
ATOM     31  C   UNL A   1      38.451  32.068  29.596  1.00  0.00     0.116 C 
BRANCH  31  32
ATOM     32  N   UNL A   1      37.130  31.666  29.142  1.00  0.00    -0.352 N 
ATOM     33  C   UNL A   1      36.902  30.723  28.141  1.00  0.00     0.251 C 
ATOM     34  H   UNL A   1      36.347  32.085  29.569  1.00  0.00     0.163 HD
ATOM     35  O   UNL A   1      35.986  30.798  27.334  1.00  0.00    -0.269 OA
BRANCH  33  36
ATOM     36  C   UNL A   1      37.747  29.508  28.205  1.00  0.00     0.039 A 
ATOM     37  C   UNL A   1      37.653  28.701  29.347  1.00  0.00     0.014 A 
ATOM     38  C   UNL A   1      38.830  29.405  27.341  1.00  0.00     0.014 A 
ATOM     39  C   UNL A   1      38.755  27.954  29.741  1.00  0.00     0.010 A 
ATOM     40  C   UNL A   1      39.972  28.826  27.821  1.00  0.00     0.010 A 
ATOM     41  C   UNL A   1      39.936  28.126  29.032  1.00  0.00    -0.014 A 
BRANCH  41  42
ATOM     42  C   UNL A   1      41.210  27.535  29.373  1.00  0.00     0.031 A 
ATOM     43  C   UNL A   1      41.392  26.124  28.999  1.00  0.00     0.074 A 
ATOM     44  C   UNL A   1      42.210  28.365  29.734  1.00  0.00     0.049 A 
ATOM     45  N   UNL A   1      42.384  25.394  29.346  1.00  0.00    -0.248 NA
ATOM     46  C   UNL A   1      40.410  25.402  28.190  1.00  0.00     0.031 C 
ATOM     47  C   UNL A   1      43.645  28.111  29.755  1.00  0.00     0.029 A 
ATOM     48  N   UNL A   1      42.070  29.599  30.382  1.00  0.00    -0.354 N 
ATOM     49  C   UNL A   1      42.355  24.256  28.565  1.00  0.00     0.074 A 
ATOM     50  C   UNL A   1      41.050  24.256  27.962  1.00  0.00     0.031 C 
ATOM     51  C   UNL A   1      44.217  28.955  30.632  1.00  0.00     0.029 A 
ATOM     52  C   UNL A   1      43.136  29.664  31.303  1.00  0.00     0.049 A 
ATOM     53  H   UNL A   1      41.375  30.278  30.226  1.00  0.00     0.167 HD
ATOM     54  C   UNL A   1      43.521  23.562  28.422  1.00  0.00     0.037 A 
ATOM     55  C   UNL A   1      42.857  29.560  32.639  1.00  0.00     0.037 A 
ATOM     56  C   UNL A   1      44.496  24.068  29.398  1.00  0.00     0.049 A 
ATOM     57  C   UNL A   1      43.411  28.281  33.238  1.00  0.00     0.074 A 
ATOM     58  C   UNL A   1      45.559  24.949  29.298  1.00  0.00     0.029 A 
ATOM     59  N   UNL A   1      44.185  23.984  30.756  1.00  0.00    -0.354 N 
ATOM     60  N   UNL A   1      43.670  27.194  32.558  1.00  0.00    -0.248 NA
ATOM     61  C   UNL A   1      43.805  28.164  34.639  1.00  0.00     0.031 C 
ATOM     62  C   UNL A   1      45.794  25.494  30.594  1.00  0.00     0.029 A 
ATOM     63  C   UNL A   1      44.899  24.920  31.483  1.00  0.00     0.049 A 
ATOM     64  H   UNL A   1      43.545  23.345  31.144  1.00  0.00     0.167 HD
ATOM     65  C   UNL A   1      44.278  26.268  33.370  1.00  0.00     0.074 A 
ATOM     66  C   UNL A   1      44.342  26.932  34.662  1.00  0.00     0.031 C 
ATOM     67  C   UNL A   1      44.708  25.046  32.925  1.00  0.00     0.037 A 
BRANCH  54  68
ATOM     68  C   UNL A   1      43.872  22.657  27.247  1.00  0.00     0.058 A 
ATOM     69  C   UNL A   1      43.060  21.535  26.957  1.00  0.00     0.135 A 
ATOM     70  C   UNL A   1      45.016  22.756  26.424  1.00  0.00     0.135 A 
ATOM     71  F   UNL A   1      41.916  21.312  27.617  1.00  0.00    -0.206 F 
ATOM     72  C   UNL A   1      43.385  20.577  25.988  1.00  0.00     0.059 A 
ATOM     73  C   UNL A   1      45.370  21.807  25.460  1.00  0.00     0.059 A 
ATOM     74  F   UNL A   1      45.858  23.789  26.482  1.00  0.00    -0.206 F 
ATOM     75  C   UNL A   1      44.551  20.713  25.251  1.00  0.00     0.060 A 
BRANCH  75  76
ATOM     76  S   UNL A   1      44.966  19.476  24.010  1.00  0.00     0.124 S 
ATOM     77  O   UNL A   1      44.362  20.037  22.807  1.00  0.00    -0.237 OA
ATOM     78  O   UNL A   1      46.424  19.479  24.053  1.00  0.00    -0.237 OA
ATOM     79  O   UNL A   1      44.331  18.260  24.513  1.00  0.00    -0.744 OA
ENDBRANCH  75  76
ENDBRANCH  54  68
BRANCH  55  80
ATOM     80  C   UNL A   1      41.590  30.276  33.001  1.00  0.00     0.058 A 
ATOM     81  C   UNL A   1      40.501  29.471  33.408  1.00  0.00     0.135 A 
ATOM     82  C   UNL A   1      41.575  31.615  33.415  1.00  0.00     0.135 A 
ATOM     83  F   UNL A   1      40.437  28.186  33.021  1.00  0.00    -0.206 F 
ATOM     84  C   UNL A   1      39.563  29.908  34.341  1.00  0.00     0.059 A 
ATOM     85  C   UNL A   1      40.623  32.084  34.334  1.00  0.00     0.059 A 
ATOM     86  F   UNL A   1      42.563  32.446  33.054  1.00  0.00    -0.206 F 
ATOM     87  C   UNL A   1      39.679  31.196  34.854  1.00  0.00     0.060 A 
BRANCH  87  88
ATOM     88  S   UNL A   1      38.694  31.610  36.319  1.00  0.00     0.124 S 
ATOM     89  O   UNL A   1      37.954  32.781  35.862  1.00  0.00    -0.237 OA
ATOM     90  O   UNL A   1      37.896  30.395  36.507  1.00  0.00    -0.237 OA
ATOM     91  O   UNL A   1      39.702  31.861  37.340  1.00  0.00    -0.744 OA
ENDBRANCH  87  88
ENDBRANCH  55  80
BRANCH  67  92
ATOM     92  C   UNL A   1      45.092  23.865  33.804  1.00  0.00     0.058 A 
ATOM     93  C   UNL A   1      44.213  22.830  34.169  1.00  0.00     0.135 A 
ATOM     94  C   UNL A   1      46.444  23.664  34.191  1.00  0.00     0.135 A 
ATOM     95  F   UNL A   1      42.940  22.808  33.755  1.00  0.00    -0.206 F 
ATOM     96  C   UNL A   1      44.616  21.737  34.937  1.00  0.00     0.059 A 
ATOM     97  C   UNL A   1      46.882  22.541  34.886  1.00  0.00     0.059 A 
ATOM     98  F   UNL A   1      47.406  24.548  33.892  1.00  0.00    -0.206 F 
ATOM     99  C   UNL A   1      45.953  21.600  35.291  1.00  0.00     0.060 A 
BRANCH  99 100
ATOM    100  S   UNL A   1      46.478  20.167  36.243  1.00  0.00     0.124 S 
ATOM    101  O   UNL A   1      47.930  20.269  36.138  1.00  0.00    -0.237 OA
ATOM    102  O   UNL A   1      45.920  20.441  37.564  1.00  0.00    -0.237 OA
ATOM    103  O   UNL A   1      45.869  19.047  35.533  1.00  0.00    -0.744 OA
ENDBRANCH  99 100
ENDBRANCH  67  92
ENDBRANCH  41  42
ENDBRANCH  33  36
ENDBRANCH  31  32
ENDBRANCH  30  31
ENDBRANCH  29  30
ENDBRANCH   1  29
TORSDOF 20
ENDMDL
MODEL 2
REMARK VINA RESULT:     -10.7      5.669      9.606
REMARK SMILES Cc1ccc(S(=O)(=O)N[C@@H](C)C(=O)Oc2csc(C(=O)NCCCCNC(=O)c3ccc(-c4c5nc(c(-c6c(F)cc(S(=O)(=O)[O-])cc6F)c6ccc([nH]6)c(-c6c(F)cc(S(=O)(=O)[O-])cc6F)c6nc(c(-c7c(F)cc(S(=O)(=O)[O-])cc7F)c7ccc4[nH]7)C=C6)C=C5)cc3)c2C)cc1
REMARK SMILES IDX 22 1 21 2 19 3 20 4 18 6 15 7 16 8 95 9 17 10 96 11 14 12
REMARK SMILES IDX 12 13 13 14 10 15 11 16 9 17 6 19 7 20 8 21 5 22 1 23 2 24
REMARK SMILES IDX 3 25 98 26 4 27 97 28 23 29 24 30 25 31 26 32 27 33 28 35
REMARK SMILES IDX 29 36 30 37 94 38 31 39 93 40 32 41 33 42 34 43 87 44 35 45
REMARK SMILES IDX 92 46 86 47 88 48 36 49 91 50 85 51 84 52 37 54 71 55 50 56
REMARK SMILES IDX 70 57 51 58 54 59 69 60 89 61 52 62 53 63 68 65 90 66 55 67
REMARK SMILES IDX 38 68 39 69 48 70 40 71 41 72 47 73 49 74 42 75 43 76 44 77
REMARK SMILES IDX 45 78 46 79 72 80 73 81 82 82 74 83 75 84 81 85 83 86 76 87
REMARK SMILES IDX 77 88 78 89 79 90 80 91 56 92 57 93 66 94 58 95 59 96 65 97
REMARK SMILES IDX 67 98 60 99 61 100 62 101 63 102 64 103
REMARK H PARENT 21 5 9 18 26 34 88 53 54 64
REMARK Flexibility Score: inf
ROOT
ATOM      1  C   UNL A   1      33.583  31.852  27.540  1.00  0.00     0.116 C 
ENDROOT
BRANCH   1   2
ATOM      2  N   UNL A   1      34.591  30.817  27.469  1.00  0.00    -0.351 N 
ATOM      3  C   UNL A   1      34.641  29.545  26.958  1.00  0.00     0.261 C 
ATOM      4  O   UNL A   1      35.745  29.011  27.137  1.00  0.00    -0.268 OA
ATOM      5  H   UNL A   1      35.440  31.089  27.886  1.00  0.00     0.163 HD
BRANCH   3   6
ATOM      6  C   UNL A   1      33.550  28.857  26.244  1.00  0.00     0.099 A 
ATOM      7  C   UNL A   1      31.638  27.788  25.388  1.00  0.00     0.145 A 
ATOM      8  C   UNL A   1      32.397  27.832  24.253  1.00  0.00     0.113 A 
ATOM      9  C   UNL A   1      32.322  28.270  26.563  1.00  0.00     0.015 A 
ATOM     10  S   UNL A   1      33.873  28.620  24.538  1.00  0.00    -0.134 S 
ATOM     11  C   UNL A   1      31.694  28.057  27.893  1.00  0.00     0.050 C 
BRANCH   7  12
ATOM     12  O   UNL A   1      30.411  27.209  25.394  1.00  0.00    -0.424 OA
BRANCH  12  13
ATOM     13  C   UNL A   1      30.090  26.479  24.277  1.00  0.00     0.329 C 
ATOM     14  O   UNL A   1      29.435  26.893  23.326  1.00  0.00    -0.250 OA
BRANCH  13  15
ATOM     15  C   UNL A   1      30.751  25.100  24.296  1.00  0.00     0.177 C 
ATOM     16  C   UNL A   1      30.348  24.230  23.118  1.00  0.00     0.038 C 
BRANCH  15  17
ATOM     17  N   UNL A   1      30.438  24.495  25.594  1.00  0.00    -0.197 NA
ATOM     18  H   UNL A   1      30.511  25.252  26.275  1.00  0.00     0.142 HD
BRANCH  17  19
ATOM     19  S   UNL A   1      31.261  23.218  26.259  1.00  0.00     0.241 S 
ATOM     20  O   UNL A   1      30.574  21.999  25.851  1.00  0.00    -0.207 OA
ATOM     21  O   UNL A   1      31.429  23.543  27.645  1.00  0.00    -0.207 OA
BRANCH  19  22
ATOM     22  C   UNL A   1      32.871  23.188  25.520  1.00  0.00     0.082 A 
ATOM     23  C   UNL A   1      36.923  23.048  24.089  1.00  0.00     0.044 C 
ATOM     24  C   UNL A   1      35.504  23.101  24.571  1.00  0.00    -0.051 A 
ATOM     25  C   UNL A   1      35.155  23.976  25.607  1.00  0.00     0.005 A 
ATOM     26  C   UNL A   1      34.513  22.294  23.994  1.00  0.00     0.005 A 
ATOM     27  C   UNL A   1      33.848  24.011  26.088  1.00  0.00     0.022 A 
ATOM     28  C   UNL A   1      33.194  22.348  24.452  1.00  0.00     0.022 A 
ENDBRANCH  19  22
ENDBRANCH  17  19
ENDBRANCH  15  17
ENDBRANCH  13  15
ENDBRANCH  12  13
ENDBRANCH   7  12
ENDBRANCH   3   6
ENDBRANCH   1   2
BRANCH   1  29
ATOM     29  C   UNL A   1      34.195  33.205  27.943  1.00  0.00     0.023 C 
BRANCH  29  30
ATOM     30  C   UNL A   1      35.716  33.289  27.897  1.00  0.00     0.023 C 
BRANCH  30  31
ATOM     31  C   UNL A   1      36.336  33.344  29.275  1.00  0.00     0.116 C 
BRANCH  31  32
ATOM     32  N   UNL A   1      35.945  32.290  30.196  1.00  0.00    -0.352 N 
ATOM     33  C   UNL A   1      36.513  31.016  30.211  1.00  0.00     0.251 C 
ATOM     34  H   UNL A   1      35.235  32.487  30.850  1.00  0.00     0.163 HD
ATOM     35  O   UNL A   1      35.883  29.996  30.455  1.00  0.00    -0.269 OA
BRANCH  33  36
ATOM     36  C   UNL A   1      37.987  30.973  30.076  1.00  0.00     0.039 A 
ATOM     37  C   UNL A   1      38.523  30.442  28.895  1.00  0.00     0.014 A 
ATOM     38  C   UNL A   1      38.764  31.109  31.219  1.00  0.00     0.014 A 
ATOM     39  C   UNL A   1      39.773  29.839  28.931  1.00  0.00     0.010 A 
ATOM     40  C   UNL A   1      39.902  30.357  31.306  1.00  0.00     0.010 A 
ATOM     41  C   UNL A   1      40.387  29.703  30.168  1.00  0.00    -0.014 A 
BRANCH  41  42
ATOM     42  C   UNL A   1      41.621  28.992  30.416  1.00  0.00     0.031 A 
ATOM     43  C   UNL A   1      41.690  27.614  29.905  1.00  0.00     0.074 A 
ATOM     44  C   UNL A   1      42.687  29.710  30.825  1.00  0.00     0.049 A 
ATOM     45  N   UNL A   1      42.632  26.785  30.154  1.00  0.00    -0.248 NA
ATOM     46  C   UNL A   1      40.641  27.046  29.060  1.00  0.00     0.031 C 
ATOM     47  C   UNL A   1      44.099  29.353  30.781  1.00  0.00     0.029 A 
ATOM     48  N   UNL A   1      42.653  30.882  31.590  1.00  0.00    -0.354 N 
ATOM     49  C   UNL A   1      42.503  25.732  29.271  1.00  0.00     0.074 A 
ATOM     50  C   UNL A   1      41.189  25.884  28.707  1.00  0.00     0.031 C 
ATOM     51  C   UNL A   1      44.751  30.066  31.718  1.00  0.00     0.029 A 
ATOM     52  C   UNL A   1      43.740  30.782  32.483  1.00  0.00     0.049 A 
ATOM     53  H   UNL A   1      42.006  31.621  31.519  1.00  0.00     0.167 HD
ATOM     54  C   UNL A   1      43.611  24.974  29.029  1.00  0.00     0.037 A 
ATOM     55  C   UNL A   1      43.482  30.571  33.811  1.00  0.00     0.037 A 
ATOM     56  C   UNL A   1      44.641  25.312  30.021  1.00  0.00     0.049 A 
ATOM     57  C   UNL A   1      43.953  29.204  34.271  1.00  0.00     0.074 A 
ATOM     58  C   UNL A   1      45.764  26.121  29.974  1.00  0.00     0.029 A 
ATOM     59  N   UNL A   1      44.354  25.121  31.373  1.00  0.00    -0.354 N 
ATOM     60  N   UNL A   1      44.117  28.171  33.483  1.00  0.00    -0.248 NA
ATOM     61  C   UNL A   1      44.367  28.925  35.642  1.00  0.00     0.031 C 
ATOM     62  C   UNL A   1      46.067  26.520  31.308  1.00  0.00     0.029 A 
ATOM     63  C   UNL A   1      45.151  25.930  32.165  1.00  0.00     0.049 A 
ATOM     64  H   UNL A   1      43.677  24.495  31.717  1.00  0.00     0.167 HD
ATOM     65  C   UNL A   1      44.672  27.131  34.187  1.00  0.00     0.074 A 
ATOM     66  C   UNL A   1      44.812  27.661  35.534  1.00  0.00     0.031 C 
ATOM     67  C   UNL A   1      45.000  25.929  33.617  1.00  0.00     0.037 A 
BRANCH  54  68
ATOM     68  C   UNL A   1      43.869  24.163  27.765  1.00  0.00     0.058 A 
ATOM     69  C   UNL A   1      43.255  22.899  27.603  1.00  0.00     0.135 A 
ATOM     70  C   UNL A   1      44.761  24.497  26.722  1.00  0.00     0.135 A 
ATOM     71  F   UNL A   1      42.352  22.444  28.482  1.00  0.00    -0.206 F 
ATOM     72  C   UNL A   1      43.543  22.031  26.543  1.00  0.00     0.059 A 
ATOM     73  C   UNL A   1      45.077  23.643  25.660  1.00  0.00     0.059 A 
ATOM     74  F   UNL A   1      45.371  25.680  26.647  1.00  0.00    -0.206 F 
ATOM     75  C   UNL A   1      44.467  22.405  25.580  1.00  0.00     0.060 A 
BRANCH  75  76
ATOM     76  S   UNL A   1      44.838  21.282  24.221  1.00  0.00     0.124 S 
ATOM     77  O   UNL A   1      43.960  20.154  24.510  1.00  0.00    -0.237 OA
ATOM     78  O   UNL A   1      44.483  22.086  23.057  1.00  0.00    -0.237 OA
ATOM     79  O   UNL A   1      46.265  21.014  24.379  1.00  0.00    -0.744 OA
ENDBRANCH  75  76
ENDBRANCH  54  68
BRANCH  55  80
ATOM     80  C   UNL A   1      42.280  31.337  34.274  1.00  0.00     0.058 A 
ATOM     81  C   UNL A   1      41.197  30.578  34.774  1.00  0.00     0.135 A 
ATOM     82  C   UNL A   1      42.353  32.677  34.682  1.00  0.00     0.135 A 
ATOM     83  F   UNL A   1      41.050  29.295  34.400  1.00  0.00    -0.206 F 
ATOM     84  C   UNL A   1      40.359  31.052  35.780  1.00  0.00     0.059 A 
ATOM     85  C   UNL A   1      41.501  33.184  35.675  1.00  0.00     0.059 A 
ATOM     86  F   UNL A   1      43.340  33.467  34.236  1.00  0.00    -0.206 F 
ATOM     87  C   UNL A   1      40.569  32.335  36.276  1.00  0.00     0.060 A 
BRANCH  87  88
ATOM     88  S   UNL A   1      39.727  32.790  37.817  1.00  0.00     0.124 S 
ATOM     89  O   UNL A   1      38.507  31.993  37.739  1.00  0.00    -0.237 OA
ATOM     90  O   UNL A   1      40.694  32.364  38.833  1.00  0.00    -0.237 OA
ATOM     91  O   UNL A   1      39.548  34.230  37.688  1.00  0.00    -0.744 OA
ENDBRANCH  87  88
ENDBRANCH  55  80
BRANCH  67  92
ATOM     92  C   UNL A   1      45.315  24.645  34.370  1.00  0.00     0.058 A 
ATOM     93  C   UNL A   1      44.343  23.749  34.847  1.00  0.00     0.135 A 
ATOM     94  C   UNL A   1      46.656  24.197  34.502  1.00  0.00     0.135 A 
ATOM     95  F   UNL A   1      43.034  23.966  34.667  1.00  0.00    -0.206 F 
ATOM     96  C   UNL A   1      44.673  22.555  35.491  1.00  0.00     0.059 A 
ATOM     97  C   UNL A   1      47.002  22.973  35.065  1.00  0.00     0.059 A 
ATOM     98  F   UNL A   1      47.694  24.927  34.068  1.00  0.00    -0.206 F 
ATOM     99  C   UNL A   1      46.005  22.174  35.595  1.00  0.00     0.060 A 
BRANCH  99 100
ATOM    100  S   UNL A   1      46.424  20.614  36.385  1.00  0.00     0.124 S 
ATOM    101  O   UNL A   1      45.893  20.820  37.728  1.00  0.00    -0.237 OA
ATOM    102  O   UNL A   1      45.708  19.640  35.565  1.00  0.00    -0.237 OA
ATOM    103  O   UNL A   1      47.879  20.561  36.279  1.00  0.00    -0.744 OA
ENDBRANCH  99 100
ENDBRANCH  67  92
ENDBRANCH  41  42
ENDBRANCH  33  36
ENDBRANCH  31  32
ENDBRANCH  30  31
ENDBRANCH  29  30
ENDBRANCH   1  29
TORSDOF 20
ENDMDL
MODEL 3
REMARK VINA RESULT:     -10.7      5.685     11.375
REMARK SMILES Cc1ccc(S(=O)(=O)N[C@@H](C)C(=O)Oc2csc(C(=O)NCCCCNC(=O)c3ccc(-c4c5nc(c(-c6c(F)cc(S(=O)(=O)[O-])cc6F)c6ccc([nH]6)c(-c6c(F)cc(S(=O)(=O)[O-])cc6F)c6nc(c(-c7c(F)cc(S(=O)(=O)[O-])cc7F)c7ccc4[nH]7)C=C6)C=C5)cc3)c2C)cc1
REMARK SMILES IDX 22 1 21 2 19 3 20 4 18 6 15 7 16 8 95 9 17 10 96 11 14 12
REMARK SMILES IDX 12 13 13 14 10 15 11 16 9 17 6 19 7 20 8 21 5 22 1 23 2 24
REMARK SMILES IDX 3 25 98 26 4 27 97 28 23 29 24 30 25 31 26 32 27 33 28 35
REMARK SMILES IDX 29 36 30 37 94 38 31 39 93 40 32 41 33 42 34 43 87 44 35 45
REMARK SMILES IDX 92 46 86 47 88 48 36 49 91 50 85 51 84 52 37 54 71 55 50 56
REMARK SMILES IDX 70 57 51 58 54 59 69 60 89 61 52 62 53 63 68 65 90 66 55 67
REMARK SMILES IDX 38 68 39 69 48 70 40 71 41 72 47 73 49 74 42 75 43 76 44 77
REMARK SMILES IDX 45 78 46 79 72 80 73 81 82 82 74 83 75 84 81 85 83 86 76 87
REMARK SMILES IDX 77 88 78 89 79 90 80 91 56 92 57 93 66 94 58 95 59 96 65 97
REMARK SMILES IDX 67 98 60 99 61 100 62 101 63 102 64 103
REMARK H PARENT 21 5 9 18 26 34 88 53 54 64
REMARK Flexibility Score: inf
ROOT
ATOM      1  C   UNL A   1      34.885  30.155  28.282  1.00  0.00     0.116 C 
ENDROOT
BRANCH   1   2
ATOM      2  N   UNL A   1      33.710  30.785  27.719  1.00  0.00    -0.351 N 
ATOM      3  C   UNL A   1      32.666  30.365  26.934  1.00  0.00     0.261 C 
ATOM      4  O   UNL A   1      31.867  31.280  26.686  1.00  0.00    -0.268 OA
ATOM      5  H   UNL A   1      33.644  31.738  27.955  1.00  0.00     0.163 HD
BRANCH   3   6
ATOM      6  C   UNL A   1      32.455  28.992  26.440  1.00  0.00     0.099 A 
ATOM      7  C   UNL A   1      32.334  26.879  25.413  1.00  0.00     0.145 A 
ATOM      8  C   UNL A   1      31.547  26.643  26.503  1.00  0.00     0.113 A 
ATOM      9  C   UNL A   1      32.774  28.249  25.300  1.00  0.00     0.015 A 
ATOM     10  S   UNL A   1      31.473  28.009  27.509  1.00  0.00    -0.134 S 
ATOM     11  C   UNL A   1      33.435  28.686  24.043  1.00  0.00     0.050 C 
BRANCH   7  12
ATOM     12  O   UNL A   1      32.543  25.923  24.473  1.00  0.00    -0.424 OA
BRANCH  12  13
ATOM     13  C   UNL A   1      33.641  25.124  24.670  1.00  0.00     0.329 C 
ATOM     14  O   UNL A   1      34.614  25.415  25.359  1.00  0.00    -0.250 OA
BRANCH  13  15
ATOM     15  C   UNL A   1      33.465  23.754  24.016  1.00  0.00     0.177 C 
ATOM     16  C   UNL A   1      33.634  23.787  22.506  1.00  0.00     0.038 C 
BRANCH  15  17
ATOM     17  N   UNL A   1      32.156  23.244  24.438  1.00  0.00    -0.197 NA
ATOM     18  H   UNL A   1      31.653  24.052  24.805  1.00  0.00     0.142 HD
BRANCH  17  19
ATOM     19  S   UNL A   1      31.932  22.037  25.552  1.00  0.00     0.241 S 
ATOM     20  O   UNL A   1      30.495  21.906  25.765  1.00  0.00    -0.207 OA
ATOM     21  O   UNL A   1      32.815  22.341  26.638  1.00  0.00    -0.207 OA
BRANCH  19  22
ATOM     22  C   UNL A   1      32.494  20.528  24.813  1.00  0.00     0.082 A 
ATOM     23  C   UNL A   1      33.678  16.674  23.318  1.00  0.00     0.044 C 
ATOM     24  C   UNL A   1      33.274  18.026  23.827  1.00  0.00    -0.051 A 
ATOM     25  C   UNL A   1      33.573  18.390  25.145  1.00  0.00     0.005 A 
ATOM     26  C   UNL A   1      32.611  18.942  22.998  1.00  0.00     0.005 A 
ATOM     27  C   UNL A   1      33.174  19.629  25.641  1.00  0.00     0.022 A 
ATOM     28  C   UNL A   1      32.235  20.199  23.481  1.00  0.00     0.022 A 
ENDBRANCH  19  22
ENDBRANCH  17  19
ENDBRANCH  15  17
ENDBRANCH  13  15
ENDBRANCH  12  13
ENDBRANCH   7  12
ENDBRANCH   3   6
ENDBRANCH   1   2
BRANCH   1  29
ATOM     29  C   UNL A   1      36.154  30.974  27.989  1.00  0.00     0.023 C 
BRANCH  29  30
ATOM     30  C   UNL A   1      37.231  30.945  29.066  1.00  0.00     0.023 C 
BRANCH  30  31
ATOM     31  C   UNL A   1      37.282  29.623  29.799  1.00  0.00     0.116 C 
BRANCH  31  32
ATOM     32  N   UNL A   1      37.358  29.698  31.249  1.00  0.00    -0.352 N 
ATOM     33  C   UNL A   1      37.832  28.668  32.061  1.00  0.00     0.251 C 
ATOM     34  H   UNL A   1      37.057  30.528  31.686  1.00  0.00     0.163 HD
ATOM     35  O   UNL A   1      37.373  28.408  33.165  1.00  0.00    -0.269 OA
BRANCH  33  36
ATOM     36  C   UNL A   1      39.057  27.988  31.579  1.00  0.00     0.039 A 
ATOM     37  C   UNL A   1      40.281  28.356  32.153  1.00  0.00     0.014 A 
ATOM     38  C   UNL A   1      39.007  27.306  30.370  1.00  0.00     0.014 A 
ATOM     39  C   UNL A   1      41.443  28.239  31.401  1.00  0.00     0.010 A 
ATOM     40  C   UNL A   1      40.109  27.365  29.563  1.00  0.00     0.010 A 
ATOM     41  C   UNL A   1      41.314  27.856  30.073  1.00  0.00    -0.014 A 
BRANCH  41  42
ATOM     42  C   UNL A   1      42.390  27.806  29.110  1.00  0.00     0.031 A 
ATOM     43  C   UNL A   1      43.079  26.513  28.972  1.00  0.00     0.074 A 
ATOM     44  C   UNL A   1      42.494  28.824  28.232  1.00  0.00     0.049 A 
ATOM     45  N   UNL A   1      44.141  26.316  28.286  1.00  0.00    -0.248 NA
ATOM     46  C   UNL A   1      42.606  25.306  29.649  1.00  0.00     0.031 C 
ATOM     47  C   UNL A   1      43.199  28.862  26.957  1.00  0.00     0.029 A 
ATOM     48  N   UNL A   1      42.121  30.155  28.457  1.00  0.00    -0.354 N 
ATOM     49  C   UNL A   1      44.301  24.951  28.153  1.00  0.00     0.074 A 
ATOM     50  C   UNL A   1      43.401  24.378  29.116  1.00  0.00     0.031 C 
ATOM     51  C   UNL A   1      43.491  30.143  26.666  1.00  0.00     0.029 A 
ATOM     52  C   UNL A   1      43.110  30.937  27.826  1.00  0.00     0.049 A 
ATOM     53  H   UNL A   1      41.332  30.477  28.951  1.00  0.00     0.167 HD
ATOM     54  C   UNL A   1      45.066  24.507  27.115  1.00  0.00     0.037 A 
ATOM     55  C   UNL A   1      43.992  31.636  28.606  1.00  0.00     0.037 A 
ATOM     56  C   UNL A   1      45.787  25.649  26.535  1.00  0.00     0.049 A 
ATOM     57  C   UNL A   1      45.406  31.101  28.485  1.00  0.00     0.074 A 
ATOM     58  C   UNL A   1      45.564  26.433  25.415  1.00  0.00     0.029 A 
ATOM     59  N   UNL A   1      46.659  26.372  27.350  1.00  0.00    -0.354 N 
ATOM     60  N   UNL A   1      45.710  29.882  28.119  1.00  0.00    -0.248 NA
ATOM     61  C   UNL A   1      46.590  31.933  28.675  1.00  0.00     0.031 C 
ATOM     62  C   UNL A   1      46.205  27.687  25.630  1.00  0.00     0.029 A 
ATOM     63  C   UNL A   1      46.842  27.653  26.860  1.00  0.00     0.049 A 
ATOM     64  H   UNL A   1      47.086  26.018  28.162  1.00  0.00     0.167 HD
ATOM     65  C   UNL A   1      47.072  29.760  27.987  1.00  0.00     0.074 A 
ATOM     66  C   UNL A   1      47.572  31.078  28.343  1.00  0.00     0.031 C 
ATOM     67  C   UNL A   1      47.687  28.608  27.572  1.00  0.00     0.037 A 
BRANCH  54  68
ATOM     68  C   UNL A   1      44.952  23.139  26.454  1.00  0.00     0.058 A 
ATOM     69  C   UNL A   1      45.983  22.681  25.600  1.00  0.00     0.135 A 
ATOM     70  C   UNL A   1      43.845  22.263  26.524  1.00  0.00     0.135 A 
ATOM     71  F   UNL A   1      47.121  23.371  25.448  1.00  0.00    -0.206 F 
ATOM     72  C   UNL A   1      45.896  21.504  24.846  1.00  0.00     0.059 A 
ATOM     73  C   UNL A   1      43.728  21.089  25.772  1.00  0.00     0.059 A 
ATOM     74  F   UNL A   1      42.811  22.473  27.340  1.00  0.00    -0.206 F 
ATOM     75  C   UNL A   1      44.757  20.718  24.928  1.00  0.00     0.060 A 
BRANCH  75  76
ATOM     76  S   UNL A   1      44.649  19.207  23.953  1.00  0.00     0.124 S 
ATOM     77  O   UNL A   1      45.854  18.495  24.360  1.00  0.00    -0.237 OA
ATOM     78  O   UNL A   1      43.386  18.639  24.412  1.00  0.00    -0.237 OA
ATOM     79  O   UNL A   1      44.649  19.689  22.574  1.00  0.00    -0.744 OA
ENDBRANCH  75  76
ENDBRANCH  54  68
BRANCH  55  80
ATOM     80  C   UNL A   1      43.325  32.216  29.817  1.00  0.00     0.058 A 
ATOM     81  C   UNL A   1      42.557  33.387  29.620  1.00  0.00     0.135 A 
ATOM     82  C   UNL A   1      43.023  31.447  30.951  1.00  0.00     0.135 A 
ATOM     83  F   UNL A   1      42.813  34.185  28.569  1.00  0.00    -0.206 F 
ATOM     84  C   UNL A   1      41.423  33.668  30.378  1.00  0.00     0.059 A 
ATOM     85  C   UNL A   1      41.901  31.728  31.745  1.00  0.00     0.059 A 
ATOM     86  F   UNL A   1      43.719  30.333  31.217  1.00  0.00    -0.206 F 
ATOM     87  C   UNL A   1      41.062  32.788  31.394  1.00  0.00     0.060 A 
BRANCH  87  88
ATOM     88  S   UNL A   1      39.405  32.964  32.110  1.00  0.00     0.124 S 
ATOM     89  O   UNL A   1      39.115  31.598  32.533  1.00  0.00    -0.237 OA
ATOM     90  O   UNL A   1      39.639  33.923  33.194  1.00  0.00    -0.237 OA
ATOM     91  O   UNL A   1      38.609  33.460  30.996  1.00  0.00    -0.744 OA
ENDBRANCH  87  88
ENDBRANCH  55  80
BRANCH  67  92
ATOM     92  C   UNL A   1      49.170  28.295  27.702  1.00  0.00     0.058 A 
ATOM     93  C   UNL A   1      49.823  28.048  28.921  1.00  0.00     0.135 A 
ATOM     94  C   UNL A   1      49.965  28.083  26.545  1.00  0.00     0.135 A 
ATOM     95  F   UNL A   1      49.168  28.068  30.089  1.00  0.00    -0.206 F 
ATOM     96  C   UNL A   1      51.177  27.716  28.995  1.00  0.00     0.059 A 
ATOM     97  C   UNL A   1      51.293  27.672  26.593  1.00  0.00     0.059 A 
ATOM     98  F   UNL A   1      49.476  28.251  25.307  1.00  0.00    -0.206 F 
ATOM     99  C   UNL A   1      51.904  27.529  27.826  1.00  0.00     0.060 A 
BRANCH  99 100
ATOM    100  S   UNL A   1      53.637  27.057  27.923  1.00  0.00     0.124 S 
ATOM    101  O   UNL A   1      54.267  28.113  27.138  1.00  0.00    -0.237 OA
ATOM    102  O   UNL A   1      53.898  27.098  29.360  1.00  0.00    -0.237 OA
ATOM    103  O   UNL A   1      53.659  25.725  27.327  1.00  0.00    -0.744 OA
ENDBRANCH  99 100
ENDBRANCH  67  92
ENDBRANCH  41  42
ENDBRANCH  33  36
ENDBRANCH  31  32
ENDBRANCH  30  31
ENDBRANCH  29  30
ENDBRANCH   1  29
TORSDOF 20
ENDMDL
