MODEL 1
REMARK VINA RESULT:     -11.7      0.000      0.000
REMARK SMILES O=C(NCCCCNC(=O)[C@H]1CC[C@H]2CCCC[C@@H]2[N@H+]1[C@@H]1CCCSC1)c1ccc(-c2c3nc(c(-c4c(F)cc(S(=O)(=O)[O-])cc4F)c4ccc([nH]4)c(-c4c(F)cc(S(=O)(=O)[O-])cc4F)c4nc(c(-c5c(F)cc(S(=O)(=O)[O-])cc5F)c5ccc2[nH]5)C=C4)C=C3)cc1
REMARK SMILES IDX 4 1 3 2 1 3 2 4 27 6 28 7 92 8 29 9 91 10 30 11 31 12 32 13
REMARK SMILES IDX 85 14 33 15 90 16 84 17 86 18 34 19 89 20 83 21 82 22 35 24
REMARK SMILES IDX 69 25 48 26 68 27 49 28 52 29 67 30 87 31 50 32 51 33 66 35
REMARK SMILES IDX 88 36 53 37 36 38 37 39 46 40 38 41 39 42 45 43 47 44 40 45
REMARK SMILES IDX 41 46 42 47 43 48 44 49 70 50 71 51 80 52 72 53 73 54 79 55
REMARK SMILES IDX 81 56 74 57 75 58 76 59 77 60 78 61 54 62 55 63 64 64 56 65
REMARK SMILES IDX 57 66 63 67 65 68 58 69 59 70 60 71 61 72 62 73 5 74 6 75
REMARK SMILES IDX 7 76 8 77 9 78 10 80 11 81 12 82 20 83 13 84 19 85 14 87
REMARK SMILES IDX 18 88 15 89 17 90 16 91 21 92 22 93 26 94 23 95 25 96 24 97
REMARK H PARENT 3 5 86 23 52 34 8 79 20 86
REMARK Flexibility Score: inf
ROOT
ATOM      1  C   UNL A   1      33.448  28.611  27.278  1.00  0.00     0.116 C 
ENDROOT
BRANCH   1   2
ATOM      2  N   UNL A   1      33.503  29.971  27.807  1.00  0.00    -0.352 N 
ATOM      3  O   UNL A   1      34.469  31.797  28.744  1.00  0.00    -0.269 OA
ATOM      4  C   UNL A   1      34.589  30.659  28.308  1.00  0.00     0.251 C 
ATOM      5  H   UNL A   1      32.651  30.464  27.806  1.00  0.00     0.163 HD
BRANCH   4   6
ATOM      6  C   UNL A   1      35.890  29.964  28.362  1.00  0.00     0.039 A 
ATOM      7  C   UNL A   1      36.296  29.355  29.548  1.00  0.00     0.014 A 
ATOM      8  C   UNL A   1      36.764  30.063  27.277  1.00  0.00     0.014 A 
ATOM      9  C   UNL A   1      37.642  29.086  29.736  1.00  0.00     0.010 A 
ATOM     10  C   UNL A   1      38.094  29.656  27.428  1.00  0.00     0.010 A 
ATOM     11  C   UNL A   1      38.561  29.232  28.681  1.00  0.00    -0.014 A 
BRANCH  11  12
ATOM     12  C   UNL A   1      39.994  28.934  28.939  1.00  0.00     0.031 A 
ATOM     13  C   UNL A   1      40.620  27.636  28.494  1.00  0.00     0.074 A 
ATOM     14  C   UNL A   1      40.753  29.891  29.508  1.00  0.00     0.049 A 
ATOM     15  N   UNL A   1      41.862  27.240  28.620  1.00  0.00    -0.248 NA
ATOM     16  C   UNL A   1      39.746  26.651  27.837  1.00  0.00     0.031 C 
ATOM     17  C   UNL A   1      40.256  31.187  29.983  1.00  0.00     0.029 A 
ATOM     18  N   UNL A   1      42.102  29.952  29.738  1.00  0.00    -0.354 N 
ATOM     19  C   UNL A   1      41.906  25.944  28.116  1.00  0.00     0.074 A 
ATOM     20  C   UNL A   1      40.566  25.620  27.675  1.00  0.00     0.031 C 
ATOM     21  C   UNL A   1      41.293  31.948  30.353  1.00  0.00     0.029 A 
ATOM     22  C   UNL A   1      42.518  31.168  30.227  1.00  0.00     0.049 A 
ATOM     23  H   UNL A   1      42.714  29.200  29.570  1.00  0.00     0.167 HD
ATOM     24  C   UNL A   1      42.966  25.104  28.033  1.00  0.00     0.037 A 
ATOM     25  C   UNL A   1      43.747  31.609  30.548  1.00  0.00     0.037 A 
ATOM     26  C   UNL A   1      44.309  25.458  28.419  1.00  0.00     0.049 A 
ATOM     27  C   UNL A   1      44.912  30.681  30.390  1.00  0.00     0.074 A 
ATOM     28  C   UNL A   1      45.458  24.688  28.353  1.00  0.00     0.029 A 
ATOM     29  N   UNL A   1      44.687  26.693  28.926  1.00  0.00    -0.354 N 
ATOM     30  N   UNL A   1      44.925  29.450  29.940  1.00  0.00    -0.248 NA
ATOM     31  C   UNL A   1      46.224  31.193  30.801  1.00  0.00     0.031 C 
ATOM     32  C   UNL A   1      46.526  25.450  28.840  1.00  0.00     0.029 A 
ATOM     33  C   UNL A   1      46.049  26.706  29.179  1.00  0.00     0.049 A 
ATOM     34  H   UNL A   1      44.077  27.450  29.082  1.00  0.00     0.167 HD
ATOM     35  C   UNL A   1      46.248  29.037  30.012  1.00  0.00     0.074 A 
ATOM     36  C   UNL A   1      47.009  30.160  30.526  1.00  0.00     0.031 C 
ATOM     37  C   UNL A   1      46.784  27.833  29.692  1.00  0.00     0.037 A 
BRANCH  24  38
ATOM     38  C   UNL A   1      42.717  23.707  27.533  1.00  0.00     0.058 A 
ATOM     39  C   UNL A   1      42.737  23.388  26.168  1.00  0.00     0.135 A 
ATOM     40  C   UNL A   1      42.494  22.661  28.446  1.00  0.00     0.135 A 
ATOM     41  F   UNL A   1      42.930  24.351  25.252  1.00  0.00    -0.206 F 
ATOM     42  C   UNL A   1      42.521  22.086  25.721  1.00  0.00     0.059 A 
ATOM     43  C   UNL A   1      42.296  21.350  28.023  1.00  0.00     0.059 A 
ATOM     44  F   UNL A   1      42.467  22.911  29.764  1.00  0.00    -0.206 F 
ATOM     45  C   UNL A   1      42.296  21.075  26.657  1.00  0.00     0.060 A 
BRANCH  45  46
ATOM     46  S   UNL A   1      42.018  19.389  26.069  1.00  0.00     0.124 S 
ATOM     47  O   UNL A   1      42.848  19.361  24.868  1.00  0.00    -0.237 OA
ATOM     48  O   UNL A   1      42.496  18.581  27.186  1.00  0.00    -0.237 OA
ATOM     49  O   UNL A   1      40.577  19.344  25.839  1.00  0.00    -0.744 OA
ENDBRANCH  45  46
ENDBRANCH  24  38
BRANCH  25  50
ATOM     50  C   UNL A   1      43.919  32.996  31.045  1.00  0.00     0.058 A 
ATOM     51  C   UNL A   1      44.053  34.069  30.153  1.00  0.00     0.135 A 
ATOM     52  C   UNL A   1      43.887  33.283  32.419  1.00  0.00     0.135 A 
ATOM     53  F   UNL A   1      44.089  33.841  28.831  1.00  0.00    -0.206 F 
ATOM     54  C   UNL A   1      44.151  35.381  30.604  1.00  0.00     0.059 A 
ATOM     55  C   UNL A   1      43.957  34.588  32.893  1.00  0.00     0.059 A 
ATOM     56  F   UNL A   1      43.737  32.291  33.310  1.00  0.00    -0.206 F 
ATOM     57  C   UNL A   1      44.096  35.631  31.977  1.00  0.00     0.060 A 
BRANCH  57  58
ATOM     58  S   UNL A   1      44.137  37.339  32.558  1.00  0.00     0.124 S 
ATOM     59  O   UNL A   1      45.498  37.440  33.070  1.00  0.00    -0.237 OA
ATOM     60  O   UNL A   1      43.855  38.091  31.339  1.00  0.00    -0.237 OA
ATOM     61  O   UNL A   1      43.077  37.374  33.562  1.00  0.00    -0.744 OA
ENDBRANCH  57  58
ENDBRANCH  25  50
BRANCH  37  62
ATOM     62  C   UNL A   1      48.265  27.688  29.875  1.00  0.00     0.058 A 
ATOM     63  C   UNL A   1      49.164  28.020  28.851  1.00  0.00     0.135 A 
ATOM     64  C   UNL A   1      48.788  27.218  31.089  1.00  0.00     0.135 A 
ATOM     65  F   UNL A   1      48.707  28.466  27.670  1.00  0.00    -0.206 F 
ATOM     66  C   UNL A   1      50.535  27.861  29.012  1.00  0.00     0.059 A 
ATOM     67  C   UNL A   1      50.157  27.068  31.279  1.00  0.00     0.059 A 
ATOM     68  F   UNL A   1      47.967  26.894  32.100  1.00  0.00    -0.206 F 
ATOM     69  C   UNL A   1      51.022  27.377  30.228  1.00  0.00     0.060 A 
BRANCH  69  70
ATOM     70  S   UNL A   1      52.804  27.173  30.435  1.00  0.00     0.124 S 
ATOM     71  O   UNL A   1      53.149  28.370  31.194  1.00  0.00    -0.237 OA
ATOM     72  O   UNL A   1      52.897  25.911  31.163  1.00  0.00    -0.237 OA
ATOM     73  O   UNL A   1      53.298  27.132  29.063  1.00  0.00    -0.744 OA
ENDBRANCH  69  70
ENDBRANCH  37  62
ENDBRANCH  11  12
ENDBRANCH   4   6
ENDBRANCH   1   2
BRANCH   1  74
ATOM     74  C   UNL A   1      32.423  28.400  26.182  1.00  0.00     0.023 C 
BRANCH  74  75
ATOM     75  C   UNL A   1      32.835  28.937  24.827  1.00  0.00     0.023 C 
BRANCH  75  76
ATOM     76  C   UNL A   1      34.107  28.341  24.208  1.00  0.00     0.116 C 
BRANCH  76  77
ATOM     77  N   UNL A   1      33.799  27.795  22.906  1.00  0.00    -0.351 N 
ATOM     78  C   UNL A   1      33.496  26.537  22.498  1.00  0.00     0.278 C 
ATOM     79  H   UNL A   1      33.812  28.460  22.179  1.00  0.00     0.163 HD
ATOM     80  O   UNL A   1      33.655  26.357  21.279  1.00  0.00    -0.268 OA
BRANCH  78  81
ATOM     81  C   UNL A   1      32.807  25.426  23.347  1.00  0.00     0.274 C 
ATOM     82  C   UNL A   1      32.194  24.379  22.381  1.00  0.00     0.076 C 
ATOM     83  N   UNL A   1      33.496  24.816  24.516  1.00  0.00    -0.319 N 
ATOM     84  C   UNL A   1      31.639  23.132  23.070  1.00  0.00     0.016 C 
ATOM     85  C   UNL A   1      32.623  23.875  25.257  1.00  0.00     0.188 C 
ATOM     86  H   UNL A   1      33.675  25.633  25.101  1.00  0.00     0.349 HD
ATOM     87  C   UNL A   1      31.330  23.451  24.522  1.00  0.00     0.048 C 
ATOM     88  C   UNL A   1      32.211  24.445  26.626  1.00  0.00     0.065 C 
ATOM     89  C   UNL A   1      30.704  22.274  25.275  1.00  0.00     0.010 C 
ATOM     90  C   UNL A   1      31.490  23.368  27.449  1.00  0.00     0.006 C 
ATOM     91  C   UNL A   1      30.336  22.697  26.698  1.00  0.00     0.001 C 
BRANCH  83  92
ATOM     92  C   UNL A   1      34.869  24.290  24.325  1.00  0.00     0.194 C 
ATOM     93  C   UNL A   1      35.093  23.126  23.345  1.00  0.00     0.067 C 
ATOM     94  C   UNL A   1      35.507  23.984  25.709  1.00  0.00     0.134 C 
ATOM     95  C   UNL A   1      36.584  22.860  23.107  1.00  0.00     0.017 C 
ATOM     96  S   UNL A   1      37.295  23.648  25.663  1.00  0.00    -0.156 SA
ATOM     97  C   UNL A   1      37.324  22.401  24.353  1.00  0.00     0.070 C 
ENDBRANCH  83  92
ENDBRANCH  78  81
ENDBRANCH  76  77
ENDBRANCH  75  76
ENDBRANCH  74  75
ENDBRANCH   1  74
TORSDOF 15
ENDMDL
MODEL 2
REMARK VINA RESULT:     -11.7      5.001      9.762
REMARK SMILES O=C(NCCCCNC(=O)[C@H]1CC[C@H]2CCCC[C@@H]2[N@H+]1[C@@H]1CCCSC1)c1ccc(-c2c3nc(c(-c4c(F)cc(S(=O)(=O)[O-])cc4F)c4ccc([nH]4)c(-c4c(F)cc(S(=O)(=O)[O-])cc4F)c4nc(c(-c5c(F)cc(S(=O)(=O)[O-])cc5F)c5ccc2[nH]5)C=C4)C=C3)cc1
REMARK SMILES IDX 4 1 3 2 1 3 2 4 27 6 28 7 92 8 29 9 91 10 30 11 31 12 32 13
REMARK SMILES IDX 85 14 33 15 90 16 84 17 86 18 34 19 89 20 83 21 82 22 35 24
REMARK SMILES IDX 69 25 48 26 68 27 49 28 52 29 67 30 87 31 50 32 51 33 66 35
REMARK SMILES IDX 88 36 53 37 36 38 37 39 46 40 38 41 39 42 45 43 47 44 40 45
REMARK SMILES IDX 41 46 42 47 43 48 44 49 70 50 71 51 80 52 72 53 73 54 79 55
REMARK SMILES IDX 81 56 74 57 75 58 76 59 77 60 78 61 54 62 55 63 64 64 56 65
REMARK SMILES IDX 57 66 63 67 65 68 58 69 59 70 60 71 61 72 62 73 5 74 6 75
REMARK SMILES IDX 7 76 8 77 9 78 10 80 11 81 12 82 20 83 13 84 19 85 14 87
REMARK SMILES IDX 18 88 15 89 17 90 16 91 21 92 22 93 26 94 23 95 25 96 24 97
REMARK H PARENT 3 5 86 23 52 34 8 79 20 86
REMARK Flexibility Score: inf
ROOT
ATOM      1  C   UNL A   1      41.097  23.177  26.789  1.00  0.00     0.116 C 
ENDROOT
BRANCH   1   2
ATOM      2  N   UNL A   1      41.275  24.223  25.786  1.00  0.00    -0.352 N 
ATOM      3  O   UNL A   1      41.531  26.342  25.020  1.00  0.00    -0.269 OA
ATOM      4  C   UNL A   1      41.416  25.583  25.973  1.00  0.00     0.251 C 
ATOM      5  H   UNL A   1      41.298  23.917  24.851  1.00  0.00     0.163 HD
BRANCH   4   6
ATOM      6  C   UNL A   1      41.362  26.107  27.352  1.00  0.00     0.039 A 
ATOM      7  C   UNL A   1      40.152  26.102  28.043  1.00  0.00     0.014 A 
ATOM      8  C   UNL A   1      42.484  26.746  27.885  1.00  0.00     0.014 A 
ATOM      9  C   UNL A   1      39.997  26.949  29.127  1.00  0.00     0.010 A 
ATOM     10  C   UNL A   1      42.355  27.488  29.063  1.00  0.00     0.010 A 
ATOM     11  C   UNL A   1      41.094  27.655  29.654  1.00  0.00    -0.014 A 
BRANCH  11  12
ATOM     12  C   UNL A   1      40.870  28.555  30.816  1.00  0.00     0.031 A 
ATOM     13  C   UNL A   1      41.813  28.568  31.993  1.00  0.00     0.074 A 
ATOM     14  C   UNL A   1      39.847  29.429  30.759  1.00  0.00     0.049 A 
ATOM     15  N   UNL A   1      41.770  29.313  33.070  1.00  0.00    -0.248 NA
ATOM     16  C   UNL A   1      42.938  27.619  31.973  1.00  0.00     0.031 C 
ATOM     17  C   UNL A   1      38.866  29.506  29.671  1.00  0.00     0.029 A 
ATOM     18  N   UNL A   1      39.486  30.448  31.600  1.00  0.00    -0.354 N 
ATOM     19  C   UNL A   1      42.819  28.886  33.876  1.00  0.00     0.074 A 
ATOM     20  C   UNL A   1      43.488  27.818  33.164  1.00  0.00     0.031 C 
ATOM     21  C   UNL A   1      38.082  30.575  29.860  1.00  0.00     0.029 A 
ATOM     22  C   UNL A   1      38.443  31.206  31.122  1.00  0.00     0.049 A 
ATOM     23  H   UNL A   1      39.930  30.622  32.461  1.00  0.00     0.167 HD
ATOM     24  C   UNL A   1      43.186  29.342  35.098  1.00  0.00     0.037 A 
ATOM     25  C   UNL A   1      37.835  32.287  31.644  1.00  0.00     0.037 A 
ATOM     26  C   UNL A   1      42.552  30.446  35.772  1.00  0.00     0.049 A 
ATOM     27  C   UNL A   1      38.299  32.809  32.969  1.00  0.00     0.074 A 
ATOM     28  C   UNL A   1      42.862  31.001  37.003  1.00  0.00     0.029 A 
ATOM     29  N   UNL A   1      41.487  31.178  35.265  1.00  0.00    -0.354 N 
ATOM     30  N   UNL A   1      39.274  32.370  33.727  1.00  0.00    -0.248 NA
ATOM     31  C   UNL A   1      37.571  33.959  33.517  1.00  0.00     0.031 C 
ATOM     32  C   UNL A   1      41.973  32.053  37.247  1.00  0.00     0.029 A 
ATOM     33  C   UNL A   1      41.128  32.175  36.155  1.00  0.00     0.049 A 
ATOM     34  H   UNL A   1      41.052  31.012  34.397  1.00  0.00     0.167 HD
ATOM     35  C   UNL A   1      39.278  33.191  34.847  1.00  0.00     0.074 A 
ATOM     36  C   UNL A   1      38.224  34.168  34.652  1.00  0.00     0.031 C 
ATOM     37  C   UNL A   1      40.076  33.135  35.942  1.00  0.00     0.037 A 
BRANCH  24  38
ATOM     38  C   UNL A   1      44.308  28.630  35.805  1.00  0.00     0.058 A 
ATOM     39  C   UNL A   1      44.080  27.546  36.664  1.00  0.00     0.135 A 
ATOM     40  C   UNL A   1      45.641  29.019  35.582  1.00  0.00     0.135 A 
ATOM     41  F   UNL A   1      42.826  27.142  36.925  1.00  0.00    -0.206 F 
ATOM     42  C   UNL A   1      45.130  26.886  37.298  1.00  0.00     0.059 A 
ATOM     43  C   UNL A   1      46.707  28.361  36.188  1.00  0.00     0.059 A 
ATOM     44  F   UNL A   1      45.916  30.049  34.767  1.00  0.00    -0.206 F 
ATOM     45  C   UNL A   1      46.441  27.304  37.057  1.00  0.00     0.060 A 
BRANCH  45  46
ATOM     46  S   UNL A   1      47.797  26.442  37.883  1.00  0.00     0.124 S 
ATOM     47  O   UNL A   1      48.771  26.332  36.801  1.00  0.00    -0.237 OA
ATOM     48  O   UNL A   1      48.149  27.362  38.959  1.00  0.00    -0.237 OA
ATOM     49  O   UNL A   1      47.189  25.186  38.311  1.00  0.00    -0.744 OA
ENDBRANCH  45  46
ENDBRANCH  24  38
BRANCH  25  50
ATOM     50  C   UNL A   1      36.728  32.933  30.897  1.00  0.00     0.058 A 
ATOM     51  C   UNL A   1      35.394  32.757  31.293  1.00  0.00     0.135 A 
ATOM     52  C   UNL A   1      36.985  33.790  29.815  1.00  0.00     0.135 A 
ATOM     53  F   UNL A   1      35.101  31.946  32.321  1.00  0.00    -0.206 F 
ATOM     54  C   UNL A   1      34.352  33.408  30.642  1.00  0.00     0.059 A 
ATOM     55  C   UNL A   1      35.963  34.472  29.166  1.00  0.00     0.059 A 
ATOM     56  F   UNL A   1      38.248  34.007  29.416  1.00  0.00    -0.206 F 
ATOM     57  C   UNL A   1      34.647  34.269  29.582  1.00  0.00     0.060 A 
BRANCH  57  58
ATOM     58  S   UNL A   1      33.303  35.178  28.792  1.00  0.00     0.124 S 
ATOM     59  O   UNL A   1      32.703  34.144  27.957  1.00  0.00    -0.237 OA
ATOM     60  O   UNL A   1      32.509  35.618  29.935  1.00  0.00    -0.237 OA
ATOM     61  O   UNL A   1      34.000  36.246  28.079  1.00  0.00    -0.744 OA
ENDBRANCH  57  58
ENDBRANCH  25  50
BRANCH  37  62
ATOM     62  C   UNL A   1      39.841  34.174  36.996  1.00  0.00     0.058 A 
ATOM     63  C   UNL A   1      40.395  35.459  36.893  1.00  0.00     0.135 A 
ATOM     64  C   UNL A   1      39.049  33.883  38.117  1.00  0.00     0.135 A 
ATOM     65  F   UNL A   1      41.166  35.779  35.842  1.00  0.00    -0.206 F 
ATOM     66  C   UNL A   1      40.198  36.413  37.884  1.00  0.00     0.059 A 
ATOM     67  C   UNL A   1      38.823  34.828  39.111  1.00  0.00     0.059 A 
ATOM     68  F   UNL A   1      38.492  32.669  38.256  1.00  0.00    -0.206 F 
ATOM     69  C   UNL A   1      39.416  36.086  38.994  1.00  0.00     0.060 A 
BRANCH  69  70
ATOM     70  S   UNL A   1      39.162  37.329  40.278  1.00  0.00     0.124 S 
ATOM     71  O   UNL A   1      40.527  37.783  40.519  1.00  0.00    -0.237 OA
ATOM     72  O   UNL A   1      38.280  38.289  39.620  1.00  0.00    -0.237 OA
ATOM     73  O   UNL A   1      38.549  36.570  41.363  1.00  0.00    -0.744 OA
ENDBRANCH  69  70
ENDBRANCH  37  62
ENDBRANCH  11  12
ENDBRANCH   4   6
ENDBRANCH   1   2
BRANCH   1  74
ATOM     74  C   UNL A   1      39.796  22.409  26.679  1.00  0.00     0.023 C 
BRANCH  74  75
ATOM     75  C   UNL A   1      38.571  23.278  26.478  1.00  0.00     0.023 C 
BRANCH  75  76
ATOM     76  C   UNL A   1      37.343  22.602  25.853  1.00  0.00     0.116 C 
BRANCH  76  77
ATOM     77  N   UNL A   1      37.303  22.891  24.437  1.00  0.00    -0.351 N 
ATOM     78  C   UNL A   1      36.273  22.979  23.557  1.00  0.00     0.278 C 
ATOM     79  H   UNL A   1      38.188  23.054  24.036  1.00  0.00     0.163 HD
ATOM     80  O   UNL A   1      36.624  22.874  22.370  1.00  0.00    -0.268 OA
BRANCH  78  81
ATOM     81  C   UNL A   1      34.805  23.386  23.884  1.00  0.00     0.274 C 
ATOM     82  C   UNL A   1      34.155  23.955  22.596  1.00  0.00     0.076 C 
ATOM     83  N   UNL A   1      33.908  22.474  24.643  1.00  0.00    -0.319 N 
ATOM     84  C   UNL A   1      32.656  24.231  22.713  1.00  0.00     0.016 C 
ATOM     85  C   UNL A   1      32.601  23.101  24.954  1.00  0.00     0.188 C 
ATOM     86  H   UNL A   1      34.428  22.345  25.511  1.00  0.00     0.349 HD
ATOM     87  C   UNL A   1      32.285  24.399  24.176  1.00  0.00     0.048 C 
ATOM     88  C   UNL A   1      32.468  23.417  26.455  1.00  0.00     0.065 C 
ATOM     89  C   UNL A   1      30.808  24.747  24.384  1.00  0.00     0.010 C 
ATOM     90  C   UNL A   1      31.035  23.864  26.774  1.00  0.00     0.006 C 
ATOM     91  C   UNL A   1      30.531  24.992  25.869  1.00  0.00     0.001 C 
BRANCH  83  92
ATOM     92  C   UNL A   1      33.772  21.074  24.176  1.00  0.00     0.194 C 
ATOM     93  C   UNL A   1      32.371  20.525  23.859  1.00  0.00     0.067 C 
ATOM     94  C   UNL A   1      34.538  20.126  25.141  1.00  0.00     0.134 C 
ATOM     95  C   UNL A   1      32.437  19.150  23.185  1.00  0.00     0.017 C 
ATOM     96  S   UNL A   1      34.746  18.425  24.527  1.00  0.00    -0.156 SA
ATOM     97  C   UNL A   1      33.033  18.067  24.071  1.00  0.00     0.070 C 
ENDBRANCH  83  92
ENDBRANCH  78  81
ENDBRANCH  76  77
ENDBRANCH  75  76
ENDBRANCH  74  75
ENDBRANCH   1  74
TORSDOF 15
ENDMDL
MODEL 3
REMARK VINA RESULT:     -11.7      2.925      9.063
REMARK SMILES O=C(NCCCCNC(=O)[C@H]1CC[C@H]2CCCC[C@@H]2[N@H+]1[C@@H]1CCCSC1)c1ccc(-c2c3nc(c(-c4c(F)cc(S(=O)(=O)[O-])cc4F)c4ccc([nH]4)c(-c4c(F)cc(S(=O)(=O)[O-])cc4F)c4nc(c(-c5c(F)cc(S(=O)(=O)[O-])cc5F)c5ccc2[nH]5)C=C4)C=C3)cc1
REMARK SMILES IDX 4 1 3 2 1 3 2 4 27 6 28 7 92 8 29 9 91 10 30 11 31 12 32 13
REMARK SMILES IDX 85 14 33 15 90 16 84 17 86 18 34 19 89 20 83 21 82 22 35 24
REMARK SMILES IDX 69 25 48 26 68 27 49 28 52 29 67 30 87 31 50 32 51 33 66 35
REMARK SMILES IDX 88 36 53 37 36 38 37 39 46 40 38 41 39 42 45 43 47 44 40 45
REMARK SMILES IDX 41 46 42 47 43 48 44 49 70 50 71 51 80 52 72 53 73 54 79 55
REMARK SMILES IDX 81 56 74 57 75 58 76 59 77 60 78 61 54 62 55 63 64 64 56 65
REMARK SMILES IDX 57 66 63 67 65 68 58 69 59 70 60 71 61 72 62 73 5 74 6 75
REMARK SMILES IDX 7 76 8 77 9 78 10 80 11 81 12 82 20 83 13 84 19 85 14 87
REMARK SMILES IDX 18 88 15 89 17 90 16 91 21 92 22 93 26 94 23 95 25 96 24 97
REMARK H PARENT 3 5 86 23 52 34 8 79 20 86
REMARK Flexibility Score: inf
ROOT
ATOM      1  C   UNL A   1      35.707  31.900  28.852  1.00  0.00     0.116 C 
ENDROOT
BRANCH   1   2
ATOM      2  N   UNL A   1      35.568  30.931  29.937  1.00  0.00    -0.352 N 
ATOM      3  O   UNL A   1      36.255  29.333  31.392  1.00  0.00    -0.269 OA
ATOM      4  C   UNL A   1      36.534  30.121  30.498  1.00  0.00     0.251 C 
ATOM      5  H   UNL A   1      34.666  30.846  30.319  1.00  0.00     0.163 HD
BRANCH   4   6
ATOM      6  C   UNL A   1      37.903  30.183  29.948  1.00  0.00     0.039 A 
ATOM      7  C   UNL A   1      38.121  29.871  28.608  1.00  0.00     0.014 A 
ATOM      8  C   UNL A   1      38.978  30.398  30.813  1.00  0.00     0.014 A 
ATOM      9  C   UNL A   1      39.398  29.518  28.202  1.00  0.00     0.010 A 
ATOM     10  C   UNL A   1      40.281  30.176  30.356  1.00  0.00     0.010 A 
ATOM     11  C   UNL A   1      40.496  29.664  29.068  1.00  0.00    -0.014 A 
BRANCH  11  12
ATOM     12  C   UNL A   1      41.844  29.266  28.583  1.00  0.00     0.031 A 
ATOM     13  C   UNL A   1      43.021  30.205  28.673  1.00  0.00     0.074 A 
ATOM     14  C   UNL A   1      42.015  28.007  28.136  1.00  0.00     0.049 A 
ATOM     15  N   UNL A   1      44.264  29.996  28.318  1.00  0.00    -0.248 NA
ATOM     16  C   UNL A   1      42.776  31.552  29.213  1.00  0.00     0.031 C 
ATOM     17  C   UNL A   1      40.948  27.010  28.002  1.00  0.00     0.029 A 
ATOM     18  N   UNL A   1      43.146  27.331  27.762  1.00  0.00    -0.354 N 
ATOM     19  C   UNL A   1      44.934  31.195  28.535  1.00  0.00     0.074 A 
ATOM     20  C   UNL A   1      43.960  32.129  29.059  1.00  0.00     0.031 C 
ATOM     21  C   UNL A   1      41.486  25.829  27.673  1.00  0.00     0.029 A 
ATOM     22  C   UNL A   1      42.921  26.002  27.487  1.00  0.00     0.049 A 
ATOM     23  H   UNL A   1      44.032  27.753  27.696  1.00  0.00     0.167 HD
ATOM     24  C   UNL A   1      46.239  31.488  28.315  1.00  0.00     0.037 A 
ATOM     25  C   UNL A   1      43.772  25.028  27.117  1.00  0.00     0.037 A 
ATOM     26  C   UNL A   1      47.213  30.533  27.851  1.00  0.00     0.049 A 
ATOM     27  C   UNL A   1      45.221  25.363  26.938  1.00  0.00     0.074 A 
ATOM     28  C   UNL A   1      48.565  30.722  27.617  1.00  0.00     0.029 A 
ATOM     29  N   UNL A   1      46.944  29.202  27.566  1.00  0.00    -0.354 N 
ATOM     30  N   UNL A   1      45.826  26.512  27.121  1.00  0.00    -0.248 NA
ATOM     31  C   UNL A   1      46.099  24.277  26.487  1.00  0.00     0.031 C 
ATOM     32  C   UNL A   1      49.107  29.512  27.172  1.00  0.00     0.029 A 
ATOM     33  C   UNL A   1      48.101  28.559  27.158  1.00  0.00     0.049 A 
ATOM     34  H   UNL A   1      46.060  28.776  27.644  1.00  0.00     0.167 HD
ATOM     35  C   UNL A   1      47.159  26.289  26.806  1.00  0.00     0.074 A 
ATOM     36  C   UNL A   1      47.275  24.889  26.446  1.00  0.00     0.031 C 
ATOM     37  C   UNL A   1      48.193  27.166  26.804  1.00  0.00     0.037 A 
BRANCH  24  38
ATOM     38  C   UNL A   1      46.688  32.906  28.543  1.00  0.00     0.058 A 
ATOM     39  C   UNL A   1      46.624  33.879  27.535  1.00  0.00     0.135 A 
ATOM     40  C   UNL A   1      47.152  33.303  29.809  1.00  0.00     0.135 A 
ATOM     41  F   UNL A   1      46.203  33.551  26.304  1.00  0.00    -0.206 F 
ATOM     42  C   UNL A   1      47.028  35.193  27.766  1.00  0.00     0.059 A 
ATOM     43  C   UNL A   1      47.541  34.615  30.067  1.00  0.00     0.059 A 
ATOM     44  F   UNL A   1      47.231  32.412  30.809  1.00  0.00    -0.206 F 
ATOM     45  C   UNL A   1      47.490  35.549  29.035  1.00  0.00     0.060 A 
BRANCH  45  46
ATOM     46  S   UNL A   1      48.010  37.255  29.325  1.00  0.00     0.124 S 
ATOM     47  O   UNL A   1      47.220  37.972  28.329  1.00  0.00    -0.237 OA
ATOM     48  O   UNL A   1      47.623  37.472  30.716  1.00  0.00    -0.237 OA
ATOM     49  O   UNL A   1      49.448  37.217  29.078  1.00  0.00    -0.744 OA
ENDBRANCH  45  46
ENDBRANCH  24  38
BRANCH  25  50
ATOM     50  C   UNL A   1      43.259  23.653  26.899  1.00  0.00     0.058 A 
ATOM     51  C   UNL A   1      43.085  23.147  25.604  1.00  0.00     0.135 A 
ATOM     52  C   UNL A   1      42.994  22.798  27.981  1.00  0.00     0.135 A 
ATOM     53  F   UNL A   1      43.325  23.929  24.540  1.00  0.00    -0.206 F 
ATOM     54  C   UNL A   1      42.666  21.839  25.386  1.00  0.00     0.059 A 
ATOM     55  C   UNL A   1      42.599  21.480  27.788  1.00  0.00     0.059 A 
ATOM     56  F   UNL A   1      43.168  23.232  29.239  1.00  0.00    -0.206 F 
ATOM     57  C   UNL A   1      42.431  21.011  26.485  1.00  0.00     0.060 A 
BRANCH  57  58
ATOM     58  S   UNL A   1      41.969  19.289  26.202  1.00  0.00     0.124 S 
ATOM     59  O   UNL A   1      42.388  18.665  27.451  1.00  0.00    -0.237 OA
ATOM     60  O   UNL A   1      40.528  19.383  25.986  1.00  0.00    -0.237 OA
ATOM     61  O   UNL A   1      42.746  18.928  25.019  1.00  0.00    -0.744 OA
ENDBRANCH  57  58
ENDBRANCH  25  50
BRANCH  37  62
ATOM     62  C   UNL A   1      49.534  26.622  26.417  1.00  0.00     0.058 A 
ATOM     63  C   UNL A   1      50.362  25.984  27.354  1.00  0.00     0.135 A 
ATOM     64  C   UNL A   1      49.994  26.734  25.096  1.00  0.00     0.135 A 
ATOM     65  F   UNL A   1      49.967  25.861  28.630  1.00  0.00    -0.206 F 
ATOM     66  C   UNL A   1      51.617  25.502  27.000  1.00  0.00     0.059 A 
ATOM     67  C   UNL A   1      51.237  26.243  24.716  1.00  0.00     0.059 A 
ATOM     68  F   UNL A   1      49.234  27.331  24.164  1.00  0.00    -0.206 F 
ATOM     69  C   UNL A   1      52.049  25.643  25.679  1.00  0.00     0.060 A 
BRANCH  69  70
ATOM     70  S   UNL A   1      53.679  25.015  25.224  1.00  0.00     0.124 S 
ATOM     71  O   UNL A   1      53.949  25.764  24.002  1.00  0.00    -0.237 OA
ATOM     72  O   UNL A   1      54.493  25.374  26.381  1.00  0.00    -0.237 OA
ATOM     73  O   UNL A   1      53.450  23.584  25.049  1.00  0.00    -0.744 OA
ENDBRANCH  69  70
ENDBRANCH  37  62
ENDBRANCH  11  12
ENDBRANCH   4   6
ENDBRANCH   1   2
BRANCH   1  74
ATOM     74  C   UNL A   1      34.825  31.632  27.649  1.00  0.00     0.023 C 
BRANCH  74  75
ATOM     75  C   UNL A   1      34.818  30.190  27.186  1.00  0.00     0.023 C 
BRANCH  75  76
ATOM     76  C   UNL A   1      33.579  29.723  26.410  1.00  0.00     0.116 C 
BRANCH  76  77
ATOM     77  N   UNL A   1      32.696  29.002  27.300  1.00  0.00    -0.351 N 
ATOM     78  C   UNL A   1      31.811  27.997  27.082  1.00  0.00     0.278 C 
ATOM     79  H   UNL A   1      32.747  29.296  28.239  1.00  0.00     0.163 HD
ATOM     80  O   UNL A   1      30.966  27.876  27.985  1.00  0.00    -0.268 OA
BRANCH  78  81
ATOM     81  C   UNL A   1      31.891  26.916  25.963  1.00  0.00     0.274 C 
ATOM     82  C   UNL A   1      31.137  25.650  26.450  1.00  0.00     0.076 C 
ATOM     83  N   UNL A   1      31.609  27.259  24.543  1.00  0.00    -0.319 N 
ATOM     84  C   UNL A   1      30.974  24.564  25.386  1.00  0.00     0.016 C 
ATOM     85  C   UNL A   1      31.862  26.121  23.628  1.00  0.00     0.188 C 
ATOM     86  H   UNL A   1      32.300  27.988  24.365  1.00  0.00     0.349 HD
ATOM     87  C   UNL A   1      32.032  24.744  24.311  1.00  0.00     0.048 C 
ATOM     88  C   UNL A   1      33.107  26.362  22.757  1.00  0.00     0.065 C 
ATOM     89  C   UNL A   1      31.986  23.655  23.236  1.00  0.00     0.010 C 
ATOM     90  C   UNL A   1      33.216  25.271  21.682  1.00  0.00     0.006 C 
ATOM     91  C   UNL A   1      33.134  23.849  22.244  1.00  0.00     0.001 C 
BRANCH  83  92
ATOM     92  C   UNL A   1      30.348  27.973  24.231  1.00  0.00     0.194 C 
ATOM     93  C   UNL A   1      29.241  27.232  23.462  1.00  0.00     0.067 C 
ATOM     94  C   UNL A   1      30.674  29.339  23.563  1.00  0.00     0.134 C 
ATOM     95  C   UNL A   1      27.938  28.039  23.421  1.00  0.00     0.017 C 
ATOM     96  S   UNL A   1      29.257  30.472  23.423  1.00  0.00    -0.156 SA
ATOM     97  C   UNL A   1      28.060  29.350  22.661  1.00  0.00     0.070 C 
ENDBRANCH  83  92
ENDBRANCH  78  81
ENDBRANCH  76  77
ENDBRANCH  75  76
ENDBRANCH  74  75
ENDBRANCH   1  74
TORSDOF 15
ENDMDL
