MODEL 1
REMARK VINA RESULT:     -14.4      0.000      0.000
REMARK SMILES CC1=Nc2c(c(C)nn2-c2ccc(F)cc2)[C@H](c2ccc(C(=O)NCCCCNC(=O)c3ccc(-c4c5nc(c(-c6c(F)cc(S(=O)(=O)[O-])cc6F)c6ccc([nH]6)c(-c6c(F)cc(S(=O)(=O)[O-])cc6F)c6nc(c(-c7c(F)cc(S(=O)(=O)[O-])cc7F)c7ccc4[nH]7)C=C6)C=C5)cc3)cc2)S1
REMARK SMILES IDX 27 1 26 2 25 3 24 4 22 5 23 6 21 8 18 9 19 10 99 11 20 12
REMARK SMILES IDX 98 13 17 14 1 15 2 16 3 17 100 18 4 19 5 20 9 21 6 22 8 23
REMARK SMILES IDX 7 24 10 25 11 26 16 27 12 28 15 29 13 30 14 31 28 32 29 33
REMARK SMILES IDX 30 34 31 36 32 37 33 38 97 39 34 40 96 41 35 42 36 43 37 44
REMARK SMILES IDX 90 45 38 46 95 47 89 48 91 49 39 50 94 51 88 52 87 53 40 55
REMARK SMILES IDX 74 56 53 57 73 58 54 59 57 60 72 61 92 62 55 63 56 64 71 66
REMARK SMILES IDX 93 67 58 68 41 69 42 70 51 71 43 72 44 73 50 74 52 75 45 76
REMARK SMILES IDX 46 77 47 78 48 79 49 80 75 81 76 82 85 83 77 84 78 85 84 86
REMARK SMILES IDX 86 87 79 88 80 89 81 90 82 91 83 92 59 93 60 94 69 95 61 96
REMARK SMILES IDX 62 97 68 98 70 99 63 100 64 101 65 102 66 103 67 104
REMARK H PARENT 24 7 29 35 91 54 57 65
REMARK Flexibility Score: inf
ROOT
ATOM      1  C   UNL A   1      37.226  22.383  24.561  1.00  0.00     0.023 C 
ENDROOT
BRANCH   1   2
ATOM      2  C   UNL A   1      36.561  21.016  24.783  1.00  0.00     0.023 C 
BRANCH   2   3
ATOM      3  C   UNL A   1      35.357  21.017  25.732  1.00  0.00     0.116 C 
BRANCH   3   4
ATOM      4  N   UNL A   1      34.352  20.066  25.299  1.00  0.00    -0.352 N 
ATOM      5  C   UNL A   1      33.134  20.226  24.691  1.00  0.00     0.251 C 
ATOM      6  O   UNL A   1      32.478  19.216  24.440  1.00  0.00    -0.269 OA
ATOM      7  H   UNL A   1      34.590  19.127  25.475  1.00  0.00     0.163 HD
BRANCH   5   8
ATOM      8  C   UNL A   1      32.592  21.549  24.285  1.00  0.00     0.039 A 
ATOM      9  C   UNL A   1      31.475  24.092  23.699  1.00  0.00    -0.030 A 
ATOM     10  C   UNL A   1      30.987  23.313  24.763  1.00  0.00     0.006 A 
ATOM     11  C   UNL A   1      32.539  23.572  22.943  1.00  0.00     0.006 A 
ATOM     12  C   UNL A   1      31.548  22.069  25.059  1.00  0.00     0.014 A 
ATOM     13  C   UNL A   1      33.098  22.323  23.239  1.00  0.00     0.014 A 
BRANCH   9  14
ATOM     14  C   UNL A   1      30.893  25.478  23.468  1.00  0.00     0.119 C 
ATOM     15  C   UNL A   1      33.930  27.728  21.742  1.00  0.00     0.075 C 
ATOM     16  C   UNL A   1      32.841  27.311  22.697  1.00  0.00     0.074 C 
ATOM     17  N   UNL A   1      32.953  27.698  23.928  1.00  0.00    -0.227 NA
ATOM     18  S   UNL A   1      31.562  26.328  22.001  1.00  0.00    -0.098 SA
ATOM     19  C   UNL A   1      32.053  27.245  24.832  1.00  0.00     0.161 A 
ATOM     20  C   UNL A   1      31.132  26.228  24.725  1.00  0.00     0.038 A 
ATOM     21  N   UNL A   1      32.000  27.680  26.144  1.00  0.00    -0.215 N 
ATOM     22  C   UNL A   1      30.583  26.097  26.028  1.00  0.00     0.067 A 
ATOM     23  N   UNL A   1      31.182  26.913  26.906  1.00  0.00    -0.171 NA
ATOM     24  C   UNL A   1      29.516  25.173  26.495  1.00  0.00     0.069 C 
BRANCH  21  25
ATOM     25  C   UNL A   1      32.689  28.787  26.688  1.00  0.00     0.067 A 
ATOM     26  C   UNL A   1      32.041  30.030  26.757  1.00  0.00     0.031 A 
ATOM     27  C   UNL A   1      34.015  28.644  27.108  1.00  0.00     0.031 A 
ATOM     28  C   UNL A   1      32.730  31.141  27.236  1.00  0.00     0.041 A 
ATOM     29  C   UNL A   1      34.715  29.775  27.535  1.00  0.00     0.041 A 
ATOM     30  C   UNL A   1      34.065  31.008  27.599  1.00  0.00     0.123 A 
ATOM     31  F   UNL A   1      34.741  32.088  28.012  1.00  0.00    -0.207 F 
ENDBRANCH  21  25
ENDBRANCH   9  14
ENDBRANCH   5   8
ENDBRANCH   3   4
ENDBRANCH   2   3
ENDBRANCH   1   2
BRANCH   1  32
ATOM     32  C   UNL A   1      37.784  23.039  25.819  1.00  0.00     0.116 C 
BRANCH  32  33
ATOM     33  N   UNL A   1      38.749  22.191  26.524  1.00  0.00    -0.352 N 
ATOM     34  C   UNL A   1      39.968  22.556  27.061  1.00  0.00     0.251 C 
ATOM     35  H   UNL A   1      38.497  21.244  26.628  1.00  0.00     0.163 HD
ATOM     36  O   UNL A   1      40.846  21.715  27.257  1.00  0.00    -0.269 OA
BRANCH  34  37
ATOM     37  C   UNL A   1      40.187  23.966  27.416  1.00  0.00     0.039 A 
ATOM     38  C   UNL A   1      39.251  24.965  27.138  1.00  0.00     0.014 A 
ATOM     39  C   UNL A   1      41.362  24.261  28.099  1.00  0.00     0.014 A 
ATOM     40  C   UNL A   1      39.475  26.246  27.638  1.00  0.00     0.010 A 
ATOM     41  C   UNL A   1      41.492  25.465  28.737  1.00  0.00     0.010 A 
ATOM     42  C   UNL A   1      40.591  26.483  28.457  1.00  0.00    -0.014 A 
BRANCH  42  43
ATOM     43  C   UNL A   1      40.791  27.764  29.128  1.00  0.00     0.031 A 
ATOM     44  C   UNL A   1      41.877  28.599  28.543  1.00  0.00     0.074 A 
ATOM     45  C   UNL A   1      39.914  28.257  30.033  1.00  0.00     0.049 A 
ATOM     46  N   UNL A   1      43.035  28.865  29.050  1.00  0.00    -0.248 NA
ATOM     47  C   UNL A   1      41.722  29.061  27.153  1.00  0.00     0.031 C 
ATOM     48  C   UNL A   1      38.621  27.694  30.452  1.00  0.00     0.029 A 
ATOM     49  N   UNL A   1      39.949  29.435  30.711  1.00  0.00    -0.354 N 
ATOM     50  C   UNL A   1      43.652  29.734  28.152  1.00  0.00     0.074 A 
ATOM     51  C   UNL A   1      42.902  29.642  26.929  1.00  0.00     0.031 C 
ATOM     52  C   UNL A   1      37.905  28.628  31.116  1.00  0.00     0.029 A 
ATOM     53  C   UNL A   1      38.759  29.776  31.347  1.00  0.00     0.049 A 
ATOM     54  H   UNL A   1      40.753  30.002  30.748  1.00  0.00     0.167 HD
ATOM     55  C   UNL A   1      44.565  30.654  28.575  1.00  0.00     0.037 A 
ATOM     56  C   UNL A   1      38.498  30.919  32.027  1.00  0.00     0.037 A 
ATOM     57  C   UNL A   1      44.988  30.370  29.924  1.00  0.00     0.049 A 
ATOM     58  C   UNL A   1      39.812  31.493  32.401  1.00  0.00     0.074 A 
ATOM     59  C   UNL A   1      45.678  29.353  30.547  1.00  0.00     0.029 A 
ATOM     60  N   UNL A   1      44.320  31.054  30.910  1.00  0.00    -0.354 N 
ATOM     61  N   UNL A   1      40.655  30.913  33.213  1.00  0.00    -0.248 NA
ATOM     62  C   UNL A   1      40.381  32.516  31.539  1.00  0.00     0.031 C 
ATOM     63  C   UNL A   1      45.075  29.225  31.835  1.00  0.00     0.029 A 
ATOM     64  C   UNL A   1      44.091  30.209  31.964  1.00  0.00     0.049 A 
ATOM     65  H   UNL A   1      44.050  32.000  30.867  1.00  0.00     0.167 HD
ATOM     66  C   UNL A   1      41.906  31.190  32.683  1.00  0.00     0.074 A 
ATOM     67  C   UNL A   1      41.679  32.280  31.738  1.00  0.00     0.031 C 
ATOM     68  C   UNL A   1      42.948  30.322  32.853  1.00  0.00     0.037 A 
BRANCH  55  69
ATOM     69  C   UNL A   1      44.768  32.024  27.958  1.00  0.00     0.058 A 
ATOM     70  C   UNL A   1      43.947  33.141  28.227  1.00  0.00     0.135 A 
ATOM     71  C   UNL A   1      45.982  32.315  27.298  1.00  0.00     0.135 A 
ATOM     72  F   UNL A   1      42.818  33.046  28.940  1.00  0.00    -0.206 F 
ATOM     73  C   UNL A   1      44.291  34.438  27.867  1.00  0.00     0.059 A 
ATOM     74  C   UNL A   1      46.373  33.618  26.977  1.00  0.00     0.059 A 
ATOM     75  F   UNL A   1      46.853  31.335  27.010  1.00  0.00    -0.206 F 
ATOM     76  C   UNL A   1      45.519  34.673  27.268  1.00  0.00     0.060 A 
BRANCH  76  77
ATOM     77  S   UNL A   1      45.992  36.386  26.972  1.00  0.00     0.124 S 
ATOM     78  O   UNL A   1      44.689  37.018  26.788  1.00  0.00    -0.237 OA
ATOM     79  O   UNL A   1      46.693  36.721  28.206  1.00  0.00    -0.237 OA
ATOM     80  O   UNL A   1      46.827  36.304  25.779  1.00  0.00    -0.744 OA
ENDBRANCH  76  77
ENDBRANCH  55  69
BRANCH  56  81
ATOM     81  C   UNL A   1      37.236  31.703  32.088  1.00  0.00     0.058 A 
ATOM     82  C   UNL A   1      36.708  32.315  30.934  1.00  0.00     0.135 A 
ATOM     83  C   UNL A   1      36.693  32.122  33.317  1.00  0.00     0.135 A 
ATOM     84  F   UNL A   1      37.191  32.019  29.718  1.00  0.00    -0.206 F 
ATOM     85  C   UNL A   1      35.736  33.314  30.996  1.00  0.00     0.059 A 
ATOM     86  C   UNL A   1      35.716  33.122  33.404  1.00  0.00     0.059 A 
ATOM     87  F   UNL A   1      37.154  31.605  34.466  1.00  0.00    -0.206 F 
ATOM     88  C   UNL A   1      35.263  33.732  32.236  1.00  0.00     0.060 A 
BRANCH  88  89
ATOM     89  S   UNL A   1      34.111  35.126  32.284  1.00  0.00     0.124 S 
ATOM     90  O   UNL A   1      33.959  35.440  30.867  1.00  0.00    -0.237 OA
ATOM     91  O   UNL A   1      32.943  34.532  32.929  1.00  0.00    -0.237 OA
ATOM     92  O   UNL A   1      34.818  36.128  33.076  1.00  0.00    -0.744 OA
ENDBRANCH  88  89
ENDBRANCH  56  81
BRANCH  68  93
ATOM     93  C   UNL A   1      42.834  29.272  33.933  1.00  0.00     0.058 A 
ATOM     94  C   UNL A   1      42.303  28.026  33.568  1.00  0.00     0.135 A 
ATOM     95  C   UNL A   1      43.066  29.492  35.303  1.00  0.00     0.135 A 
ATOM     96  F   UNL A   1      42.018  27.768  32.282  1.00  0.00    -0.206 F 
ATOM     97  C   UNL A   1      41.993  27.051  34.511  1.00  0.00     0.059 A 
ATOM     98  C   UNL A   1      42.793  28.513  36.265  1.00  0.00     0.059 A 
ATOM     99  F   UNL A   1      43.500  30.679  35.748  1.00  0.00    -0.206 F 
ATOM    100  C   UNL A   1      42.238  27.303  35.859  1.00  0.00     0.060 A 
BRANCH 100 101
ATOM    101  S   UNL A   1      41.779  26.030  37.055  1.00  0.00     0.124 S 
ATOM    102  O   UNL A   1      42.795  26.208  38.089  1.00  0.00    -0.237 OA
ATOM    103  O   UNL A   1      40.425  26.427  37.429  1.00  0.00    -0.237 OA
ATOM    104  O   UNL A   1      41.875  24.786  36.296  1.00  0.00    -0.744 OA
ENDBRANCH 100 101
ENDBRANCH  68  93
ENDBRANCH  42  43
ENDBRANCH  34  37
ENDBRANCH  32  33
ENDBRANCH   1  32
TORSDOF 16
ENDMDL
MODEL 2
REMARK VINA RESULT:     -14.2      3.072      9.525
REMARK SMILES CC1=Nc2c(c(C)nn2-c2ccc(F)cc2)[C@H](c2ccc(C(=O)NCCCCNC(=O)c3ccc(-c4c5nc(c(-c6c(F)cc(S(=O)(=O)[O-])cc6F)c6ccc([nH]6)c(-c6c(F)cc(S(=O)(=O)[O-])cc6F)c6nc(c(-c7c(F)cc(S(=O)(=O)[O-])cc7F)c7ccc4[nH]7)C=C6)C=C5)cc3)cc2)S1
REMARK SMILES IDX 27 1 26 2 25 3 24 4 22 5 23 6 21 8 18 9 19 10 99 11 20 12
REMARK SMILES IDX 98 13 17 14 1 15 2 16 3 17 100 18 4 19 5 20 9 21 6 22 8 23
REMARK SMILES IDX 7 24 10 25 11 26 16 27 12 28 15 29 13 30 14 31 28 32 29 33
REMARK SMILES IDX 30 34 31 36 32 37 33 38 97 39 34 40 96 41 35 42 36 43 37 44
REMARK SMILES IDX 90 45 38 46 95 47 89 48 91 49 39 50 94 51 88 52 87 53 40 55
REMARK SMILES IDX 74 56 53 57 73 58 54 59 57 60 72 61 92 62 55 63 56 64 71 66
REMARK SMILES IDX 93 67 58 68 41 69 42 70 51 71 43 72 44 73 50 74 52 75 45 76
REMARK SMILES IDX 46 77 47 78 48 79 49 80 75 81 76 82 85 83 77 84 78 85 84 86
REMARK SMILES IDX 86 87 79 88 80 89 81 90 82 91 83 92 59 93 60 94 69 95 61 96
REMARK SMILES IDX 62 97 68 98 70 99 63 100 64 101 65 102 66 103 67 104
REMARK H PARENT 24 7 29 35 91 54 57 65
REMARK Flexibility Score: inf
ROOT
ATOM      1  C   UNL A   1      33.058  29.120  27.229  1.00  0.00     0.023 C 
ENDROOT
BRANCH   1   2
ATOM      2  C   UNL A   1      31.931  29.728  26.379  1.00  0.00     0.023 C 
BRANCH   2   3
ATOM      3  C   UNL A   1      32.166  29.705  24.864  1.00  0.00     0.116 C 
BRANCH   3   4
ATOM      4  N   UNL A   1      30.909  29.657  24.144  1.00  0.00    -0.352 N 
ATOM      5  C   UNL A   1      30.153  28.611  23.680  1.00  0.00     0.251 C 
ATOM      6  O   UNL A   1      29.110  28.874  23.084  1.00  0.00    -0.269 OA
ATOM      7  H   UNL A   1      30.525  30.542  23.952  1.00  0.00     0.163 HD
BRANCH   5   8
ATOM      8  C   UNL A   1      30.511  27.185  23.900  1.00  0.00     0.039 A 
ATOM      9  C   UNL A   1      31.273  24.461  24.127  1.00  0.00    -0.030 A 
ATOM     10  C   UNL A   1      31.142  25.074  22.870  1.00  0.00     0.006 A 
ATOM     11  C   UNL A   1      31.023  25.245  25.267  1.00  0.00     0.006 A 
ATOM     12  C   UNL A   1      30.781  26.419  22.760  1.00  0.00     0.014 A 
ATOM     13  C   UNL A   1      30.658  26.592  25.154  1.00  0.00     0.014 A 
BRANCH   9  14
ATOM     14  C   UNL A   1      31.753  23.019  24.202  1.00  0.00     0.119 C 
ATOM     15  C   UNL A   1      32.662  22.314  28.195  1.00  0.00     0.075 C 
ATOM     16  C   UNL A   1      32.819  22.404  26.699  1.00  0.00     0.074 C 
ATOM     17  N   UNL A   1      34.008  22.646  26.242  1.00  0.00    -0.227 NA
ATOM     18  S   UNL A   1      31.346  22.182  25.769  1.00  0.00    -0.098 SA
ATOM     19  C   UNL A   1      34.160  22.845  24.912  1.00  0.00     0.161 A 
ATOM     20  C   UNL A   1      33.212  23.068  23.941  1.00  0.00     0.038 A 
ATOM     21  N   UNL A   1      35.390  22.994  24.296  1.00  0.00    -0.215 N 
ATOM     22  C   UNL A   1      33.957  23.369  22.768  1.00  0.00     0.067 A 
ATOM     23  N   UNL A   1      35.273  23.417  23.014  1.00  0.00    -0.171 NA
ATOM     24  C   UNL A   1      33.454  23.663  21.401  1.00  0.00     0.069 C 
BRANCH  21  25
ATOM     25  C   UNL A   1      36.653  22.745  24.878  1.00  0.00     0.067 A 
ATOM     26  C   UNL A   1      37.196  21.452  24.811  1.00  0.00     0.031 A 
ATOM     27  C   UNL A   1      37.326  23.772  25.548  1.00  0.00     0.031 A 
ATOM     28  C   UNL A   1      38.412  21.182  25.431  1.00  0.00     0.041 A 
ATOM     29  C   UNL A   1      38.517  23.477  26.214  1.00  0.00     0.041 A 
ATOM     30  C   UNL A   1      39.050  22.190  26.146  1.00  0.00     0.123 A 
ATOM     31  F   UNL A   1      40.194  21.915  26.784  1.00  0.00    -0.207 F 
ENDBRANCH  21  25
ENDBRANCH   9  14
ENDBRANCH   5   8
ENDBRANCH   3   4
ENDBRANCH   2   3
ENDBRANCH   1   2
BRANCH   1  32
ATOM     32  C   UNL A   1      34.388  29.862  27.159  1.00  0.00     0.116 C 
BRANCH  32  33
ATOM     33  N   UNL A   1      34.316  31.215  27.718  1.00  0.00    -0.352 N 
ATOM     34  C   UNL A   1      34.968  31.711  28.830  1.00  0.00     0.251 C 
ATOM     35  H   UNL A   1      33.731  31.849  27.243  1.00  0.00     0.163 HD
ATOM     36  O   UNL A   1      34.535  32.697  29.426  1.00  0.00    -0.269 OA
BRANCH  34  37
ATOM     37  C   UNL A   1      36.206  31.051  29.273  1.00  0.00     0.039 A 
ATOM     38  C   UNL A   1      36.245  29.709  29.658  1.00  0.00     0.014 A 
ATOM     39  C   UNL A   1      37.367  31.817  29.240  1.00  0.00     0.014 A 
ATOM     40  C   UNL A   1      37.484  29.127  29.924  1.00  0.00     0.010 A 
ATOM     41  C   UNL A   1      38.587  31.204  29.325  1.00  0.00     0.010 A 
ATOM     42  C   UNL A   1      38.655  29.879  29.734  1.00  0.00    -0.014 A 
BRANCH  42  43
ATOM     43  C   UNL A   1      39.979  29.276  29.850  1.00  0.00     0.031 A 
ATOM     44  C   UNL A   1      40.427  29.049  31.252  1.00  0.00     0.074 A 
ATOM     45  C   UNL A   1      40.633  28.743  28.793  1.00  0.00     0.049 A 
ATOM     46  N   UNL A   1      41.346  29.681  31.905  1.00  0.00    -0.248 NA
ATOM     47  C   UNL A   1      39.648  28.117  32.086  1.00  0.00     0.031 C 
ATOM     48  C   UNL A   1      40.158  28.591  27.408  1.00  0.00     0.029 A 
ATOM     49  N   UNL A   1      41.844  28.127  28.752  1.00  0.00    -0.354 N 
ATOM     50  C   UNL A   1      41.430  29.054  33.147  1.00  0.00     0.074 A 
ATOM     51  C   UNL A   1      40.236  28.263  33.275  1.00  0.00     0.031 C 
ATOM     52  C   UNL A   1      40.958  27.732  26.738  1.00  0.00     0.029 A 
ATOM     53  C   UNL A   1      42.106  27.436  27.572  1.00  0.00     0.049 A 
ATOM     54  H   UNL A   1      42.485  28.167  29.498  1.00  0.00     0.167 HD
ATOM     55  C   UNL A   1      42.599  29.030  33.848  1.00  0.00     0.037 A 
ATOM     56  C   UNL A   1      43.198  26.682  27.296  1.00  0.00     0.037 A 
ATOM     57  C   UNL A   1      43.546  29.964  33.291  1.00  0.00     0.049 A 
ATOM     58  C   UNL A   1      44.259  27.123  28.232  1.00  0.00     0.074 A 
ATOM     59  C   UNL A   1      43.617  31.334  33.158  1.00  0.00     0.029 A 
ATOM     60  N   UNL A   1      44.444  29.435  32.398  1.00  0.00    -0.354 N 
ATOM     61  N   UNL A   1      44.783  28.319  28.227  1.00  0.00    -0.248 NA
ATOM     62  C   UNL A   1      44.446  26.366  29.459  1.00  0.00     0.031 C 
ATOM     63  C   UNL A   1      44.267  31.556  31.907  1.00  0.00     0.029 A 
ATOM     64  C   UNL A   1      44.619  30.317  31.364  1.00  0.00     0.049 A 
ATOM     65  H   UNL A   1      44.892  28.563  32.486  1.00  0.00     0.167 HD
ATOM     66  C   UNL A   1      44.990  28.622  29.564  1.00  0.00     0.074 A 
ATOM     67  C   UNL A   1      44.887  27.341  30.257  1.00  0.00     0.031 C 
ATOM     68  C   UNL A   1      44.943  29.913  30.007  1.00  0.00     0.037 A 
BRANCH  55  69
ATOM     69  C   UNL A   1      43.046  27.898  34.752  1.00  0.00     0.058 A 
ATOM     70  C   UNL A   1      43.494  26.643  34.284  1.00  0.00     0.135 A 
ATOM     71  C   UNL A   1      43.310  28.161  36.114  1.00  0.00     0.135 A 
ATOM     72  F   UNL A   1      43.417  26.289  32.996  1.00  0.00    -0.206 F 
ATOM     73  C   UNL A   1      44.141  25.720  35.095  1.00  0.00     0.059 A 
ATOM     74  C   UNL A   1      44.009  27.270  36.934  1.00  0.00     0.059 A 
ATOM     75  F   UNL A   1      42.950  29.332  36.664  1.00  0.00    -0.206 F 
ATOM     76  C   UNL A   1      44.421  26.051  36.412  1.00  0.00     0.060 A 
BRANCH  76  77
ATOM     77  S   UNL A   1      45.407  24.892  37.376  1.00  0.00     0.124 S 
ATOM     78  O   UNL A   1      45.003  23.616  36.795  1.00  0.00    -0.237 OA
ATOM     79  O   UNL A   1      46.765  25.328  37.072  1.00  0.00    -0.237 OA
ATOM     80  O   UNL A   1      44.963  25.129  38.745  1.00  0.00    -0.744 OA
ENDBRANCH  76  77
ENDBRANCH  55  69
BRANCH  56  81
ATOM     81  C   UNL A   1      43.287  25.412  26.527  1.00  0.00     0.058 A 
ATOM     82  C   UNL A   1      42.812  24.202  27.071  1.00  0.00     0.135 A 
ATOM     83  C   UNL A   1      44.105  25.302  25.387  1.00  0.00     0.135 A 
ATOM     84  F   UNL A   1      42.064  24.197  28.184  1.00  0.00    -0.206 F 
ATOM     85  C   UNL A   1      43.165  22.958  26.547  1.00  0.00     0.059 A 
ATOM     86  C   UNL A   1      44.472  24.065  24.842  1.00  0.00     0.059 A 
ATOM     87  F   UNL A   1      44.617  26.405  24.819  1.00  0.00    -0.206 F 
ATOM     88  C   UNL A   1      44.017  22.895  25.448  1.00  0.00     0.060 A 
BRANCH  88  89
ATOM     89  S   UNL A   1      44.565  21.266  24.886  1.00  0.00     0.124 S 
ATOM     90  O   UNL A   1      44.657  21.461  23.442  1.00  0.00    -0.237 OA
ATOM     91  O   UNL A   1      45.838  21.116  25.585  1.00  0.00    -0.237 OA
ATOM     92  O   UNL A   1      43.500  20.373  25.331  1.00  0.00    -0.744 OA
ENDBRANCH  88  89
ENDBRANCH  56  81
BRANCH  68  93
ATOM     93  C   UNL A   1      45.053  31.023  28.987  1.00  0.00     0.058 A 
ATOM     94  C   UNL A   1      43.857  31.550  28.476  1.00  0.00     0.135 A 
ATOM     95  C   UNL A   1      46.250  31.459  28.392  1.00  0.00     0.135 A 
ATOM     96  F   UNL A   1      42.678  31.142  28.971  1.00  0.00    -0.206 F 
ATOM     97  C   UNL A   1      43.841  32.446  27.413  1.00  0.00     0.059 A 
ATOM     98  C   UNL A   1      46.259  32.385  27.343  1.00  0.00     0.059 A 
ATOM     99  F   UNL A   1      47.433  30.951  28.766  1.00  0.00    -0.206 F 
ATOM    100  C   UNL A   1      45.046  32.858  26.848  1.00  0.00     0.060 A 
BRANCH 100 101
ATOM    101  S   UNL A   1      44.981  33.987  25.440  1.00  0.00     0.124 S 
ATOM    102  O   UNL A   1      44.084  35.030  25.932  1.00  0.00    -0.237 OA
ATOM    103  O   UNL A   1      46.379  34.380  25.291  1.00  0.00    -0.237 OA
ATOM    104  O   UNL A   1      44.446  33.166  24.358  1.00  0.00    -0.744 OA
ENDBRANCH 100 101
ENDBRANCH  68  93
ENDBRANCH  42  43
ENDBRANCH  34  37
ENDBRANCH  32  33
ENDBRANCH   1  32
TORSDOF 16
ENDMDL
MODEL 3
REMARK VINA RESULT:     -13.7      3.429      9.828
REMARK SMILES CC1=Nc2c(c(C)nn2-c2ccc(F)cc2)[C@H](c2ccc(C(=O)NCCCCNC(=O)c3ccc(-c4c5nc(c(-c6c(F)cc(S(=O)(=O)[O-])cc6F)c6ccc([nH]6)c(-c6c(F)cc(S(=O)(=O)[O-])cc6F)c6nc(c(-c7c(F)cc(S(=O)(=O)[O-])cc7F)c7ccc4[nH]7)C=C6)C=C5)cc3)cc2)S1
REMARK SMILES IDX 27 1 26 2 25 3 24 4 22 5 23 6 21 8 18 9 19 10 99 11 20 12
REMARK SMILES IDX 98 13 17 14 1 15 2 16 3 17 100 18 4 19 5 20 9 21 6 22 8 23
REMARK SMILES IDX 7 24 10 25 11 26 16 27 12 28 15 29 13 30 14 31 28 32 29 33
REMARK SMILES IDX 30 34 31 36 32 37 33 38 97 39 34 40 96 41 35 42 36 43 37 44
REMARK SMILES IDX 90 45 38 46 95 47 89 48 91 49 39 50 94 51 88 52 87 53 40 55
REMARK SMILES IDX 74 56 53 57 73 58 54 59 57 60 72 61 92 62 55 63 56 64 71 66
REMARK SMILES IDX 93 67 58 68 41 69 42 70 51 71 43 72 44 73 50 74 52 75 45 76
REMARK SMILES IDX 46 77 47 78 48 79 49 80 75 81 76 82 85 83 77 84 78 85 84 86
REMARK SMILES IDX 86 87 79 88 80 89 81 90 82 91 83 92 59 93 60 94 69 95 61 96
REMARK SMILES IDX 62 97 68 98 70 99 63 100 64 101 65 102 66 103 67 104
REMARK H PARENT 24 7 29 35 91 54 57 65
REMARK Flexibility Score: inf
ROOT
ATOM      1  C   UNL A   1      32.580  29.796  27.174  1.00  0.00     0.023 C 
ENDROOT
BRANCH   1   2
ATOM      2  C   UNL A   1      31.697  30.230  25.993  1.00  0.00     0.023 C 
BRANCH   2   3
ATOM      3  C   UNL A   1      32.338  30.094  24.607  1.00  0.00     0.116 C 
BRANCH   3   4
ATOM      4  N   UNL A   1      31.462  29.386  23.696  1.00  0.00    -0.352 N 
ATOM      5  C   UNL A   1      31.262  28.050  23.463  1.00  0.00     0.251 C 
ATOM      6  O   UNL A   1      30.440  27.731  22.605  1.00  0.00    -0.269 OA
ATOM      7  H   UNL A   1      30.905  29.976  23.139  1.00  0.00     0.163 HD
BRANCH   5   8
ATOM      8  C   UNL A   1      31.955  26.976  24.222  1.00  0.00     0.039 A 
ATOM      9  C   UNL A   1      33.108  24.908  25.787  1.00  0.00    -0.030 A 
ATOM     10  C   UNL A   1      32.007  25.644  26.256  1.00  0.00     0.006 A 
ATOM     11  C   UNL A   1      33.612  25.225  24.514  1.00  0.00     0.006 A 
ATOM     12  C   UNL A   1      31.432  26.652  25.479  1.00  0.00     0.014 A 
ATOM     13  C   UNL A   1      33.036  26.238  23.738  1.00  0.00     0.014 A 
BRANCH   9  14
ATOM     14  C   UNL A   1      33.647  23.762  26.630  1.00  0.00     0.119 C 
ATOM     15  C   UNL A   1      37.197  22.576  24.825  1.00  0.00     0.075 C 
ATOM     16  C   UNL A   1      35.811  22.503  25.414  1.00  0.00     0.074 C 
ATOM     17  N   UNL A   1      35.009  21.607  24.932  1.00  0.00    -0.227 NA
ATOM     18  S   UNL A   1      35.467  23.670  26.680  1.00  0.00    -0.098 SA
ATOM     19  C   UNL A   1      33.726  21.592  25.361  1.00  0.00     0.161 A 
ATOM     20  C   UNL A   1      33.026  22.533  26.080  1.00  0.00     0.038 A 
ATOM     21  N   UNL A   1      32.812  20.614  25.008  1.00  0.00    -0.215 N 
ATOM     22  C   UNL A   1      31.687  22.057  26.096  1.00  0.00     0.067 A 
ATOM     23  N   UNL A   1      31.545  20.945  25.362  1.00  0.00    -0.171 NA
ATOM     24  C   UNL A   1      30.499  22.656  26.758  1.00  0.00     0.069 C 
BRANCH  21  25
ATOM     25  C   UNL A   1      33.101  19.393  24.359  1.00  0.00     0.067 A 
ATOM     26  C   UNL A   1      34.007  18.500  24.953  1.00  0.00     0.031 A 
ATOM     27  C   UNL A   1      32.518  19.108  23.121  1.00  0.00     0.031 A 
ATOM     28  C   UNL A   1      34.344  17.322  24.294  1.00  0.00     0.041 A 
ATOM     29  C   UNL A   1      32.904  17.949  22.443  1.00  0.00     0.041 A 
ATOM     30  C   UNL A   1      33.807  17.068  23.037  1.00  0.00     0.123 A 
ATOM     31  F   UNL A   1      34.171  15.957  22.382  1.00  0.00    -0.207 F 
ENDBRANCH  21  25
ENDBRANCH   9  14
ENDBRANCH   5   8
ENDBRANCH   3   4
ENDBRANCH   2   3
ENDBRANCH   1   2
BRANCH   1  32
ATOM     32  C   UNL A   1      33.902  30.544  27.297  1.00  0.00     0.116 C 
BRANCH  32  33
ATOM     33  N   UNL A   1      33.898  31.536  28.375  1.00  0.00    -0.352 N 
ATOM     34  C   UNL A   1      34.799  31.666  29.414  1.00  0.00     0.251 C 
ATOM     35  H   UNL A   1      33.162  32.191  28.357  1.00  0.00     0.163 HD
ATOM     36  O   UNL A   1      34.483  32.249  30.451  1.00  0.00    -0.269 OA
BRANCH  34  37
ATOM     37  C   UNL A   1      36.152  31.116  29.245  1.00  0.00     0.039 A 
ATOM     38  C   UNL A   1      37.243  31.904  28.871  1.00  0.00     0.014 A 
ATOM     39  C   UNL A   1      36.315  29.764  29.530  1.00  0.00     0.014 A 
ATOM     40  C   UNL A   1      38.513  31.331  28.875  1.00  0.00     0.010 A 
ATOM     41  C   UNL A   1      37.572  29.254  29.706  1.00  0.00     0.010 A 
ATOM     42  C   UNL A   1      38.672  30.007  29.316  1.00  0.00    -0.014 A 
BRANCH  42  43
ATOM     43  C   UNL A   1      39.993  29.409  29.484  1.00  0.00     0.031 A 
ATOM     44  C   UNL A   1      40.378  29.166  30.902  1.00  0.00     0.074 A 
ATOM     45  C   UNL A   1      40.696  28.893  28.451  1.00  0.00     0.049 A 
ATOM     46  N   UNL A   1      41.263  29.794  31.604  1.00  0.00    -0.248 NA
ATOM     47  C   UNL A   1      39.567  28.220  31.688  1.00  0.00     0.031 C 
ATOM     48  C   UNL A   1      40.284  28.756  27.044  1.00  0.00     0.029 A 
ATOM     49  N   UNL A   1      41.911  28.282  28.457  1.00  0.00    -0.354 N 
ATOM     50  C   UNL A   1      41.294  29.152  32.840  1.00  0.00     0.074 A 
ATOM     51  C   UNL A   1      40.100  28.353  32.905  1.00  0.00     0.031 C 
ATOM     52  C   UNL A   1      41.119  27.910  26.401  1.00  0.00     0.029 A 
ATOM     53  C   UNL A   1      42.229  27.607  27.282  1.00  0.00     0.049 A 
ATOM     54  H   UNL A   1      42.517  28.316  29.232  1.00  0.00     0.167 HD
ATOM     55  C   UNL A   1      42.431  29.124  33.593  1.00  0.00     0.037 A 
ATOM     56  C   UNL A   1      43.336  26.862  27.045  1.00  0.00     0.037 A 
ATOM     57  C   UNL A   1      43.397  30.069  33.091  1.00  0.00     0.049 A 
ATOM     58  C   UNL A   1      44.352  27.296  28.033  1.00  0.00     0.074 A 
ATOM     59  C   UNL A   1      43.468  31.441  32.979  1.00  0.00     0.029 A 
ATOM     60  N   UNL A   1      44.337  29.556  32.232  1.00  0.00    -0.354 N 
ATOM     61  N   UNL A   1      44.869  28.495  28.067  1.00  0.00    -0.248 NA
ATOM     62  C   UNL A   1      44.487  26.525  29.258  1.00  0.00     0.031 C 
ATOM     63  C   UNL A   1      44.171  31.682  31.761  1.00  0.00     0.029 A 
ATOM     64  C   UNL A   1      44.554  30.452  31.219  1.00  0.00     0.049 A 
ATOM     65  H   UNL A   1      44.785  28.684  32.329  1.00  0.00     0.167 HD
ATOM     66  C   UNL A   1      45.014  28.781  29.416  1.00  0.00     0.074 A 
ATOM     67  C   UNL A   1      44.887  27.491  30.088  1.00  0.00     0.031 C 
ATOM     68  C   UNL A   1      44.941  30.067  29.873  1.00  0.00     0.037 A 
BRANCH  55  69
ATOM     69  C   UNL A   1      42.843  27.983  34.501  1.00  0.00     0.058 A 
ATOM     70  C   UNL A   1      43.395  26.767  34.042  1.00  0.00     0.135 A 
ATOM     71  C   UNL A   1      42.959  28.209  35.891  1.00  0.00     0.135 A 
ATOM     72  F   UNL A   1      43.462  26.455  32.743  1.00  0.00    -0.206 F 
ATOM     73  C   UNL A   1      44.005  25.846  34.885  1.00  0.00     0.059 A 
ATOM     74  C   UNL A   1      43.617  27.323  36.748  1.00  0.00     0.059 A 
ATOM     75  F   UNL A   1      42.490  29.342  36.438  1.00  0.00    -0.206 F 
ATOM     76  C   UNL A   1      44.138  26.143  36.233  1.00  0.00     0.060 A 
BRANCH  76  77
ATOM     77  S   UNL A   1      45.081  24.997  37.254  1.00  0.00     0.124 S 
ATOM     78  O   UNL A   1      44.907  25.580  38.581  1.00  0.00    -0.237 OA
ATOM     79  O   UNL A   1      44.384  23.739  37.015  1.00  0.00    -0.237 OA
ATOM     80  O   UNL A   1      46.428  25.083  36.701  1.00  0.00    -0.744 OA
ENDBRANCH  76  77
ENDBRANCH  55  69
BRANCH  56  81
ATOM     81  C   UNL A   1      43.466  25.603  26.265  1.00  0.00     0.058 A 
ATOM     82  C   UNL A   1      42.732  24.453  26.619  1.00  0.00     0.135 A 
ATOM     83  C   UNL A   1      44.526  25.409  25.359  1.00  0.00     0.135 A 
ATOM     84  F   UNL A   1      41.732  24.526  27.510  1.00  0.00    -0.206 F 
ATOM     85  C   UNL A   1      43.056  23.183  26.142  1.00  0.00     0.059 A 
ATOM     86  C   UNL A   1      44.870  24.144  24.867  1.00  0.00     0.059 A 
ATOM     87  F   UNL A   1      45.290  26.447  24.988  1.00  0.00    -0.206 F 
ATOM     88  C   UNL A   1      44.144  23.031  25.287  1.00  0.00     0.060 A 
BRANCH  88  89
ATOM     89  S   UNL A   1      44.621  21.355  24.804  1.00  0.00     0.124 S 
ATOM     90  O   UNL A   1      43.574  20.552  25.427  1.00  0.00    -0.237 OA
ATOM     91  O   UNL A   1      44.575  21.433  23.347  1.00  0.00    -0.237 OA
ATOM     92  O   UNL A   1      45.955  21.199  25.377  1.00  0.00    -0.744 OA
ENDBRANCH  88  89
ENDBRANCH  56  81
BRANCH  68  93
ATOM     93  C   UNL A   1      45.091  31.190  28.873  1.00  0.00     0.058 A 
ATOM     94  C   UNL A   1      43.916  31.723  28.322  1.00  0.00     0.135 A 
ATOM     95  C   UNL A   1      46.311  31.634  28.332  1.00  0.00     0.135 A 
ATOM     96  F   UNL A   1      42.718  31.309  28.763  1.00  0.00    -0.206 F 
ATOM     97  C   UNL A   1      43.942  32.634  27.270  1.00  0.00     0.059 A 
ATOM     98  C   UNL A   1      46.361  32.574  27.297  1.00  0.00     0.059 A 
ATOM     99  F   UNL A   1      47.477  31.122  28.746  1.00  0.00    -0.206 F 
ATOM    100  C   UNL A   1      45.169  33.053  26.759  1.00  0.00     0.060 A 
BRANCH 100 101
ATOM    101  S   UNL A   1      45.159  34.201  25.366  1.00  0.00     0.124 S 
ATOM    102  O   UNL A   1      44.533  33.398  24.318  1.00  0.00    -0.237 OA
ATOM    103  O   UNL A   1      44.351  35.304  25.877  1.00  0.00    -0.237 OA
ATOM    104  O   UNL A   1      46.570  34.508  25.155  1.00  0.00    -0.744 OA
ENDBRANCH 100 101
ENDBRANCH  68  93
ENDBRANCH  42  43
ENDBRANCH  34  37
ENDBRANCH  32  33
ENDBRANCH   1  32
TORSDOF 16
ENDMDL
