MODEL 1
REMARK VINA RESULT:     -10.6      0.000      0.000
REMARK SMILES C[C@@H](O)CN(C)C(=O)N[C@H]1C=C[C@@H](C(=O)NCCCCNC(=O)c2ccc(-c3c4nc(c(-c5c(F)cc(S(=O)(=O)[O-])cc5F)c5ccc([nH]5)c(-c5c(F)cc(S(=O)(=O)[O-])cc5F)c5nc(c(-c6c(F)cc(S(=O)(=O)[O-])cc6F)c6ccc3[nH]6)C=C5)C=C4)cc2)C1
REMARK SMILES IDX 17 1 16 2 14 3 15 4 13 6 10 7 11 8 90 9 12 10 9 11 7 12 8 13
REMARK SMILES IDX 5 15 6 16 4 17 2 18 1 19 3 20 18 22 19 23 20 24 21 25 22 26
REMARK SMILES IDX 23 28 24 29 25 30 89 31 26 32 88 33 27 34 28 35 29 36 82 37
REMARK SMILES IDX 30 38 87 39 81 40 83 41 31 42 86 43 80 44 79 45 32 47 66 48
REMARK SMILES IDX 45 49 65 50 46 51 49 52 64 53 84 54 47 55 48 56 63 58 85 59
REMARK SMILES IDX 50 60 33 61 34 62 43 63 35 64 36 65 42 66 44 67 37 68 38 69
REMARK SMILES IDX 39 70 40 71 41 72 67 73 68 74 77 75 69 76 70 77 76 78 78 79
REMARK SMILES IDX 71 80 72 81 73 82 74 83 75 84 51 85 52 86 61 87 53 88 54 89
REMARK SMILES IDX 60 90 62 91 55 92 56 93 57 94 58 95 59 96
REMARK H PARENT 16 5 9 14 3 21 21 27 83 46 49 57
REMARK Flexibility Score: inf
ROOT
ATOM      1  C   UNL A   1      33.617  21.794  25.320  1.00  0.00     0.116 C 
ENDROOT
BRANCH   1   2
ATOM      2  N   UNL A   1      32.828  22.661  26.164  1.00  0.00    -0.356 N 
ATOM      3  C   UNL A   1      32.779  24.014  26.254  1.00  0.00     0.227 C 
ATOM      4  O   UNL A   1      31.863  24.480  26.946  1.00  0.00    -0.274 OA
ATOM      5  H   UNL A   1      32.221  22.189  26.779  1.00  0.00     0.163 HD
BRANCH   3   6
ATOM      6  C   UNL A   1      33.713  24.985  25.514  1.00  0.00     0.103 C 
ATOM      7  C   UNL A   1      33.780  26.551  23.621  1.00  0.00     0.107 C 
ATOM      8  C   UNL A   1      33.585  27.256  24.908  1.00  0.00    -0.006 C 
ATOM      9  C   UNL A   1      33.758  25.051  23.980  1.00  0.00     0.047 C 
ATOM     10  C   UNL A   1      33.521  26.410  25.941  1.00  0.00    -0.016 C 
BRANCH   7  11
ATOM     11  N   UNL A   1      32.898  26.972  22.540  1.00  0.00    -0.332 N 
ATOM     12  C   UNL A   1      31.592  26.781  22.261  1.00  0.00     0.317 C 
ATOM     13  O   UNL A   1      31.352  26.355  21.127  1.00  0.00    -0.249 OA
ATOM     14  H   UNL A   1      33.358  27.516  21.861  1.00  0.00     0.165 HD
BRANCH  12  15
ATOM     15  N   UNL A   1      30.594  27.075  23.142  1.00  0.00    -0.325 N 
ATOM     16  C   UNL A   1      29.883  26.129  23.980  1.00  0.00     0.148 C 
BRANCH  15  17
ATOM     17  C   UNL A   1      30.289  28.487  23.400  1.00  0.00     0.152 C 
BRANCH  17  18
ATOM     18  C   UNL A   1      30.109  29.349  22.135  1.00  0.00     0.130 C 
ATOM     19  C   UNL A   1      29.114  30.485  22.327  1.00  0.00     0.040 C 
BRANCH  18  20
ATOM     20  O   UNL A   1      31.374  29.903  21.760  1.00  0.00    -0.392 OA
ATOM     21  H   UNL A   1      32.065  29.562  22.349  1.00  0.00     0.211 HD
ENDBRANCH  18  20
ENDBRANCH  17  18
ENDBRANCH  15  17
ENDBRANCH  12  15
ENDBRANCH   7  11
ENDBRANCH   3   6
ENDBRANCH   1   2
BRANCH   1  22
ATOM     22  C   UNL A   1      35.062  21.664  25.802  1.00  0.00     0.023 C 
BRANCH  22  23
ATOM     23  C   UNL A   1      36.122  22.189  24.822  1.00  0.00     0.023 C 
BRANCH  23  24
ATOM     24  C   UNL A   1      37.178  23.131  25.402  1.00  0.00     0.116 C 
BRANCH  24  25
ATOM     25  N   UNL A   1      38.497  22.536  25.549  1.00  0.00    -0.352 N 
ATOM     26  C   UNL A   1      39.571  22.964  26.295  1.00  0.00     0.251 C 
ATOM     27  H   UNL A   1      38.644  21.707  25.040  1.00  0.00     0.163 HD
ATOM     28  O   UNL A   1      40.546  22.225  26.432  1.00  0.00    -0.269 OA
BRANCH  26  29
ATOM     29  C   UNL A   1      39.595  24.335  26.847  1.00  0.00     0.039 A 
ATOM     30  C   UNL A   1      39.018  24.536  28.106  1.00  0.00     0.014 A 
ATOM     31  C   UNL A   1      40.256  25.381  26.203  1.00  0.00     0.014 A 
ATOM     32  C   UNL A   1      39.224  25.742  28.777  1.00  0.00     0.010 A 
ATOM     33  C   UNL A   1      40.515  26.561  26.898  1.00  0.00     0.010 A 
ATOM     34  C   UNL A   1      40.041  26.731  28.207  1.00  0.00    -0.014 A 
BRANCH  34  35
ATOM     35  C   UNL A   1      40.505  27.888  29.016  1.00  0.00     0.031 A 
ATOM     36  C   UNL A   1      41.834  27.858  29.712  1.00  0.00     0.074 A 
ATOM     37  C   UNL A   1      39.669  28.931  29.190  1.00  0.00     0.049 A 
ATOM     38  N   UNL A   1      42.364  28.749  30.508  1.00  0.00    -0.248 NA
ATOM     39  C   UNL A   1      42.663  26.661  29.506  1.00  0.00     0.031 C 
ATOM     40  C   UNL A   1      38.321  29.039  28.620  1.00  0.00     0.029 A 
ATOM     41  N   UNL A   1      39.816  30.094  29.903  1.00  0.00    -0.354 N 
ATOM     42  C   UNL A   1      43.583  28.219  30.912  1.00  0.00     0.074 A 
ATOM     43  C   UNL A   1      43.695  26.911  30.301  1.00  0.00     0.031 C 
ATOM     44  C   UNL A   1      37.778  30.210  28.988  1.00  0.00     0.029 A 
ATOM     45  C   UNL A   1      38.721  30.922  29.843  1.00  0.00     0.049 A 
ATOM     46  H   UNL A   1      40.630  30.314  30.411  1.00  0.00     0.167 HD
ATOM     47  C   UNL A   1      44.525  28.780  31.706  1.00  0.00     0.037 A 
ATOM     48  C   UNL A   1      38.497  32.122  30.413  1.00  0.00     0.037 A 
ATOM     49  C   UNL A   1      44.413  30.090  32.295  1.00  0.00     0.049 A 
ATOM     50  C   UNL A   1      39.574  32.739  31.257  1.00  0.00     0.074 A 
ATOM     51  C   UNL A   1      45.334  30.768  33.075  1.00  0.00     0.029 A 
ATOM     52  N   UNL A   1      43.308  30.921  32.169  1.00  0.00    -0.354 N 
ATOM     53  N   UNL A   1      40.750  32.250  31.576  1.00  0.00    -0.248 NA
ATOM     54  C   UNL A   1      39.304  34.071  31.813  1.00  0.00     0.031 C 
ATOM     55  C   UNL A   1      44.777  31.999  33.440  1.00  0.00     0.029 A 
ATOM     56  C   UNL A   1      43.521  32.101  32.863  1.00  0.00     0.049 A 
ATOM     57  H   UNL A   1      42.494  30.705  31.662  1.00  0.00     0.167 HD
ATOM     58  C   UNL A   1      41.366  33.222  32.353  1.00  0.00     0.074 A 
ATOM     59  C   UNL A   1      40.440  34.333  32.446  1.00  0.00     0.031 C 
ATOM     60  C   UNL A   1      42.589  33.197  32.939  1.00  0.00     0.037 A 
BRANCH  47  61
ATOM     61  C   UNL A   1      45.764  27.975  31.979  1.00  0.00     0.058 A 
ATOM     62  C   UNL A   1      46.850  27.977  31.088  1.00  0.00     0.135 A 
ATOM     63  C   UNL A   1      45.877  27.204  33.146  1.00  0.00     0.135 A 
ATOM     64  F   UNL A   1      46.788  28.686  29.949  1.00  0.00    -0.206 F 
ATOM     65  C   UNL A   1      47.989  27.217  31.328  1.00  0.00     0.059 A 
ATOM     66  C   UNL A   1      47.017  26.453  33.419  1.00  0.00     0.059 A 
ATOM     67  F   UNL A   1      44.868  27.167  34.031  1.00  0.00    -0.206 F 
ATOM     68  C   UNL A   1      48.061  26.452  32.493  1.00  0.00     0.060 A 
BRANCH  68  69
ATOM     69  S   UNL A   1      49.538  25.456  32.786  1.00  0.00     0.124 S 
ATOM     70  O   UNL A   1      50.366  26.386  33.547  1.00  0.00    -0.237 OA
ATOM     71  O   UNL A   1      49.011  24.320  33.534  1.00  0.00    -0.237 OA
ATOM     72  O   UNL A   1      50.011  25.150  31.440  1.00  0.00    -0.744 OA
ENDBRANCH  68  69
ENDBRANCH  47  61
BRANCH  48  73
ATOM     73  C   UNL A   1      37.212  32.829  30.172  1.00  0.00     0.058 A 
ATOM     74  C   UNL A   1      36.121  32.645  31.033  1.00  0.00     0.135 A 
ATOM     75  C   UNL A   1      37.059  33.720  29.099  1.00  0.00     0.135 A 
ATOM     76  F   UNL A   1      36.221  31.802  32.071  1.00  0.00    -0.206 F 
ATOM     77  C   UNL A   1      34.915  33.310  30.832  1.00  0.00     0.059 A 
ATOM     78  C   UNL A   1      35.869  34.411  28.889  1.00  0.00     0.059 A 
ATOM     79  F   UNL A   1      38.081  33.944  28.260  1.00  0.00    -0.206 F 
ATOM     80  C   UNL A   1      34.799  34.192  29.757  1.00  0.00     0.060 A 
BRANCH  80  81
ATOM     81  S   UNL A   1      33.251  35.097  29.537  1.00  0.00     0.124 S 
ATOM     82  O   UNL A   1      32.598  34.309  28.498  1.00  0.00    -0.237 OA
ATOM     83  O   UNL A   1      32.655  35.019  30.867  1.00  0.00    -0.237 OA
ATOM     84  O   UNL A   1      33.697  36.427  29.136  1.00  0.00    -0.744 OA
ENDBRANCH  80  81
ENDBRANCH  48  73
BRANCH  60  85
ATOM     85  C   UNL A   1      43.003  34.417  33.710  1.00  0.00     0.058 A 
ATOM     86  C   UNL A   1      42.698  34.562  35.071  1.00  0.00     0.135 A 
ATOM     87  C   UNL A   1      43.748  35.432  33.089  1.00  0.00     0.135 A 
ATOM     88  F   UNL A   1      41.979  33.622  35.707  1.00  0.00    -0.206 F 
ATOM     89  C   UNL A   1      43.102  35.681  35.789  1.00  0.00     0.059 A 
ATOM     90  C   UNL A   1      44.181  36.550  33.793  1.00  0.00     0.059 A 
ATOM     91  F   UNL A   1      44.071  35.335  31.789  1.00  0.00    -0.206 F 
ATOM     92  C   UNL A   1      43.843  36.671  35.141  1.00  0.00     0.060 A 
BRANCH  92  93
ATOM     93  S   UNL A   1      44.395  38.106  36.088  1.00  0.00     0.124 S 
ATOM     94  O   UNL A   1      43.639  37.948  37.325  1.00  0.00    -0.237 OA
ATOM     95  O   UNL A   1      45.834  37.881  36.192  1.00  0.00    -0.237 OA
ATOM     96  O   UNL A   1      44.004  39.235  35.250  1.00  0.00    -0.744 OA
ENDBRANCH  92  93
ENDBRANCH  60  85
ENDBRANCH  34  35
ENDBRANCH  26  29
ENDBRANCH  24  25
ENDBRANCH  23  24
ENDBRANCH  22  23
ENDBRANCH   1  22
TORSDOF 19
ENDMDL
MODEL 2
REMARK VINA RESULT:     -10.5      3.266      9.733
REMARK SMILES C[C@@H](O)CN(C)C(=O)N[C@H]1C=C[C@@H](C(=O)NCCCCNC(=O)c2ccc(-c3c4nc(c(-c5c(F)cc(S(=O)(=O)[O-])cc5F)c5ccc([nH]5)c(-c5c(F)cc(S(=O)(=O)[O-])cc5F)c5nc(c(-c6c(F)cc(S(=O)(=O)[O-])cc6F)c6ccc3[nH]6)C=C5)C=C4)cc2)C1
REMARK SMILES IDX 17 1 16 2 14 3 15 4 13 6 10 7 11 8 90 9 12 10 9 11 7 12 8 13
REMARK SMILES IDX 5 15 6 16 4 17 2 18 1 19 3 20 18 22 19 23 20 24 21 25 22 26
REMARK SMILES IDX 23 28 24 29 25 30 89 31 26 32 88 33 27 34 28 35 29 36 82 37
REMARK SMILES IDX 30 38 87 39 81 40 83 41 31 42 86 43 80 44 79 45 32 47 66 48
REMARK SMILES IDX 45 49 65 50 46 51 49 52 64 53 84 54 47 55 48 56 63 58 85 59
REMARK SMILES IDX 50 60 33 61 34 62 43 63 35 64 36 65 42 66 44 67 37 68 38 69
REMARK SMILES IDX 39 70 40 71 41 72 67 73 68 74 77 75 69 76 70 77 76 78 78 79
REMARK SMILES IDX 71 80 72 81 73 82 74 83 75 84 51 85 52 86 61 87 53 88 54 89
REMARK SMILES IDX 60 90 62 91 55 92 56 93 57 94 58 95 59 96
REMARK H PARENT 16 5 9 14 3 21 21 27 83 46 49 57
REMARK Flexibility Score: inf
ROOT
ATOM      1  C   UNL A   1      31.618  26.262  26.354  1.00  0.00     0.116 C 
ENDROOT
BRANCH   1   2
ATOM      2  N   UNL A   1      32.951  26.037  25.846  1.00  0.00    -0.356 N 
ATOM      3  C   UNL A   1      33.666  24.894  25.690  1.00  0.00     0.227 C 
ATOM      4  O   UNL A   1      34.722  24.995  25.052  1.00  0.00    -0.274 OA
ATOM      5  H   UNL A   1      33.423  26.854  25.563  1.00  0.00     0.163 HD
BRANCH   3   6
ATOM      6  C   UNL A   1      33.226  23.503  26.176  1.00  0.00     0.103 C 
ATOM      7  C   UNL A   1      33.670  21.107  25.858  1.00  0.00     0.107 C 
ATOM      8  C   UNL A   1      34.353  21.635  27.061  1.00  0.00    -0.006 C 
ATOM      9  C   UNL A   1      33.013  22.337  25.199  1.00  0.00     0.047 C 
ATOM     10  C   UNL A   1      34.140  22.944  27.227  1.00  0.00    -0.016 C 
BRANCH   7  11
ATOM     11  N   UNL A   1      34.490  20.269  24.992  1.00  0.00    -0.332 N 
ATOM     12  C   UNL A   1      34.419  18.986  24.581  1.00  0.00     0.317 C 
ATOM     13  O   UNL A   1      35.447  18.322  24.743  1.00  0.00    -0.249 OA
ATOM     14  H   UNL A   1      35.271  20.745  24.627  1.00  0.00     0.165 HD
BRANCH  12  15
ATOM     15  N   UNL A   1      33.312  18.458  23.985  1.00  0.00    -0.325 N 
ATOM     16  C   UNL A   1      32.347  19.177  23.176  1.00  0.00     0.148 C 
BRANCH  15  17
ATOM     17  C   UNL A   1      33.132  17.002  24.022  1.00  0.00     0.152 C 
BRANCH  17  18
ATOM     18  C   UNL A   1      32.482  16.466  25.313  1.00  0.00     0.130 C 
ATOM     19  C   UNL A   1      32.608  14.956  25.459  1.00  0.00     0.040 C 
BRANCH  18  20
ATOM     20  O   UNL A   1      33.099  17.090  26.444  1.00  0.00    -0.392 OA
ATOM     21  H   UNL A   1      34.061  16.968  26.397  1.00  0.00     0.211 HD
ENDBRANCH  18  20
ENDBRANCH  17  18
ENDBRANCH  15  17
ENDBRANCH  12  15
ENDBRANCH   7  11
ENDBRANCH   3   6
ENDBRANCH   1   2
BRANCH   1  22
ATOM     22  C   UNL A   1      31.530  27.508  27.236  1.00  0.00     0.023 C 
BRANCH  22  23
ATOM     23  C   UNL A   1      31.980  28.812  26.561  1.00  0.00     0.023 C 
BRANCH  23  24
ATOM     24  C   UNL A   1      33.405  29.279  26.862  1.00  0.00     0.116 C 
BRANCH  24  25
ATOM     25  N   UNL A   1      33.484  30.478  27.682  1.00  0.00    -0.352 N 
ATOM     26  C   UNL A   1      34.568  31.023  28.331  1.00  0.00     0.251 C 
ATOM     27  H   UNL A   1      32.639  30.972  27.787  1.00  0.00     0.163 HD
ATOM     28  O   UNL A   1      34.473  32.146  28.828  1.00  0.00    -0.269 OA
BRANCH  26  29
ATOM     29  C   UNL A   1      35.801  30.232  28.514  1.00  0.00     0.039 A 
ATOM     30  C   UNL A   1      36.682  30.145  27.430  1.00  0.00     0.014 A 
ATOM     31  C   UNL A   1      36.147  29.673  29.745  1.00  0.00     0.014 A 
ATOM     32  C   UNL A   1      37.962  29.621  27.618  1.00  0.00     0.010 A 
ATOM     33  C   UNL A   1      37.445  29.209  29.948  1.00  0.00     0.010 A 
ATOM     34  C   UNL A   1      38.376  29.223  28.898  1.00  0.00    -0.014 A 
BRANCH  34  35
ATOM     35  C   UNL A   1      39.807  28.939  29.177  1.00  0.00     0.031 A 
ATOM     36  C   UNL A   1      40.705  29.994  29.753  1.00  0.00     0.074 A 
ATOM     37  C   UNL A   1      40.310  27.741  28.816  1.00  0.00     0.049 A 
ATOM     38  N   UNL A   1      41.988  29.937  29.997  1.00  0.00    -0.248 NA
ATOM     39  C   UNL A   1      40.085  31.288  30.075  1.00  0.00     0.031 C 
ATOM     40  C   UNL A   1      39.547  26.661  28.180  1.00  0.00     0.029 A 
ATOM     41  N   UNL A   1      41.579  27.230  28.916  1.00  0.00    -0.354 N 
ATOM     42  C   UNL A   1      42.336  31.189  30.487  1.00  0.00     0.074 A 
ATOM     43  C   UNL A   1      41.134  31.996  30.471  1.00  0.00     0.031 C 
ATOM     44  C   UNL A   1      40.357  25.612  27.968  1.00  0.00     0.029 A 
ATOM     45  C   UNL A   1      41.701  25.952  28.422  1.00  0.00     0.049 A 
ATOM     46  H   UNL A   1      42.332  27.731  29.304  1.00  0.00     0.167 HD
ATOM     47  C   UNL A   1      43.544  31.618  30.924  1.00  0.00     0.037 A 
ATOM     48  C   UNL A   1      42.775  25.143  28.342  1.00  0.00     0.037 A 
ATOM     49  C   UNL A   1      44.732  30.802  30.953  1.00  0.00     0.049 A 
ATOM     50  C   UNL A   1      44.094  25.629  28.869  1.00  0.00     0.074 A 
ATOM     51  C   UNL A   1      45.992  31.128  31.423  1.00  0.00     0.029 A 
ATOM     52  N   UNL A   1      44.804  29.494  30.492  1.00  0.00    -0.354 N 
ATOM     53  N   UNL A   1      44.391  26.796  29.390  1.00  0.00    -0.248 NA
ATOM     54  C   UNL A   1      45.222  24.690  28.808  1.00  0.00     0.031 C 
ATOM     55  C   UNL A   1      46.832  30.027  31.223  1.00  0.00     0.029 A 
ATOM     56  C   UNL A   1      46.088  29.003  30.658  1.00  0.00     0.049 A 
ATOM     57  H   UNL A   1      44.053  28.991  30.104  1.00  0.00     0.167 HD
ATOM     58  C   UNL A   1      45.734  26.726  29.736  1.00  0.00     0.074 A 
ATOM     59  C   UNL A   1      46.190  25.398  29.378  1.00  0.00     0.031 C 
ATOM     60  C   UNL A   1      46.521  27.676  30.299  1.00  0.00     0.037 A 
BRANCH  47  61
ATOM     61  C   UNL A   1      43.638  33.036  31.410  1.00  0.00     0.058 A 
ATOM     62  C   UNL A   1      43.883  34.099  30.524  1.00  0.00     0.135 A 
ATOM     63  C   UNL A   1      43.469  33.342  32.769  1.00  0.00     0.135 A 
ATOM     64  F   UNL A   1      44.067  33.860  29.216  1.00  0.00    -0.206 F 
ATOM     65  C   UNL A   1      43.990  35.410  30.975  1.00  0.00     0.059 A 
ATOM     66  C   UNL A   1      43.549  34.650  33.239  1.00  0.00     0.059 A 
ATOM     67  F   UNL A   1      43.232  32.363  33.658  1.00  0.00    -0.206 F 
ATOM     68  C   UNL A   1      43.829  35.676  32.335  1.00  0.00     0.060 A 
BRANCH  68  69
ATOM     69  S   UNL A   1      43.987  37.380  32.910  1.00  0.00     0.124 S 
ATOM     70  O   UNL A   1      42.880  37.469  33.857  1.00  0.00    -0.237 OA
ATOM     71  O   UNL A   1      45.323  37.394  33.495  1.00  0.00    -0.237 OA
ATOM     72  O   UNL A   1      43.834  38.164  31.688  1.00  0.00    -0.744 OA
ENDBRANCH  68  69
ENDBRANCH  47  61
BRANCH  48  73
ATOM     73  C   UNL A   1      42.634  23.779  27.769  1.00  0.00     0.058 A 
ATOM     74  C   UNL A   1      42.538  22.656  28.604  1.00  0.00     0.135 A 
ATOM     75  C   UNL A   1      42.562  23.573  26.383  1.00  0.00     0.135 A 
ATOM     76  F   UNL A   1      42.604  22.805  29.935  1.00  0.00    -0.206 F 
ATOM     77  C   UNL A   1      42.390  21.374  28.086  1.00  0.00     0.059 A 
ATOM     78  C   UNL A   1      42.394  22.302  25.842  1.00  0.00     0.059 A 
ATOM     79  F   UNL A   1      42.628  24.618  25.543  1.00  0.00    -0.206 F 
ATOM     80  C   UNL A   1      42.318  21.207  26.703  1.00  0.00     0.060 A 
BRANCH  80  81
ATOM     81  S   UNL A   1      42.066  19.545  26.039  1.00  0.00     0.124 S 
ATOM     82  O   UNL A   1      42.510  18.715  27.153  1.00  0.00    -0.237 OA
ATOM     83  O   UNL A   1      40.633  19.535  25.767  1.00  0.00    -0.237 OA
ATOM     84  O   UNL A   1      42.920  19.527  24.856  1.00  0.00    -0.744 OA
ENDBRANCH  80  81
ENDBRANCH  48  73
BRANCH  60  85
ATOM     85  C   UNL A   1      47.946  27.303  30.584  1.00  0.00     0.058 A 
ATOM     86  C   UNL A   1      48.336  26.800  31.834  1.00  0.00     0.135 A 
ATOM     87  C   UNL A   1      48.923  27.410  29.582  1.00  0.00     0.135 A 
ATOM     88  F   UNL A   1      47.439  26.687  32.827  1.00  0.00    -0.206 F 
ATOM     89  C   UNL A   1      49.653  26.433  32.088  1.00  0.00     0.059 A 
ATOM     90  C   UNL A   1      50.241  27.029  29.807  1.00  0.00     0.059 A 
ATOM     91  F   UNL A   1      48.597  27.880  28.367  1.00  0.00    -0.206 F 
ATOM     92  C   UNL A   1      50.599  26.552  31.069  1.00  0.00     0.060 A 
BRANCH  92  93
ATOM     93  S   UNL A   1      52.300  26.041  31.395  1.00  0.00     0.124 S 
ATOM     94  O   UNL A   1      52.875  26.066  30.055  1.00  0.00    -0.237 OA
ATOM     95  O   UNL A   1      52.772  27.078  32.307  1.00  0.00    -0.237 OA
ATOM     96  O   UNL A   1      52.146  24.716  31.990  1.00  0.00    -0.744 OA
ENDBRANCH  92  93
ENDBRANCH  60  85
ENDBRANCH  34  35
ENDBRANCH  26  29
ENDBRANCH  24  25
ENDBRANCH  23  24
ENDBRANCH  22  23
ENDBRANCH   1  22
TORSDOF 19
ENDMDL
MODEL 3
REMARK VINA RESULT:     -10.4      3.042      9.617
REMARK SMILES C[C@@H](O)CN(C)C(=O)N[C@H]1C=C[C@@H](C(=O)NCCCCNC(=O)c2ccc(-c3c4nc(c(-c5c(F)cc(S(=O)(=O)[O-])cc5F)c5ccc([nH]5)c(-c5c(F)cc(S(=O)(=O)[O-])cc5F)c5nc(c(-c6c(F)cc(S(=O)(=O)[O-])cc6F)c6ccc3[nH]6)C=C5)C=C4)cc2)C1
REMARK SMILES IDX 17 1 16 2 14 3 15 4 13 6 10 7 11 8 90 9 12 10 9 11 7 12 8 13
REMARK SMILES IDX 5 15 6 16 4 17 2 18 1 19 3 20 18 22 19 23 20 24 21 25 22 26
REMARK SMILES IDX 23 28 24 29 25 30 89 31 26 32 88 33 27 34 28 35 29 36 82 37
REMARK SMILES IDX 30 38 87 39 81 40 83 41 31 42 86 43 80 44 79 45 32 47 66 48
REMARK SMILES IDX 45 49 65 50 46 51 49 52 64 53 84 54 47 55 48 56 63 58 85 59
REMARK SMILES IDX 50 60 33 61 34 62 43 63 35 64 36 65 42 66 44 67 37 68 38 69
REMARK SMILES IDX 39 70 40 71 41 72 67 73 68 74 77 75 69 76 70 77 76 78 78 79
REMARK SMILES IDX 71 80 72 81 73 82 74 83 75 84 51 85 52 86 61 87 53 88 54 89
REMARK SMILES IDX 60 90 62 91 55 92 56 93 57 94 58 95 59 96
REMARK H PARENT 16 5 9 14 3 21 21 27 83 46 49 57
REMARK Flexibility Score: inf
ROOT
ATOM      1  C   UNL A   1      30.996  27.630  24.948  1.00  0.00     0.116 C 
ENDROOT
BRANCH   1   2
ATOM      2  N   UNL A   1      30.691  26.363  25.572  1.00  0.00    -0.356 N 
ATOM      3  C   UNL A   1      30.970  25.092  25.191  1.00  0.00     0.227 C 
ATOM      4  O   UNL A   1      30.740  24.210  26.031  1.00  0.00    -0.274 OA
ATOM      5  H   UNL A   1      30.196  26.436  26.420  1.00  0.00     0.163 HD
BRANCH   3   6
ATOM      6  C   UNL A   1      31.607  24.688  23.851  1.00  0.00     0.103 C 
ATOM      7  C   UNL A   1      33.459  23.386  22.897  1.00  0.00     0.107 C 
ATOM      8  C   UNL A   1      32.184  22.636  22.853  1.00  0.00    -0.006 C 
ATOM      9  C   UNL A   1      33.129  24.693  23.646  1.00  0.00     0.047 C 
ATOM     10  C   UNL A   1      31.175  23.326  23.394  1.00  0.00    -0.016 C 
BRANCH   7  11
ATOM     11  N   UNL A   1      34.610  22.633  23.382  1.00  0.00    -0.332 N 
ATOM     12  C   UNL A   1      34.995  22.177  24.591  1.00  0.00     0.317 C 
ATOM     13  O   UNL A   1      36.144  22.478  24.927  1.00  0.00    -0.249 OA
ATOM     14  H   UNL A   1      35.249  22.409  22.668  1.00  0.00     0.165 HD
BRANCH  12  15
ATOM     15  N   UNL A   1      34.198  21.401  25.381  1.00  0.00    -0.325 N 
ATOM     16  C   UNL A   1      33.335  21.866  26.450  1.00  0.00     0.148 C 
BRANCH  15  17
ATOM     17  C   UNL A   1      34.065  19.978  25.046  1.00  0.00     0.152 C 
BRANCH  17  18
ATOM     18  C   UNL A   1      32.630  19.527  24.711  1.00  0.00     0.130 C 
ATOM     19  C   UNL A   1      32.530  18.813  23.370  1.00  0.00     0.040 C 
BRANCH  18  20
ATOM     20  O   UNL A   1      32.163  18.645  25.737  1.00  0.00    -0.392 OA
ATOM     21  H   UNL A   1      32.035  17.757  25.368  1.00  0.00     0.211 HD
ENDBRANCH  18  20
ENDBRANCH  17  18
ENDBRANCH  15  17
ENDBRANCH  12  15
ENDBRANCH   7  11
ENDBRANCH   3   6
ENDBRANCH   1   2
BRANCH   1  22
ATOM     22  C   UNL A   1      32.472  28.006  25.080  1.00  0.00     0.023 C 
BRANCH  22  23
ATOM     23  C   UNL A   1      32.742  29.321  25.825  1.00  0.00     0.023 C 
BRANCH  23  24
ATOM     24  C   UNL A   1      33.348  29.200  27.224  1.00  0.00     0.116 C 
BRANCH  24  25
ATOM     25  N   UNL A   1      33.523  30.468  27.915  1.00  0.00    -0.352 N 
ATOM     26  C   UNL A   1      34.673  31.048  28.398  1.00  0.00     0.251 C 
ATOM     27  H   UNL A   1      32.699  30.986  28.058  1.00  0.00     0.163 HD
ATOM     28  O   UNL A   1      34.642  32.214  28.795  1.00  0.00    -0.269 OA
BRANCH  26  29
ATOM     29  C   UNL A   1      35.911  30.252  28.531  1.00  0.00     0.039 A 
ATOM     30  C   UNL A   1      36.796  30.247  27.448  1.00  0.00     0.014 A 
ATOM     31  C   UNL A   1      36.254  29.608  29.720  1.00  0.00     0.014 A 
ATOM     32  C   UNL A   1      38.078  29.718  27.603  1.00  0.00     0.010 A 
ATOM     33  C   UNL A   1      37.554  29.137  29.896  1.00  0.00     0.010 A 
ATOM     34  C   UNL A   1      38.489  29.231  28.854  1.00  0.00    -0.014 A 
BRANCH  34  35
ATOM     35  C   UNL A   1      39.920  28.935  29.119  1.00  0.00     0.031 A 
ATOM     36  C   UNL A   1      40.832  29.982  29.686  1.00  0.00     0.074 A 
ATOM     37  C   UNL A   1      40.409  27.733  28.752  1.00  0.00     0.049 A 
ATOM     38  N   UNL A   1      42.117  29.914  29.917  1.00  0.00    -0.248 NA
ATOM     39  C   UNL A   1      40.227  31.281  30.014  1.00  0.00     0.031 C 
ATOM     40  C   UNL A   1      39.631  26.660  28.123  1.00  0.00     0.029 A 
ATOM     41  N   UNL A   1      41.675  27.211  28.839  1.00  0.00    -0.354 N 
ATOM     42  C   UNL A   1      42.481  31.163  30.404  1.00  0.00     0.074 A 
ATOM     43  C   UNL A   1      41.285  31.980  30.400  1.00  0.00     0.031 C 
ATOM     44  C   UNL A   1      40.431  25.604  27.903  1.00  0.00     0.029 A 
ATOM     45  C   UNL A   1      41.782  25.933  28.344  1.00  0.00     0.049 A 
ATOM     46  H   UNL A   1      42.436  27.706  29.220  1.00  0.00     0.167 HD
ATOM     47  C   UNL A   1      43.697  31.582  30.829  1.00  0.00     0.037 A 
ATOM     48  C   UNL A   1      42.848  25.115  28.253  1.00  0.00     0.037 A 
ATOM     49  C   UNL A   1      44.877  30.756  30.846  1.00  0.00     0.049 A 
ATOM     50  C   UNL A   1      44.176  25.589  28.767  1.00  0.00     0.074 A 
ATOM     51  C   UNL A   1      46.145  31.072  31.304  1.00  0.00     0.029 A 
ATOM     52  N   UNL A   1      44.934  29.448  30.384  1.00  0.00    -0.354 N 
ATOM     53  N   UNL A   1      44.488  26.754  29.286  1.00  0.00    -0.248 NA
ATOM     54  C   UNL A   1      45.296  24.642  28.695  1.00  0.00     0.031 C 
ATOM     55  C   UNL A   1      46.974  29.963  31.096  1.00  0.00     0.029 A 
ATOM     56  C   UNL A   1      46.216  28.946  30.537  1.00  0.00     0.049 A 
ATOM     57  H   UNL A   1      44.176  28.951  30.003  1.00  0.00     0.167 HD
ATOM     58  C   UNL A   1      45.834  26.672  29.619  1.00  0.00     0.074 A 
ATOM     59  C   UNL A   1      46.275  25.341  29.255  1.00  0.00     0.031 C 
ATOM     60  C   UNL A   1      46.634  27.616  30.174  1.00  0.00     0.037 A 
BRANCH  47  61
ATOM     61  C   UNL A   1      43.806  32.999  31.315  1.00  0.00     0.058 A 
ATOM     62  C   UNL A   1      43.643  33.324  32.672  1.00  0.00     0.135 A 
ATOM     63  C   UNL A   1      44.090  34.044  30.421  1.00  0.00     0.135 A 
ATOM     64  F   UNL A   1      43.355  32.364  33.565  1.00  0.00    -0.206 F 
ATOM     65  C   UNL A   1      43.723  34.638  33.120  1.00  0.00     0.059 A 
ATOM     66  C   UNL A   1      44.198  35.364  30.851  1.00  0.00     0.059 A 
ATOM     67  F   UNL A   1      44.255  33.789  29.113  1.00  0.00    -0.206 F 
ATOM     68  C   UNL A   1      43.994  35.653  32.201  1.00  0.00     0.060 A 
BRANCH  68  69
ATOM     69  S   UNL A   1      44.080  37.356  32.793  1.00  0.00     0.124 S 
ATOM     70  O   UNL A   1      45.433  37.404  33.338  1.00  0.00    -0.237 OA
ATOM     71  O   UNL A   1      43.861  38.126  31.573  1.00  0.00    -0.237 OA
ATOM     72  O   UNL A   1      43.003  37.427  33.775  1.00  0.00    -0.744 OA
ENDBRANCH  68  69
ENDBRANCH  47  61
BRANCH  48  73
ATOM     73  C   UNL A   1      42.690  23.752  27.681  1.00  0.00     0.058 A 
ATOM     74  C   UNL A   1      42.821  23.533  26.303  1.00  0.00     0.135 A 
ATOM     75  C   UNL A   1      42.434  22.642  28.500  1.00  0.00     0.135 A 
ATOM     76  F   UNL A   1      43.063  24.564  25.481  1.00  0.00    -0.206 F 
ATOM     77  C   UNL A   1      42.691  22.262  25.751  1.00  0.00     0.059 A 
ATOM     78  C   UNL A   1      42.320  21.358  27.975  1.00  0.00     0.059 A 
ATOM     79  F   UNL A   1      42.321  22.798  29.829  1.00  0.00    -0.206 F 
ATOM     80  C   UNL A   1      42.441  21.180  26.597  1.00  0.00     0.060 A 
BRANCH  80  81
ATOM     81  S   UNL A   1      42.333  19.525  25.882  1.00  0.00     0.124 S 
ATOM     82  O   UNL A   1      43.348  19.590  24.837  1.00  0.00    -0.237 OA
ATOM     83  O   UNL A   1      42.646  18.673  27.024  1.00  0.00    -0.237 OA
ATOM     84  O   UNL A   1      40.951  19.453  25.417  1.00  0.00    -0.744 OA
ENDBRANCH  80  81
ENDBRANCH  48  73
BRANCH  60  85
ATOM     85  C   UNL A   1      48.059  27.231  30.444  1.00  0.00     0.058 A 
ATOM     86  C   UNL A   1      49.033  27.272  29.436  1.00  0.00     0.135 A 
ATOM     87  C   UNL A   1      48.462  26.857  31.736  1.00  0.00     0.135 A 
ATOM     88  F   UNL A   1      48.694  27.615  28.182  1.00  0.00    -0.206 F 
ATOM     89  C   UNL A   1      50.357  26.937  29.694  1.00  0.00     0.059 A 
ATOM     90  C   UNL A   1      49.785  26.539  32.021  1.00  0.00     0.059 A 
ATOM     91  F   UNL A   1      47.568  26.809  32.736  1.00  0.00    -0.206 F 
ATOM     92  C   UNL A   1      50.724  26.571  30.990  1.00  0.00     0.060 A 
BRANCH  92  93
ATOM     93  S   UNL A   1      52.453  26.172  31.325  1.00  0.00     0.124 S 
ATOM     94  O   UNL A   1      52.349  24.795  31.797  1.00  0.00    -0.237 OA
ATOM     95  O   UNL A   1      53.077  26.348  30.018  1.00  0.00    -0.237 OA
ATOM     96  O   UNL A   1      52.837  27.155  32.334  1.00  0.00    -0.744 OA
ENDBRANCH  92  93
ENDBRANCH  60  85
ENDBRANCH  34  35
ENDBRANCH  26  29
ENDBRANCH  24  25
ENDBRANCH  23  24
ENDBRANCH  22  23
ENDBRANCH   1  22
TORSDOF 19
ENDMDL
