MODEL 1
REMARK VINA RESULT:     -11.3      0.000      0.000
REMARK SMILES CC(C)N(CC(=O)NCCCCNC(=O)c1ccc(-c2c3nc(c(-c4c(F)cc(S(=O)(=O)[O-])cc4F)c4ccc([nH]4)c(-c4c(F)cc(S(=O)(=O)[O-])cc4F)c4nc(c(-c5c(F)cc(S(=O)(=O)[O-])cc5F)c5ccc2[nH]5)C=C4)C=C3)cc1)C(=O)NC1C(C)(C)C1(C)C
REMARK SMILES IDX 10 1 9 2 8 3 6 4 7 5 5 7 4 8 2 9 1 10 3 11 82 12 83 13 84 14
REMARK SMILES IDX 85 16 86 17 89 18 87 19 88 20 90 21 91 22 11 23 12 24 13 25
REMARK SMILES IDX 14 26 15 28 16 29 17 30 81 31 18 32 80 33 19 34 20 35 21 36
REMARK SMILES IDX 74 37 22 38 79 39 73 40 75 41 23 42 78 43 72 44 71 45 24 47
REMARK SMILES IDX 58 48 37 49 57 50 38 51 41 52 56 53 76 54 39 55 40 56 55 58
REMARK SMILES IDX 77 59 42 60 25 61 26 62 35 63 27 64 28 65 34 66 36 67 29 68
REMARK SMILES IDX 30 69 31 70 32 71 33 72 59 73 60 74 69 75 61 76 62 77 68 78
REMARK SMILES IDX 70 79 63 80 64 81 65 82 66 83 67 84 43 85 44 86 53 87 45 88
REMARK SMILES IDX 46 89 52 90 54 91 47 92 48 93 49 94 50 95 51 96
REMARK H PARENT 8 6 84 15 13 27 75 46 41 57
REMARK Flexibility Score: inf
ROOT
ATOM      1  C   UNL A   1      37.703  23.499  25.708  1.00  0.00     0.023 C 
ENDROOT
BRANCH   1   2
ATOM      2  C   UNL A   1      36.322  22.880  25.515  1.00  0.00     0.116 C 
BRANCH   2   3
ATOM      3  N   UNL A   1      35.587  22.719  26.743  1.00  0.00    -0.355 N 
ATOM      4  C   UNL A   1      34.315  22.273  26.910  1.00  0.00     0.239 C 
ATOM      5  O   UNL A   1      34.050  21.756  28.003  1.00  0.00    -0.273 OA
ATOM      6  H   UNL A   1      36.069  22.963  27.567  1.00  0.00     0.163 HD
BRANCH   4   7
ATOM      7  C   UNL A   1      33.274  22.244  25.771  1.00  0.00     0.221 C 
BRANCH   7   8
ATOM      8  N   UNL A   1      32.468  23.436  25.454  1.00  0.00    -0.313 N 
BRANCH   8   9
ATOM      9  C   UNL A   1      32.176  23.646  24.006  1.00  0.00     0.081 C 
ATOM     10  C   UNL A   1      30.762  24.197  23.785  1.00  0.00     0.031 C 
ATOM     11  C   UNL A   1      33.205  24.480  23.229  1.00  0.00     0.031 C 
ENDBRANCH   8   9
BRANCH   8  12
ATOM     12  C   UNL A   1      31.718  24.149  26.369  1.00  0.00     0.318 C 
ATOM     13  O   UNL A   1      30.850  23.608  27.063  1.00  0.00    -0.249 OA
ATOM     14  N   UNL A   1      31.873  25.475  26.608  1.00  0.00    -0.334 N 
ATOM     15  H   UNL A   1      31.212  25.819  27.251  1.00  0.00     0.165 HD
BRANCH  14  16
ATOM     16  C   UNL A   1      32.760  26.488  26.152  1.00  0.00     0.096 C 
ATOM     17  C   UNL A   1      32.357  27.624  25.219  1.00  0.00    -0.007 C 
ATOM     18  C   UNL A   1      32.690  27.912  26.691  1.00  0.00    -0.007 C 
ATOM     19  C   UNL A   1      33.362  28.008  24.147  1.00  0.00     0.014 C 
ATOM     20  C   UNL A   1      30.938  27.749  24.718  1.00  0.00     0.014 C 
ATOM     21  C   UNL A   1      31.570  28.321  27.624  1.00  0.00     0.014 C 
ATOM     22  C   UNL A   1      33.996  28.589  27.050  1.00  0.00     0.014 C 
ENDBRANCH  14  16
ENDBRANCH   8  12
ENDBRANCH   7   8
ENDBRANCH   4   7
ENDBRANCH   2   3
ENDBRANCH   1   2
BRANCH   1  23
ATOM     23  C   UNL A   1      38.781  22.566  26.255  1.00  0.00     0.023 C 
BRANCH  23  24
ATOM     24  C   UNL A   1      39.916  23.237  27.020  1.00  0.00     0.116 C 
BRANCH  24  25
ATOM     25  N   UNL A   1      41.045  23.632  26.186  1.00  0.00    -0.352 N 
ATOM     26  C   UNL A   1      41.765  24.803  26.198  1.00  0.00     0.251 C 
ATOM     27  H   UNL A   1      41.331  22.966  25.521  1.00  0.00     0.163 HD
ATOM     28  O   UNL A   1      42.664  24.976  25.380  1.00  0.00    -0.269 OA
BRANCH  26  29
ATOM     29  C   UNL A   1      41.417  25.866  27.162  1.00  0.00     0.039 A 
ATOM     30  C   UNL A   1      40.414  25.615  28.102  1.00  0.00     0.014 A 
ATOM     31  C   UNL A   1      42.109  27.080  27.177  1.00  0.00     0.014 A 
ATOM     32  C   UNL A   1      40.167  26.546  29.112  1.00  0.00     0.010 A 
ATOM     33  C   UNL A   1      41.913  27.971  28.228  1.00  0.00     0.010 A 
ATOM     34  C   UNL A   1      40.948  27.708  29.211  1.00  0.00    -0.014 A 
BRANCH  34  35
ATOM     35  C   UNL A   1      40.790  28.642  30.356  1.00  0.00     0.031 A 
ATOM     36  C   UNL A   1      41.655  28.500  31.577  1.00  0.00     0.074 A 
ATOM     37  C   UNL A   1      39.815  29.572  30.319  1.00  0.00     0.049 A 
ATOM     38  N   UNL A   1      41.630  29.188  32.690  1.00  0.00    -0.248 NA
ATOM     39  C   UNL A   1      42.661  27.426  31.558  1.00  0.00     0.031 C 
ATOM     40  C   UNL A   1      38.868  29.763  29.217  1.00  0.00     0.029 A 
ATOM     41  N   UNL A   1      39.452  30.528  31.234  1.00  0.00    -0.354 N 
ATOM     42  C   UNL A   1      42.601  28.623  33.506  1.00  0.00     0.074 A 
ATOM     43  C   UNL A   1      43.161  27.501  32.783  1.00  0.00     0.031 C 
ATOM     44  C   UNL A   1      38.053  30.790  29.509  1.00  0.00     0.029 A 
ATOM     45  C   UNL A   1      38.396  31.309  30.829  1.00  0.00     0.049 A 
ATOM     46  H   UNL A   1      39.906  30.642  32.101  1.00  0.00     0.167 HD
ATOM     47  C   UNL A   1      43.007  29.018  34.737  1.00  0.00     0.037 A 
ATOM     48  C   UNL A   1      37.774  32.330  31.450  1.00  0.00     0.037 A 
ATOM     49  C   UNL A   1      42.465  30.152  35.438  1.00  0.00     0.049 A 
ATOM     50  C   UNL A   1      38.258  32.765  32.805  1.00  0.00     0.074 A 
ATOM     51  C   UNL A   1      42.854  30.676  36.658  1.00  0.00     0.029 A 
ATOM     52  N   UNL A   1      41.415  30.936  34.984  1.00  0.00    -0.354 N 
ATOM     53  N   UNL A   1      39.228  32.265  33.533  1.00  0.00    -0.248 NA
ATOM     54  C   UNL A   1      37.570  33.907  33.421  1.00  0.00     0.031 C 
ATOM     55  C   UNL A   1      42.016  31.756  36.958  1.00  0.00     0.029 A 
ATOM     56  C   UNL A   1      41.131  31.929  35.906  1.00  0.00     0.049 A 
ATOM     57  H   UNL A   1      40.942  30.806  34.131  1.00  0.00     0.167 HD
ATOM     58  C   UNL A   1      39.280  33.043  34.683  1.00  0.00     0.074 A 
ATOM     59  C   UNL A   1      38.252  34.056  34.547  1.00  0.00     0.031 C 
ATOM     60  C   UNL A   1      40.102  32.928  35.756  1.00  0.00     0.037 A 
BRANCH  47  61
ATOM     61  C   UNL A   1      44.098  28.218  35.394  1.00  0.00     0.058 A 
ATOM     62  C   UNL A   1      45.455  28.511  35.180  1.00  0.00     0.135 A 
ATOM     63  C   UNL A   1      43.788  27.160  36.263  1.00  0.00     0.135 A 
ATOM     64  F   UNL A   1      45.809  29.503  34.348  1.00  0.00    -0.206 F 
ATOM     65  C   UNL A   1      46.465  27.760  35.773  1.00  0.00     0.059 A 
ATOM     66  C   UNL A   1      44.781  26.412  36.889  1.00  0.00     0.059 A 
ATOM     67  F   UNL A   1      42.507  26.837  36.504  1.00  0.00    -0.206 F 
ATOM     68  C   UNL A   1      46.117  26.709  36.623  1.00  0.00     0.060 A 
BRANCH  68  69
ATOM     69  S   UNL A   1      47.438  25.736  37.377  1.00  0.00     0.124 S 
ATOM     70  O   UNL A   1      48.614  26.527  37.031  1.00  0.00    -0.237 OA
ATOM     71  O   UNL A   1      47.064  25.742  38.788  1.00  0.00    -0.237 OA
ATOM     72  O   UNL A   1      47.331  24.443  36.709  1.00  0.00    -0.744 OA
ENDBRANCH  68  69
ENDBRANCH  47  61
BRANCH  48  73
ATOM     73  C   UNL A   1      36.651  33.033  30.775  1.00  0.00     0.058 A 
ATOM     74  C   UNL A   1      35.325  32.821  31.178  1.00  0.00     0.135 A 
ATOM     75  C   UNL A   1      36.881  33.947  29.736  1.00  0.00     0.135 A 
ATOM     76  F   UNL A   1      35.055  31.951  32.164  1.00  0.00    -0.206 F 
ATOM     77  C   UNL A   1      34.264  33.482  30.570  1.00  0.00     0.059 A 
ATOM     78  C   UNL A   1      35.839  34.638  29.126  1.00  0.00     0.059 A 
ATOM     79  F   UNL A   1      38.135  34.198  29.325  1.00  0.00    -0.206 F 
ATOM     80  C   UNL A   1      34.532  34.393  29.545  1.00  0.00     0.060 A 
BRANCH  80  81
ATOM     81  S   UNL A   1      33.152  35.292  28.803  1.00  0.00     0.124 S 
ATOM     82  O   UNL A   1      33.848  36.332  28.054  1.00  0.00    -0.237 OA
ATOM     83  O   UNL A   1      32.504  34.255  28.005  1.00  0.00    -0.237 OA
ATOM     84  O   UNL A   1      32.390  35.749  29.961  1.00  0.00    -0.744 OA
ENDBRANCH  80  81
ENDBRANCH  48  73
BRANCH  60  85
ATOM     85  C   UNL A   1      39.936  33.936  36.859  1.00  0.00     0.058 A 
ATOM     86  C   UNL A   1      40.562  35.191  36.809  1.00  0.00     0.135 A 
ATOM     87  C   UNL A   1      39.110  33.658  37.958  1.00  0.00     0.135 A 
ATOM     88  F   UNL A   1      41.369  35.502  35.781  1.00  0.00    -0.206 F 
ATOM     89  C   UNL A   1      40.396  36.127  37.823  1.00  0.00     0.059 A 
ATOM     90  C   UNL A   1      38.908  34.588  38.973  1.00  0.00     0.059 A 
ATOM     91  F   UNL A   1      38.479  32.476  38.050  1.00  0.00    -0.206 F 
ATOM     92  C   UNL A   1      39.567  35.815  38.903  1.00  0.00     0.060 A 
BRANCH  92  93
ATOM     93  S   UNL A   1      39.336  37.047  40.203  1.00  0.00     0.124 S 
ATOM     94  O   UNL A   1      38.671  38.121  39.472  1.00  0.00    -0.237 OA
ATOM     95  O   UNL A   1      38.510  36.333  41.170  1.00  0.00    -0.237 OA
ATOM     96  O   UNL A   1      40.697  37.335  40.642  1.00  0.00    -0.744 OA
ENDBRANCH  92  93
ENDBRANCH  60  85
ENDBRANCH  34  35
ENDBRANCH  26  29
ENDBRANCH  24  25
ENDBRANCH  23  24
ENDBRANCH   1  23
TORSDOF 18
ENDMDL
MODEL 2
REMARK VINA RESULT:     -11.2      0.992      1.865
REMARK SMILES CC(C)N(CC(=O)NCCCCNC(=O)c1ccc(-c2c3nc(c(-c4c(F)cc(S(=O)(=O)[O-])cc4F)c4ccc([nH]4)c(-c4c(F)cc(S(=O)(=O)[O-])cc4F)c4nc(c(-c5c(F)cc(S(=O)(=O)[O-])cc5F)c5ccc2[nH]5)C=C4)C=C3)cc1)C(=O)NC1C(C)(C)C1(C)C
REMARK SMILES IDX 10 1 9 2 8 3 6 4 7 5 5 7 4 8 2 9 1 10 3 11 82 12 83 13 84 14
REMARK SMILES IDX 85 16 86 17 89 18 87 19 88 20 90 21 91 22 11 23 12 24 13 25
REMARK SMILES IDX 14 26 15 28 16 29 17 30 81 31 18 32 80 33 19 34 20 35 21 36
REMARK SMILES IDX 74 37 22 38 79 39 73 40 75 41 23 42 78 43 72 44 71 45 24 47
REMARK SMILES IDX 58 48 37 49 57 50 38 51 41 52 56 53 76 54 39 55 40 56 55 58
REMARK SMILES IDX 77 59 42 60 25 61 26 62 35 63 27 64 28 65 34 66 36 67 29 68
REMARK SMILES IDX 30 69 31 70 32 71 33 72 59 73 60 74 69 75 61 76 62 77 68 78
REMARK SMILES IDX 70 79 63 80 64 81 65 82 66 83 67 84 43 85 44 86 53 87 45 88
REMARK SMILES IDX 46 89 52 90 54 91 47 92 48 93 49 94 50 95 51 96
REMARK H PARENT 8 6 84 15 13 27 75 46 41 57
REMARK Flexibility Score: inf
ROOT
ATOM      1  C   UNL A   1      38.971  22.713  26.477  1.00  0.00     0.023 C 
ENDROOT
BRANCH   1   2
ATOM      2  C   UNL A   1      38.132  21.688  25.721  1.00  0.00     0.116 C 
BRANCH   2   3
ATOM      3  N   UNL A   1      37.429  22.240  24.591  1.00  0.00    -0.355 N 
ATOM      4  C   UNL A   1      36.091  22.415  24.435  1.00  0.00     0.239 C 
ATOM      5  O   UNL A   1      35.739  23.312  23.659  1.00  0.00    -0.273 OA
ATOM      6  H   UNL A   1      37.992  22.529  23.836  1.00  0.00     0.163 HD
BRANCH   4   7
ATOM      7  C   UNL A   1      35.038  21.669  25.281  1.00  0.00     0.221 C 
BRANCH   7   8
ATOM      8  N   UNL A   1      33.625  22.088  25.270  1.00  0.00    -0.313 N 
BRANCH   8   9
ATOM      9  C   UNL A   1      32.685  21.156  24.581  1.00  0.00     0.081 C 
ATOM     10  C   UNL A   1      32.530  21.500  23.095  1.00  0.00     0.031 C 
ATOM     11  C   UNL A   1      32.976  19.659  24.759  1.00  0.00     0.031 C 
ENDBRANCH   8   9
BRANCH   8  12
ATOM     12  C   UNL A   1      33.081  23.053  26.093  1.00  0.00     0.318 C 
ATOM     13  O   UNL A   1      32.805  22.821  27.276  1.00  0.00    -0.249 OA
ATOM     14  N   UNL A   1      32.824  24.327  25.704  1.00  0.00    -0.334 N 
ATOM     15  H   UNL A   1      32.384  24.853  26.410  1.00  0.00     0.165 HD
BRANCH  14  16
ATOM     16  C   UNL A   1      33.035  25.084  24.519  1.00  0.00     0.096 C 
ATOM     17  C   UNL A   1      32.005  25.244  23.409  1.00  0.00    -0.007 C 
ATOM     18  C   UNL A   1      32.365  26.436  24.307  1.00  0.00    -0.007 C 
ATOM     19  C   UNL A   1      32.532  25.206  21.985  1.00  0.00     0.014 C 
ATOM     20  C   UNL A   1      30.645  24.593  23.512  1.00  0.00     0.014 C 
ATOM     21  C   UNL A   1      31.335  26.942  25.294  1.00  0.00     0.014 C 
ATOM     22  C   UNL A   1      33.219  27.561  23.759  1.00  0.00     0.014 C 
ENDBRANCH  14  16
ENDBRANCH   8  12
ENDBRANCH   7   8
ENDBRANCH   4   7
ENDBRANCH   2   3
ENDBRANCH   1   2
BRANCH   1  23
ATOM     23  C   UNL A   1      40.182  22.161  27.226  1.00  0.00     0.023 C 
BRANCH  23  24
ATOM     24  C   UNL A   1      41.442  23.018  27.178  1.00  0.00     0.116 C 
BRANCH  24  25
ATOM     25  N   UNL A   1      41.495  23.934  26.047  1.00  0.00    -0.352 N 
ATOM     26  C   UNL A   1      41.476  25.309  26.042  1.00  0.00     0.251 C 
ATOM     27  H   UNL A   1      41.552  23.509  25.161  1.00  0.00     0.163 HD
ATOM     28  O   UNL A   1      41.482  25.917  24.975  1.00  0.00    -0.269 OA
BRANCH  26  29
ATOM     29  C   UNL A   1      41.394  26.045  27.320  1.00  0.00     0.039 A 
ATOM     30  C   UNL A   1      42.452  26.887  27.675  1.00  0.00     0.014 A 
ATOM     31  C   UNL A   1      40.265  25.950  28.137  1.00  0.00     0.014 A 
ATOM     32  C   UNL A   1      42.336  27.700  28.803  1.00  0.00     0.010 A 
ATOM     33  C   UNL A   1      40.120  26.815  29.216  1.00  0.00     0.010 A 
ATOM     34  C   UNL A   1      41.149  27.706  29.554  1.00  0.00    -0.014 A 
BRANCH  34  35
ATOM     35  C   UNL A   1      40.957  28.661  30.675  1.00  0.00     0.031 A 
ATOM     36  C   UNL A   1      41.801  28.555  31.915  1.00  0.00     0.074 A 
ATOM     37  C   UNL A   1      39.972  29.578  30.601  1.00  0.00     0.049 A 
ATOM     38  N   UNL A   1      41.746  29.266  33.013  1.00  0.00    -0.248 NA
ATOM     39  C   UNL A   1      42.820  27.495  31.938  1.00  0.00     0.031 C 
ATOM     40  C   UNL A   1      39.043  29.733  29.478  1.00  0.00     0.029 A 
ATOM     41  N   UNL A   1      39.580  30.547  31.490  1.00  0.00    -0.354 N 
ATOM     42  C   UNL A   1      42.709  28.730  33.858  1.00  0.00     0.074 A 
ATOM     43  C   UNL A   1      43.296  27.601  33.170  1.00  0.00     0.031 C 
ATOM     44  C   UNL A   1      38.211  30.756  29.734  1.00  0.00     0.029 A 
ATOM     45  C   UNL A   1      38.522  31.307  31.049  1.00  0.00     0.049 A 
ATOM     46  H   UNL A   1      40.016  30.685  32.362  1.00  0.00     0.167 HD
ATOM     47  C   UNL A   1      43.087  29.156  35.088  1.00  0.00     0.037 A 
ATOM     48  C   UNL A   1      37.876  32.332  31.636  1.00  0.00     0.037 A 
ATOM     49  C   UNL A   1      42.518  30.297  35.756  1.00  0.00     0.049 A 
ATOM     50  C   UNL A   1      38.329  32.801  32.991  1.00  0.00     0.074 A 
ATOM     51  C   UNL A   1      42.877  30.851  36.972  1.00  0.00     0.029 A 
ATOM     52  N   UNL A   1      41.466  31.058  35.266  1.00  0.00    -0.354 N 
ATOM     53  N   UNL A   1      39.291  32.329  33.747  1.00  0.00    -0.248 NA
ATOM     54  C   UNL A   1      37.614  33.946  33.570  1.00  0.00     0.031 C 
ATOM     55  C   UNL A   1      42.020  31.926  37.233  1.00  0.00     0.029 A 
ATOM     56  C   UNL A   1      41.153  32.066  36.161  1.00  0.00     0.049 A 
ATOM     57  H   UNL A   1      41.011  30.904  34.407  1.00  0.00     0.167 HD
ATOM     58  C   UNL A   1      39.311  33.130  34.881  1.00  0.00     0.074 A 
ATOM     59  C   UNL A   1      38.274  34.127  34.705  1.00  0.00     0.031 C 
ATOM     60  C   UNL A   1      40.115  33.048  35.971  1.00  0.00     0.037 A 
BRANCH  47  61
ATOM     61  C   UNL A   1      44.175  28.384  35.783  1.00  0.00     0.058 A 
ATOM     62  C   UNL A   1      43.882  27.320  36.652  1.00  0.00     0.135 A 
ATOM     63  C   UNL A   1      45.526  28.696  35.565  1.00  0.00     0.135 A 
ATOM     64  F   UNL A   1      42.607  26.988  36.907  1.00  0.00    -0.206 F 
ATOM     65  C   UNL A   1      44.887  26.619  37.309  1.00  0.00     0.059 A 
ATOM     66  C   UNL A   1      46.550  27.991  36.191  1.00  0.00     0.059 A 
ATOM     67  F   UNL A   1      45.863  29.704  34.744  1.00  0.00    -0.206 F 
ATOM     68  C   UNL A   1      46.219  26.965  37.075  1.00  0.00     0.060 A 
BRANCH  68  69
ATOM     69  S   UNL A   1      47.513  26.052  37.943  1.00  0.00     0.124 S 
ATOM     70  O   UNL A   1      47.298  26.483  39.320  1.00  0.00    -0.237 OA
ATOM     71  O   UNL A   1      47.166  24.664  37.652  1.00  0.00    -0.237 OA
ATOM     72  O   UNL A   1      48.742  26.531  37.319  1.00  0.00    -0.744 OA
ENDBRANCH  68  69
ENDBRANCH  47  61
BRANCH  48  73
ATOM     73  C   UNL A   1      36.757  33.006  30.926  1.00  0.00     0.058 A 
ATOM     74  C   UNL A   1      35.427  32.800  31.321  1.00  0.00     0.135 A 
ATOM     75  C   UNL A   1      36.994  33.887  29.860  1.00  0.00     0.135 A 
ATOM     76  F   UNL A   1      35.151  31.962  32.332  1.00  0.00    -0.206 F 
ATOM     77  C   UNL A   1      34.370  33.435  30.679  1.00  0.00     0.059 A 
ATOM     78  C   UNL A   1      35.955  34.552  29.216  1.00  0.00     0.059 A 
ATOM     79  F   UNL A   1      38.251  34.131  29.455  1.00  0.00    -0.206 F 
ATOM     80  C   UNL A   1      34.645  34.314  29.629  1.00  0.00     0.060 A 
BRANCH  80  81
ATOM     81  S   UNL A   1      33.269  35.181  28.842  1.00  0.00     0.124 S 
ATOM     82  O   UNL A   1      32.716  34.138  27.986  1.00  0.00    -0.237 OA
ATOM     83  O   UNL A   1      32.453  35.566  29.990  1.00  0.00    -0.237 OA
ATOM     84  O   UNL A   1      33.924  36.286  28.149  1.00  0.00    -0.744 OA
ENDBRANCH  80  81
ENDBRANCH  48  73
BRANCH  60  85
ATOM     85  C   UNL A   1      39.915  34.077  37.050  1.00  0.00     0.058 A 
ATOM     86  C   UNL A   1      40.456  35.367  36.944  1.00  0.00     0.135 A 
ATOM     87  C   UNL A   1      39.142  33.779  38.182  1.00  0.00     0.135 A 
ATOM     88  F   UNL A   1      41.210  35.699  35.883  1.00  0.00    -0.206 F 
ATOM     89  C   UNL A   1      40.258  36.321  37.937  1.00  0.00     0.059 A 
ATOM     90  C   UNL A   1      38.909  34.725  39.176  1.00  0.00     0.059 A 
ATOM     91  F   UNL A   1      38.592  32.562  38.327  1.00  0.00    -0.206 F 
ATOM     92  C   UNL A   1      39.483  35.989  39.050  1.00  0.00     0.060 A 
BRANCH  92  93
ATOM     93  S   UNL A   1      39.210  37.243  40.321  1.00  0.00     0.124 S 
ATOM     94  O   UNL A   1      38.501  38.272  39.568  1.00  0.00    -0.237 OA
ATOM     95  O   UNL A   1      38.417  36.521  41.310  1.00  0.00    -0.237 OA
ATOM     96  O   UNL A   1      40.561  37.594  40.745  1.00  0.00    -0.744 OA
ENDBRANCH  92  93
ENDBRANCH  60  85
ENDBRANCH  34  35
ENDBRANCH  26  29
ENDBRANCH  24  25
ENDBRANCH  23  24
ENDBRANCH   1  23
TORSDOF 18
ENDMDL
MODEL 3
REMARK VINA RESULT:     -11.2      6.376     11.861
REMARK SMILES CC(C)N(CC(=O)NCCCCNC(=O)c1ccc(-c2c3nc(c(-c4c(F)cc(S(=O)(=O)[O-])cc4F)c4ccc([nH]4)c(-c4c(F)cc(S(=O)(=O)[O-])cc4F)c4nc(c(-c5c(F)cc(S(=O)(=O)[O-])cc5F)c5ccc2[nH]5)C=C4)C=C3)cc1)C(=O)NC1C(C)(C)C1(C)C
REMARK SMILES IDX 10 1 9 2 8 3 6 4 7 5 5 7 4 8 2 9 1 10 3 11 82 12 83 13 84 14
REMARK SMILES IDX 85 16 86 17 89 18 87 19 88 20 90 21 91 22 11 23 12 24 13 25
REMARK SMILES IDX 14 26 15 28 16 29 17 30 81 31 18 32 80 33 19 34 20 35 21 36
REMARK SMILES IDX 74 37 22 38 79 39 73 40 75 41 23 42 78 43 72 44 71 45 24 47
REMARK SMILES IDX 58 48 37 49 57 50 38 51 41 52 56 53 76 54 39 55 40 56 55 58
REMARK SMILES IDX 77 59 42 60 25 61 26 62 35 63 27 64 28 65 34 66 36 67 29 68
REMARK SMILES IDX 30 69 31 70 32 71 33 72 59 73 60 74 69 75 61 76 62 77 68 78
REMARK SMILES IDX 70 79 63 80 64 81 65 82 66 83 67 84 43 85 44 86 53 87 45 88
REMARK SMILES IDX 46 89 52 90 54 91 47 92 48 93 49 94 50 95 51 96
REMARK H PARENT 8 6 84 15 13 27 75 46 41 57
REMARK Flexibility Score: inf
ROOT
ATOM      1  C   UNL A   1      34.951  30.316  27.743  1.00  0.00     0.023 C 
ENDROOT
BRANCH   1   2
ATOM      2  C   UNL A   1      33.878  29.934  26.728  1.00  0.00     0.116 C 
BRANCH   2   3
ATOM      3  N   UNL A   1      32.696  29.369  27.326  1.00  0.00    -0.355 N 
ATOM      4  C   UNL A   1      32.184  28.121  27.165  1.00  0.00     0.239 C 
ATOM      5  O   UNL A   1      31.493  27.684  28.093  1.00  0.00    -0.273 OA
ATOM      6  H   UNL A   1      32.194  29.965  27.930  1.00  0.00     0.163 HD
BRANCH   4   7
ATOM      7  C   UNL A   1      32.554  27.204  25.980  1.00  0.00     0.221 C 
BRANCH   7   8
ATOM      8  N   UNL A   1      31.779  25.982  25.701  1.00  0.00    -0.313 N 
BRANCH   8   9
ATOM      9  C   UNL A   1      30.888  26.046  24.506  1.00  0.00     0.081 C 
ATOM     10  C   UNL A   1      31.620  26.600  23.279  1.00  0.00     0.031 C 
ATOM     11  C   UNL A   1      30.149  24.748  24.150  1.00  0.00     0.031 C 
ENDBRANCH   8   9
BRANCH   8  12
ATOM     12  C   UNL A   1      32.052  24.736  26.229  1.00  0.00     0.318 C 
ATOM     13  O   UNL A   1      31.513  24.335  27.267  1.00  0.00    -0.249 OA
ATOM     14  N   UNL A   1      32.897  23.839  25.662  1.00  0.00    -0.334 N 
ATOM     15  H   UNL A   1      33.008  23.030  26.211  1.00  0.00     0.165 HD
BRANCH  14  16
ATOM     16  C   UNL A   1      33.664  23.788  24.466  1.00  0.00     0.096 C 
ATOM     17  C   UNL A   1      34.644  22.674  24.122  1.00  0.00    -0.007 C 
ATOM     18  C   UNL A   1      33.328  22.813  23.344  1.00  0.00    -0.007 C 
ATOM     19  C   UNL A   1      35.943  23.096  23.458  1.00  0.00     0.014 C 
ATOM     20  C   UNL A   1      34.858  21.511  25.062  1.00  0.00     0.014 C 
ATOM     21  C   UNL A   1      32.253  21.766  23.539  1.00  0.00     0.014 C 
ATOM     22  C   UNL A   1      33.343  23.346  21.926  1.00  0.00     0.014 C 
ENDBRANCH  14  16
ENDBRANCH   8  12
ENDBRANCH   7   8
ENDBRANCH   4   7
ENDBRANCH   2   3
ENDBRANCH   1   2
BRANCH   1  23
ATOM     23  C   UNL A   1      34.997  31.790  28.141  1.00  0.00     0.023 C 
BRANCH  23  24
ATOM     24  C   UNL A   1      35.913  32.135  29.310  1.00  0.00     0.116 C 
BRANCH  24  25
ATOM     25  N   UNL A   1      35.715  31.299  30.488  1.00  0.00    -0.352 N 
ATOM     26  C   UNL A   1      36.602  30.452  31.109  1.00  0.00     0.251 C 
ATOM     27  H   UNL A   1      34.821  31.348  30.895  1.00  0.00     0.163 HD
ATOM     28  O   UNL A   1      36.238  29.787  32.075  1.00  0.00    -0.269 OA
BRANCH  26  29
ATOM     29  C   UNL A   1      37.973  30.309  30.578  1.00  0.00     0.039 A 
ATOM     30  C   UNL A   1      39.030  30.181  31.483  1.00  0.00     0.014 A 
ATOM     31  C   UNL A   1      38.211  30.248  29.203  1.00  0.00     0.014 A 
ATOM     32  C   UNL A   1      40.313  29.902  31.009  1.00  0.00     0.010 A 
ATOM     33  C   UNL A   1      39.473  29.894  28.737  1.00  0.00     0.010 A 
ATOM     34  C   UNL A   1      40.534  29.707  29.636  1.00  0.00    -0.014 A 
BRANCH  34  35
ATOM     35  C   UNL A   1      41.862  29.277  29.128  1.00  0.00     0.031 A 
ATOM     36  C   UNL A   1      42.990  30.265  29.019  1.00  0.00     0.074 A 
ATOM     37  C   UNL A   1      42.026  28.010  28.698  1.00  0.00     0.049 A 
ATOM     38  N   UNL A   1      44.200  30.087  28.556  1.00  0.00    -0.248 NA
ATOM     39  C   UNL A   1      42.714  31.641  29.461  1.00  0.00     0.031 C 
ATOM     40  C   UNL A   1      40.986  26.977  28.690  1.00  0.00     0.029 A 
ATOM     41  N   UNL A   1      43.126  27.375  28.178  1.00  0.00    -0.354 N 
ATOM     42  C   UNL A   1      44.823  31.326  28.636  1.00  0.00     0.074 A 
ATOM     43  C   UNL A   1      43.841  32.260  29.141  1.00  0.00     0.031 C 
ATOM     44  C   UNL A   1      41.506  25.833  28.218  1.00  0.00     0.029 A 
ATOM     45  C   UNL A   1      42.903  26.056  27.858  1.00  0.00     0.049 A 
ATOM     46  H   UNL A   1      43.992  27.822  28.046  1.00  0.00     0.167 HD
ATOM     47  C   UNL A   1      46.104  31.650  28.339  1.00  0.00     0.037 A 
ATOM     48  C   UNL A   1      43.729  25.130  27.336  1.00  0.00     0.037 A 
ATOM     49  C   UNL A   1      47.084  30.710  27.863  1.00  0.00     0.049 A 
ATOM     50  C   UNL A   1      45.154  25.508  27.036  1.00  0.00     0.074 A 
ATOM     51  C   UNL A   1      48.426  30.922  27.599  1.00  0.00     0.029 A 
ATOM     52  N   UNL A   1      46.828  29.376  27.577  1.00  0.00    -0.354 N 
ATOM     53  N   UNL A   1      45.746  26.668  27.187  1.00  0.00    -0.248 NA
ATOM     54  C   UNL A   1      46.023  24.452  26.502  1.00  0.00     0.031 C 
ATOM     55  C   UNL A   1      48.972  29.727  27.119  1.00  0.00     0.029 A 
ATOM     56  C   UNL A   1      47.981  28.758  27.123  1.00  0.00     0.049 A 
ATOM     57  H   UNL A   1      45.955  28.934  27.682  1.00  0.00     0.167 HD
ATOM     58  C   UNL A   1      47.063  26.477  26.786  1.00  0.00     0.074 A 
ATOM     59  C   UNL A   1      47.183  25.085  26.400  1.00  0.00     0.031 C 
ATOM     60  C   UNL A   1      48.081  27.372  26.741  1.00  0.00     0.037 A 
BRANCH  47  61
ATOM     61  C   UNL A   1      46.517  33.084  28.531  1.00  0.00     0.058 A 
ATOM     62  C   UNL A   1      46.416  34.024  27.492  1.00  0.00     0.135 A 
ATOM     63  C   UNL A   1      47.001  33.531  29.771  1.00  0.00     0.135 A 
ATOM     64  F   UNL A   1      45.973  33.648  26.282  1.00  0.00    -0.206 F 
ATOM     65  C   UNL A   1      46.815  35.345  27.664  1.00  0.00     0.059 A 
ATOM     66  C   UNL A   1      47.380  34.854  29.974  1.00  0.00     0.059 A 
ATOM     67  F   UNL A   1      47.118  32.675  30.799  1.00  0.00    -0.206 F 
ATOM     68  C   UNL A   1      47.301  35.750  28.908  1.00  0.00     0.060 A 
BRANCH  68  69
ATOM     69  S   UNL A   1      47.824  37.465  29.113  1.00  0.00     0.124 S 
ATOM     70  O   UNL A   1      46.565  38.177  28.925  1.00  0.00    -0.237 OA
ATOM     71  O   UNL A   1      48.358  37.470  30.472  1.00  0.00    -0.237 OA
ATOM     72  O   UNL A   1      48.813  37.647  28.055  1.00  0.00    -0.744 OA
ENDBRANCH  68  69
ENDBRANCH  47  61
BRANCH  48  73
ATOM     73  C   UNL A   1      43.237  23.747  27.100  1.00  0.00     0.058 A 
ATOM     74  C   UNL A   1      42.941  23.301  25.804  1.00  0.00     0.135 A 
ATOM     75  C   UNL A   1      43.080  22.838  28.157  1.00  0.00     0.135 A 
ATOM     76  F   UNL A   1      43.071  24.137  24.762  1.00  0.00    -0.206 F 
ATOM     77  C   UNL A   1      42.497  22.006  25.563  1.00  0.00     0.059 A 
ATOM     78  C   UNL A   1      42.659  21.530  27.940  1.00  0.00     0.059 A 
ATOM     79  F   UNL A   1      43.368  23.212  29.414  1.00  0.00    -0.206 F 
ATOM     80  C   UNL A   1      42.362  21.125  26.639  1.00  0.00     0.060 A 
BRANCH  80  81
ATOM     81  S   UNL A   1      41.843  19.427  26.309  1.00  0.00     0.124 S 
ATOM     82  O   UNL A   1      42.321  18.737  27.500  1.00  0.00    -0.237 OA
ATOM     83  O   UNL A   1      40.394  19.567  26.190  1.00  0.00    -0.237 OA
ATOM     84  O   UNL A   1      42.537  19.101  25.067  1.00  0.00    -0.744 OA
ENDBRANCH  80  81
ENDBRANCH  48  73
BRANCH  60  85
ATOM     85  C   UNL A   1      49.419  26.868  26.274  1.00  0.00     0.058 A 
ATOM     86  C   UNL A   1      49.855  27.056  24.954  1.00  0.00     0.135 A 
ATOM     87  C   UNL A   1      50.288  26.225  27.168  1.00  0.00     0.135 A 
ATOM     88  F   UNL A   1      49.057  27.659  24.058  1.00  0.00    -0.206 F 
ATOM     89  C   UNL A   1      51.098  26.601  24.528  1.00  0.00     0.059 A 
ATOM     90  C   UNL A   1      51.547  25.784  26.772  1.00  0.00     0.059 A 
ATOM     91  F   UNL A   1      49.923  26.029  28.446  1.00  0.00    -0.206 F 
ATOM     92  C   UNL A   1      51.937  25.964  25.446  1.00  0.00     0.060 A 
BRANCH  92  93
ATOM     93  S   UNL A   1      53.560  25.401  24.890  1.00  0.00     0.124 S 
ATOM     94  O   UNL A   1      53.524  25.756  23.475  1.00  0.00    -0.237 OA
ATOM     95  O   UNL A   1      54.467  26.189  25.718  1.00  0.00    -0.237 OA
ATOM     96  O   UNL A   1      53.540  23.972  25.180  1.00  0.00    -0.744 OA
ENDBRANCH  92  93
ENDBRANCH  60  85
ENDBRANCH  34  35
ENDBRANCH  26  29
ENDBRANCH  24  25
ENDBRANCH  23  24
ENDBRANCH   1  23
TORSDOF 18
ENDMDL
