MODEL 1
REMARK VINA RESULT:     -12.3      0.000      0.000
REMARK SMILES CCN1C(=O)c2cccc3cc(S(=O)(=O)NCC(=O)NCCCCNC(=O)c4ccc(-c5c6nc(c(-c7c(F)cc(S(=O)(=O)[O-])cc7F)c7ccc([nH]7)c(-c7c(F)cc(S(=O)(=O)[O-])cc7F)c7nc(c(-c8c(F)cc(S(=O)(=O)[O-])cc8F)c8ccc5[nH]8)C=C7)C=C6)cc4)cc(c23)C1=O
REMARK SMILES IDX 22 1 21 2 20 3 18 4 19 5 17 7 16 8 13 10 14 11 15 12 12 13
REMARK SMILES IDX 3 14 4 15 97 16 5 17 6 18 95 19 98 20 7 21 96 22 94 23 8 24
REMARK SMILES IDX 10 25 9 26 11 27 2 28 1 29 23 30 24 31 25 32 26 33 27 35
REMARK SMILES IDX 28 36 29 37 93 38 30 39 92 40 31 41 32 42 33 43 86 44 34 45
REMARK SMILES IDX 91 46 85 47 87 48 35 49 90 50 84 51 83 52 36 54 70 55 49 56
REMARK SMILES IDX 69 57 50 58 53 59 68 60 88 61 51 62 52 63 67 65 89 66 54 67
REMARK SMILES IDX 37 68 38 69 47 70 39 71 40 72 46 73 48 74 41 75 42 76 43 77
REMARK SMILES IDX 44 78 45 79 71 80 72 81 81 82 73 83 74 84 80 85 82 86 75 87
REMARK SMILES IDX 76 88 77 89 78 90 79 91 55 92 56 93 65 94 57 95 58 96 64 97
REMARK SMILES IDX 66 98 59 99 60 100 61 101 62 102 63 103
REMARK H PARENT 20 6 16 9 25 34 87 53 53 64
REMARK Flexibility Score: inf
ROOT
ATOM      1  C   UNL A   1      33.377  27.459  24.803  1.00  0.00     0.023 C 
ENDROOT
BRANCH   1   2
ATOM      2  C   UNL A   1      32.712  27.479  23.428  1.00  0.00     0.116 C 
BRANCH   2   3
ATOM      3  N   UNL A   1      32.670  26.140  22.873  1.00  0.00    -0.355 N 
ATOM      4  C   UNL A   1      31.868  25.099  23.240  1.00  0.00     0.235 C 
ATOM      5  O   UNL A   1      32.169  23.955  22.893  1.00  0.00    -0.274 OA
ATOM      6  H   UNL A   1      33.300  25.959  22.138  1.00  0.00     0.163 HD
BRANCH   4   7
ATOM      7  C   UNL A   1      30.590  25.361  24.009  1.00  0.00     0.198 C 
BRANCH   7   8
ATOM      8  N   UNL A   1      30.167  24.309  24.950  1.00  0.00    -0.202 NA
ATOM      9  H   UNL A   1      29.168  24.440  25.104  1.00  0.00     0.141 HD
BRANCH   8  10
ATOM     10  S   UNL A   1      30.875  24.179  26.472  1.00  0.00     0.241 S 
ATOM     11  O   UNL A   1      29.961  23.428  27.299  1.00  0.00    -0.207 OA
ATOM     12  O   UNL A   1      31.314  25.500  26.846  1.00  0.00    -0.207 OA
BRANCH  10  13
ATOM     13  C   UNL A   1      32.331  23.197  26.215  1.00  0.00     0.083 A 
ATOM     14  N   UNL A   1      34.474  19.047  24.779  1.00  0.00    -0.275 N 
ATOM     15  C   UNL A   1      35.742  19.625  24.860  1.00  0.00     0.261 C 
ATOM     16  C   UNL A   1      33.284  19.746  25.001  1.00  0.00     0.261 C 
ATOM     17  O   UNL A   1      36.786  19.057  24.549  1.00  0.00    -0.269 OA
ATOM     18  C   UNL A   1      35.819  21.028  25.326  1.00  0.00     0.049 A 
ATOM     19  C   UNL A   1      33.389  21.138  25.501  1.00  0.00     0.050 A 
ATOM     20  O   UNL A   1      32.159  19.313  24.770  1.00  0.00    -0.269 OA
ATOM     21  C   UNL A   1      37.071  21.648  25.442  1.00  0.00     0.014 A 
ATOM     22  C   UNL A   1      34.649  21.729  25.629  1.00  0.00     0.007 A 
ATOM     23  C   UNL A   1      32.225  21.868  25.795  1.00  0.00     0.036 A 
ATOM     24  C   UNL A   1      37.159  22.976  25.849  1.00  0.00     0.001 A 
ATOM     25  C   UNL A   1      34.744  23.077  26.057  1.00  0.00    -0.015 A 
ATOM     26  C   UNL A   1      36.001  23.687  26.155  1.00  0.00     0.009 A 
ATOM     27  C   UNL A   1      33.582  23.796  26.360  1.00  0.00     0.030 A 
BRANCH  14  28
ATOM     28  C   UNL A   1      34.386  17.677  24.256  1.00  0.00     0.126 C 
ATOM     29  C   UNL A   1      34.577  16.594  25.314  1.00  0.00     0.028 C 
ENDBRANCH  14  28
ENDBRANCH  10  13
ENDBRANCH   8  10
ENDBRANCH   7   8
ENDBRANCH   4   7
ENDBRANCH   2   3
ENDBRANCH   1   2
BRANCH   1  30
ATOM     30  C   UNL A   1      32.790  28.448  25.792  1.00  0.00     0.023 C 
BRANCH  30  31
ATOM     31  C   UNL A   1      33.635  28.647  27.039  1.00  0.00     0.116 C 
BRANCH  31  32
ATOM     32  N   UNL A   1      33.543  29.977  27.631  1.00  0.00    -0.352 N 
ATOM     33  C   UNL A   1      34.538  30.673  28.285  1.00  0.00     0.251 C 
ATOM     34  H   UNL A   1      32.672  30.430  27.554  1.00  0.00     0.163 HD
ATOM     35  O   UNL A   1      34.331  31.765  28.800  1.00  0.00    -0.269 OA
BRANCH  33  36
ATOM     36  C   UNL A   1      35.867  30.043  28.394  1.00  0.00     0.039 A 
ATOM     37  C   UNL A   1      36.745  30.129  27.313  1.00  0.00     0.014 A 
ATOM     38  C   UNL A   1      36.276  29.488  29.608  1.00  0.00     0.014 A 
ATOM     39  C   UNL A   1      38.070  29.731  27.480  1.00  0.00     0.010 A 
ATOM     40  C   UNL A   1      37.618  29.198  29.803  1.00  0.00     0.010 A 
ATOM     41  C   UNL A   1      38.528  29.310  28.740  1.00  0.00    -0.014 A 
BRANCH  41  42
ATOM     42  C   UNL A   1      39.948  28.944  28.968  1.00  0.00     0.031 A 
ATOM     43  C   UNL A   1      40.883  29.968  29.554  1.00  0.00     0.074 A 
ATOM     44  C   UNL A   1      40.404  27.733  28.588  1.00  0.00     0.049 A 
ATOM     45  N   UNL A   1      42.178  29.903  29.723  1.00  0.00    -0.248 NA
ATOM     46  C   UNL A   1      40.290  31.253  29.961  1.00  0.00     0.031 C 
ATOM     47  C   UNL A   1      39.605  26.680  27.956  1.00  0.00     0.029 A 
ATOM     48  N   UNL A   1      41.659  27.185  28.674  1.00  0.00    -0.354 N 
ATOM     49  C   UNL A   1      42.552  31.142  30.229  1.00  0.00     0.074 A 
ATOM     50  C   UNL A   1      41.362  31.962  30.274  1.00  0.00     0.031 C 
ATOM     51  C   UNL A   1      40.380  25.603  27.746  1.00  0.00     0.029 A 
ATOM     52  C   UNL A   1      41.737  25.900  28.192  1.00  0.00     0.049 A 
ATOM     53  H   UNL A   1      42.432  27.668  29.046  1.00  0.00     0.167 HD
ATOM     54  C   UNL A   1      43.769  31.549  30.655  1.00  0.00     0.037 A 
ATOM     55  C   UNL A   1      42.786  25.058  28.122  1.00  0.00     0.037 A 
ATOM     56  C   UNL A   1      44.934  30.706  30.664  1.00  0.00     0.049 A 
ATOM     57  C   UNL A   1      44.123  25.522  28.638  1.00  0.00     0.074 A 
ATOM     58  C   UNL A   1      46.207  31.000  31.117  1.00  0.00     0.029 A 
ATOM     59  N   UNL A   1      44.959  29.394  30.216  1.00  0.00    -0.354 N 
ATOM     60  N   UNL A   1      44.451  26.686  29.149  1.00  0.00    -0.248 NA
ATOM     61  C   UNL A   1      45.232  24.559  28.576  1.00  0.00     0.031 C 
ATOM     62  C   UNL A   1      47.008  29.869  30.927  1.00  0.00     0.029 A 
ATOM     63  C   UNL A   1      46.224  28.862  30.386  1.00  0.00     0.049 A 
ATOM     64  H   UNL A   1      44.190  28.912  29.834  1.00  0.00     0.167 HD
ATOM     65  C   UNL A   1      45.793  26.583  29.498  1.00  0.00     0.074 A 
ATOM     66  C   UNL A   1      46.214  25.241  29.148  1.00  0.00     0.031 C 
ATOM     67  C   UNL A   1      46.607  27.513  30.054  1.00  0.00     0.037 A 
BRANCH  54  68
ATOM     68  C   UNL A   1      43.890  32.953  31.176  1.00  0.00     0.058 A 
ATOM     69  C   UNL A   1      43.670  33.251  32.530  1.00  0.00     0.135 A 
ATOM     70  C   UNL A   1      44.246  34.009  30.321  1.00  0.00     0.135 A 
ATOM     71  F   UNL A   1      43.304  32.283  33.385  1.00  0.00    -0.206 F 
ATOM     72  C   UNL A   1      43.770  34.551  33.015  1.00  0.00     0.059 A 
ATOM     73  C   UNL A   1      44.380  35.313  30.790  1.00  0.00     0.059 A 
ATOM     74  F   UNL A   1      44.462  33.779  29.016  1.00  0.00    -0.206 F 
ATOM     75  C   UNL A   1      44.126  35.574  32.136  1.00  0.00     0.060 A 
BRANCH  75  76
ATOM     76  S   UNL A   1      44.264  37.255  32.783  1.00  0.00     0.124 S 
ATOM     77  O   UNL A   1      45.631  37.255  33.296  1.00  0.00    -0.237 OA
ATOM     78  O   UNL A   1      44.035  38.067  31.593  1.00  0.00    -0.237 OA
ATOM     79  O   UNL A   1      43.213  37.317  33.794  1.00  0.00    -0.744 OA
ENDBRANCH  75  76
ENDBRANCH  54  68
BRANCH  55  80
ATOM     80  C   UNL A   1      42.619  23.683  27.579  1.00  0.00     0.058 A 
ATOM     81  C   UNL A   1      42.384  22.597  28.436  1.00  0.00     0.135 A 
ATOM     82  C   UNL A   1      42.707  23.422  26.203  1.00  0.00     0.135 A 
ATOM     83  F   UNL A   1      42.295  22.795  29.760  1.00  0.00    -0.206 F 
ATOM     84  C   UNL A   1      42.276  21.297  27.954  1.00  0.00     0.059 A 
ATOM     85  C   UNL A   1      42.578  22.133  25.695  1.00  0.00     0.059 A 
ATOM     86  F   UNL A   1      42.909  24.428  25.339  1.00  0.00    -0.206 F 
ATOM     87  C   UNL A   1      42.380  21.074  26.580  1.00  0.00     0.060 A 
BRANCH  87  88
ATOM     88  S   UNL A   1      42.224  19.384  25.961  1.00  0.00     0.124 S 
ATOM     89  O   UNL A   1      42.741  18.613  27.087  1.00  0.00    -0.237 OA
ATOM     90  O   UNL A   1      40.790  19.274  25.716  1.00  0.00    -0.237 OA
ATOM     91  O   UNL A   1      43.059  19.389  24.764  1.00  0.00    -0.744 OA
ENDBRANCH  87  88
ENDBRANCH  55  80
BRANCH  67  92
ATOM     92  C   UNL A   1      48.015  27.098  30.365  1.00  0.00     0.058 A 
ATOM     93  C   UNL A   1      49.085  27.445  29.528  1.00  0.00     0.135 A 
ATOM     94  C   UNL A   1      48.302  26.399  31.549  1.00  0.00     0.135 A 
ATOM     95  F   UNL A   1      48.860  28.109  28.383  1.00  0.00    -0.206 F 
ATOM     96  C   UNL A   1      50.393  27.095  29.844  1.00  0.00     0.059 A 
ATOM     97  C   UNL A   1      49.603  26.060  31.897  1.00  0.00     0.059 A 
ATOM     98  F   UNL A   1      47.310  26.057  32.388  1.00  0.00    -0.206 F 
ATOM     99  C   UNL A   1      50.642  26.404  31.032  1.00  0.00     0.060 A 
BRANCH  99 100
ATOM    100  S   UNL A   1      52.348  25.991  31.453  1.00  0.00     0.124 S 
ATOM    101  O   UNL A   1      52.706  27.093  32.341  1.00  0.00    -0.237 OA
ATOM    102  O   UNL A   1      52.208  24.685  32.088  1.00  0.00    -0.237 OA
ATOM    103  O   UNL A   1      53.023  25.982  30.159  1.00  0.00    -0.744 OA
ENDBRANCH  99 100
ENDBRANCH  67  92
ENDBRANCH  41  42
ENDBRANCH  33  36
ENDBRANCH  31  32
ENDBRANCH  30  31
ENDBRANCH   1  30
TORSDOF 18
ENDMDL
MODEL 2
REMARK VINA RESULT:     -12.0      5.789     12.001
REMARK SMILES CCN1C(=O)c2cccc3cc(S(=O)(=O)NCC(=O)NCCCCNC(=O)c4ccc(-c5c6nc(c(-c7c(F)cc(S(=O)(=O)[O-])cc7F)c7ccc([nH]7)c(-c7c(F)cc(S(=O)(=O)[O-])cc7F)c7nc(c(-c8c(F)cc(S(=O)(=O)[O-])cc8F)c8ccc5[nH]8)C=C7)C=C6)cc4)cc(c23)C1=O
REMARK SMILES IDX 22 1 21 2 20 3 18 4 19 5 17 7 16 8 13 10 14 11 15 12 12 13
REMARK SMILES IDX 3 14 4 15 97 16 5 17 6 18 95 19 98 20 7 21 96 22 94 23 8 24
REMARK SMILES IDX 10 25 9 26 11 27 2 28 1 29 23 30 24 31 25 32 26 33 27 35
REMARK SMILES IDX 28 36 29 37 93 38 30 39 92 40 31 41 32 42 33 43 86 44 34 45
REMARK SMILES IDX 91 46 85 47 87 48 35 49 90 50 84 51 83 52 36 54 70 55 49 56
REMARK SMILES IDX 69 57 50 58 53 59 68 60 88 61 51 62 52 63 67 65 89 66 54 67
REMARK SMILES IDX 37 68 38 69 47 70 39 71 40 72 46 73 48 74 41 75 42 76 43 77
REMARK SMILES IDX 44 78 45 79 71 80 72 81 81 82 73 83 74 84 80 85 82 86 75 87
REMARK SMILES IDX 76 88 77 89 78 90 79 91 55 92 56 93 65 94 57 95 58 96 64 97
REMARK SMILES IDX 66 98 59 99 60 100 61 101 62 102 63 103
REMARK H PARENT 20 6 16 9 25 34 87 53 53 64
REMARK Flexibility Score: inf
ROOT
ATOM      1  C   UNL A   1      41.128  21.238  27.193  1.00  0.00     0.023 C 
ENDROOT
BRANCH   1   2
ATOM      2  C   UNL A   1      41.238  20.020  26.278  1.00  0.00     0.116 C 
BRANCH   2   3
ATOM      3  N   UNL A   1      41.965  18.958  26.945  1.00  0.00    -0.355 N 
ATOM      4  C   UNL A   1      43.012  18.225  26.468  1.00  0.00     0.235 C 
ATOM      5  O   UNL A   1      43.308  17.164  27.024  1.00  0.00    -0.274 OA
ATOM      6  H   UNL A   1      41.666  18.738  27.857  1.00  0.00     0.163 HD
BRANCH   4   7
ATOM      7  C   UNL A   1      43.836  18.744  25.309  1.00  0.00     0.198 C 
BRANCH   7   8
ATOM      8  N   UNL A   1      45.020  19.549  25.658  1.00  0.00    -0.202 NA
ATOM      9  H   UNL A   1      44.835  19.959  26.573  1.00  0.00     0.141 HD
BRANCH   8  10
ATOM     10  S   UNL A   1      45.530  20.807  24.662  1.00  0.00     0.241 S 
ATOM     11  O   UNL A   1      44.572  20.906  23.586  1.00  0.00    -0.207 OA
ATOM     12  O   UNL A   1      46.932  20.596  24.402  1.00  0.00    -0.207 OA
BRANCH  10  13
ATOM     13  C   UNL A   1      45.395  22.265  25.665  1.00  0.00     0.083 A 
ATOM     14  N   UNL A   1      46.174  27.036  26.378  1.00  0.00    -0.275 N 
ATOM     15  C   UNL A   1      45.367  27.040  27.516  1.00  0.00     0.261 C 
ATOM     16  C   UNL A   1      46.357  25.919  25.556  1.00  0.00     0.261 C 
ATOM     17  O   UNL A   1      45.100  28.042  28.175  1.00  0.00    -0.269 OA
ATOM     18  C   UNL A   1      44.774  25.749  27.931  1.00  0.00     0.049 A 
ATOM     19  C   UNL A   1      45.783  24.631  26.013  1.00  0.00     0.050 A 
ATOM     20  O   UNL A   1      46.916  25.931  24.464  1.00  0.00    -0.269 OA
ATOM     21  C   UNL A   1      43.970  25.697  29.078  1.00  0.00     0.014 A 
ATOM     22  C   UNL A   1      45.002  24.598  27.172  1.00  0.00     0.007 A 
ATOM     23  C   UNL A   1      45.984  23.464  25.256  1.00  0.00     0.036 A 
ATOM     24  C   UNL A   1      43.379  24.498  29.466  1.00  0.00     0.001 A 
ATOM     25  C   UNL A   1      44.411  23.376  27.578  1.00  0.00    -0.015 A 
ATOM     26  C   UNL A   1      43.599  23.343  28.718  1.00  0.00     0.009 A 
ATOM     27  C   UNL A   1      44.625  22.215  26.827  1.00  0.00     0.030 A 
BRANCH  14  28
ATOM     28  C   UNL A   1      46.713  28.325  25.923  1.00  0.00     0.126 C 
ATOM     29  C   UNL A   1      48.221  28.468  26.109  1.00  0.00     0.028 C 
ENDBRANCH  14  28
ENDBRANCH  10  13
ENDBRANCH   8  10
ENDBRANCH   7   8
ENDBRANCH   4   7
ENDBRANCH   2   3
ENDBRANCH   1   2
BRANCH   1  30
ATOM     30  C   UNL A   1      39.948  22.141  26.888  1.00  0.00     0.023 C 
BRANCH  30  31
ATOM     31  C   UNL A   1      40.254  23.623  27.024  1.00  0.00     0.116 C 
BRANCH  31  32
ATOM     32  N   UNL A   1      41.171  24.151  26.019  1.00  0.00    -0.352 N 
ATOM     33  C   UNL A   1      41.637  25.443  25.908  1.00  0.00     0.251 C 
ATOM     34  H   UNL A   1      41.493  23.511  25.344  1.00  0.00     0.163 HD
ATOM     35  O   UNL A   1      42.360  25.792  24.983  1.00  0.00    -0.269 OA
BRANCH  33  36
ATOM     36  C   UNL A   1      41.203  26.425  26.919  1.00  0.00     0.039 A 
ATOM     37  C   UNL A   1      40.372  26.003  27.957  1.00  0.00     0.014 A 
ATOM     38  C   UNL A   1      41.726  27.720  26.901  1.00  0.00     0.014 A 
ATOM     39  C   UNL A   1      40.132  26.861  29.029  1.00  0.00     0.010 A 
ATOM     40  C   UNL A   1      41.576  28.527  28.018  1.00  0.00     0.010 A 
ATOM     41  C   UNL A   1      40.773  28.110  29.091  1.00  0.00    -0.014 A 
BRANCH  41  42
ATOM     42  C   UNL A   1      40.593  29.018  30.250  1.00  0.00     0.031 A 
ATOM     43  C   UNL A   1      41.486  28.859  31.451  1.00  0.00     0.074 A 
ATOM     44  C   UNL A   1      39.595  29.925  30.251  1.00  0.00     0.049 A 
ATOM     45  N   UNL A   1      41.426  29.459  32.611  1.00  0.00    -0.248 NA
ATOM     46  C   UNL A   1      42.564  27.861  31.350  1.00  0.00     0.031 C 
ATOM     47  C   UNL A   1      38.629  30.131  29.168  1.00  0.00     0.029 A 
ATOM     48  N   UNL A   1      39.223  30.843  31.201  1.00  0.00    -0.354 N 
ATOM     49  C   UNL A   1      42.435  28.892  33.379  1.00  0.00     0.074 A 
ATOM     50  C   UNL A   1      43.048  27.854  32.581  1.00  0.00     0.031 C 
ATOM     51  C   UNL A   1      37.801  31.136  29.500  1.00  0.00     0.029 A 
ATOM     52  C   UNL A   1      38.151  31.620  30.831  1.00  0.00     0.049 A 
ATOM     53  H   UNL A   1      39.682  30.936  32.066  1.00  0.00     0.167 HD
ATOM     54  C   UNL A   1      42.842  29.230  34.624  1.00  0.00     0.037 A 
ATOM     55  C   UNL A   1      37.524  32.612  31.493  1.00  0.00     0.037 A 
ATOM     56  C   UNL A   1      42.268  30.305  35.387  1.00  0.00     0.049 A 
ATOM     57  C   UNL A   1      38.022  32.995  32.863  1.00  0.00     0.074 A 
ATOM     58  C   UNL A   1      42.634  30.765  36.638  1.00  0.00     0.029 A 
ATOM     59  N   UNL A   1      41.218  31.102  34.955  1.00  0.00    -0.354 N 
ATOM     60  N   UNL A   1      39.003  32.472  33.560  1.00  0.00    -0.248 NA
ATOM     61  C   UNL A   1      37.333  34.107  33.534  1.00  0.00     0.031 C 
ATOM     62  C   UNL A   1      41.792  31.831  36.972  1.00  0.00     0.029 A 
ATOM     63  C   UNL A   1      40.924  32.054  35.914  1.00  0.00     0.049 A 
ATOM     64  H   UNL A   1      40.750  31.004  34.094  1.00  0.00     0.167 HD
ATOM     65  C   UNL A   1      39.070  33.211  34.735  1.00  0.00     0.074 A 
ATOM     66  C   UNL A   1      38.036  34.223  34.652  1.00  0.00     0.031 C 
ATOM     67  C   UNL A   1      39.907  33.067  35.791  1.00  0.00     0.037 A 
BRANCH  54  68
ATOM     68  C   UNL A   1      43.982  28.452  35.218  1.00  0.00     0.058 A 
ATOM     69  C   UNL A   1      43.757  27.297  35.984  1.00  0.00     0.135 A 
ATOM     70  C   UNL A   1      45.312  28.849  35.006  1.00  0.00     0.135 A 
ATOM     71  F   UNL A   1      42.504  26.887  36.237  1.00  0.00    -0.206 F 
ATOM     72  C   UNL A   1      44.808  26.578  36.544  1.00  0.00     0.059 A 
ATOM     73  C   UNL A   1      46.380  28.129  35.532  1.00  0.00     0.059 A 
ATOM     74  F   UNL A   1      45.582  29.949  34.285  1.00  0.00    -0.206 F 
ATOM     75  C   UNL A   1      46.116  27.003  36.312  1.00  0.00     0.060 A 
BRANCH  75  76
ATOM     76  S   UNL A   1      47.471  26.053  37.035  1.00  0.00     0.124 S 
ATOM     77  O   UNL A   1      47.538  26.621  38.378  1.00  0.00    -0.237 OA
ATOM     78  O   UNL A   1      46.971  24.684  36.951  1.00  0.00    -0.237 OA
ATOM     79  O   UNL A   1      48.602  26.359  36.165  1.00  0.00    -0.744 OA
ENDBRANCH  75  76
ENDBRANCH  54  68
BRANCH  55  80
ATOM     80  C   UNL A   1      36.388  33.339  30.869  1.00  0.00     0.058 A 
ATOM     81  C   UNL A   1      36.595  34.183  29.767  1.00  0.00     0.135 A 
ATOM     82  C   UNL A   1      35.080  33.223  31.365  1.00  0.00     0.135 A 
ATOM     83  F   UNL A   1      37.827  34.330  29.257  1.00  0.00    -0.206 F 
ATOM     84  C   UNL A   1      35.554  34.913  29.200  1.00  0.00     0.059 A 
ATOM     85  C   UNL A   1      34.019  33.923  30.800  1.00  0.00     0.059 A 
ATOM     86  F   UNL A   1      34.825  32.412  32.404  1.00  0.00    -0.206 F 
ATOM     87  C   UNL A   1      34.269  34.780  29.728  1.00  0.00     0.060 A 
BRANCH  87  88
ATOM     88  S   UNL A   1      32.921  35.719  28.977  1.00  0.00     0.124 S 
ATOM     89  O   UNL A   1      32.346  34.730  28.072  1.00  0.00    -0.237 OA
ATOM     90  O   UNL A   1      32.107  36.074  30.136  1.00  0.00    -0.237 OA
ATOM     91  O   UNL A   1      33.609  36.836  28.337  1.00  0.00    -0.744 OA
ENDBRANCH  87  88
ENDBRANCH  55  80
BRANCH  67  92
ATOM     92  C   UNL A   1      39.774  34.053  36.915  1.00  0.00     0.058 A 
ATOM     93  C   UNL A   1      39.004  33.771  38.053  1.00  0.00     0.135 A 
ATOM     94  C   UNL A   1      40.478  35.267  36.878  1.00  0.00     0.135 A 
ATOM     95  F   UNL A   1      38.309  32.625  38.132  1.00  0.00    -0.206 F 
ATOM     96  C   UNL A   1      38.920  34.670  39.110  1.00  0.00     0.059 A 
ATOM     97  C   UNL A   1      40.428  36.170  37.933  1.00  0.00     0.059 A 
ATOM     98  F   UNL A   1      41.239  35.575  35.815  1.00  0.00    -0.206 F 
ATOM     99  C   UNL A   1      39.638  35.867  39.041  1.00  0.00     0.060 A 
BRANCH  99 100
ATOM    100  S   UNL A   1      39.555  37.007  40.438  1.00  0.00     0.124 S 
ATOM    101  O   UNL A   1      40.934  36.989  40.914  1.00  0.00    -0.237 OA
ATOM    102  O   UNL A   1      39.120  38.248  39.804  1.00  0.00    -0.237 OA
ATOM    103  O   UNL A   1      38.575  36.387  41.323  1.00  0.00    -0.744 OA
ENDBRANCH  99 100
ENDBRANCH  67  92
ENDBRANCH  41  42
ENDBRANCH  33  36
ENDBRANCH  31  32
ENDBRANCH  30  31
ENDBRANCH   1  30
TORSDOF 18
ENDMDL
MODEL 3
REMARK VINA RESULT:     -11.9      2.878      9.347
REMARK SMILES CCN1C(=O)c2cccc3cc(S(=O)(=O)NCC(=O)NCCCCNC(=O)c4ccc(-c5c6nc(c(-c7c(F)cc(S(=O)(=O)[O-])cc7F)c7ccc([nH]7)c(-c7c(F)cc(S(=O)(=O)[O-])cc7F)c7nc(c(-c8c(F)cc(S(=O)(=O)[O-])cc8F)c8ccc5[nH]8)C=C7)C=C6)cc4)cc(c23)C1=O
REMARK SMILES IDX 22 1 21 2 20 3 18 4 19 5 17 7 16 8 13 10 14 11 15 12 12 13
REMARK SMILES IDX 3 14 4 15 97 16 5 17 6 18 95 19 98 20 7 21 96 22 94 23 8 24
REMARK SMILES IDX 10 25 9 26 11 27 2 28 1 29 23 30 24 31 25 32 26 33 27 35
REMARK SMILES IDX 28 36 29 37 93 38 30 39 92 40 31 41 32 42 33 43 86 44 34 45
REMARK SMILES IDX 91 46 85 47 87 48 35 49 90 50 84 51 83 52 36 54 70 55 49 56
REMARK SMILES IDX 69 57 50 58 53 59 68 60 88 61 51 62 52 63 67 65 89 66 54 67
REMARK SMILES IDX 37 68 38 69 47 70 39 71 40 72 46 73 48 74 41 75 42 76 43 77
REMARK SMILES IDX 44 78 45 79 71 80 72 81 81 82 73 83 74 84 80 85 82 86 75 87
REMARK SMILES IDX 76 88 77 89 78 90 79 91 55 92 56 93 65 94 57 95 58 96 64 97
REMARK SMILES IDX 66 98 59 99 60 100 61 101 62 102 63 103
REMARK H PARENT 20 6 16 9 25 34 87 53 53 64
REMARK Flexibility Score: inf
ROOT
ATOM      1  C   UNL A   1      34.943  23.851  23.796  1.00  0.00     0.023 C 
ENDROOT
BRANCH   1   2
ATOM      2  C   UNL A   1      33.961  22.867  23.163  1.00  0.00     0.116 C 
BRANCH   2   3
ATOM      3  N   UNL A   1      33.870  21.664  23.966  1.00  0.00    -0.355 N 
ATOM      4  C   UNL A   1      32.868  21.290  24.814  1.00  0.00     0.235 C 
ATOM      5  O   UNL A   1      33.084  20.408  25.649  1.00  0.00    -0.274 OA
ATOM      6  H   UNL A   1      34.626  21.037  23.890  1.00  0.00     0.163 HD
BRANCH   4   7
ATOM      7  C   UNL A   1      31.493  21.909  24.683  1.00  0.00     0.198 C 
BRANCH   7   8
ATOM      8  N   UNL A   1      30.675  21.948  25.908  1.00  0.00    -0.202 NA
ATOM      9  H   UNL A   1      29.701  21.893  25.610  1.00  0.00     0.141 HD
BRANCH   8  10
ATOM     10  S   UNL A   1      30.779  23.248  26.972  1.00  0.00     0.241 S 
ATOM     11  O   UNL A   1      31.975  23.055  27.756  1.00  0.00    -0.207 OA
ATOM     12  O   UNL A   1      29.486  23.387  27.594  1.00  0.00    -0.207 OA
BRANCH  10  13
ATOM     13  C   UNL A   1      31.015  24.668  25.933  1.00  0.00     0.083 A 
ATOM     14  N   UNL A   1      29.231  28.180  23.043  1.00  0.00    -0.275 N 
ATOM     15  C   UNL A   1      30.461  28.839  23.013  1.00  0.00     0.261 C 
ATOM     16  C   UNL A   1      28.976  27.038  23.808  1.00  0.00     0.261 C 
ATOM     17  O   UNL A   1      30.662  29.909  22.445  1.00  0.00    -0.269 OA
ATOM     18  C   UNL A   1      31.583  28.210  23.745  1.00  0.00     0.049 A 
ATOM     19  C   UNL A   1      30.126  26.408  24.502  1.00  0.00     0.050 A 
ATOM     20  O   UNL A   1      27.868  26.542  23.988  1.00  0.00    -0.269 OA
ATOM     21  C   UNL A   1      32.844  28.824  23.731  1.00  0.00     0.014 A 
ATOM     22  C   UNL A   1      31.379  27.026  24.457  1.00  0.00     0.007 A 
ATOM     23  C   UNL A   1      29.939  25.226  25.239  1.00  0.00     0.036 A 
ATOM     24  C   UNL A   1      33.903  28.263  24.439  1.00  0.00     0.001 A 
ATOM     25  C   UNL A   1      32.464  26.450  25.164  1.00  0.00    -0.015 A 
ATOM     26  C   UNL A   1      33.713  27.082  25.152  1.00  0.00     0.009 A 
ATOM     27  C   UNL A   1      32.275  25.266  25.886  1.00  0.00     0.030 A 
BRANCH  14  28
ATOM     28  C   UNL A   1      28.096  28.831  22.374  1.00  0.00     0.126 C 
ATOM     29  C   UNL A   1      27.446  29.944  23.193  1.00  0.00     0.028 C 
ENDBRANCH  14  28
ENDBRANCH  10  13
ENDBRANCH   8  10
ENDBRANCH   7   8
ENDBRANCH   4   7
ENDBRANCH   2   3
ENDBRANCH   1   2
BRANCH   1  30
ATOM     30  C   UNL A   1      36.380  23.366  23.822  1.00  0.00     0.023 C 
BRANCH  30  31
ATOM     31  C   UNL A   1      37.065  23.536  25.167  1.00  0.00     0.116 C 
BRANCH  31  32
ATOM     32  N   UNL A   1      38.178  22.623  25.404  1.00  0.00    -0.352 N 
ATOM     33  C   UNL A   1      39.327  22.874  26.124  1.00  0.00     0.251 C 
ATOM     34  H   UNL A   1      38.099  21.725  25.007  1.00  0.00     0.163 HD
ATOM     35  O   UNL A   1      40.230  22.050  26.207  1.00  0.00    -0.269 OA
BRANCH  33  36
ATOM     36  C   UNL A   1      39.471  24.195  26.762  1.00  0.00     0.039 A 
ATOM     37  C   UNL A   1      38.983  24.376  28.057  1.00  0.00     0.014 A 
ATOM     38  C   UNL A   1      40.200  25.201  26.123  1.00  0.00     0.014 A 
ATOM     39  C   UNL A   1      39.302  25.544  28.747  1.00  0.00     0.010 A 
ATOM     40  C   UNL A   1      40.607  26.309  26.851  1.00  0.00     0.010 A 
ATOM     41  C   UNL A   1      40.157  26.496  28.167  1.00  0.00    -0.014 A 
BRANCH  41  42
ATOM     42  C   UNL A   1      40.571  27.717  28.901  1.00  0.00     0.031 A 
ATOM     43  C   UNL A   1      41.941  27.770  29.521  1.00  0.00     0.074 A 
ATOM     44  C   UNL A   1      39.701  28.734  29.067  1.00  0.00     0.049 A 
ATOM     45  N   UNL A   1      42.460  28.681  30.303  1.00  0.00    -0.248 NA
ATOM     46  C   UNL A   1      42.831  26.624  29.265  1.00  0.00     0.031 C 
ATOM     47  C   UNL A   1      38.326  28.772  28.563  1.00  0.00     0.029 A 
ATOM     48  N   UNL A   1      39.845  29.934  29.716  1.00  0.00    -0.354 N 
ATOM     49  C   UNL A   1      43.719  28.205  30.649  1.00  0.00     0.074 A 
ATOM     50  C   UNL A   1      43.860  26.896  30.052  1.00  0.00     0.031 C 
ATOM     51  C   UNL A   1      37.767  29.949  28.889  1.00  0.00     0.029 A 
ATOM     52  C   UNL A   1      38.728  30.734  29.657  1.00  0.00     0.049 A 
ATOM     53  H   UNL A   1      40.671  30.199  30.181  1.00  0.00     0.167 HD
ATOM     54  C   UNL A   1      44.687  28.818  31.368  1.00  0.00     0.037 A 
ATOM     55  C   UNL A   1      38.508  31.962  30.164  1.00  0.00     0.037 A 
ATOM     56  C   UNL A   1      44.561  30.145  31.906  1.00  0.00     0.049 A 
ATOM     57  C   UNL A   1      39.615  32.640  30.928  1.00  0.00     0.074 A 
ATOM     58  C   UNL A   1      45.497  30.882  32.609  1.00  0.00     0.029 A 
ATOM     59  N   UNL A   1      43.433  30.942  31.778  1.00  0.00    -0.354 N 
ATOM     60  N   UNL A   1      40.815  32.189  31.215  1.00  0.00    -0.248 NA
ATOM     61  C   UNL A   1      39.345  33.994  31.432  1.00  0.00     0.031 C 
ATOM     62  C   UNL A   1      44.926  32.120  32.923  1.00  0.00     0.029 A 
ATOM     63  C   UNL A   1      43.649  32.165  32.387  1.00  0.00     0.049 A 
ATOM     64  H   UNL A   1      42.602  30.676  31.323  1.00  0.00     0.167 HD
ATOM     65  C   UNL A   1      41.451  33.215  31.903  1.00  0.00     0.074 A 
ATOM     66  C   UNL A   1      40.508  34.313  31.983  1.00  0.00     0.031 C 
ATOM     67  C   UNL A   1      42.701  33.249  32.426  1.00  0.00     0.037 A 
BRANCH  54  68
ATOM     68  C   UNL A   1      45.973  28.071  31.580  1.00  0.00     0.058 A 
ATOM     69  C   UNL A   1      46.164  27.250  32.703  1.00  0.00     0.135 A 
ATOM     70  C   UNL A   1      47.018  28.159  30.647  1.00  0.00     0.135 A 
ATOM     71  F   UNL A   1      45.206  27.150  33.638  1.00  0.00    -0.206 F 
ATOM     72  C   UNL A   1      47.356  26.564  32.909  1.00  0.00     0.059 A 
ATOM     73  C   UNL A   1      48.209  27.459  30.818  1.00  0.00     0.059 A 
ATOM     74  F   UNL A   1      46.889  28.934  29.558  1.00  0.00    -0.206 F 
ATOM     75  C   UNL A   1      48.373  26.676  31.960  1.00  0.00     0.060 A 
BRANCH  75  76
ATOM     76  S   UNL A   1      49.910  25.770  32.235  1.00  0.00     0.124 S 
ATOM     77  O   UNL A   1      50.579  26.625  33.211  1.00  0.00    -0.237 OA
ATOM     78  O   UNL A   1      49.431  24.487  32.740  1.00  0.00    -0.237 OA
ATOM     79  O   UNL A   1      50.523  25.730  30.911  1.00  0.00    -0.744 OA
ENDBRANCH  75  76
ENDBRANCH  54  68
BRANCH  55  80
ATOM     80  C   UNL A   1      37.209  32.652  29.942  1.00  0.00     0.058 A 
ATOM     81  C   UNL A   1      37.059  33.583  28.903  1.00  0.00     0.135 A 
ATOM     82  C   UNL A   1      36.100  32.411  30.768  1.00  0.00     0.135 A 
ATOM     83  F   UNL A   1      38.091  33.850  28.088  1.00  0.00    -0.206 F 
ATOM     84  C   UNL A   1      35.869  34.277  28.710  1.00  0.00     0.059 A 
ATOM     85  C   UNL A   1      34.891  33.074  30.579  1.00  0.00     0.059 A 
ATOM     86  F   UNL A   1      36.184  31.514  31.762  1.00  0.00    -0.206 F 
ATOM     87  C   UNL A   1      34.791  34.019  29.558  1.00  0.00     0.060 A 
BRANCH  87  88
ATOM     88  S   UNL A   1      33.244  34.913  29.292  1.00  0.00     0.124 S 
ATOM     89  O   UNL A   1      32.582  34.064  28.307  1.00  0.00    -0.237 OA
ATOM     90  O   UNL A   1      32.656  34.921  30.627  1.00  0.00    -0.237 OA
ATOM     91  O   UNL A   1      33.691  36.215  28.804  1.00  0.00    -0.744 OA
ENDBRANCH  87  88
ENDBRANCH  55  80
BRANCH  67  92
ATOM     92  C   UNL A   1      43.138  34.526  33.084  1.00  0.00     0.058 A 
ATOM     93  C   UNL A   1      43.737  35.561  32.352  1.00  0.00     0.135 A 
ATOM     94  C   UNL A   1      42.896  34.736  34.451  1.00  0.00     0.135 A 
ATOM     95  F   UNL A   1      43.993  35.404  31.044  1.00  0.00    -0.206 F 
ATOM     96  C   UNL A   1      44.101  36.758  32.959  1.00  0.00     0.059 A 
ATOM     97  C   UNL A   1      43.229  35.933  35.073  1.00  0.00     0.059 A 
ATOM     98  F   UNL A   1      42.313  33.777  35.189  1.00  0.00    -0.206 F 
ATOM     99  C   UNL A   1      43.841  36.935  34.320  1.00  0.00     0.060 A 
BRANCH  99 100
ATOM    100  S   UNL A   1      44.279  38.509  35.088  1.00  0.00     0.124 S 
ATOM    101  O   UNL A   1      45.706  38.590  34.797  1.00  0.00    -0.237 OA
ATOM    102  O   UNL A   1      43.431  39.455  34.370  1.00  0.00    -0.237 OA
ATOM    103  O   UNL A   1      43.933  38.308  36.491  1.00  0.00    -0.744 OA
ENDBRANCH  99 100
ENDBRANCH  67  92
ENDBRANCH  41  42
ENDBRANCH  33  36
ENDBRANCH  31  32
ENDBRANCH  30  31
ENDBRANCH   1  30
TORSDOF 18
ENDMDL
