MODEL 1
REMARK VINA RESULT:     -11.1      0.000      0.000
REMARK SMILES CC(C)[NH2+][C@@]1(C(=O)NCCCCNC(=O)c2ccc(-c3c4nc(c(-c5c(F)cc(S(=O)(=O)[O-])cc5F)c5ccc([nH]5)c(-c5c(F)cc(S(=O)(=O)[O-])cc5F)c5nc(c(-c6c(F)cc(S(=O)(=O)[O-])cc6F)c6ccc3[nH]6)C=C5)C=C4)cc2)CC[C@H](Sc2ccccn2)C1
REMARK SMILES IDX 11 1 10 2 9 3 8 4 6 5 7 6 5 8 82 9 92 10 83 11 84 12 4 13
REMARK SMILES IDX 2 16 1 17 3 18 85 19 86 20 87 21 91 22 88 23 90 24 89 25
REMARK SMILES IDX 12 26 13 27 14 28 15 30 16 31 17 32 81 33 18 34 80 35 19 36
REMARK SMILES IDX 20 37 21 38 74 39 22 40 79 41 73 42 75 43 23 44 78 45 72 46
REMARK SMILES IDX 71 47 24 49 58 50 37 51 57 52 38 53 41 54 56 55 76 56 39 57
REMARK SMILES IDX 40 58 55 60 77 61 42 62 25 63 26 64 35 65 27 66 28 67 34 68
REMARK SMILES IDX 36 69 29 70 30 71 31 72 32 73 33 74 59 75 60 76 69 77 61 78
REMARK SMILES IDX 62 79 68 80 70 81 63 82 64 83 65 84 66 85 67 86 43 87 44 88
REMARK SMILES IDX 53 89 45 90 46 91 52 92 54 93 47 94 48 95 49 96 50 97 51 98
REMARK H PARENT 8 7 4 14 4 15 13 29 75 48 41 59
REMARK Flexibility Score: inf
ROOT
ATOM      1  C   UNL A   1      33.092  27.839  26.944  1.00  0.00     0.023 C 
ENDROOT
BRANCH   1   2
ATOM      2  C   UNL A   1      31.600  27.880  26.639  1.00  0.00     0.023 C 
BRANCH   2   3
ATOM      3  C   UNL A   1      31.040  26.610  26.007  1.00  0.00     0.116 C 
BRANCH   3   4
ATOM      4  N   UNL A   1      31.149  25.472  26.888  1.00  0.00    -0.351 N 
ATOM      5  C   UNL A   1      31.741  24.259  26.725  1.00  0.00     0.281 C 
ATOM      6  O   UNL A   1      31.518  23.443  27.633  1.00  0.00    -0.268 OA
ATOM      7  H   UNL A   1      30.718  25.597  27.765  1.00  0.00     0.163 HD
BRANCH   5   8
ATOM      8  C   UNL A   1      32.651  23.865  25.476  1.00  0.00     0.176 C 
ATOM      9  C   UNL A   1      33.989  24.644  25.506  1.00  0.00     0.080 C 
ATOM     10  C   UNL A   1      31.968  24.240  24.148  1.00  0.00     0.094 C 
ATOM     11  C   UNL A   1      34.041  25.524  24.253  1.00  0.00     0.022 C 
ATOM     12  C   UNL A   1      33.055  24.889  23.284  1.00  0.00     0.060 C 
BRANCH   8  13
ATOM     13  N   UNL A   1      32.870  22.410  25.635  1.00  0.00    -0.332 N 
ATOM     14  H   UNL A   1      33.606  22.326  26.338  1.00  0.00     0.347 HD
ATOM     15  H   UNL A   1      31.911  22.107  25.805  1.00  0.00     0.347 HD
BRANCH  13  16
ATOM     16  C   UNL A   1      33.241  21.485  24.582  1.00  0.00     0.176 C 
ATOM     17  C   UNL A   1      34.736  21.190  24.789  1.00  0.00     0.075 C 
ATOM     18  C   UNL A   1      32.494  20.153  24.602  1.00  0.00     0.075 C 
ENDBRANCH  13  16
ENDBRANCH   8  13
BRANCH  12  19
ATOM     19  S   UNL A   1      32.333  25.850  21.896  1.00  0.00    -0.103 SA
BRANCH  19  20
ATOM     20  C   UNL A   1      31.477  27.232  22.621  1.00  0.00     0.096 A 
ATOM     21  C   UNL A   1      32.145  28.405  22.950  1.00  0.00     0.035 A 
ATOM     22  N   UNL A   1      30.129  27.131  22.676  1.00  0.00    -0.250 NA
ATOM     23  C   UNL A   1      31.408  29.510  23.372  1.00  0.00     0.004 A 
ATOM     24  C   UNL A   1      29.434  28.231  23.050  1.00  0.00     0.112 A 
ATOM     25  C   UNL A   1      30.025  29.428  23.412  1.00  0.00     0.020 A 
ENDBRANCH  19  20
ENDBRANCH  12  19
ENDBRANCH   5   8
ENDBRANCH   3   4
ENDBRANCH   2   3
ENDBRANCH   1   2
BRANCH   1  26
ATOM     26  C   UNL A   1      33.883  29.074  26.531  1.00  0.00     0.116 C 
BRANCH  26  27
ATOM     27  N   UNL A   1      33.750  30.215  27.433  1.00  0.00    -0.352 N 
ATOM     28  C   UNL A   1      34.681  30.699  28.324  1.00  0.00     0.251 C 
ATOM     29  H   UNL A   1      32.891  30.696  27.400  1.00  0.00     0.163 HD
ATOM     30  O   UNL A   1      34.431  31.648  29.060  1.00  0.00    -0.269 OA
BRANCH  28  31
ATOM     31  C   UNL A   1      35.976  30.005  28.426  1.00  0.00     0.039 A 
ATOM     32  C   UNL A   1      36.875  30.108  27.363  1.00  0.00     0.014 A 
ATOM     33  C   UNL A   1      36.341  29.380  29.620  1.00  0.00     0.014 A 
ATOM     34  C   UNL A   1      38.186  29.669  27.536  1.00  0.00     0.010 A 
ATOM     35  C   UNL A   1      37.668  29.024  29.817  1.00  0.00     0.010 A 
ATOM     36  C   UNL A   1      38.605  29.178  28.783  1.00  0.00    -0.014 A 
BRANCH  36  37
ATOM     37  C   UNL A   1      40.023  28.833  29.043  1.00  0.00     0.031 A 
ATOM     38  C   UNL A   1      40.948  29.880  29.596  1.00  0.00     0.074 A 
ATOM     39  C   UNL A   1      40.492  27.621  28.687  1.00  0.00     0.049 A 
ATOM     40  N   UNL A   1      42.244  29.834  29.755  1.00  0.00    -0.248 NA
ATOM     41  C   UNL A   1      40.339  31.164  29.980  1.00  0.00     0.031 C 
ATOM     42  C   UNL A   1      39.701  26.547  28.080  1.00  0.00     0.029 A 
ATOM     43  N   UNL A   1      41.756  27.092  28.768  1.00  0.00    -0.354 N 
ATOM     44  C   UNL A   1      42.609  31.092  30.218  1.00  0.00     0.074 A 
ATOM     45  C   UNL A   1      41.405  31.890  30.276  1.00  0.00     0.031 C 
ATOM     46  C   UNL A   1      40.493  25.484  27.861  1.00  0.00     0.029 A 
ATOM     47  C   UNL A   1      41.852  25.811  28.278  1.00  0.00     0.049 A 
ATOM     48  H   UNL A   1      42.522  27.584  29.142  1.00  0.00     0.167 HD
ATOM     49  C   UNL A   1      43.836  31.532  30.582  1.00  0.00     0.037 A 
ATOM     50  C   UNL A   1      42.919  24.995  28.171  1.00  0.00     0.037 A 
ATOM     51  C   UNL A   1      45.016  30.710  30.578  1.00  0.00     0.049 A 
ATOM     52  C   UNL A   1      44.257  25.482  28.652  1.00  0.00     0.074 A 
ATOM     53  C   UNL A   1      46.293  31.035  30.996  1.00  0.00     0.029 A 
ATOM     54  N   UNL A   1      45.057  29.393  30.145  1.00  0.00    -0.354 N 
ATOM     55  N   UNL A   1      44.578  26.660  29.132  1.00  0.00    -0.248 NA
ATOM     56  C   UNL A   1      45.376  24.533  28.585  1.00  0.00     0.031 C 
ATOM     57  C   UNL A   1      47.113  29.919  30.799  1.00  0.00     0.029 A 
ATOM     58  C   UNL A   1      46.338  28.890  30.287  1.00  0.00     0.049 A 
ATOM     59  H   UNL A   1      44.288  28.890  29.790  1.00  0.00     0.167 HD
ATOM     60  C   UNL A   1      45.931  26.589  29.442  1.00  0.00     0.074 A 
ATOM     61  C   UNL A   1      46.365  25.247  29.107  1.00  0.00     0.031 C 
ATOM     62  C   UNL A   1      46.742  27.547  29.956  1.00  0.00     0.037 A 
BRANCH  49  63
ATOM     63  C   UNL A   1      43.954  32.961  31.031  1.00  0.00     0.058 A 
ATOM     64  C   UNL A   1      44.079  34.013  30.110  1.00  0.00     0.135 A 
ATOM     65  C   UNL A   1      43.927  33.284  32.397  1.00  0.00     0.135 A 
ATOM     66  F   UNL A   1      44.134  33.756  28.794  1.00  0.00    -0.206 F 
ATOM     67  C   UNL A   1      44.201  35.334  30.527  1.00  0.00     0.059 A 
ATOM     68  C   UNL A   1      44.020  34.601  32.836  1.00  0.00     0.059 A 
ATOM     69  F   UNL A   1      43.814  32.315  33.319  1.00  0.00    -0.206 F 
ATOM     70  C   UNL A   1      44.172  35.618  31.894  1.00  0.00     0.060 A 
BRANCH  70  71
ATOM     71  S   UNL A   1      44.325  37.337  32.421  1.00  0.00     0.124 S 
ATOM     72  O   UNL A   1      44.195  38.043  31.150  1.00  0.00    -0.237 OA
ATOM     73  O   UNL A   1      43.204  37.485  33.343  1.00  0.00    -0.237 OA
ATOM     74  O   UNL A   1      45.649  37.388  33.035  1.00  0.00    -0.744 OA
ENDBRANCH  70  71
ENDBRANCH  49  63
BRANCH  50  75
ATOM     75  C   UNL A   1      42.754  23.627  27.615  1.00  0.00     0.058 A 
ATOM     76  C   UNL A   1      42.946  23.379  26.247  1.00  0.00     0.135 A 
ATOM     77  C   UNL A   1      42.432  22.538  28.438  1.00  0.00     0.135 A 
ATOM     78  F   UNL A   1      43.251  24.391  25.420  1.00  0.00    -0.206 F 
ATOM     79  C   UNL A   1      42.818  22.101  25.713  1.00  0.00     0.059 A 
ATOM     80  C   UNL A   1      42.318  21.246  27.931  1.00  0.00     0.059 A 
ATOM     81  F   UNL A   1      42.256  22.720  29.756  1.00  0.00    -0.206 F 
ATOM     82  C   UNL A   1      42.507  21.040  26.563  1.00  0.00     0.060 A 
BRANCH  82  83
ATOM     83  S   UNL A   1      42.405  19.374  25.871  1.00  0.00     0.124 S 
ATOM     84  O   UNL A   1      40.969  19.228  25.668  1.00  0.00    -0.237 OA
ATOM     85  O   UNL A   1      43.212  19.494  24.661  1.00  0.00    -0.237 OA
ATOM     86  O   UNL A   1      42.984  18.541  26.920  1.00  0.00    -0.744 OA
ENDBRANCH  82  83
ENDBRANCH  50  75
BRANCH  62  87
ATOM     87  C   UNL A   1      48.172  27.171  30.213  1.00  0.00     0.058 A 
ATOM     88  C   UNL A   1      49.177  27.423  29.269  1.00  0.00     0.135 A 
ATOM     89  C   UNL A   1      48.547  26.615  31.445  1.00  0.00     0.135 A 
ATOM     90  F   UNL A   1      48.865  27.950  28.074  1.00  0.00    -0.206 F 
ATOM     91  C   UNL A   1      50.509  27.122  29.531  1.00  0.00     0.059 A 
ATOM     92  C   UNL A   1      49.876  26.325  31.738  1.00  0.00     0.059 A 
ATOM     93  F   UNL A   1      47.622  26.365  32.386  1.00  0.00    -0.206 F 
ATOM     94  C   UNL A   1      50.848  26.574  30.770  1.00  0.00     0.060 A 
BRANCH  94  95
ATOM     95  S   UNL A   1      52.585  26.226  31.118  1.00  0.00     0.124 S 
ATOM     96  O   UNL A   1      52.979  27.419  31.860  1.00  0.00    -0.237 OA
ATOM     97  O   UNL A   1      52.509  24.992  31.895  1.00  0.00    -0.237 OA
ATOM     98  O   UNL A   1      53.175  26.086  29.791  1.00  0.00    -0.744 OA
ENDBRANCH  94  95
ENDBRANCH  62  87
ENDBRANCH  36  37
ENDBRANCH  28  31
ENDBRANCH  26  27
ENDBRANCH   1  26
TORSDOF 18
ENDMDL
MODEL 2
REMARK VINA RESULT:     -10.8      1.337      3.428
REMARK SMILES CC(C)[NH2+][C@@]1(C(=O)NCCCCNC(=O)c2ccc(-c3c4nc(c(-c5c(F)cc(S(=O)(=O)[O-])cc5F)c5ccc([nH]5)c(-c5c(F)cc(S(=O)(=O)[O-])cc5F)c5nc(c(-c6c(F)cc(S(=O)(=O)[O-])cc6F)c6ccc3[nH]6)C=C5)C=C4)cc2)CC[C@H](Sc2ccccn2)C1
REMARK SMILES IDX 11 1 10 2 9 3 8 4 6 5 7 6 5 8 82 9 92 10 83 11 84 12 4 13
REMARK SMILES IDX 2 16 1 17 3 18 85 19 86 20 87 21 91 22 88 23 90 24 89 25
REMARK SMILES IDX 12 26 13 27 14 28 15 30 16 31 17 32 81 33 18 34 80 35 19 36
REMARK SMILES IDX 20 37 21 38 74 39 22 40 79 41 73 42 75 43 23 44 78 45 72 46
REMARK SMILES IDX 71 47 24 49 58 50 37 51 57 52 38 53 41 54 56 55 76 56 39 57
REMARK SMILES IDX 40 58 55 60 77 61 42 62 25 63 26 64 35 65 27 66 28 67 34 68
REMARK SMILES IDX 36 69 29 70 30 71 31 72 32 73 33 74 59 75 60 76 69 77 61 78
REMARK SMILES IDX 62 79 68 80 70 81 63 82 64 83 65 84 66 85 67 86 43 87 44 88
REMARK SMILES IDX 53 89 45 90 46 91 52 92 54 93 47 94 48 95 49 96 50 97 51 98
REMARK H PARENT 8 7 4 14 4 15 13 29 75 48 41 59
REMARK Flexibility Score: inf
ROOT
ATOM      1  C   UNL A   1      32.495  28.303  26.140  1.00  0.00     0.023 C 
ENDROOT
BRANCH   1   2
ATOM      2  C   UNL A   1      31.626  27.069  26.343  1.00  0.00     0.023 C 
BRANCH   2   3
ATOM      3  C   UNL A   1      32.335  25.739  26.112  1.00  0.00     0.116 C 
BRANCH   3   4
ATOM      4  N   UNL A   1      31.518  24.614  26.499  1.00  0.00    -0.351 N 
ATOM      5  C   UNL A   1      31.552  23.306  26.128  1.00  0.00     0.281 C 
ATOM      6  O   UNL A   1      30.600  22.623  26.537  1.00  0.00    -0.268 OA
ATOM      7  H   UNL A   1      30.810  24.832  27.147  1.00  0.00     0.163 HD
BRANCH   5   8
ATOM      8  C   UNL A   1      32.699  22.656  25.232  1.00  0.00     0.176 C 
ATOM      9  C   UNL A   1      32.780  23.357  23.853  1.00  0.00     0.080 C 
ATOM     10  C   UNL A   1      32.407  21.173  24.941  1.00  0.00     0.094 C 
ATOM     11  C   UNL A   1      32.455  22.311  22.782  1.00  0.00     0.022 C 
ATOM     12  C   UNL A   1      32.709  20.969  23.452  1.00  0.00     0.060 C 
BRANCH   8  13
ATOM     13  N   UNL A   1      33.934  22.870  26.019  1.00  0.00    -0.332 N 
ATOM     14  H   UNL A   1      33.853  23.818  26.390  1.00  0.00     0.347 HD
ATOM     15  H   UNL A   1      33.907  22.043  26.614  1.00  0.00     0.347 HD
BRANCH  13  16
ATOM     16  C   UNL A   1      35.292  22.772  25.517  1.00  0.00     0.176 C 
ATOM     17  C   UNL A   1      36.058  23.950  26.144  1.00  0.00     0.075 C 
ATOM     18  C   UNL A   1      36.024  21.485  25.889  1.00  0.00     0.075 C 
ENDBRANCH  13  16
ENDBRANCH   8  13
BRANCH  12  19
ATOM     19  S   UNL A   1      31.944  19.426  22.812  1.00  0.00    -0.103 SA
BRANCH  19  20
ATOM     20  C   UNL A   1      32.657  18.082  23.736  1.00  0.00     0.096 A 
ATOM     21  C   UNL A   1      33.810  17.438  23.304  1.00  0.00     0.035 A 
ATOM     22  N   UNL A   1      32.110  17.841  24.949  1.00  0.00    -0.250 NA
ATOM     23  C   UNL A   1      34.413  16.496  24.136  1.00  0.00     0.004 A 
ATOM     24  C   UNL A   1      32.737  16.952  25.755  1.00  0.00     0.112 A 
ATOM     25  C   UNL A   1      33.876  16.256  25.391  1.00  0.00     0.020 A 
ENDBRANCH  19  20
ENDBRANCH  12  19
ENDBRANCH   5   8
ENDBRANCH   3   4
ENDBRANCH   2   3
ENDBRANCH   1   2
BRANCH   1  26
ATOM     26  C   UNL A   1      33.515  28.578  27.238  1.00  0.00     0.116 C 
BRANCH  26  27
ATOM     27  N   UNL A   1      33.527  29.954  27.729  1.00  0.00    -0.352 N 
ATOM     28  C   UNL A   1      34.588  30.651  28.260  1.00  0.00     0.251 C 
ATOM     29  H   UNL A   1      32.673  30.441  27.673  1.00  0.00     0.163 HD
ATOM     30  O   UNL A   1      34.458  31.798  28.676  1.00  0.00    -0.269 OA
BRANCH  28  31
ATOM     31  C   UNL A   1      35.885  29.963  28.382  1.00  0.00     0.039 A 
ATOM     32  C   UNL A   1      36.767  30.003  27.301  1.00  0.00     0.014 A 
ATOM     33  C   UNL A   1      36.267  29.407  29.604  1.00  0.00     0.014 A 
ATOM     34  C   UNL A   1      38.081  29.574  27.480  1.00  0.00     0.010 A 
ATOM     35  C   UNL A   1      37.597  29.062  29.802  1.00  0.00     0.010 A 
ATOM     36  C   UNL A   1      38.518  29.155  28.746  1.00  0.00    -0.014 A 
BRANCH  36  37
ATOM     37  C   UNL A   1      39.940  28.824  29.005  1.00  0.00     0.031 A 
ATOM     38  C   UNL A   1      40.858  29.883  29.544  1.00  0.00     0.074 A 
ATOM     39  C   UNL A   1      40.418  27.612  28.658  1.00  0.00     0.049 A 
ATOM     40  N   UNL A   1      42.155  29.849  29.699  1.00  0.00    -0.248 NA
ATOM     41  C   UNL A   1      40.240  31.165  29.919  1.00  0.00     0.031 C 
ATOM     42  C   UNL A   1      39.633  26.527  28.063  1.00  0.00     0.029 A 
ATOM     43  N   UNL A   1      41.686  27.094  28.739  1.00  0.00    -0.354 N 
ATOM     44  C   UNL A   1      42.512  31.114  30.150  1.00  0.00     0.074 A 
ATOM     45  C   UNL A   1      41.301  31.903  30.205  1.00  0.00     0.031 C 
ATOM     46  C   UNL A   1      40.433  25.468  27.851  1.00  0.00     0.029 A 
ATOM     47  C   UNL A   1      41.791  25.809  28.259  1.00  0.00     0.049 A 
ATOM     48  H   UNL A   1      42.450  27.596  29.105  1.00  0.00     0.167 HD
ATOM     49  C   UNL A   1      43.736  31.567  30.506  1.00  0.00     0.037 A 
ATOM     50  C   UNL A   1      42.864  25.002  28.156  1.00  0.00     0.037 A 
ATOM     51  C   UNL A   1      44.922  30.755  30.505  1.00  0.00     0.049 A 
ATOM     52  C   UNL A   1      44.200  25.504  28.628  1.00  0.00     0.074 A 
ATOM     53  C   UNL A   1      46.198  31.094  30.916  1.00  0.00     0.029 A 
ATOM     54  N   UNL A   1      44.973  29.434  30.083  1.00  0.00    -0.354 N 
ATOM     55  N   UNL A   1      44.513  26.689  29.097  1.00  0.00    -0.248 NA
ATOM     56  C   UNL A   1      45.326  24.563  28.566  1.00  0.00     0.031 C 
ATOM     57  C   UNL A   1      47.027  29.983  30.725  1.00  0.00     0.029 A 
ATOM     58  C   UNL A   1      46.259  28.943  30.225  1.00  0.00     0.049 A 
ATOM     59  H   UNL A   1      44.207  28.922  29.736  1.00  0.00     0.167 HD
ATOM     60  C   UNL A   1      45.867  26.631  29.403  1.00  0.00     0.074 A 
ATOM     61  C   UNL A   1      46.311  25.290  29.078  1.00  0.00     0.031 C 
ATOM     62  C   UNL A   1      46.672  27.600  29.904  1.00  0.00     0.037 A 
BRANCH  49  63
ATOM     63  C   UNL A   1      43.844  33.001  30.941  1.00  0.00     0.058 A 
ATOM     64  C   UNL A   1      43.743  33.368  32.292  1.00  0.00     0.135 A 
ATOM     65  C   UNL A   1      44.068  34.018  30.000  1.00  0.00     0.135 A 
ATOM     66  F   UNL A   1      43.507  32.438  33.230  1.00  0.00    -0.206 F 
ATOM     67  C   UNL A   1      43.831  34.697  32.693  1.00  0.00     0.059 A 
ATOM     68  C   UNL A   1      44.186  35.351  30.381  1.00  0.00     0.059 A 
ATOM     69  F   UNL A   1      44.167  33.721  28.694  1.00  0.00    -0.206 F 
ATOM     70  C   UNL A   1      44.051  35.682  31.729  1.00  0.00     0.060 A 
BRANCH  70  71
ATOM     71  S   UNL A   1      44.170  37.402  32.263  1.00  0.00     0.124 S 
ATOM     72  O   UNL A   1      45.572  37.485  32.662  1.00  0.00    -0.237 OA
ATOM     73  O   UNL A   1      43.813  38.133  31.053  1.00  0.00    -0.237 OA
ATOM     74  O   UNL A   1      43.202  37.486  33.353  1.00  0.00    -0.744 OA
ENDBRANCH  70  71
ENDBRANCH  49  63
BRANCH  50  75
ATOM     75  C   UNL A   1      42.708  23.627  27.613  1.00  0.00     0.058 A 
ATOM     76  C   UNL A   1      42.833  23.380  26.238  1.00  0.00     0.135 A 
ATOM     77  C   UNL A   1      42.462  22.533  28.455  1.00  0.00     0.135 A 
ATOM     78  F   UNL A   1      43.064  24.396  25.393  1.00  0.00    -0.206 F 
ATOM     79  C   UNL A   1      42.712  22.097  25.714  1.00  0.00     0.059 A 
ATOM     80  C   UNL A   1      42.357  21.236  27.957  1.00  0.00     0.059 A 
ATOM     81  F   UNL A   1      42.352  22.715  29.780  1.00  0.00    -0.206 F 
ATOM     82  C   UNL A   1      42.478  21.030  26.583  1.00  0.00     0.060 A 
BRANCH  82  83
ATOM     83  S   UNL A   1      42.386  19.359  25.901  1.00  0.00     0.124 S 
ATOM     84  O   UNL A   1      43.252  19.472  24.733  1.00  0.00    -0.237 OA
ATOM     85  O   UNL A   1      42.900  18.549  27.001  1.00  0.00    -0.237 OA
ATOM     86  O   UNL A   1      40.964  19.191  25.621  1.00  0.00    -0.744 OA
ENDBRANCH  82  83
ENDBRANCH  50  75
BRANCH  62  87
ATOM     87  C   UNL A   1      48.106  27.239  30.160  1.00  0.00     0.058 A 
ATOM     88  C   UNL A   1      49.115  27.545  29.236  1.00  0.00     0.135 A 
ATOM     89  C   UNL A   1      48.480  26.639  31.373  1.00  0.00     0.135 A 
ATOM     90  F   UNL A   1      48.804  28.114  28.060  1.00  0.00    -0.206 F 
ATOM     91  C   UNL A   1      50.449  27.256  29.498  1.00  0.00     0.059 A 
ATOM     92  C   UNL A   1      49.811  26.361  31.666  1.00  0.00     0.059 A 
ATOM     93  F   UNL A   1      47.551  26.337  32.294  1.00  0.00    -0.206 F 
ATOM     94  C   UNL A   1      50.787  26.664  30.718  1.00  0.00     0.060 A 
BRANCH  94  95
ATOM     95  S   UNL A   1      52.527  26.331  31.068  1.00  0.00     0.124 S 
ATOM     96  O   UNL A   1      53.074  26.193  29.723  1.00  0.00    -0.237 OA
ATOM     97  O   UNL A   1      52.935  27.528  31.799  1.00  0.00    -0.237 OA
ATOM     98  O   UNL A   1      52.484  25.107  31.861  1.00  0.00    -0.744 OA
ENDBRANCH  94  95
ENDBRANCH  62  87
ENDBRANCH  36  37
ENDBRANCH  28  31
ENDBRANCH  26  27
ENDBRANCH   1  26
TORSDOF 18
ENDMDL
MODEL 3
REMARK VINA RESULT:     -10.8      4.847     10.312
REMARK SMILES CC(C)[NH2+][C@@]1(C(=O)NCCCCNC(=O)c2ccc(-c3c4nc(c(-c5c(F)cc(S(=O)(=O)[O-])cc5F)c5ccc([nH]5)c(-c5c(F)cc(S(=O)(=O)[O-])cc5F)c5nc(c(-c6c(F)cc(S(=O)(=O)[O-])cc6F)c6ccc3[nH]6)C=C5)C=C4)cc2)CC[C@H](Sc2ccccn2)C1
REMARK SMILES IDX 11 1 10 2 9 3 8 4 6 5 7 6 5 8 82 9 92 10 83 11 84 12 4 13
REMARK SMILES IDX 2 16 1 17 3 18 85 19 86 20 87 21 91 22 88 23 90 24 89 25
REMARK SMILES IDX 12 26 13 27 14 28 15 30 16 31 17 32 81 33 18 34 80 35 19 36
REMARK SMILES IDX 20 37 21 38 74 39 22 40 79 41 73 42 75 43 23 44 78 45 72 46
REMARK SMILES IDX 71 47 24 49 58 50 37 51 57 52 38 53 41 54 56 55 76 56 39 57
REMARK SMILES IDX 40 58 55 60 77 61 42 62 25 63 26 64 35 65 27 66 28 67 34 68
REMARK SMILES IDX 36 69 29 70 30 71 31 72 32 73 33 74 59 75 60 76 69 77 61 78
REMARK SMILES IDX 62 79 68 80 70 81 63 82 64 83 65 84 66 85 67 86 43 87 44 88
REMARK SMILES IDX 53 89 45 90 46 91 52 92 54 93 47 94 48 95 49 96 50 97 51 98
REMARK H PARENT 8 7 4 14 4 15 13 29 75 48 41 59
REMARK Flexibility Score: inf
ROOT
ATOM      1  C   UNL A   1      38.201  23.250  26.110  1.00  0.00     0.023 C 
ENDROOT
BRANCH   1   2
ATOM      2  C   UNL A   1      38.023  21.864  25.502  1.00  0.00     0.023 C 
BRANCH   2   3
ATOM      3  C   UNL A   1      36.577  21.467  25.225  1.00  0.00     0.116 C 
BRANCH   3   4
ATOM      4  N   UNL A   1      35.733  21.651  26.381  1.00  0.00    -0.351 N 
ATOM      5  C   UNL A   1      34.587  22.362  26.557  1.00  0.00     0.281 C 
ATOM      6  O   UNL A   1      34.191  22.434  27.731  1.00  0.00    -0.268 OA
ATOM      7  H   UNL A   1      36.042  21.177  27.187  1.00  0.00     0.163 HD
BRANCH   5   8
ATOM      8  C   UNL A   1      33.784  23.075  25.378  1.00  0.00     0.176 C 
ATOM      9  C   UNL A   1      34.520  24.353  24.908  1.00  0.00     0.080 C 
ATOM     10  C   UNL A   1      32.391  23.532  25.849  1.00  0.00     0.094 C 
ATOM     11  C   UNL A   1      33.599  25.546  25.182  1.00  0.00     0.022 C 
ATOM     12  C   UNL A   1      32.204  24.949  25.294  1.00  0.00     0.060 C 
BRANCH   8  13
ATOM     13  N   UNL A   1      33.738  22.054  24.307  1.00  0.00    -0.332 N 
ATOM     14  H   UNL A   1      33.856  22.574  23.437  1.00  0.00     0.347 HD
ATOM     15  H   UNL A   1      34.438  21.402  24.657  1.00  0.00     0.347 HD
BRANCH  13  16
ATOM     16  C   UNL A   1      32.645  21.134  24.055  1.00  0.00     0.176 C 
ATOM     17  C   UNL A   1      32.194  21.403  22.609  1.00  0.00     0.075 C 
ATOM     18  C   UNL A   1      33.009  19.655  24.165  1.00  0.00     0.075 C 
ENDBRANCH  13  16
ENDBRANCH   8  13
BRANCH  12  19
ATOM     19  S   UNL A   1      30.854  25.842  26.162  1.00  0.00    -0.103 SA
BRANCH  19  20
ATOM     20  C   UNL A   1      31.297  27.565  26.160  1.00  0.00     0.096 A 
ATOM     21  C   UNL A   1      31.802  28.184  27.298  1.00  0.00     0.035 A 
ATOM     22  N   UNL A   1      31.271  28.182  24.956  1.00  0.00    -0.250 NA
ATOM     23  C   UNL A   1      32.276  29.491  27.204  1.00  0.00     0.004 A 
ATOM     24  C   UNL A   1      31.774  29.437  24.884  1.00  0.00     0.112 A 
ATOM     25  C   UNL A   1      32.275  30.128  25.973  1.00  0.00     0.020 A 
ENDBRANCH  19  20
ENDBRANCH  12  19
ENDBRANCH   5   8
ENDBRANCH   3   4
ENDBRANCH   2   3
ENDBRANCH   1   2
BRANCH   1  26
ATOM     26  C   UNL A   1      39.452  23.441  26.959  1.00  0.00     0.116 C 
BRANCH  26  27
ATOM     27  N   UNL A   1      40.667  23.731  26.201  1.00  0.00    -0.352 N 
ATOM     28  C   UNL A   1      41.441  24.867  26.251  1.00  0.00     0.251 C 
ATOM     29  H   UNL A   1      40.967  23.028  25.579  1.00  0.00     0.163 HD
ATOM     30  O   UNL A   1      42.423  25.005  25.529  1.00  0.00    -0.269 OA
BRANCH  28  31
ATOM     31  C   UNL A   1      41.026  25.956  27.152  1.00  0.00     0.039 A 
ATOM     32  C   UNL A   1      40.147  25.662  28.196  1.00  0.00     0.014 A 
ATOM     33  C   UNL A   1      41.614  27.218  27.039  1.00  0.00     0.014 A 
ATOM     34  C   UNL A   1      39.936  26.611  29.194  1.00  0.00     0.010 A 
ATOM     35  C   UNL A   1      41.468  28.125  28.078  1.00  0.00     0.010 A 
ATOM     36  C   UNL A   1      40.639  27.825  29.171  1.00  0.00    -0.014 A 
BRANCH  36  37
ATOM     37  C   UNL A   1      40.544  28.797  30.286  1.00  0.00     0.031 A 
ATOM     38  C   UNL A   1      41.426  28.628  31.490  1.00  0.00     0.074 A 
ATOM     39  C   UNL A   1      39.600  29.759  30.256  1.00  0.00     0.049 A 
ATOM     40  N   UNL A   1      41.400  29.269  32.628  1.00  0.00    -0.248 NA
ATOM     41  C   UNL A   1      42.444  27.567  31.419  1.00  0.00     0.031 C 
ATOM     42  C   UNL A   1      38.642  29.977  29.168  1.00  0.00     0.029 A 
ATOM     43  N   UNL A   1      39.276  30.724  31.176  1.00  0.00    -0.354 N 
ATOM     44  C   UNL A   1      42.367  28.665  33.421  1.00  0.00     0.074 A 
ATOM     45  C   UNL A   1      42.934  27.581  32.649  1.00  0.00     0.031 C 
ATOM     46  C   UNL A   1      37.854  31.020  29.476  1.00  0.00     0.029 A 
ATOM     47  C   UNL A   1      38.223  31.522  30.794  1.00  0.00     0.049 A 
ATOM     48  H   UNL A   1      39.754  30.835  32.030  1.00  0.00     0.167 HD
ATOM     49  C   UNL A   1      42.760  28.999  34.672  1.00  0.00     0.037 A 
ATOM     50  C   UNL A   1      37.621  32.539  31.441  1.00  0.00     0.037 A 
ATOM     51  C   UNL A   1      42.232  30.117  35.406  1.00  0.00     0.049 A 
ATOM     52  C   UNL A   1      38.126  32.939  32.798  1.00  0.00     0.074 A 
ATOM     53  C   UNL A   1      42.611  30.588  36.650  1.00  0.00     0.029 A 
ATOM     54  N   UNL A   1      41.217  30.948  34.954  1.00  0.00    -0.354 N 
ATOM     55  N   UNL A   1      39.075  32.387  33.517  1.00  0.00    -0.248 NA
ATOM     56  C   UNL A   1      37.489  34.100  33.432  1.00  0.00     0.031 C 
ATOM     57  C   UNL A   1      41.813  31.694  36.959  1.00  0.00     0.029 A 
ATOM     58  C   UNL A   1      40.958  31.930  35.894  1.00  0.00     0.049 A 
ATOM     59  H   UNL A   1      40.751  30.854  34.092  1.00  0.00     0.167 HD
ATOM     60  C   UNL A   1      39.162  33.144  34.679  1.00  0.00     0.074 A 
ATOM     61  C   UNL A   1      38.177  34.201  34.562  1.00  0.00     0.031 C 
ATOM     62  C   UNL A   1      39.979  32.978  35.748  1.00  0.00     0.037 A 
BRANCH  49  63
ATOM     63  C   UNL A   1      43.825  28.154  35.313  1.00  0.00     0.058 A 
ATOM     64  C   UNL A   1      45.189  28.444  35.152  1.00  0.00     0.135 A 
ATOM     65  C   UNL A   1      43.477  27.053  36.110  1.00  0.00     0.135 A 
ATOM     66  F   UNL A   1      45.575  29.472  34.381  1.00  0.00    -0.206 F 
ATOM     67  C   UNL A   1      46.173  27.654  35.735  1.00  0.00     0.059 A 
ATOM     68  C   UNL A   1      44.445  26.264  36.726  1.00  0.00     0.059 A 
ATOM     69  F   UNL A   1      42.187  26.730  36.292  1.00  0.00    -0.206 F 
ATOM     70  C   UNL A   1      45.791  26.564  36.520  1.00  0.00     0.060 A 
BRANCH  70  71
ATOM     71  S   UNL A   1      47.079  25.551  37.276  1.00  0.00     0.124 S 
ATOM     72  O   UNL A   1      48.076  25.508  36.211  1.00  0.00    -0.237 OA
ATOM     73  O   UNL A   1      47.444  26.333  38.452  1.00  0.00    -0.237 OA
ATOM     74  O   UNL A   1      46.399  24.289  37.553  1.00  0.00    -0.744 OA
ENDBRANCH  70  71
ENDBRANCH  49  63
BRANCH  50  75
ATOM     75  C   UNL A   1      36.498  33.267  30.794  1.00  0.00     0.058 A 
ATOM     76  C   UNL A   1      35.184  33.126  31.266  1.00  0.00     0.135 A 
ATOM     77  C   UNL A   1      36.716  34.137  29.716  1.00  0.00     0.135 A 
ATOM     78  F   UNL A   1      34.927  32.301  32.293  1.00  0.00    -0.206 F 
ATOM     79  C   UNL A   1      34.124  33.816  30.688  1.00  0.00     0.059 A 
ATOM     80  C   UNL A   1      35.674  34.854  29.133  1.00  0.00     0.059 A 
ATOM     81  F   UNL A   1      37.957  34.320  29.239  1.00  0.00    -0.206 F 
ATOM     82  C   UNL A   1      34.379  34.681  29.623  1.00  0.00     0.060 A 
BRANCH  82  83
ATOM     83  S   UNL A   1      33.005  35.621  28.920  1.00  0.00     0.124 S 
ATOM     84  O   UNL A   1      32.338  34.607  28.113  1.00  0.00    -0.237 OA
ATOM     85  O   UNL A   1      32.290  36.059  30.115  1.00  0.00    -0.237 OA
ATOM     86  O   UNL A   1      33.675  36.683  28.176  1.00  0.00    -0.744 OA
ENDBRANCH  82  83
ENDBRANCH  50  75
BRANCH  62  87
ATOM     87  C   UNL A   1      39.866  33.977  36.862  1.00  0.00     0.058 A 
ATOM     88  C   UNL A   1      40.471  35.239  36.779  1.00  0.00     0.135 A 
ATOM     89  C   UNL A   1      39.088  33.690  37.994  1.00  0.00     0.135 A 
ATOM     90  F   UNL A   1      41.229  35.557  35.717  1.00  0.00    -0.206 F 
ATOM     91  C   UNL A   1      40.321  36.182  37.790  1.00  0.00     0.059 A 
ATOM     92  C   UNL A   1      38.906  34.626  39.008  1.00  0.00     0.059 A 
ATOM     93  F   UNL A   1      38.480  32.499  38.114  1.00  0.00    -0.206 F 
ATOM     94  C   UNL A   1      39.535  35.866  38.900  1.00  0.00     0.060 A 
BRANCH  94  95
ATOM     95  S   UNL A   1      39.310  37.112  40.187  1.00  0.00     0.124 S 
ATOM     96  O   UNL A   1      38.762  38.226  39.422  1.00  0.00    -0.237 OA
ATOM     97  O   UNL A   1      38.383  36.454  41.103  1.00  0.00    -0.237 OA
ATOM     98  O   UNL A   1      40.659  37.307  40.708  1.00  0.00    -0.744 OA
ENDBRANCH  94  95
ENDBRANCH  62  87
ENDBRANCH  36  37
ENDBRANCH  28  31
ENDBRANCH  26  27
ENDBRANCH   1  26
TORSDOF 18
ENDMDL
