MODEL 1
REMARK VINA RESULT:     -12.7      0.000      0.000
REMARK SMILES O=C1O[C@@H](c2ccc(O)c(O)c2)[C@H](C(=O)NCCCCNC(=O)c2ccc(-c3c4nc(c(-c5c(F)cc(S(=O)(=O)[O-])cc5F)c5ccc([nH]5)c(-c5c(F)cc(S(=O)(=O)[O-])cc5F)c5nc(c(-c6c(F)cc(S(=O)(=O)[O-])cc6F)c6ccc3[nH]6)C=C5)C=C4)cc2)/C1=C\c1ccc(O)c(O)c1
REMARK SMILES IDX 19 1 18 2 17 3 16 4 14 5 15 6 13 8 1 9 2 10 3 11 90 12 4 13
REMARK SMILES IDX 91 14 5 15 6 16 12 17 7 18 10 19 8 20 11 21 9 23 92 25 93 26
REMARK SMILES IDX 99 27 94 28 97 29 95 30 98 31 96 33 20 35 21 36 22 37 23 39
REMARK SMILES IDX 24 40 25 41 89 42 26 43 88 44 27 45 28 46 29 47 82 48 30 49
REMARK SMILES IDX 87 50 81 51 83 52 31 53 86 54 80 55 79 56 32 58 66 59 45 60
REMARK SMILES IDX 65 61 46 62 49 63 64 64 84 65 47 66 48 67 63 69 85 70 50 71
REMARK SMILES IDX 33 72 34 73 43 74 35 75 36 76 42 77 44 78 37 79 38 80 39 81
REMARK SMILES IDX 40 82 41 83 67 84 68 85 77 86 69 87 70 88 76 89 78 90 71 91
REMARK SMILES IDX 72 92 73 93 74 94 75 95 51 96 52 97 61 98 53 99 54 100
REMARK SMILES IDX 60 101 62 102 55 103 56 104 57 105 58 106 59 107
REMARK H PARENT 16 7 11 22 9 24 98 32 96 34 21 38 83 57 49 68
REMARK Flexibility Score: inf
ROOT
ATOM      1  C   UNL A   1      32.590  28.302  26.098  1.00  0.00     0.023 C 
ENDROOT
BRANCH   1   2
ATOM      2  C   UNL A   1      31.552  27.237  26.425  1.00  0.00     0.023 C 
BRANCH   2   3
ATOM      3  C   UNL A   1      32.132  25.869  26.749  1.00  0.00     0.116 C 
BRANCH   3   4
ATOM      4  N   UNL A   1      31.226  24.766  26.498  1.00  0.00    -0.355 N 
ATOM      5  C   UNL A   1      31.434  23.555  25.895  1.00  0.00     0.231 C 
ATOM      6  O   UNL A   1      30.525  22.728  25.985  1.00  0.00    -0.274 OA
ATOM      7  H   UNL A   1      30.305  24.913  26.814  1.00  0.00     0.163 HD
BRANCH   5   8
ATOM      8  C   UNL A   1      32.697  23.302  25.062  1.00  0.00     0.161 C 
ATOM      9  O   UNL A   1      32.061  20.740  22.643  1.00  0.00    -0.247 OA
ATOM     10  C   UNL A   1      32.444  21.437  23.567  1.00  0.00     0.335 C 
ATOM     11  O   UNL A   1      33.071  20.983  24.678  1.00  0.00    -0.453 OA
ATOM     12  C   UNL A   1      32.359  22.903  23.663  1.00  0.00     0.054 C 
ATOM     13  C   UNL A   1      33.486  22.077  25.515  1.00  0.00     0.224 C 
ATOM     14  C   UNL A   1      32.058  23.622  22.570  1.00  0.00     0.020 C 
BRANCH  13  15
ATOM     15  C   UNL A   1      35.008  22.259  25.496  1.00  0.00    -0.002 A 
ATOM     16  C   UNL A   1      35.605  23.491  25.849  1.00  0.00     0.012 A 
ATOM     17  C   UNL A   1      35.859  21.179  25.218  1.00  0.00     0.057 A 
ATOM     18  C   UNL A   1      36.992  23.641  25.947  1.00  0.00     0.050 A 
ATOM     19  C   UNL A   1      37.238  21.341  25.292  1.00  0.00     0.157 A 
ATOM     20  C   UNL A   1      37.803  22.557  25.666  1.00  0.00     0.157 A 
BRANCH  19  21
ATOM     21  O   UNL A   1      38.050  20.281  25.003  1.00  0.00    -0.504 OA
ATOM     22  H   UNL A   1      38.810  20.118  25.525  1.00  0.00     0.293 HD
ENDBRANCH  19  21
BRANCH  20  23
ATOM     23  O   UNL A   1      39.165  22.635  25.749  1.00  0.00    -0.504 OA
ATOM     24  H   UNL A   1      39.569  23.400  26.108  1.00  0.00     0.293 HD
ENDBRANCH  20  23
ENDBRANCH  13  15
BRANCH  14  25
ATOM     25  C   UNL A   1      31.972  25.080  22.532  1.00  0.00    -0.021 A 
ATOM     26  C   UNL A   1      30.831  25.753  22.995  1.00  0.00     0.012 A 
ATOM     27  C   UNL A   1      33.067  25.813  22.064  1.00  0.00     0.058 A 
ATOM     28  C   UNL A   1      30.767  27.149  22.960  1.00  0.00     0.051 A 
ATOM     29  C   UNL A   1      32.999  27.198  22.044  1.00  0.00     0.157 A 
ATOM     30  C   UNL A   1      31.856  27.864  22.478  1.00  0.00     0.157 A 
BRANCH  29  31
ATOM     31  O   UNL A   1      34.072  27.911  21.589  1.00  0.00    -0.504 OA
ATOM     32  H   UNL A   1      34.907  27.816  22.003  1.00  0.00     0.293 HD
ENDBRANCH  29  31
BRANCH  30  33
ATOM     33  O   UNL A   1      31.854  29.229  22.419  1.00  0.00    -0.504 OA
ATOM     34  H   UNL A   1      31.294  29.722  22.986  1.00  0.00     0.293 HD
ENDBRANCH  30  33
ENDBRANCH  14  25
ENDBRANCH   5   8
ENDBRANCH   3   4
ENDBRANCH   2   3
ENDBRANCH   1   2
BRANCH   1  35
ATOM     35  C   UNL A   1      33.584  28.593  27.215  1.00  0.00     0.116 C 
BRANCH  35  36
ATOM     36  N   UNL A   1      33.544  29.974  27.681  1.00  0.00    -0.352 N 
ATOM     37  C   UNL A   1      34.553  30.685  28.293  1.00  0.00     0.251 C 
ATOM     38  H   UNL A   1      32.697  30.456  27.541  1.00  0.00     0.163 HD
ATOM     39  O   UNL A   1      34.348  31.803  28.751  1.00  0.00    -0.269 OA
BRANCH  37  40
ATOM     40  C   UNL A   1      35.878  30.044  28.417  1.00  0.00     0.039 A 
ATOM     41  C   UNL A   1      36.768  30.095  27.342  1.00  0.00     0.014 A 
ATOM     42  C   UNL A   1      36.270  29.509  29.646  1.00  0.00     0.014 A 
ATOM     43  C   UNL A   1      38.089  29.682  27.530  1.00  0.00     0.010 A 
ATOM     44  C   UNL A   1      37.604  29.190  29.854  1.00  0.00     0.010 A 
ATOM     45  C   UNL A   1      38.529  29.271  28.799  1.00  0.00    -0.014 A 
BRANCH  45  46
ATOM     46  C   UNL A   1      39.939  28.888  29.064  1.00  0.00     0.031 A 
ATOM     47  C   UNL A   1      40.885  29.923  29.613  1.00  0.00     0.074 A 
ATOM     48  C   UNL A   1      40.392  27.663  28.729  1.00  0.00     0.049 A 
ATOM     49  N   UNL A   1      42.182  29.865  29.757  1.00  0.00    -0.248 NA
ATOM     50  C   UNL A   1      40.292  31.209  30.018  1.00  0.00     0.031 C 
ATOM     51  C   UNL A   1      39.581  26.581  28.166  1.00  0.00     0.029 A 
ATOM     52  N   UNL A   1      41.655  27.129  28.792  1.00  0.00    -0.354 N 
ATOM     53  C   UNL A   1      42.561  31.110  30.247  1.00  0.00     0.074 A 
ATOM     54  C   UNL A   1      41.366  31.922  30.314  1.00  0.00     0.031 C 
ATOM     55  C   UNL A   1      40.364  25.510  27.951  1.00  0.00     0.029 A 
ATOM     56  C   UNL A   1      41.740  25.843  28.309  1.00  0.00     0.049 A 
ATOM     57  H   UNL A   1      42.429  27.620  29.151  1.00  0.00     0.167 HD
ATOM     58  C   UNL A   1      43.788  31.529  30.632  1.00  0.00     0.037 A 
ATOM     59  C   UNL A   1      42.807  25.034  28.154  1.00  0.00     0.037 A 
ATOM     60  C   UNL A   1      44.967  30.707  30.586  1.00  0.00     0.049 A 
ATOM     61  C   UNL A   1      44.170  25.535  28.557  1.00  0.00     0.074 A 
ATOM     62  C   UNL A   1      46.253  31.024  30.985  1.00  0.00     0.029 A 
ATOM     63  N   UNL A   1      45.003  29.403  30.112  1.00  0.00    -0.354 N 
ATOM     64  N   UNL A   1      44.506  26.701  29.054  1.00  0.00    -0.248 NA
ATOM     65  C   UNL A   1      45.300  24.611  28.383  1.00  0.00     0.031 C 
ATOM     66  C   UNL A   1      47.077  29.929  30.708  1.00  0.00     0.029 A 
ATOM     67  C   UNL A   1      46.293  28.907  30.198  1.00  0.00     0.049 A 
ATOM     68  H   UNL A   1      44.228  28.904  29.767  1.00  0.00     0.167 HD
ATOM     69  C   UNL A   1      45.874  26.633  29.297  1.00  0.00     0.074 A 
ATOM     70  C   UNL A   1      46.305  25.312  28.888  1.00  0.00     0.031 C 
ATOM     71  C   UNL A   1      46.698  27.575  29.819  1.00  0.00     0.037 A 
BRANCH  58  72
ATOM     72  C   UNL A   1      43.915  32.938  31.143  1.00  0.00     0.058 A 
ATOM     73  C   UNL A   1      43.779  33.243  32.508  1.00  0.00     0.135 A 
ATOM     74  C   UNL A   1      44.209  33.994  30.265  1.00  0.00     0.135 A 
ATOM     75  F   UNL A   1      43.479  32.277  33.390  1.00  0.00    -0.206 F 
ATOM     76  C   UNL A   1      43.896  34.546  32.979  1.00  0.00     0.059 A 
ATOM     77  C   UNL A   1      44.365  35.301  30.719  1.00  0.00     0.059 A 
ATOM     78  F   UNL A   1      44.348  33.762  28.950  1.00  0.00    -0.206 F 
ATOM     79  C   UNL A   1      44.193  35.568  32.075  1.00  0.00     0.060 A 
BRANCH  79  80
ATOM     80  S   UNL A   1      44.352  37.250  32.708  1.00  0.00     0.124 S 
ATOM     81  O   UNL A   1      43.134  37.378  33.503  1.00  0.00    -0.237 OA
ATOM     82  O   UNL A   1      45.598  37.182  33.463  1.00  0.00    -0.237 OA
ATOM     83  O   UNL A   1      44.398  38.067  31.498  1.00  0.00    -0.744 OA
ENDBRANCH  79  80
ENDBRANCH  58  72
BRANCH  59  84
ATOM     84  C   UNL A   1      42.635  23.659  27.606  1.00  0.00     0.058 A 
ATOM     85  C   UNL A   1      42.403  22.568  28.459  1.00  0.00     0.135 A 
ATOM     86  C   UNL A   1      42.709  23.403  26.228  1.00  0.00     0.135 A 
ATOM     87  F   UNL A   1      42.331  22.758  29.785  1.00  0.00    -0.206 F 
ATOM     88  C   UNL A   1      42.276  21.272  27.970  1.00  0.00     0.059 A 
ATOM     89  C   UNL A   1      42.554  22.118  25.712  1.00  0.00     0.059 A 
ATOM     90  F   UNL A   1      42.912  24.410  25.365  1.00  0.00    -0.206 F 
ATOM     91  C   UNL A   1      42.352  21.057  26.594  1.00  0.00     0.060 A 
BRANCH  91  92
ATOM     92  S   UNL A   1      42.150  19.375  25.969  1.00  0.00     0.124 S 
ATOM     93  O   UNL A   1      42.980  19.405  24.770  1.00  0.00    -0.237 OA
ATOM     94  O   UNL A   1      42.658  18.575  27.078  1.00  0.00    -0.237 OA
ATOM     95  O   UNL A   1      40.712  19.272  25.738  1.00  0.00    -0.744 OA
ENDBRANCH  91  92
ENDBRANCH  59  84
BRANCH  71  96
ATOM     96  C   UNL A   1      48.135  27.202  30.058  1.00  0.00     0.058 A 
ATOM     97  C   UNL A   1      49.149  27.502  29.136  1.00  0.00     0.135 A 
ATOM     98  C   UNL A   1      48.511  26.619  31.280  1.00  0.00     0.135 A 
ATOM     99  F   UNL A   1      48.844  28.052  27.950  1.00  0.00    -0.206 F 
ATOM    100  C   UNL A   1      50.484  27.228  29.414  1.00  0.00     0.059 A 
ATOM    101  C   UNL A   1      49.842  26.367  31.592  1.00  0.00     0.059 A 
ATOM    102  F   UNL A   1      47.581  26.321  32.202  1.00  0.00    -0.206 F 
ATOM    103  C   UNL A   1      50.823  26.670  30.649  1.00  0.00     0.060 A 
BRANCH 103 104
ATOM    104  S   UNL A   1      52.566  26.386  31.022  1.00  0.00     0.124 S 
ATOM    105  O   UNL A   1      52.906  27.588  31.777  1.00  0.00    -0.237 OA
ATOM    106  O   UNL A   1      52.520  25.146  31.791  1.00  0.00    -0.237 OA
ATOM    107  O   UNL A   1      53.184  26.276  29.705  1.00  0.00    -0.744 OA
ENDBRANCH 103 104
ENDBRANCH  71  96
ENDBRANCH  45  46
ENDBRANCH  37  40
ENDBRANCH  35  36
ENDBRANCH   1  35
TORSDOF 20
ENDMDL
MODEL 2
REMARK VINA RESULT:     -12.3      3.033      9.418
REMARK SMILES O=C1O[C@@H](c2ccc(O)c(O)c2)[C@H](C(=O)NCCCCNC(=O)c2ccc(-c3c4nc(c(-c5c(F)cc(S(=O)(=O)[O-])cc5F)c5ccc([nH]5)c(-c5c(F)cc(S(=O)(=O)[O-])cc5F)c5nc(c(-c6c(F)cc(S(=O)(=O)[O-])cc6F)c6ccc3[nH]6)C=C5)C=C4)cc2)/C1=C\c1ccc(O)c(O)c1
REMARK SMILES IDX 19 1 18 2 17 3 16 4 14 5 15 6 13 8 1 9 2 10 3 11 90 12 4 13
REMARK SMILES IDX 91 14 5 15 6 16 12 17 7 18 10 19 8 20 11 21 9 23 92 25 93 26
REMARK SMILES IDX 99 27 94 28 97 29 95 30 98 31 96 33 20 35 21 36 22 37 23 39
REMARK SMILES IDX 24 40 25 41 89 42 26 43 88 44 27 45 28 46 29 47 82 48 30 49
REMARK SMILES IDX 87 50 81 51 83 52 31 53 86 54 80 55 79 56 32 58 66 59 45 60
REMARK SMILES IDX 65 61 46 62 49 63 64 64 84 65 47 66 48 67 63 69 85 70 50 71
REMARK SMILES IDX 33 72 34 73 43 74 35 75 36 76 42 77 44 78 37 79 38 80 39 81
REMARK SMILES IDX 40 82 41 83 67 84 68 85 77 86 69 87 70 88 76 89 78 90 71 91
REMARK SMILES IDX 72 92 73 93 74 94 75 95 51 96 52 97 61 98 53 99 54 100
REMARK SMILES IDX 60 101 62 102 55 103 56 104 57 105 58 106 59 107
REMARK H PARENT 16 7 11 22 9 24 98 32 96 34 21 38 83 57 49 68
REMARK Flexibility Score: inf
ROOT
ATOM      1  C   UNL A   1      35.855  22.766  25.028  1.00  0.00     0.023 C 
ENDROOT
BRANCH   1   2
ATOM      2  C   UNL A   1      35.103  23.140  23.758  1.00  0.00     0.023 C 
BRANCH   2   3
ATOM      3  C   UNL A   1      34.558  24.560  23.743  1.00  0.00     0.116 C 
BRANCH   3   4
ATOM      4  N   UNL A   1      33.543  24.795  22.735  1.00  0.00    -0.355 N 
ATOM      5  C   UNL A   1      32.477  25.653  22.721  1.00  0.00     0.231 C 
ATOM      6  O   UNL A   1      31.881  25.779  21.651  1.00  0.00    -0.274 OA
ATOM      7  H   UNL A   1      33.635  24.243  21.925  1.00  0.00     0.163 HD
BRANCH   5   8
ATOM      8  C   UNL A   1      31.999  26.328  24.013  1.00  0.00     0.161 C 
ATOM      9  O   UNL A   1      28.433  26.646  23.967  1.00  0.00    -0.247 OA
ATOM     10  C   UNL A   1      29.642  26.801  23.976  1.00  0.00     0.335 C 
ATOM     11  O   UNL A   1      30.287  27.932  23.608  1.00  0.00    -0.453 OA
ATOM     12  C   UNL A   1      30.653  25.829  24.426  1.00  0.00     0.054 C 
ATOM     13  C   UNL A   1      31.701  27.816  23.844  1.00  0.00     0.224 C 
ATOM     14  C   UNL A   1      30.268  24.747  25.119  1.00  0.00     0.020 C 
BRANCH  13  15
ATOM     15  C   UNL A   1      32.153  28.691  25.019  1.00  0.00    -0.002 A 
ATOM     16  C   UNL A   1      33.295  28.360  25.785  1.00  0.00     0.012 A 
ATOM     17  C   UNL A   1      31.501  29.898  25.310  1.00  0.00     0.057 A 
ATOM     18  C   UNL A   1      33.786  29.205  26.785  1.00  0.00     0.050 A 
ATOM     19  C   UNL A   1      31.980  30.723  26.323  1.00  0.00     0.157 A 
ATOM     20  C   UNL A   1      33.120  30.388  27.048  1.00  0.00     0.157 A 
BRANCH  19  21
ATOM     21  O   UNL A   1      31.322  31.887  26.601  1.00  0.00    -0.504 OA
ATOM     22  H   UNL A   1      30.410  31.969  26.400  1.00  0.00     0.293 HD
ENDBRANCH  19  21
BRANCH  20  23
ATOM     23  O   UNL A   1      33.551  31.261  28.007  1.00  0.00    -0.504 OA
ATOM     24  H   UNL A   1      34.451  31.522  28.032  1.00  0.00     0.293 HD
ENDBRANCH  20  23
ENDBRANCH  13  15
BRANCH  14  25
ATOM     25  C   UNL A   1      31.177  23.729  25.643  1.00  0.00    -0.021 A 
ATOM     26  C   UNL A   1      32.092  24.028  26.663  1.00  0.00     0.012 A 
ATOM     27  C   UNL A   1      31.096  22.425  25.145  1.00  0.00     0.058 A 
ATOM     28  C   UNL A   1      32.949  23.042  27.162  1.00  0.00     0.051 A 
ATOM     29  C   UNL A   1      31.942  21.450  25.652  1.00  0.00     0.157 A 
ATOM     30  C   UNL A   1      32.869  21.755  26.645  1.00  0.00     0.157 A 
BRANCH  29  31
ATOM     31  O   UNL A   1      31.859  20.177  25.164  1.00  0.00    -0.504 OA
ATOM     32  H   UNL A   1      31.053  19.865  24.804  1.00  0.00     0.293 HD
ENDBRANCH  29  31
BRANCH  30  33
ATOM     33  O   UNL A   1      33.679  20.748  27.090  1.00  0.00    -0.504 OA
ATOM     34  H   UNL A   1      34.191  20.254  26.479  1.00  0.00     0.293 HD
ENDBRANCH  30  33
ENDBRANCH  14  25
ENDBRANCH   5   8
ENDBRANCH   3   4
ENDBRANCH   2   3
ENDBRANCH   1   2
BRANCH   1  35
ATOM     35  C   UNL A   1      37.144  23.542  25.263  1.00  0.00     0.116 C 
BRANCH  35  36
ATOM     36  N   UNL A   1      38.313  22.687  25.426  1.00  0.00    -0.352 N 
ATOM     37  C   UNL A   1      39.497  22.992  26.063  1.00  0.00     0.251 C 
ATOM     38  H   UNL A   1      38.251  21.785  25.036  1.00  0.00     0.163 HD
ATOM     39  O   UNL A   1      40.451  22.224  26.019  1.00  0.00    -0.269 OA
BRANCH  37  40
ATOM     40  C   UNL A   1      39.593  24.287  26.766  1.00  0.00     0.039 A 
ATOM     41  C   UNL A   1      39.006  24.430  28.024  1.00  0.00     0.014 A 
ATOM     42  C   UNL A   1      40.378  25.306  26.222  1.00  0.00     0.014 A 
ATOM     43  C   UNL A   1      39.277  25.574  28.778  1.00  0.00     0.010 A 
ATOM     44  C   UNL A   1      40.721  26.394  27.012  1.00  0.00     0.010 A 
ATOM     45  C   UNL A   1      40.174  26.543  28.297  1.00  0.00    -0.014 A 
BRANCH  45  46
ATOM     46  C   UNL A   1      40.547  27.741  29.090  1.00  0.00     0.031 A 
ATOM     47  C   UNL A   1      41.837  27.729  29.867  1.00  0.00     0.074 A 
ATOM     48  C   UNL A   1      39.701  28.786  29.194  1.00  0.00     0.049 A 
ATOM     49  N   UNL A   1      42.277  28.582  30.754  1.00  0.00    -0.248 NA
ATOM     50  C   UNL A   1      42.732  26.581  29.640  1.00  0.00     0.031 C 
ATOM     51  C   UNL A   1      38.411  28.907  28.511  1.00  0.00     0.029 A 
ATOM     52  N   UNL A   1      39.791  29.939  29.934  1.00  0.00    -0.354 N 
ATOM     53  C   UNL A   1      43.486  28.064  31.205  1.00  0.00     0.074 A 
ATOM     54  C   UNL A   1      43.677  26.793  30.542  1.00  0.00     0.031 C 
ATOM     55  C   UNL A   1      37.840  30.074  28.853  1.00  0.00     0.029 A 
ATOM     56  C   UNL A   1      38.693  30.761  29.818  1.00  0.00     0.049 A 
ATOM     57  H   UNL A   1      40.569  30.158  30.496  1.00  0.00     0.167 HD
ATOM     58  C   UNL A   1      44.369  28.609  32.072  1.00  0.00     0.037 A 
ATOM     59  C   UNL A   1      38.400  31.924  30.433  1.00  0.00     0.037 A 
ATOM     60  C   UNL A   1      44.183  29.886  32.708  1.00  0.00     0.049 A 
ATOM     61  C   UNL A   1      39.384  32.497  31.422  1.00  0.00     0.074 A 
ATOM     62  C   UNL A   1      45.033  30.546  33.576  1.00  0.00     0.029 A 
ATOM     63  N   UNL A   1      43.068  30.696  32.543  1.00  0.00    -0.354 N 
ATOM     64  N   UNL A   1      40.540  32.013  31.809  1.00  0.00    -0.248 NA
ATOM     65  C   UNL A   1      39.027  33.775  32.056  1.00  0.00     0.031 C 
ATOM     66  C   UNL A   1      44.413  31.734  33.975  1.00  0.00     0.029 A 
ATOM     67  C   UNL A   1      43.205  31.845  33.304  1.00  0.00     0.049 A 
ATOM     68  H   UNL A   1      42.296  30.487  31.970  1.00  0.00     0.167 HD
ATOM     69  C   UNL A   1      41.069  32.950  32.692  1.00  0.00     0.074 A 
ATOM     70  C   UNL A   1      40.105  34.025  32.786  1.00  0.00     0.031 C 
ATOM     71  C   UNL A   1      42.250  32.925  33.358  1.00  0.00     0.037 A 
BRANCH  58  72
ATOM     72  C   UNL A   1      45.620  27.831  32.376  1.00  0.00     0.058 A 
ATOM     73  C   UNL A   1      45.672  26.902  33.429  1.00  0.00     0.135 A 
ATOM     74  C   UNL A   1      46.771  27.990  31.588  1.00  0.00     0.135 A 
ATOM     75  F   UNL A   1      44.608  26.722  34.227  1.00  0.00    -0.206 F 
ATOM     76  C   UNL A   1      46.829  26.184  33.710  1.00  0.00     0.059 A 
ATOM     77  C   UNL A   1      47.929  27.257  31.829  1.00  0.00     0.059 A 
ATOM     78  F   UNL A   1      46.779  28.866  30.571  1.00  0.00    -0.206 F 
ATOM     79  C   UNL A   1      47.952  26.366  32.901  1.00  0.00     0.060 A 
BRANCH  79  80
ATOM     80  S   UNL A   1      49.440  25.417  33.275  1.00  0.00     0.124 S 
ATOM     81  O   UNL A   1      50.236  26.398  34.007  1.00  0.00    -0.237 OA
ATOM     82  O   UNL A   1      48.913  24.312  34.068  1.00  0.00    -0.237 OA
ATOM     83  O   UNL A   1      49.953  25.052  31.957  1.00  0.00    -0.744 OA
ENDBRANCH  79  80
ENDBRANCH  58  72
BRANCH  59  84
ATOM     84  C   UNL A   1      37.130  32.639  30.126  1.00  0.00     0.058 A 
ATOM     85  C   UNL A   1      37.064  33.574  29.081  1.00  0.00     0.135 A 
ATOM     86  C   UNL A   1      35.962  32.415  30.873  1.00  0.00     0.135 A 
ATOM     87  F   UNL A   1      38.154  33.831  28.342  1.00  0.00    -0.206 F 
ATOM     88  C   UNL A   1      35.897  34.278  28.802  1.00  0.00     0.059 A 
ATOM     89  C   UNL A   1      34.773  33.085  30.593  1.00  0.00     0.059 A 
ATOM     90  F   UNL A   1      35.963  31.520  31.872  1.00  0.00    -0.206 F 
ATOM     91  C   UNL A   1      34.755  34.025  29.563  1.00  0.00     0.060 A 
BRANCH  91  92
ATOM     92  S   UNL A   1      33.237  34.919  29.169  1.00  0.00     0.124 S 
ATOM     93  O   UNL A   1      32.572  34.957  30.467  1.00  0.00    -0.237 OA
ATOM     94  O   UNL A   1      33.752  36.192  28.677  1.00  0.00    -0.237 OA
ATOM     95  O   UNL A   1      32.602  34.075  28.160  1.00  0.00    -0.744 OA
ENDBRANCH  91  92
ENDBRANCH  59  84
BRANCH  71  96
ATOM     96  C   UNL A   1      42.617  34.122  34.190  1.00  0.00     0.058 A 
ATOM     97  C   UNL A   1      42.316  34.204  35.557  1.00  0.00     0.135 A 
ATOM     98  C   UNL A   1      43.369  35.164  33.620  1.00  0.00     0.135 A 
ATOM     99  F   UNL A   1      41.593  33.241  36.150  1.00  0.00    -0.206 F 
ATOM    100  C   UNL A   1      42.741  35.281  36.329  1.00  0.00     0.059 A 
ATOM    101  C   UNL A   1      43.832  36.233  34.379  1.00  0.00     0.059 A 
ATOM    102  F   UNL A   1      43.693  35.130  32.317  1.00  0.00    -0.206 F 
ATOM    103  C   UNL A   1      43.507  36.286  35.734  1.00  0.00     0.060 A 
BRANCH 103 104
ATOM    104  S   UNL A   1      44.111  37.640  36.764  1.00  0.00     0.124 S 
ATOM    105  O   UNL A   1      44.094  38.756  35.823  1.00  0.00    -0.237 OA
ATOM    106  O   UNL A   1      43.111  37.691  37.826  1.00  0.00    -0.237 OA
ATOM    107  O   UNL A   1      45.436  37.190  37.178  1.00  0.00    -0.744 OA
ENDBRANCH 103 104
ENDBRANCH  71  96
ENDBRANCH  45  46
ENDBRANCH  37  40
ENDBRANCH  35  36
ENDBRANCH   1  35
TORSDOF 20
ENDMDL
MODEL 3
REMARK VINA RESULT:     -12.2      2.281      3.078
REMARK SMILES O=C1O[C@@H](c2ccc(O)c(O)c2)[C@H](C(=O)NCCCCNC(=O)c2ccc(-c3c4nc(c(-c5c(F)cc(S(=O)(=O)[O-])cc5F)c5ccc([nH]5)c(-c5c(F)cc(S(=O)(=O)[O-])cc5F)c5nc(c(-c6c(F)cc(S(=O)(=O)[O-])cc6F)c6ccc3[nH]6)C=C5)C=C4)cc2)/C1=C\c1ccc(O)c(O)c1
REMARK SMILES IDX 19 1 18 2 17 3 16 4 14 5 15 6 13 8 1 9 2 10 3 11 90 12 4 13
REMARK SMILES IDX 91 14 5 15 6 16 12 17 7 18 10 19 8 20 11 21 9 23 92 25 93 26
REMARK SMILES IDX 99 27 94 28 97 29 95 30 98 31 96 33 20 35 21 36 22 37 23 39
REMARK SMILES IDX 24 40 25 41 89 42 26 43 88 44 27 45 28 46 29 47 82 48 30 49
REMARK SMILES IDX 87 50 81 51 83 52 31 53 86 54 80 55 79 56 32 58 66 59 45 60
REMARK SMILES IDX 65 61 46 62 49 63 64 64 84 65 47 66 48 67 63 69 85 70 50 71
REMARK SMILES IDX 33 72 34 73 43 74 35 75 36 76 42 77 44 78 37 79 38 80 39 81
REMARK SMILES IDX 40 82 41 83 67 84 68 85 77 86 69 87 70 88 76 89 78 90 71 91
REMARK SMILES IDX 72 92 73 93 74 94 75 95 51 96 52 97 61 98 53 99 54 100
REMARK SMILES IDX 60 101 62 102 55 103 56 104 57 105 58 106 59 107
REMARK H PARENT 16 7 11 22 9 24 98 32 96 34 21 38 83 57 49 68
REMARK Flexibility Score: inf
ROOT
ATOM      1  C   UNL A   1      33.571  29.268  26.912  1.00  0.00     0.023 C 
ENDROOT
BRANCH   1   2
ATOM      2  C   UNL A   1      32.627  28.127  27.266  1.00  0.00     0.023 C 
BRANCH   2   3
ATOM      3  C   UNL A   1      32.735  26.913  26.355  1.00  0.00     0.116 C 
BRANCH   3   4
ATOM      4  N   UNL A   1      31.921  25.787  26.769  1.00  0.00    -0.355 N 
ATOM      5  C   UNL A   1      32.135  24.440  26.657  1.00  0.00     0.231 C 
ATOM      6  O   UNL A   1      31.357  23.704  27.267  1.00  0.00    -0.274 OA
ATOM      7  H   UNL A   1      31.072  26.033  27.201  1.00  0.00     0.163 HD
BRANCH   5   8
ATOM      8  C   UNL A   1      33.226  23.894  25.727  1.00  0.00     0.161 C 
ATOM      9  O   UNL A   1      31.985  21.048  23.943  1.00  0.00    -0.247 OA
ATOM     10  C   UNL A   1      32.570  21.842  24.660  1.00  0.00     0.335 C 
ATOM     11  O   UNL A   1      33.312  21.515  25.743  1.00  0.00    -0.453 OA
ATOM     12  C   UNL A   1      32.641  23.302  24.486  1.00  0.00     0.054 C 
ATOM     13  C   UNL A   1      33.953  22.678  26.295  1.00  0.00     0.224 C 
ATOM     14  C   UNL A   1      32.247  23.851  23.327  1.00  0.00     0.020 C 
BRANCH  13  15
ATOM     15  C   UNL A   1      35.465  22.667  26.041  1.00  0.00    -0.002 A 
ATOM     16  C   UNL A   1      36.250  23.828  26.228  1.00  0.00     0.012 A 
ATOM     17  C   UNL A   1      36.130  21.479  25.703  1.00  0.00     0.057 A 
ATOM     18  C   UNL A   1      37.644  23.807  26.110  1.00  0.00     0.050 A 
ATOM     19  C   UNL A   1      37.514  21.470  25.563  1.00  0.00     0.157 A 
ATOM     20  C   UNL A   1      38.268  22.619  25.776  1.00  0.00     0.157 A 
BRANCH  19  21
ATOM     21  O   UNL A   1      38.140  20.305  25.220  1.00  0.00    -0.504 OA
ATOM     22  H   UNL A   1      38.981  20.103  25.580  1.00  0.00     0.293 HD
ENDBRANCH  19  21
BRANCH  20  23
ATOM     23  O   UNL A   1      39.627  22.529  25.652  1.00  0.00    -0.504 OA
ATOM     24  H   UNL A   1      40.102  23.205  25.212  1.00  0.00     0.293 HD
ENDBRANCH  20  23
ENDBRANCH  13  15
BRANCH  14  25
ATOM     25  C   UNL A   1      32.296  25.280  23.025  1.00  0.00    -0.021 A 
ATOM     26  C   UNL A   1      33.520  25.948  22.870  1.00  0.00     0.012 A 
ATOM     27  C   UNL A   1      31.097  25.978  22.844  1.00  0.00     0.058 A 
ATOM     28  C   UNL A   1      33.551  27.314  22.572  1.00  0.00     0.051 A 
ATOM     29  C   UNL A   1      31.138  27.330  22.537  1.00  0.00     0.157 A 
ATOM     30  C   UNL A   1      32.353  27.998  22.411  1.00  0.00     0.157 A 
BRANCH  29  31
ATOM     31  O   UNL A   1      29.965  28.008  22.359  1.00  0.00    -0.504 OA
ATOM     32  H   UNL A   1      29.604  28.511  23.061  1.00  0.00     0.293 HD
ENDBRANCH  29  31
BRANCH  30  33
ATOM     33  O   UNL A   1      32.317  29.333  22.119  1.00  0.00    -0.504 OA
ATOM     34  H   UNL A   1      32.751  29.946  22.679  1.00  0.00     0.293 HD
ENDBRANCH  30  33
ENDBRANCH  14  25
ENDBRANCH   5   8
ENDBRANCH   3   4
ENDBRANCH   2   3
ENDBRANCH   1   2
BRANCH   1  35
ATOM     35  C   UNL A   1      34.911  29.239  27.635  1.00  0.00     0.116 C 
BRANCH  35  36
ATOM     36  N   UNL A   1      35.014  30.226  28.703  1.00  0.00    -0.352 N 
ATOM     37  C   UNL A   1      36.116  30.515  29.478  1.00  0.00     0.251 C 
ATOM     38  H   UNL A   1      34.201  30.748  28.894  1.00  0.00     0.163 HD
ATOM     39  O   UNL A   1      36.033  31.281  30.431  1.00  0.00    -0.269 OA
BRANCH  37  40
ATOM     40  C   UNL A   1      37.390  29.844  29.151  1.00  0.00     0.039 A 
ATOM     41  C   UNL A   1      37.849  29.848  27.833  1.00  0.00     0.014 A 
ATOM     42  C   UNL A   1      38.179  29.328  30.182  1.00  0.00     0.014 A 
ATOM     43  C   UNL A   1      39.146  29.406  27.560  1.00  0.00     0.010 A 
ATOM     44  C   UNL A   1      39.496  28.981  29.921  1.00  0.00     0.010 A 
ATOM     45  C   UNL A   1      39.995  29.013  28.608  1.00  0.00    -0.014 A 
BRANCH  45  46
ATOM     46  C   UNL A   1      41.403  28.601  28.376  1.00  0.00     0.031 A 
ATOM     47  C   UNL A   1      42.481  29.653  28.380  1.00  0.00     0.074 A 
ATOM     48  C   UNL A   1      41.702  27.323  28.069  1.00  0.00     0.049 A 
ATOM     49  N   UNL A   1      43.737  29.552  28.034  1.00  0.00    -0.248 NA
ATOM     50  C   UNL A   1      42.078  31.008  28.795  1.00  0.00     0.031 C 
ATOM     51  C   UNL A   1      40.744  26.217  28.007  1.00  0.00     0.029 A 
ATOM     52  N   UNL A   1      42.898  26.741  27.728  1.00  0.00    -0.354 N 
ATOM     53  C   UNL A   1      44.267  30.831  28.169  1.00  0.00     0.074 A 
ATOM     54  C   UNL A   1      43.182  31.701  28.564  1.00  0.00     0.031 C 
ATOM     55  C   UNL A   1      41.393  25.091  27.666  1.00  0.00     0.029 A 
ATOM     56  C   UNL A   1      42.800  25.401  27.432  1.00  0.00     0.049 A 
ATOM     57  H   UNL A   1      43.748  27.237  27.698  1.00  0.00     0.167 HD
ATOM     58  C   UNL A   1      45.546  31.238  28.003  1.00  0.00     0.037 A 
ATOM     59  C   UNL A   1      43.734  24.528  27.002  1.00  0.00     0.037 A 
ATOM     60  C   UNL A   1      46.624  30.360  27.633  1.00  0.00     0.049 A 
ATOM     61  C   UNL A   1      45.146  25.012  26.792  1.00  0.00     0.074 A 
ATOM     62  C   UNL A   1      47.964  30.665  27.473  1.00  0.00     0.029 A 
ATOM     63  N   UNL A   1      46.485  29.005  27.367  1.00  0.00    -0.354 N 
ATOM     64  N   UNL A   1      45.639  26.216  26.959  1.00  0.00    -0.248 NA
ATOM     65  C   UNL A   1      46.131  24.020  26.337  1.00  0.00     0.031 C 
ATOM     66  C   UNL A   1      48.628  29.505  27.063  1.00  0.00     0.029 A 
ATOM     67  C   UNL A   1      47.714  28.464  27.031  1.00  0.00     0.049 A 
ATOM     68  H   UNL A   1      45.640  28.504  27.410  1.00  0.00     0.167 HD
ATOM     69  C   UNL A   1      46.998  26.114  26.678  1.00  0.00     0.074 A 
ATOM     70  C   UNL A   1      47.249  24.733  26.325  1.00  0.00     0.031 C 
ATOM     71  C   UNL A   1      47.953  27.076  26.717  1.00  0.00     0.037 A 
BRANCH  58  72
ATOM     72  C   UNL A   1      45.850  32.693  28.228  1.00  0.00     0.058 A 
ATOM     73  C   UNL A   1      45.755  33.635  27.191  1.00  0.00     0.135 A 
ATOM     74  C   UNL A   1      46.208  33.160  29.503  1.00  0.00     0.135 A 
ATOM     75  F   UNL A   1      45.436  33.243  25.947  1.00  0.00    -0.206 F 
ATOM     76  C   UNL A   1      46.037  34.981  27.400  1.00  0.00     0.059 A 
ATOM     77  C   UNL A   1      46.461  34.508  29.744  1.00  0.00     0.059 A 
ATOM     78  F   UNL A   1      46.316  32.305  30.532  1.00  0.00    -0.206 F 
ATOM     79  C   UNL A   1      46.386  35.407  28.682  1.00  0.00     0.060 A 
BRANCH  79  80
ATOM     80  S   UNL A   1      46.737  37.159  28.936  1.00  0.00     0.124 S 
ATOM     81  O   UNL A   1      48.177  37.205  28.698  1.00  0.00    -0.237 OA
ATOM     82  O   UNL A   1      45.907  37.793  27.918  1.00  0.00    -0.237 OA
ATOM     83  O   UNL A   1      46.323  37.394  30.316  1.00  0.00    -0.744 OA
ENDBRANCH  79  80
ENDBRANCH  58  72
BRANCH  59  84
ATOM     84  C   UNL A   1      43.375  23.103  26.756  1.00  0.00     0.058 A 
ATOM     85  C   UNL A   1      43.091  22.238  27.824  1.00  0.00     0.135 A 
ATOM     86  C   UNL A   1      43.319  22.574  25.457  1.00  0.00     0.135 A 
ATOM     87  F   UNL A   1      43.137  22.692  29.085  1.00  0.00    -0.206 F 
ATOM     88  C   UNL A   1      42.789  20.895  27.617  1.00  0.00     0.059 A 
ATOM     89  C   UNL A   1      42.989  21.241  25.222  1.00  0.00     0.059 A 
ATOM     90  F   UNL A   1      43.565  23.360  24.398  1.00  0.00    -0.206 F 
ATOM     91  C   UNL A   1      42.739  20.407  26.311  1.00  0.00     0.060 A 
BRANCH  91  92
ATOM     92  S   UNL A   1      42.311  18.671  26.053  1.00  0.00     0.124 S 
ATOM     93  O   UNL A   1      40.903  18.767  25.685  1.00  0.00    -0.237 OA
ATOM     94  O   UNL A   1      43.226  18.288  24.983  1.00  0.00    -0.237 OA
ATOM     95  O   UNL A   1      42.584  18.061  27.351  1.00  0.00    -0.744 OA
ENDBRANCH  91  92
ENDBRANCH  59  84
BRANCH  71  96
ATOM     96  C   UNL A   1      49.376  26.669  26.449  1.00  0.00     0.058 A 
ATOM     97  C   UNL A   1      50.174  26.054  27.425  1.00  0.00     0.135 A 
ATOM     98  C   UNL A   1      49.913  26.817  25.159  1.00  0.00     0.135 A 
ATOM     99  F   UNL A   1      49.713  25.896  28.675  1.00  0.00    -0.206 F 
ATOM    100  C   UNL A   1      51.458  25.605  27.132  1.00  0.00     0.059 A 
ATOM    101  C   UNL A   1      51.181  26.348  24.836  1.00  0.00     0.059 A 
ATOM    102  F   UNL A   1      49.187  27.391  24.185  1.00  0.00    -0.206 F 
ATOM    103  C   UNL A   1      51.950  25.747  25.832  1.00  0.00     0.060 A 
BRANCH 103 104
ATOM    104  S   UNL A   1      53.591  25.098  25.451  1.00  0.00     0.124 S 
ATOM    105  O   UNL A   1      53.867  25.731  24.165  1.00  0.00    -0.237 OA
ATOM    106  O   UNL A   1      54.384  25.577  26.578  1.00  0.00    -0.237 OA
ATOM    107  O   UNL A   1      53.384  23.653  25.406  1.00  0.00    -0.744 OA
ENDBRANCH 103 104
ENDBRANCH  71  96
ENDBRANCH  45  46
ENDBRANCH  37  40
ENDBRANCH  35  36
ENDBRANCH   1  35
TORSDOF 20
ENDMDL
