MODEL 1
REMARK VINA RESULT:     -11.9      0.000      0.000
REMARK SMILES CC(C)CCc1cc2c(cc1Cl)C=C(C(=O)NCCCCNC(=O)c1ccc(-c3c4nc(c(-c5c(F)cc(S(=O)(=O)[O-])cc5F)c5ccc([nH]5)c(-c5c(F)cc(S(=O)(=O)[O-])cc5F)c5nc(c(-c6c(F)cc(S(=O)(=O)[O-])cc6F)c6ccc3[nH]6)C=C5)C=C4)cc1)[C@H](C(F)(F)F)O2
REMARK SMILES IDX 19 1 18 2 17 3 15 4 16 5 14 7 6 8 7 9 11 10 8 11 10 12 12 13
REMARK SMILES IDX 9 14 96 15 13 16 91 17 5 18 4 19 2 20 1 21 3 22 92 23 93 24
REMARK SMILES IDX 94 25 95 26 20 27 21 28 22 29 23 30 24 32 25 33 26 34 90 35
REMARK SMILES IDX 27 36 89 37 28 38 29 39 30 40 83 41 31 42 88 43 82 44 84 45
REMARK SMILES IDX 32 46 87 47 81 48 80 49 33 51 67 52 46 53 66 54 47 55 50 56
REMARK SMILES IDX 65 57 85 58 48 59 49 60 64 62 86 63 51 64 34 65 35 66 44 67
REMARK SMILES IDX 36 68 37 69 43 70 45 71 38 72 39 73 40 74 41 75 42 76 68 77
REMARK SMILES IDX 69 78 78 79 70 80 71 81 77 82 79 83 72 84 73 85 74 86 75 87
REMARK SMILES IDX 76 88 52 89 53 90 62 91 54 92 55 93 61 94 63 95 56 96 57 97
REMARK SMILES IDX 58 98 59 99 60 100
REMARK H PARENT 17 6 22 31 84 50 50 61
REMARK Flexibility Score: inf
ROOT
ATOM      1  C   UNL A   1      31.382  29.099  26.113  1.00  0.00     0.023 C 
ENDROOT
BRANCH   1   2
ATOM      2  C   UNL A   1      31.330  28.726  24.632  1.00  0.00     0.116 C 
BRANCH   2   3
ATOM      3  N   UNL A   1      32.573  29.049  23.959  1.00  0.00    -0.352 N 
ATOM      4  C   UNL A   1      33.554  28.349  23.344  1.00  0.00     0.251 C 
ATOM      5  O   UNL A   1      34.426  29.025  22.790  1.00  0.00    -0.270 OA
ATOM      6  H   UNL A   1      32.745  30.017  23.947  1.00  0.00     0.163 HD
BRANCH   4   7
ATOM      7  C   UNL A   1      33.639  26.860  23.295  1.00  0.00     0.067 C 
ATOM      8  C   UNL A   1      33.951  21.996  24.657  1.00  0.00    -0.026 A 
ATOM      9  C   UNL A   1      33.900  22.681  23.429  1.00  0.00     0.052 A 
ATOM     10  C   UNL A   1      33.996  22.760  25.837  1.00  0.00     0.045 A 
ATOM     11  C   UNL A   1      33.859  24.074  23.383  1.00  0.00     0.128 A 
ATOM     12  C   UNL A   1      33.953  24.159  25.786  1.00  0.00     0.032 A 
ATOM     13  Cl  UNL A   1      34.154  22.041  27.399  1.00  0.00    -0.084 Cl
ATOM     14  C   UNL A   1      33.886  24.820  24.557  1.00  0.00     0.019 A 
ATOM     15  O   UNL A   1      33.841  24.650  22.145  1.00  0.00    -0.475 OA
ATOM     16  C   UNL A   1      33.882  26.272  24.481  1.00  0.00     0.025 C 
ATOM     17  C   UNL A   1      33.353  26.023  22.076  1.00  0.00     0.314 C 
BRANCH   8  18
ATOM     18  C   UNL A   1      33.977  20.484  24.627  1.00  0.00     0.037 C 
BRANCH  18  19
ATOM     19  C   UNL A   1      32.787  19.765  25.283  1.00  0.00     0.008 C 
BRANCH  19  20
ATOM     20  C   UNL A   1      32.405  18.400  24.677  1.00  0.00    -0.017 C 
ATOM     21  C   UNL A   1      33.126  18.135  23.356  1.00  0.00     0.007 C 
ATOM     22  C   UNL A   1      32.726  17.287  25.678  1.00  0.00     0.007 C 
ENDBRANCH  19  20
ENDBRANCH  18  19
ENDBRANCH   8  18
BRANCH  17  23
ATOM     23  C   UNL A   1      31.874  26.021  21.654  1.00  0.00     0.429 C 
ATOM     24  F   UNL A   1      31.702  25.665  20.362  1.00  0.00    -0.167 F 
ATOM     25  F   UNL A   1      31.117  25.185  22.398  1.00  0.00    -0.167 F 
ATOM     26  F   UNL A   1      31.350  27.265  21.801  1.00  0.00    -0.167 F 
ENDBRANCH  17  23
ENDBRANCH   4   7
ENDBRANCH   2   3
ENDBRANCH   1   2
BRANCH   1  27
ATOM     27  C   UNL A   1      32.214  28.147  26.974  1.00  0.00     0.023 C 
BRANCH  27  28
ATOM     28  C   UNL A   1      33.578  28.683  27.391  1.00  0.00     0.116 C 
BRANCH  28  29
ATOM     29  N   UNL A   1      33.560  30.084  27.793  1.00  0.00    -0.352 N 
ATOM     30  C   UNL A   1      34.600  30.822  28.319  1.00  0.00     0.251 C 
ATOM     31  H   UNL A   1      32.706  30.560  27.674  1.00  0.00     0.163 HD
ATOM     32  O   UNL A   1      34.437  31.976  28.677  1.00  0.00    -0.269 OA
BRANCH  30  33
ATOM     33  C   UNL A   1      35.903  30.147  28.482  1.00  0.00     0.039 A 
ATOM     34  C   UNL A   1      36.241  29.589  29.716  1.00  0.00     0.014 A 
ATOM     35  C   UNL A   1      36.832  30.210  27.442  1.00  0.00     0.014 A 
ATOM     36  C   UNL A   1      37.563  29.249  29.965  1.00  0.00     0.010 A 
ATOM     37  C   UNL A   1      38.143  29.789  27.672  1.00  0.00     0.010 A 
ATOM     38  C   UNL A   1      38.529  29.355  28.950  1.00  0.00    -0.014 A 
BRANCH  38  39
ATOM     39  C   UNL A   1      39.943  29.022  29.252  1.00  0.00     0.031 A 
ATOM     40  C   UNL A   1      40.808  29.970  30.038  1.00  0.00     0.074 A 
ATOM     41  C   UNL A   1      40.427  27.829  28.858  1.00  0.00     0.049 A 
ATOM     42  N   UNL A   1      42.075  29.862  30.350  1.00  0.00    -0.248 NA
ATOM     43  C   UNL A   1      40.173  31.200  30.539  1.00  0.00     0.031 C 
ATOM     44  C   UNL A   1      39.671  26.817  28.115  1.00  0.00     0.029 A 
ATOM     45  N   UNL A   1      41.654  27.252  29.047  1.00  0.00    -0.354 N 
ATOM     46  C   UNL A   1      42.396  31.017  31.055  1.00  0.00     0.074 A 
ATOM     47  C   UNL A   1      41.194  31.820  31.118  1.00  0.00     0.031 C 
ATOM     48  C   UNL A   1      40.432  25.725  27.959  1.00  0.00     0.029 A 
ATOM     49  C   UNL A   1      41.751  25.985  28.524  1.00  0.00     0.049 A 
ATOM     50  H   UNL A   1      42.397  27.701  29.512  1.00  0.00     0.167 HD
ATOM     51  C   UNL A   1      43.585  31.369  31.599  1.00  0.00     0.037 A 
ATOM     52  C   UNL A   1      42.791  25.134  28.482  1.00  0.00     0.037 A 
ATOM     53  C   UNL A   1      44.768  30.547  31.556  1.00  0.00     0.049 A 
ATOM     54  C   UNL A   1      44.103  25.557  29.073  1.00  0.00     0.074 A 
ATOM     55  C   UNL A   1      46.025  30.818  32.071  1.00  0.00     0.029 A 
ATOM     56  N   UNL A   1      44.838  29.289  30.976  1.00  0.00    -0.354 N 
ATOM     57  N   UNL A   1      44.404  26.677  29.685  1.00  0.00    -0.248 NA
ATOM     58  C   UNL A   1      45.220  24.613  28.952  1.00  0.00     0.031 C 
ATOM     59  C   UNL A   1      46.860  29.733  31.781  1.00  0.00     0.029 A 
ATOM     60  C   UNL A   1      46.115  28.773  31.116  1.00  0.00     0.049 A 
ATOM     61  H   UNL A   1      44.089  28.831  30.531  1.00  0.00     0.167 HD
ATOM     62  C   UNL A   1      45.747  26.575  30.021  1.00  0.00     0.074 A 
ATOM     63  C   UNL A   1      46.194  25.272  29.565  1.00  0.00     0.031 C 
ATOM     64  C   UNL A   1      46.541  27.479  30.644  1.00  0.00     0.037 A 
BRANCH  51  65
ATOM     65  C   UNL A   1      43.680  32.707  32.277  1.00  0.00     0.058 A 
ATOM     66  C   UNL A   1      44.000  33.873  31.567  1.00  0.00     0.135 A 
ATOM     67  C   UNL A   1      43.387  32.833  33.646  1.00  0.00     0.135 A 
ATOM     68  F   UNL A   1      44.307  33.807  30.262  1.00  0.00    -0.206 F 
ATOM     69  C   UNL A   1      44.034  35.118  32.190  1.00  0.00     0.059 A 
ATOM     70  C   UNL A   1      43.397  34.070  34.285  1.00  0.00     0.059 A 
ATOM     71  F   UNL A   1      43.079  31.747  34.373  1.00  0.00    -0.206 F 
ATOM     72  C   UNL A   1      43.730  35.205  33.550  1.00  0.00     0.060 A 
BRANCH  72  73
ATOM     73  S   UNL A   1      43.759  36.830  34.339  1.00  0.00     0.124 S 
ATOM     74  O   UNL A   1      43.978  36.471  35.736  1.00  0.00    -0.237 OA
ATOM     75  O   UNL A   1      44.879  37.483  33.670  1.00  0.00    -0.237 OA
ATOM     76  O   UNL A   1      42.443  37.381  34.032  1.00  0.00    -0.744 OA
ENDBRANCH  72  73
ENDBRANCH  51  65
BRANCH  52  77
ATOM     77  C   UNL A   1      42.623  23.806  27.841  1.00  0.00     0.058 A 
ATOM     78  C   UNL A   1      42.692  23.664  26.449  1.00  0.00     0.135 A 
ATOM     79  C   UNL A   1      42.453  22.645  28.613  1.00  0.00     0.135 A 
ATOM     80  F   UNL A   1      42.849  24.746  25.671  1.00  0.00    -0.206 F 
ATOM     81  C   UNL A   1      42.604  22.417  25.841  1.00  0.00     0.059 A 
ATOM     82  C   UNL A   1      42.386  21.385  28.031  1.00  0.00     0.059 A 
ATOM     83  F   UNL A   1      42.398  22.731  29.952  1.00  0.00    -0.206 F 
ATOM     84  C   UNL A   1      42.459  21.282  26.642  1.00  0.00     0.060 A 
BRANCH  84  85
ATOM     85  S   UNL A   1      42.434  19.658  25.852  1.00  0.00     0.124 S 
ATOM     86  O   UNL A   1      41.048  19.570  25.408  1.00  0.00    -0.237 OA
ATOM     87  O   UNL A   1      43.433  19.810  24.801  1.00  0.00    -0.237 OA
ATOM     88  O   UNL A   1      42.811  18.755  26.936  1.00  0.00    -0.744 OA
ENDBRANCH  84  85
ENDBRANCH  52  77
BRANCH  64  89
ATOM     89  C   UNL A   1      47.970  27.086  30.870  1.00  0.00     0.058 A 
ATOM     90  C   UNL A   1      48.355  26.356  32.005  1.00  0.00     0.135 A 
ATOM     91  C   UNL A   1      48.958  27.416  29.930  1.00  0.00     0.135 A 
ATOM     92  F   UNL A   1      47.445  26.025  32.935  1.00  0.00    -0.206 F 
ATOM     93  C   UNL A   1      49.679  25.986  32.214  1.00  0.00     0.059 A 
ATOM     94  C   UNL A   1      50.285  27.039  30.108  1.00  0.00     0.059 A 
ATOM     95  F   UNL A   1      48.636  28.107  28.825  1.00  0.00    -0.206 F 
ATOM     96  C   UNL A   1      50.638  26.335  31.261  1.00  0.00     0.060 A 
BRANCH  96  97
ATOM     97  S   UNL A   1      52.351  25.836  31.533  1.00  0.00     0.124 S 
ATOM     98  O   UNL A   1      52.193  24.429  31.884  1.00  0.00    -0.237 OA
ATOM     99  O   UNL A   1      52.965  26.102  30.236  1.00  0.00    -0.237 OA
ATOM    100  O   UNL A   1      52.790  26.710  32.617  1.00  0.00    -0.744 OA
ENDBRANCH  96  97
ENDBRANCH  64  89
ENDBRANCH  38  39
ENDBRANCH  30  33
ENDBRANCH  28  29
ENDBRANCH  27  28
ENDBRANCH   1  27
TORSDOF 18
ENDMDL
MODEL 2
REMARK VINA RESULT:     -11.6      3.998      8.475
REMARK SMILES CC(C)CCc1cc2c(cc1Cl)C=C(C(=O)NCCCCNC(=O)c1ccc(-c3c4nc(c(-c5c(F)cc(S(=O)(=O)[O-])cc5F)c5ccc([nH]5)c(-c5c(F)cc(S(=O)(=O)[O-])cc5F)c5nc(c(-c6c(F)cc(S(=O)(=O)[O-])cc6F)c6ccc3[nH]6)C=C5)C=C4)cc1)[C@H](C(F)(F)F)O2
REMARK SMILES IDX 19 1 18 2 17 3 15 4 16 5 14 7 6 8 7 9 11 10 8 11 10 12 12 13
REMARK SMILES IDX 9 14 96 15 13 16 91 17 5 18 4 19 2 20 1 21 3 22 92 23 93 24
REMARK SMILES IDX 94 25 95 26 20 27 21 28 22 29 23 30 24 32 25 33 26 34 90 35
REMARK SMILES IDX 27 36 89 37 28 38 29 39 30 40 83 41 31 42 88 43 82 44 84 45
REMARK SMILES IDX 32 46 87 47 81 48 80 49 33 51 67 52 46 53 66 54 47 55 50 56
REMARK SMILES IDX 65 57 85 58 48 59 49 60 64 62 86 63 51 64 34 65 35 66 44 67
REMARK SMILES IDX 36 68 37 69 43 70 45 71 38 72 39 73 40 74 41 75 42 76 68 77
REMARK SMILES IDX 69 78 78 79 70 80 71 81 77 82 79 83 72 84 73 85 74 86 75 87
REMARK SMILES IDX 76 88 52 89 53 90 62 91 54 92 55 93 61 94 63 95 56 96 57 97
REMARK SMILES IDX 58 98 59 99 60 100
REMARK H PARENT 17 6 22 31 84 50 50 61
REMARK Flexibility Score: inf
ROOT
ATOM      1  C   UNL A   1      37.807  22.577  25.396  1.00  0.00     0.023 C 
ENDROOT
BRANCH   1   2
ATOM      2  C   UNL A   1      36.298  22.575  25.157  1.00  0.00     0.116 C 
BRANCH   2   3
ATOM      3  N   UNL A   1      35.583  21.998  26.279  1.00  0.00    -0.352 N 
ATOM      4  C   UNL A   1      34.300  21.984  26.709  1.00  0.00     0.251 C 
ATOM      5  O   UNL A   1      34.073  21.271  27.690  1.00  0.00    -0.270 OA
ATOM      6  H   UNL A   1      36.179  21.493  26.877  1.00  0.00     0.163 HD
BRANCH   4   7
ATOM      7  C   UNL A   1      33.181  22.749  26.085  1.00  0.00     0.067 C 
ATOM      8  C   UNL A   1      30.218  26.530  24.494  1.00  0.00    -0.026 A 
ATOM      9  C   UNL A   1      30.157  25.126  24.426  1.00  0.00     0.052 A 
ATOM     10  C   UNL A   1      31.281  27.110  25.208  1.00  0.00     0.045 A 
ATOM     11  C   UNL A   1      31.140  24.334  25.017  1.00  0.00     0.128 A 
ATOM     12  C   UNL A   1      32.267  26.310  25.799  1.00  0.00     0.032 A 
ATOM     13  Cl  UNL A   1      31.415  28.816  25.444  1.00  0.00    -0.084 Cl
ATOM     14  C   UNL A   1      32.197  24.918  25.706  1.00  0.00     0.019 A 
ATOM     15  O   UNL A   1      30.980  22.981  24.924  1.00  0.00    -0.475 OA
ATOM     16  C   UNL A   1      33.189  24.069  26.348  1.00  0.00     0.025 C 
ATOM     17  C   UNL A   1      32.177  22.171  25.122  1.00  0.00     0.314 C 
BRANCH   8  18
ATOM     18  C   UNL A   1      29.123  27.324  23.814  1.00  0.00     0.037 C 
BRANCH  18  19
ATOM     19  C   UNL A   1      29.555  28.227  22.648  1.00  0.00     0.008 C 
BRANCH  19  20
ATOM     20  C   UNL A   1      29.144  29.708  22.753  1.00  0.00    -0.017 C 
ATOM     21  C   UNL A   1      29.528  30.502  21.505  1.00  0.00     0.007 C 
ATOM     22  C   UNL A   1      27.635  29.807  22.989  1.00  0.00     0.007 C 
ENDBRANCH  19  20
ENDBRANCH  18  19
ENDBRANCH   8  18
BRANCH  17  23
ATOM     23  C   UNL A   1      32.771  21.791  23.755  1.00  0.00     0.429 C 
ATOM     24  F   UNL A   1      31.824  21.613  22.807  1.00  0.00    -0.167 F 
ATOM     25  F   UNL A   1      33.635  22.715  23.283  1.00  0.00    -0.167 F 
ATOM     26  F   UNL A   1      33.458  20.623  23.859  1.00  0.00    -0.167 F 
ENDBRANCH  17  23
ENDBRANCH   4   7
ENDBRANCH   2   3
ENDBRANCH   1   2
BRANCH   1  27
ATOM     27  C   UNL A   1      38.450  21.188  25.375  1.00  0.00     0.023 C 
BRANCH  27  28
ATOM     28  C   UNL A   1      39.590  20.992  26.366  1.00  0.00     0.116 C 
BRANCH  28  29
ATOM     29  N   UNL A   1      40.348  19.766  26.154  1.00  0.00    -0.352 N 
ATOM     30  C   UNL A   1      41.719  19.618  26.129  1.00  0.00     0.251 C 
ATOM     31  H   UNL A   1      39.820  18.947  26.013  1.00  0.00     0.163 HD
ATOM     32  O   UNL A   1      42.234  18.542  25.877  1.00  0.00    -0.269 OA
BRANCH  30  33
ATOM     33  C   UNL A   1      42.541  20.822  26.368  1.00  0.00     0.039 A 
ATOM     34  C   UNL A   1      42.721  21.285  27.672  1.00  0.00     0.014 A 
ATOM     35  C   UNL A   1      42.998  21.557  25.273  1.00  0.00     0.014 A 
ATOM     36  C   UNL A   1      43.209  22.569  27.872  1.00  0.00     0.010 A 
ATOM     37  C   UNL A   1      43.563  22.815  25.485  1.00  0.00     0.010 A 
ATOM     38  C   UNL A   1      43.624  23.351  26.781  1.00  0.00    -0.014 A 
BRANCH  38  39
ATOM     39  C   UNL A   1      44.106  24.735  27.017  1.00  0.00     0.031 A 
ATOM     40  C   UNL A   1      43.173  25.797  27.536  1.00  0.00     0.074 A 
ATOM     41  C   UNL A   1      45.407  25.013  26.812  1.00  0.00     0.049 A 
ATOM     42  N   UNL A   1      43.412  27.065  27.753  1.00  0.00    -0.248 NA
ATOM     43  C   UNL A   1      41.796  25.386  27.852  1.00  0.00     0.031 C 
ATOM     44  C   UNL A   1      46.409  24.055  26.338  1.00  0.00     0.029 A 
ATOM     45  N   UNL A   1      46.117  26.169  26.999  1.00  0.00    -0.354 N 
ATOM     46  C   UNL A   1      42.213  27.610  28.201  1.00  0.00     0.074 A 
ATOM     47  C   UNL A   1      41.243  26.537  28.216  1.00  0.00     0.031 C 
ATOM     48  C   UNL A   1      47.611  24.646  26.324  1.00  0.00     0.029 A 
ATOM     49  C   UNL A   1      47.455  26.042  26.715  1.00  0.00     0.049 A 
ATOM     50  H   UNL A   1      45.709  27.010  27.307  1.00  0.00     0.167 HD
ATOM     51  C   UNL A   1      41.952  28.888  28.566  1.00  0.00     0.037 A 
ATOM     52  C   UNL A   1      48.445  26.952  26.743  1.00  0.00     0.037 A 
ATOM     53  C   UNL A   1      42.934  29.942  28.575  1.00  0.00     0.049 A 
ATOM     54  C   UNL A   1      48.124  28.365  27.131  1.00  0.00     0.074 A 
ATOM     55  C   UNL A   1      42.767  31.273  28.921  1.00  0.00     0.029 A 
ATOM     56  N   UNL A   1      44.270  29.784  28.236  1.00  0.00    -0.354 N 
ATOM     57  N   UNL A   1      46.972  28.874  27.496  1.00  0.00    -0.248 NA
ATOM     58  C   UNL A   1      49.229  29.330  27.092  1.00  0.00     0.031 C 
ATOM     59  C   UNL A   1      43.997  31.923  28.768  1.00  0.00     0.029 A 
ATOM     60  C   UNL A   1      44.937  30.991  28.359  1.00  0.00     0.049 A 
ATOM     61  H   UNL A   1      44.682  28.937  27.949  1.00  0.00     0.167 HD
ATOM     62  C   UNL A   1      47.211  30.222  27.729  1.00  0.00     0.074 A 
ATOM     63  C   UNL A   1      48.625  30.443  27.486  1.00  0.00     0.031 C 
ATOM     64  C   UNL A   1      46.340  31.191  28.102  1.00  0.00     0.037 A 
BRANCH  51  65
ATOM     65  C   UNL A   1      40.546  29.230  28.972  1.00  0.00     0.058 A 
ATOM     66  C   UNL A   1      40.188  29.400  30.318  1.00  0.00     0.135 A 
ATOM     67  C   UNL A   1      39.558  29.452  27.998  1.00  0.00     0.135 A 
ATOM     68  F   UNL A   1      41.087  29.182  31.289  1.00  0.00    -0.206 F 
ATOM     69  C   UNL A   1      38.896  29.769  30.686  1.00  0.00     0.059 A 
ATOM     70  C   UNL A   1      38.266  29.840  28.341  1.00  0.00     0.059 A 
ATOM     71  F   UNL A   1      39.847  29.299  26.696  1.00  0.00    -0.206 F 
ATOM     72  C   UNL A   1      37.942  29.988  29.689  1.00  0.00     0.060 A 
BRANCH  72  73
ATOM     73  S   UNL A   1      36.278  30.486  30.181  1.00  0.00     0.124 S 
ATOM     74  O   UNL A   1      36.042  29.619  31.330  1.00  0.00    -0.237 OA
ATOM     75  O   UNL A   1      36.451  31.903  30.481  1.00  0.00    -0.237 OA
ATOM     76  O   UNL A   1      35.472  30.194  28.999  1.00  0.00    -0.744 OA
ENDBRANCH  72  73
ENDBRANCH  51  65
BRANCH  52  77
ATOM     77  C   UNL A   1      49.823  26.543  26.377  1.00  0.00     0.058 A 
ATOM     78  C   UNL A   1      50.664  25.926  27.313  1.00  0.00     0.135 A 
ATOM     79  C   UNL A   1      50.303  26.705  25.067  1.00  0.00     0.135 A 
ATOM     80  F   UNL A   1      50.250  25.756  28.577  1.00  0.00    -0.206 F 
ATOM     81  C   UNL A   1      51.932  25.477  26.964  1.00  0.00     0.059 A 
ATOM     82  C   UNL A   1      51.558  26.243  24.688  1.00  0.00     0.059 A 
ATOM     83  F   UNL A   1      49.526  27.275  24.133  1.00  0.00    -0.206 F 
ATOM     84  C   UNL A   1      52.367  25.634  25.646  1.00  0.00     0.060 A 
BRANCH  84  85
ATOM     85  S   UNL A   1      53.980  24.969  25.178  1.00  0.00     0.124 S 
ATOM     86  O   UNL A   1      53.657  23.570  24.924  1.00  0.00    -0.237 OA
ATOM     87  O   UNL A   1      54.317  25.770  24.007  1.00  0.00    -0.237 OA
ATOM     88  O   UNL A   1      54.801  25.225  26.358  1.00  0.00    -0.744 OA
ENDBRANCH  84  85
ENDBRANCH  52  77
BRANCH  64  89
ATOM     89  C   UNL A   1      46.896  32.573  28.273  1.00  0.00     0.058 A 
ATOM     90  C   UNL A   1      46.825  33.520  27.240  1.00  0.00     0.135 A 
ATOM     91  C   UNL A   1      47.478  32.962  29.489  1.00  0.00     0.135 A 
ATOM     92  F   UNL A   1      46.284  33.190  26.057  1.00  0.00    -0.206 F 
ATOM     93  C   UNL A   1      47.335  34.804  27.398  1.00  0.00     0.059 A 
ATOM     94  C   UNL A   1      47.977  34.247  29.677  1.00  0.00     0.059 A 
ATOM     95  F   UNL A   1      47.562  32.093  30.508  1.00  0.00    -0.206 F 
ATOM     96  C   UNL A   1      47.913  35.157  28.620  1.00  0.00     0.060 A 
BRANCH  96  97
ATOM     97  S   UNL A   1      48.558  36.831  28.821  1.00  0.00     0.124 S 
ATOM     98  O   UNL A   1      48.478  37.340  27.456  1.00  0.00    -0.237 OA
ATOM     99  O   UNL A   1      47.620  37.417  29.773  1.00  0.00    -0.237 OA
ATOM    100  O   UNL A   1      49.907  36.614  29.334  1.00  0.00    -0.744 OA
ENDBRANCH  96  97
ENDBRANCH  64  89
ENDBRANCH  38  39
ENDBRANCH  30  33
ENDBRANCH  28  29
ENDBRANCH  27  28
ENDBRANCH   1  27
TORSDOF 18
ENDMDL
MODEL 3
REMARK VINA RESULT:     -11.6      2.968      3.578
REMARK SMILES CC(C)CCc1cc2c(cc1Cl)C=C(C(=O)NCCCCNC(=O)c1ccc(-c3c4nc(c(-c5c(F)cc(S(=O)(=O)[O-])cc5F)c5ccc([nH]5)c(-c5c(F)cc(S(=O)(=O)[O-])cc5F)c5nc(c(-c6c(F)cc(S(=O)(=O)[O-])cc6F)c6ccc3[nH]6)C=C5)C=C4)cc1)[C@H](C(F)(F)F)O2
REMARK SMILES IDX 19 1 18 2 17 3 15 4 16 5 14 7 6 8 7 9 11 10 8 11 10 12 12 13
REMARK SMILES IDX 9 14 96 15 13 16 91 17 5 18 4 19 2 20 1 21 3 22 92 23 93 24
REMARK SMILES IDX 94 25 95 26 20 27 21 28 22 29 23 30 24 32 25 33 26 34 90 35
REMARK SMILES IDX 27 36 89 37 28 38 29 39 30 40 83 41 31 42 88 43 82 44 84 45
REMARK SMILES IDX 32 46 87 47 81 48 80 49 33 51 67 52 46 53 66 54 47 55 50 56
REMARK SMILES IDX 65 57 85 58 48 59 49 60 64 62 86 63 51 64 34 65 35 66 44 67
REMARK SMILES IDX 36 68 37 69 43 70 45 71 38 72 39 73 40 74 41 75 42 76 68 77
REMARK SMILES IDX 69 78 78 79 70 80 71 81 77 82 79 83 72 84 73 85 74 86 75 87
REMARK SMILES IDX 76 88 52 89 53 90 62 91 54 92 55 93 61 94 63 95 56 96 57 97
REMARK SMILES IDX 58 98 59 99 60 100
REMARK H PARENT 17 6 22 31 84 50 50 61
REMARK Flexibility Score: inf
ROOT
ATOM      1  C   UNL A   1      33.716  29.153  25.956  1.00  0.00     0.023 C 
ENDROOT
BRANCH   1   2
ATOM      2  C   UNL A   1      33.470  27.703  25.542  1.00  0.00     0.116 C 
BRANCH   2   3
ATOM      3  N   UNL A   1      32.895  27.619  24.214  1.00  0.00    -0.352 N 
ATOM      4  C   UNL A   1      32.487  26.624  23.393  1.00  0.00     0.251 C 
ATOM      5  O   UNL A   1      31.943  26.984  22.345  1.00  0.00    -0.270 OA
ATOM      6  H   UNL A   1      32.773  28.508  23.808  1.00  0.00     0.163 HD
BRANCH   4   7
ATOM      7  C   UNL A   1      32.645  25.167  23.674  1.00  0.00     0.067 C 
ATOM      8  C   UNL A   1      34.666  20.632  24.649  1.00  0.00    -0.026 A 
ATOM      9  C   UNL A   1      33.358  21.114  24.456  1.00  0.00     0.052 A 
ATOM     10  C   UNL A   1      35.732  21.533  24.489  1.00  0.00     0.045 A 
ATOM     11  C   UNL A   1      33.124  22.454  24.150  1.00  0.00     0.128 A 
ATOM     12  C   UNL A   1      35.491  22.879  24.184  1.00  0.00     0.032 A 
ATOM     13  Cl  UNL A   1      37.384  21.044  24.606  1.00  0.00    -0.084 Cl
ATOM     14  C   UNL A   1      34.185  23.342  24.012  1.00  0.00     0.019 A 
ATOM     15  O   UNL A   1      31.824  22.823  23.952  1.00  0.00    -0.475 OA
ATOM     16  C   UNL A   1      33.916  24.726  23.655  1.00  0.00     0.025 C 
ATOM     17  C   UNL A   1      31.526  24.245  24.083  1.00  0.00     0.314 C 
BRANCH   8  18
ATOM     18  C   UNL A   1      34.840  19.168  24.993  1.00  0.00     0.037 C 
BRANCH  18  19
ATOM     19  C   UNL A   1      34.286  18.155  23.980  1.00  0.00     0.008 C 
BRANCH  19  20
ATOM     20  C   UNL A   1      33.646  16.886  24.575  1.00  0.00    -0.017 C 
ATOM     21  C   UNL A   1      34.683  15.966  25.219  1.00  0.00     0.007 C 
ATOM     22  C   UNL A   1      32.588  17.281  25.608  1.00  0.00     0.007 C 
ENDBRANCH  19  20
ENDBRANCH  18  19
ENDBRANCH   8  18
BRANCH  17  23
ATOM     23  C   UNL A   1      30.970  24.525  25.489  1.00  0.00     0.429 C 
ATOM     24  F   UNL A   1      30.297  23.471  26.003  1.00  0.00    -0.167 F 
ATOM     25  F   UNL A   1      31.932  24.852  26.379  1.00  0.00    -0.167 F 
ATOM     26  F   UNL A   1      30.103  25.570  25.443  1.00  0.00    -0.167 F 
ENDBRANCH  17  23
ENDBRANCH   4   7
ENDBRANCH   2   3
ENDBRANCH   1   2
BRANCH   1  27
ATOM     27  C   UNL A   1      34.067  29.335  27.435  1.00  0.00     0.023 C 
BRANCH  27  28
ATOM     28  C   UNL A   1      35.236  30.274  27.707  1.00  0.00     0.116 C 
BRANCH  28  29
ATOM     29  N   UNL A   1      35.276  30.781  29.072  1.00  0.00    -0.352 N 
ATOM     30  C   UNL A   1      36.303  30.659  29.985  1.00  0.00     0.251 C 
ATOM     31  H   UNL A   1      34.477  31.268  29.379  1.00  0.00     0.163 HD
ATOM     32  O   UNL A   1      36.186  31.076  31.125  1.00  0.00    -0.269 OA
BRANCH  30  33
ATOM     33  C   UNL A   1      37.528  29.960  29.547  1.00  0.00     0.039 A 
ATOM     34  C   UNL A   1      38.336  29.328  30.494  1.00  0.00     0.014 A 
ATOM     35  C   UNL A   1      37.931  30.072  28.216  1.00  0.00     0.014 A 
ATOM     36  C   UNL A   1      39.626  28.958  30.141  1.00  0.00     0.010 A 
ATOM     37  C   UNL A   1      39.200  29.623  27.848  1.00  0.00     0.010 A 
ATOM     38  C   UNL A   1      40.075  29.111  28.819  1.00  0.00    -0.014 A 
BRANCH  38  39
ATOM     39  C   UNL A   1      41.471  28.743  28.476  1.00  0.00     0.031 A 
ATOM     40  C   UNL A   1      42.584  29.751  28.590  1.00  0.00     0.074 A 
ATOM     41  C   UNL A   1      41.738  27.475  28.113  1.00  0.00     0.049 A 
ATOM     42  N   UNL A   1      43.850  29.616  28.286  1.00  0.00    -0.248 NA
ATOM     43  C   UNL A   1      42.233  31.083  29.110  1.00  0.00     0.031 C 
ATOM     44  C   UNL A   1      40.743  26.405  27.996  1.00  0.00     0.029 A 
ATOM     45  N   UNL A   1      42.921  26.860  27.801  1.00  0.00    -0.354 N 
ATOM     46  C   UNL A   1      44.440  30.847  28.548  1.00  0.00     0.074 A 
ATOM     47  C   UNL A   1      43.393  31.723  29.028  1.00  0.00     0.031 C 
ATOM     48  C   UNL A   1      41.364  25.258  27.693  1.00  0.00     0.029 A 
ATOM     49  C   UNL A   1      42.788  25.523  27.519  1.00  0.00     0.049 A 
ATOM     50  H   UNL A   1      43.785  27.332  27.779  1.00  0.00     0.167 HD
ATOM     51  C   UNL A   1      45.738  31.208  28.402  1.00  0.00     0.037 A 
ATOM     52  C   UNL A   1      43.703  24.612  27.142  1.00  0.00     0.037 A 
ATOM     53  C   UNL A   1      46.778  30.318  27.953  1.00  0.00     0.049 A 
ATOM     54  C   UNL A   1      45.129  25.044  26.968  1.00  0.00     0.074 A 
ATOM     55  C   UNL A   1      48.123  30.590  27.764  1.00  0.00     0.029 A 
ATOM     56  N   UNL A   1      46.594  28.981  27.633  1.00  0.00    -0.354 N 
ATOM     57  N   UNL A   1      45.659  26.227  27.166  1.00  0.00    -0.248 NA
ATOM     58  C   UNL A   1      46.077  24.025  26.502  1.00  0.00     0.031 C 
ATOM     59  C   UNL A   1      48.746  29.423  27.308  1.00  0.00     0.029 A 
ATOM     60  C   UNL A   1      47.797  28.416  27.245  1.00  0.00     0.049 A 
ATOM     61  H   UNL A   1      45.734  28.505  27.676  1.00  0.00     0.167 HD
ATOM     62  C   UNL A   1      47.003  26.097  26.846  1.00  0.00     0.074 A 
ATOM     63  C   UNL A   1      47.210  24.713  26.465  1.00  0.00     0.031 C 
ATOM     64  C   UNL A   1      47.977  27.039  26.859  1.00  0.00     0.037 A 
BRANCH  51  65
ATOM     65  C   UNL A   1      46.112  32.629  28.716  1.00  0.00     0.058 A 
ATOM     66  C   UNL A   1      46.062  33.638  27.742  1.00  0.00     0.135 A 
ATOM     67  C   UNL A   1      46.467  32.999  30.025  1.00  0.00     0.135 A 
ATOM     68  F   UNL A   1      45.748  33.336  26.473  1.00  0.00    -0.206 F 
ATOM     69  C   UNL A   1      46.359  34.963  28.051  1.00  0.00     0.059 A 
ATOM     70  C   UNL A   1      46.749  34.321  30.361  1.00  0.00     0.059 A 
ATOM     71  F   UNL A   1      46.534  32.072  30.994  1.00  0.00    -0.206 F 
ATOM     72  C   UNL A   1      46.700  35.294  29.365  1.00  0.00     0.060 A 
BRANCH  72  73
ATOM     73  S   UNL A   1      47.063  37.020  29.754  1.00  0.00     0.124 S 
ATOM     74  O   UNL A   1      45.740  37.522  30.109  1.00  0.00    -0.237 OA
ATOM     75  O   UNL A   1      48.012  36.900  30.856  1.00  0.00    -0.237 OA
ATOM     76  O   UNL A   1      47.618  37.540  28.508  1.00  0.00    -0.744 OA
ENDBRANCH  72  73
ENDBRANCH  51  65
BRANCH  52  77
ATOM     77  C   UNL A   1      43.282  23.212  26.894  1.00  0.00     0.058 A 
ATOM     78  C   UNL A   1      43.191  22.708  25.590  1.00  0.00     0.135 A 
ATOM     79  C   UNL A   1      43.022  22.334  27.959  1.00  0.00     0.135 A 
ATOM     80  F   UNL A   1      43.425  23.512  24.542  1.00  0.00    -0.206 F 
ATOM     81  C   UNL A   1      42.863  21.379  25.347  1.00  0.00     0.059 A 
ATOM     82  C   UNL A   1      42.716  20.996  27.742  1.00  0.00     0.059 A 
ATOM     83  F   UNL A   1      43.114  22.768  29.226  1.00  0.00    -0.206 F 
ATOM     84  C   UNL A   1      42.635  20.528  26.431  1.00  0.00     0.060 A 
BRANCH  84  85
ATOM     85  S   UNL A   1      42.297  18.783  26.110  1.00  0.00     0.124 S 
ATOM     86  O   UNL A   1      40.881  18.819  25.762  1.00  0.00    -0.237 OA
ATOM     87  O   UNL A   1      43.217  18.486  25.018  1.00  0.00    -0.237 OA
ATOM     88  O   UNL A   1      42.620  18.143  27.382  1.00  0.00    -0.744 OA
ENDBRANCH  84  85
ENDBRANCH  52  77
BRANCH  64  89
ATOM     89  C   UNL A   1      49.352  26.599  26.453  1.00  0.00     0.058 A 
ATOM     90  C   UNL A   1      50.186  25.902  27.341  1.00  0.00     0.135 A 
ATOM     91  C   UNL A   1      49.829  26.852  25.158  1.00  0.00     0.135 A 
ATOM     92  F   UNL A   1      49.776  25.645  28.592  1.00  0.00    -0.206 F 
ATOM     93  C   UNL A   1      51.460  25.489  26.965  1.00  0.00     0.059 A 
ATOM     94  C   UNL A   1      51.091  26.431  24.753  1.00  0.00     0.059 A 
ATOM     95  F   UNL A   1      49.064  27.509  24.272  1.00  0.00    -0.206 F 
ATOM     96  C   UNL A   1      51.905  25.761  25.669  1.00  0.00     0.060 A 
BRANCH  96  97
ATOM     97  S   UNL A   1      53.553  25.207  25.186  1.00  0.00     0.124 S 
ATOM     98  O   UNL A   1      54.399  25.998  26.072  1.00  0.00    -0.237 OA
ATOM     99  O   UNL A   1      53.500  23.776  25.470  1.00  0.00    -0.237 OA
ATOM    100  O   UNL A   1      53.625  25.555  23.770  1.00  0.00    -0.744 OA
ENDBRANCH  96  97
ENDBRANCH  64  89
ENDBRANCH  38  39
ENDBRANCH  30  33
ENDBRANCH  28  29
ENDBRANCH  27  28
ENDBRANCH   1  27
TORSDOF 18
ENDMDL
