MODEL 1
REMARK VINA RESULT:     -10.9      0.000      0.000
REMARK SMILES CN(CCS(C)(=O)=O)S(=O)(=O)c1cc(C(=O)NCCCCNC(=O)c2ccc(-c3c4nc(c(-c5c(F)cc(S(=O)(=O)[O-])cc5F)c5ccc([nH]5)c(-c5c(F)cc(S(=O)(=O)[O-])cc5F)c5nc(c(-c6c(F)cc(S(=O)(=O)[O-])cc6F)c6ccc3[nH]6)C=C5)C=C4)cc2)ccc1F
REMARK SMILES IDX 18 1 17 2 15 3 16 4 14 6 12 7 13 8 93 9 92 10 94 11 91 12
REMARK SMILES IDX 9 13 10 14 11 15 2 16 1 17 3 18 4 19 5 20 6 21 7 22 8 23
REMARK SMILES IDX 19 24 20 25 21 26 22 27 23 28 24 30 25 31 26 32 90 33 27 34
REMARK SMILES IDX 89 35 28 36 29 37 30 38 83 39 31 40 88 41 82 42 84 43 32 44
REMARK SMILES IDX 87 45 81 46 80 47 33 49 67 50 46 51 66 52 47 53 50 54 65 55
REMARK SMILES IDX 85 56 48 57 49 58 64 60 86 61 51 62 34 63 35 64 44 65 36 66
REMARK SMILES IDX 37 67 43 68 45 69 38 70 39 71 40 72 41 73 42 74 68 75 69 76
REMARK SMILES IDX 78 77 70 78 71 79 77 80 79 81 72 82 73 83 74 84 75 85 76 86
REMARK SMILES IDX 52 87 53 88 62 89 54 90 55 91 61 92 63 93 56 94 57 95 58 96
REMARK SMILES IDX 59 97 60 98
REMARK H PARENT 17 5 22 29 84 48 50 59
REMARK Flexibility Score: inf
ROOT
ATOM      1  C   UNL A   1      35.240  20.800  25.037  1.00  0.00     0.116 C 
ENDROOT
BRANCH   1   2
ATOM      2  N   UNL A   1      33.828  20.532  25.231  1.00  0.00    -0.352 N 
ATOM      3  C   UNL A   1      32.691  21.180  24.825  1.00  0.00     0.251 C 
ATOM      4  O   UNL A   1      31.609  20.686  25.137  1.00  0.00    -0.269 OA
ATOM      5  H   UNL A   1      33.650  19.720  25.758  1.00  0.00     0.163 HD
BRANCH   3   6
ATOM      6  C   UNL A   1      32.691  22.437  24.021  1.00  0.00     0.041 A 
ATOM      7  C   UNL A   1      32.345  24.847  23.991  1.00  0.00     0.119 A 
ATOM      8  C   UNL A   1      32.312  23.625  24.676  1.00  0.00     0.038 A 
ATOM      9  C   UNL A   1      32.692  24.887  22.648  1.00  0.00     0.143 A 
ATOM     10  C   UNL A   1      33.109  23.730  22.004  1.00  0.00     0.041 A 
ATOM     11  F   UNL A   1      32.739  26.042  21.971  1.00  0.00    -0.206 F 
ATOM     12  C   UNL A   1      33.146  22.519  22.700  1.00  0.00     0.017 A 
BRANCH   7  13
ATOM     13  S   UNL A   1      32.093  26.370  24.836  1.00  0.00     0.245 S 
ATOM     14  O   UNL A   1      33.171  27.276  24.520  1.00  0.00    -0.207 OA
ATOM     15  O   UNL A   1      31.794  26.052  26.217  1.00  0.00    -0.207 OA
BRANCH  13  16
ATOM     16  N   UNL A   1      30.688  27.021  24.128  1.00  0.00    -0.200 NA
ATOM     17  C   UNL A   1      29.443  26.284  24.418  1.00  0.00     0.124 C 
BRANCH  16  18
ATOM     18  C   UNL A   1      30.527  28.476  23.865  1.00  0.00     0.118 C 
BRANCH  18  19
ATOM     19  C   UNL A   1      30.084  28.915  22.484  1.00  0.00     0.153 C 
BRANCH  19  20
ATOM     20  S   UNL A   1      28.597  29.897  22.386  1.00  0.00     0.148 S 
ATOM     21  C   UNL A   1      27.272  28.941  23.091  1.00  0.00     0.158 C 
ATOM     22  O   UNL A   1      28.800  31.032  23.270  1.00  0.00    -0.229 OA
ATOM     23  O   UNL A   1      28.278  30.107  20.992  1.00  0.00    -0.229 OA
ENDBRANCH  19  20
ENDBRANCH  18  19
ENDBRANCH  16  18
ENDBRANCH  13  16
ENDBRANCH   7  13
ENDBRANCH   3   6
ENDBRANCH   1   2
BRANCH   1  24
ATOM     24  C   UNL A   1      35.752  21.769  26.108  1.00  0.00     0.023 C 
BRANCH  24  25
ATOM     25  C   UNL A   1      35.781  23.235  25.660  1.00  0.00     0.023 C 
BRANCH  25  26
ATOM     26  C   UNL A   1      37.132  23.730  25.149  1.00  0.00     0.116 C 
BRANCH  26  27
ATOM     27  N   UNL A   1      38.218  22.792  25.393  1.00  0.00    -0.352 N 
ATOM     28  C   UNL A   1      39.379  22.987  26.101  1.00  0.00     0.251 C 
ATOM     29  H   UNL A   1      38.105  21.898  24.997  1.00  0.00     0.163 HD
ATOM     30  O   UNL A   1      40.241  22.114  26.115  1.00  0.00    -0.269 OA
BRANCH  28  31
ATOM     31  C   UNL A   1      39.598  24.268  26.805  1.00  0.00     0.039 A 
ATOM     32  C   UNL A   1      39.053  24.437  28.080  1.00  0.00     0.014 A 
ATOM     33  C   UNL A   1      40.363  25.284  26.225  1.00  0.00     0.014 A 
ATOM     34  C   UNL A   1      39.335  25.597  28.803  1.00  0.00     0.010 A 
ATOM     35  C   UNL A   1      40.699  26.409  26.974  1.00  0.00     0.010 A 
ATOM     36  C   UNL A   1      40.193  26.575  28.271  1.00  0.00    -0.014 A 
BRANCH  36  37
ATOM     37  C   UNL A   1      40.586  27.766  29.067  1.00  0.00     0.031 A 
ATOM     38  C   UNL A   1      41.917  27.807  29.765  1.00  0.00     0.074 A 
ATOM     39  C   UNL A   1      39.717  28.788  29.205  1.00  0.00     0.049 A 
ATOM     40  N   UNL A   1      42.410  28.735  30.544  1.00  0.00    -0.248 NA
ATOM     41  C   UNL A   1      42.801  26.643  29.584  1.00  0.00     0.031 C 
ATOM     42  C   UNL A   1      38.378  28.844  28.615  1.00  0.00     0.029 A 
ATOM     43  N   UNL A   1      39.827  29.974  29.887  1.00  0.00    -0.354 N 
ATOM     44  C   UNL A   1      43.654  28.267  30.950  1.00  0.00     0.074 A 
ATOM     45  C   UNL A   1      43.817  26.948  30.377  1.00  0.00     0.031 C 
ATOM     46  C   UNL A   1      37.805  30.016  28.932  1.00  0.00     0.029 A 
ATOM     47  C   UNL A   1      38.717  30.779  29.778  1.00  0.00     0.049 A 
ATOM     48  H   UNL A   1      40.625  30.224  30.406  1.00  0.00     0.167 HD
ATOM     49  C   UNL A   1      44.586  28.891  31.708  1.00  0.00     0.037 A 
ATOM     50  C   UNL A   1      38.462  31.995  30.300  1.00  0.00     0.037 A 
ATOM     51  C   UNL A   1      44.427  30.214  32.255  1.00  0.00     0.049 A 
ATOM     52  C   UNL A   1      39.511  32.667  31.143  1.00  0.00     0.074 A 
ATOM     53  C   UNL A   1      45.333  30.950  32.999  1.00  0.00     0.029 A 
ATOM     54  N   UNL A   1      43.292  30.999  32.117  1.00  0.00    -0.354 N 
ATOM     55  N   UNL A   1      40.701  32.228  31.478  1.00  0.00    -0.248 NA
ATOM     56  C   UNL A   1      39.187  33.998  31.673  1.00  0.00     0.031 C 
ATOM     57  C   UNL A   1      44.731  32.164  33.344  1.00  0.00     0.029 A 
ATOM     58  C   UNL A   1      43.469  32.206  32.773  1.00  0.00     0.049 A 
ATOM     59  H   UNL A   1      42.480  30.737  31.625  1.00  0.00     0.167 HD
ATOM     60  C   UNL A   1      41.278  33.239  32.238  1.00  0.00     0.074 A 
ATOM     61  C   UNL A   1      40.310  34.316  32.304  1.00  0.00     0.031 C 
ATOM     62  C   UNL A   1      42.499  33.272  32.826  1.00  0.00     0.037 A 
BRANCH  49  63
ATOM     63  C   UNL A   1      45.874  28.162  31.977  1.00  0.00     0.058 A 
ATOM     64  C   UNL A   1      46.023  27.370  33.127  1.00  0.00     0.135 A 
ATOM     65  C   UNL A   1      46.982  28.294  31.125  1.00  0.00     0.135 A 
ATOM     66  F   UNL A   1      44.995  27.203  33.973  1.00  0.00    -0.206 F 
ATOM     67  C   UNL A   1      47.229  26.745  33.427  1.00  0.00     0.059 A 
ATOM     68  C   UNL A   1      48.189  27.656  31.392  1.00  0.00     0.059 A 
ATOM     69  F   UNL A   1      46.887  29.022  30.001  1.00  0.00    -0.206 F 
ATOM     70  C   UNL A   1      48.308  26.895  32.554  1.00  0.00     0.060 A 
BRANCH  70  71
ATOM     71  S   UNL A   1      49.856  26.050  32.941  1.00  0.00     0.124 S 
ATOM     72  O   UNL A   1      49.873  24.985  31.946  1.00  0.00    -0.237 OA
ATOM     73  O   UNL A   1      50.840  27.114  32.755  1.00  0.00    -0.237 OA
ATOM     74  O   UNL A   1      49.668  25.620  34.324  1.00  0.00    -0.744 OA
ENDBRANCH  70  71
ENDBRANCH  49  63
BRANCH  50  75
ATOM     75  C   UNL A   1      37.169  32.668  30.000  1.00  0.00     0.058 A 
ATOM     76  C   UNL A   1      37.061  33.621  28.977  1.00  0.00     0.135 A 
ATOM     77  C   UNL A   1      36.026  32.399  30.768  1.00  0.00     0.135 A 
ATOM     78  F   UNL A   1      38.128  33.923  28.221  1.00  0.00    -0.206 F 
ATOM     79  C   UNL A   1      35.873  34.306  28.742  1.00  0.00     0.059 A 
ATOM     80  C   UNL A   1      34.819  33.052  30.537  1.00  0.00     0.059 A 
ATOM     81  F   UNL A   1      36.079  31.486  31.750  1.00  0.00    -0.206 F 
ATOM     82  C   UNL A   1      34.759  34.018  29.533  1.00  0.00     0.060 A 
BRANCH  82  83
ATOM     83  S   UNL A   1      33.234  34.938  29.231  1.00  0.00     0.124 S 
ATOM     84  O   UNL A   1      32.639  34.960  30.563  1.00  0.00    -0.237 OA
ATOM     85  O   UNL A   1      33.740  36.214  28.739  1.00  0.00    -0.237 OA
ATOM     86  O   UNL A   1      32.535  34.119  28.245  1.00  0.00    -0.744 OA
ENDBRANCH  82  83
ENDBRANCH  50  75
BRANCH  62  87
ATOM     87  C   UNL A   1      42.880  34.518  33.577  1.00  0.00     0.058 A 
ATOM     88  C   UNL A   1      43.555  35.561  32.923  1.00  0.00     0.135 A 
ATOM     89  C   UNL A   1      42.649  34.647  34.955  1.00  0.00     0.135 A 
ATOM     90  F   UNL A   1      43.807  35.485  31.606  1.00  0.00    -0.206 F 
ATOM     91  C   UNL A   1      44.006  36.681  33.613  1.00  0.00     0.059 A 
ATOM     92  C   UNL A   1      43.066  35.772  35.661  1.00  0.00     0.059 A 
ATOM     93  F   UNL A   1      41.997  33.683  35.623  1.00  0.00    -0.206 F 
ATOM     94  C   UNL A   1      43.758  36.776  34.983  1.00  0.00     0.060 A 
BRANCH  94  95
ATOM     95  S   UNL A   1      44.339  38.242  35.862  1.00  0.00     0.124 S 
ATOM     96  O   UNL A   1      43.781  39.318  35.050  1.00  0.00    -0.237 OA
ATOM     97  O   UNL A   1      43.742  38.068  37.183  1.00  0.00    -0.237 OA
ATOM     98  O   UNL A   1      45.792  38.111  35.817  1.00  0.00    -0.744 OA
ENDBRANCH  94  95
ENDBRANCH  62  87
ENDBRANCH  36  37
ENDBRANCH  28  31
ENDBRANCH  26  27
ENDBRANCH  25  26
ENDBRANCH  24  25
ENDBRANCH   1  24
TORSDOF 19
ENDMDL
MODEL 2
REMARK VINA RESULT:     -10.4      0.642      8.158
REMARK SMILES CN(CCS(C)(=O)=O)S(=O)(=O)c1cc(C(=O)NCCCCNC(=O)c2ccc(-c3c4nc(c(-c5c(F)cc(S(=O)(=O)[O-])cc5F)c5ccc([nH]5)c(-c5c(F)cc(S(=O)(=O)[O-])cc5F)c5nc(c(-c6c(F)cc(S(=O)(=O)[O-])cc6F)c6ccc3[nH]6)C=C5)C=C4)cc2)ccc1F
REMARK SMILES IDX 18 1 17 2 15 3 16 4 14 6 12 7 13 8 93 9 92 10 94 11 91 12
REMARK SMILES IDX 9 13 10 14 11 15 2 16 1 17 3 18 4 19 5 20 6 21 7 22 8 23
REMARK SMILES IDX 19 24 20 25 21 26 22 27 23 28 24 30 25 31 26 32 90 33 27 34
REMARK SMILES IDX 89 35 28 36 29 37 30 38 83 39 31 40 88 41 82 42 84 43 32 44
REMARK SMILES IDX 87 45 81 46 80 47 33 49 67 50 46 51 66 52 47 53 50 54 65 55
REMARK SMILES IDX 85 56 48 57 49 58 64 60 86 61 51 62 34 63 35 64 44 65 36 66
REMARK SMILES IDX 37 67 43 68 45 69 38 70 39 71 40 72 41 73 42 74 68 75 69 76
REMARK SMILES IDX 78 77 70 78 71 79 77 80 79 81 72 82 73 83 74 84 75 85 76 86
REMARK SMILES IDX 52 87 53 88 62 89 54 90 55 91 61 92 63 93 56 94 57 95 58 96
REMARK SMILES IDX 59 97 60 98
REMARK H PARENT 17 5 22 29 84 48 50 59
REMARK Flexibility Score: inf
ROOT
ATOM      1  C   UNL A   1      35.344  20.916  25.102  1.00  0.00     0.116 C 
ENDROOT
BRANCH   1   2
ATOM      2  N   UNL A   1      33.951  20.551  25.281  1.00  0.00    -0.352 N 
ATOM      3  C   UNL A   1      32.776  21.148  24.910  1.00  0.00     0.251 C 
ATOM      4  O   UNL A   1      31.727  20.572  25.196  1.00  0.00    -0.269 OA
ATOM      5  H   UNL A   1      33.826  19.704  25.767  1.00  0.00     0.163 HD
BRANCH   3   6
ATOM      6  C   UNL A   1      32.694  22.441  24.172  1.00  0.00     0.041 A 
ATOM      7  C   UNL A   1      32.160  24.815  24.255  1.00  0.00     0.119 A 
ATOM      8  C   UNL A   1      32.208  23.560  24.876  1.00  0.00     0.038 A 
ATOM      9  C   UNL A   1      32.534  24.953  22.926  1.00  0.00     0.143 A 
ATOM     10  C   UNL A   1      33.055  23.868  22.234  1.00  0.00     0.041 A 
ATOM     11  F   UNL A   1      32.505  26.143  22.310  1.00  0.00    -0.206 F 
ATOM     12  C   UNL A   1      33.172  22.628  22.869  1.00  0.00     0.017 A 
BRANCH   7  13
ATOM     13  S   UNL A   1      31.769  26.268  25.169  1.00  0.00     0.245 S 
ATOM     14  O   UNL A   1      32.904  27.159  25.158  1.00  0.00    -0.207 OA
ATOM     15  O   UNL A   1      31.194  25.841  26.428  1.00  0.00    -0.207 OA
BRANCH  13  16
ATOM     16  N   UNL A   1      30.547  27.027  24.258  1.00  0.00    -0.200 NA
ATOM     17  C   UNL A   1      29.230  26.361  24.303  1.00  0.00     0.124 C 
BRANCH  16  18
ATOM     18  C   UNL A   1      30.517  28.495  24.030  1.00  0.00     0.118 C 
BRANCH  18  19
ATOM     19  C   UNL A   1      29.969  29.010  22.715  1.00  0.00     0.153 C 
BRANCH  19  20
ATOM     20  S   UNL A   1      28.526  30.058  22.795  1.00  0.00     0.148 S 
ATOM     21  C   UNL A   1      28.253  30.725  21.168  1.00  0.00     0.158 C 
ATOM     22  O   UNL A   1      27.402  29.181  23.073  1.00  0.00    -0.229 OA
ATOM     23  O   UNL A   1      28.816  31.170  23.671  1.00  0.00    -0.229 OA
ENDBRANCH  19  20
ENDBRANCH  18  19
ENDBRANCH  16  18
ENDBRANCH  13  16
ENDBRANCH   7  13
ENDBRANCH   3   6
ENDBRANCH   1   2
BRANCH   1  24
ATOM     24  C   UNL A   1      35.781  21.908  26.184  1.00  0.00     0.023 C 
BRANCH  24  25
ATOM     25  C   UNL A   1      35.764  23.373  25.733  1.00  0.00     0.023 C 
BRANCH  25  26
ATOM     26  C   UNL A   1      37.116  23.932  25.296  1.00  0.00     0.116 C 
BRANCH  26  27
ATOM     27  N   UNL A   1      38.210  22.987  25.465  1.00  0.00    -0.352 N 
ATOM     28  C   UNL A   1      39.388  23.152  26.154  1.00  0.00     0.251 C 
ATOM     29  H   UNL A   1      38.091  22.115  25.026  1.00  0.00     0.163 HD
ATOM     30  O   UNL A   1      40.253  22.284  26.103  1.00  0.00    -0.269 OA
BRANCH  28  31
ATOM     31  C   UNL A   1      39.619  24.396  26.918  1.00  0.00     0.039 A 
ATOM     32  C   UNL A   1      39.074  24.511  28.199  1.00  0.00     0.014 A 
ATOM     33  C   UNL A   1      40.395  25.431  26.386  1.00  0.00     0.014 A 
ATOM     34  C   UNL A   1      39.367  25.633  28.975  1.00  0.00     0.010 A 
ATOM     35  C   UNL A   1      40.741  26.516  27.188  1.00  0.00     0.010 A 
ATOM     36  C   UNL A   1      40.236  26.626  28.490  1.00  0.00    -0.014 A 
BRANCH  36  37
ATOM     37  C   UNL A   1      40.640  27.774  29.342  1.00  0.00     0.031 A 
ATOM     38  C   UNL A   1      39.744  28.974  29.475  1.00  0.00     0.074 A 
ATOM     39  C   UNL A   1      41.842  27.756  29.954  1.00  0.00     0.049 A 
ATOM     40  N   UNL A   1      39.950  30.087  30.128  1.00  0.00    -0.248 NA
ATOM     41  C   UNL A   1      38.457  28.927  28.758  1.00  0.00     0.031 C 
ATOM     42  C   UNL A   1      42.819  26.669  29.863  1.00  0.00     0.029 A 
ATOM     43  N   UNL A   1      42.449  28.679  30.768  1.00  0.00    -0.354 N 
ATOM     44  C   UNL A   1      38.827  30.874  29.900  1.00  0.00     0.074 A 
ATOM     45  C   UNL A   1      37.968  30.134  29.001  1.00  0.00     0.031 C 
ATOM     46  C   UNL A   1      43.886  26.971  30.619  1.00  0.00     0.029 A 
ATOM     47  C   UNL A   1      43.689  28.288  31.217  1.00  0.00     0.049 A 
ATOM     48  H   UNL A   1      42.035  29.539  31.008  1.00  0.00     0.167 HD
ATOM     49  C   UNL A   1      38.528  32.090  30.415  1.00  0.00     0.037 A 
ATOM     50  C   UNL A   1      44.569  28.919  32.019  1.00  0.00     0.037 A 
ATOM     51  C   UNL A   1      39.377  32.811  31.328  1.00  0.00     0.049 A 
ATOM     52  C   UNL A   1      44.217  30.272  32.575  1.00  0.00     0.074 A 
ATOM     53  C   UNL A   1      39.141  34.030  31.939  1.00  0.00     0.029 A 
ATOM     54  N   UNL A   1      40.621  32.380  31.764  1.00  0.00    -0.354 N 
ATOM     55  N   UNL A   1      43.129  30.981  32.385  1.00  0.00    -0.248 NA
ATOM     56  C   UNL A   1      45.205  30.907  33.457  1.00  0.00     0.031 C 
ATOM     57  C   UNL A   1      40.260  34.354  32.713  1.00  0.00     0.029 A 
ATOM     58  C   UNL A   1      41.171  33.315  32.624  1.00  0.00     0.049 A 
ATOM     59  H   UNL A   1      41.050  31.534  31.500  1.00  0.00     0.167 HD
ATOM     60  C   UNL A   1      43.292  32.135  33.142  1.00  0.00     0.074 A 
ATOM     61  C   UNL A   1      44.577  32.024  33.802  1.00  0.00     0.031 C 
ATOM     62  C   UNL A   1      42.451  33.189  33.279  1.00  0.00     0.037 A 
BRANCH  49  63
ATOM     63  C   UNL A   1      37.218  32.715  30.020  1.00  0.00     0.058 A 
ATOM     64  C   UNL A   1      37.168  33.712  29.033  1.00  0.00     0.135 A 
ATOM     65  C   UNL A   1      36.019  32.368  30.662  1.00  0.00     0.135 A 
ATOM     66  F   UNL A   1      38.283  34.079  28.382  1.00  0.00    -0.206 F 
ATOM     67  C   UNL A   1      35.976  34.350  28.705  1.00  0.00     0.059 A 
ATOM     68  C   UNL A   1      34.811  32.973  30.331  1.00  0.00     0.059 A 
ATOM     69  F   UNL A   1      36.007  31.405  31.598  1.00  0.00    -0.206 F 
ATOM     70  C   UNL A   1      34.802  33.975  29.361  1.00  0.00     0.060 A 
BRANCH  70  71
ATOM     71  S   UNL A   1      33.257  34.789  28.899  1.00  0.00     0.124 S 
ATOM     72  O   UNL A   1      33.738  36.031  28.307  1.00  0.00    -0.237 OA
ATOM     73  O   UNL A   1      32.668  33.825  27.972  1.00  0.00    -0.237 OA
ATOM     74  O   UNL A   1      32.555  34.927  30.173  1.00  0.00    -0.744 OA
ENDBRANCH  70  71
ENDBRANCH  49  63
BRANCH  50  75
ATOM     75  C   UNL A   1      45.850  28.252  32.374  1.00  0.00     0.058 A 
ATOM     76  C   UNL A   1      47.000  28.409  31.586  1.00  0.00     0.135 A 
ATOM     77  C   UNL A   1      45.932  27.404  33.489  1.00  0.00     0.135 A 
ATOM     78  F   UNL A   1      46.971  29.199  30.503  1.00  0.00    -0.206 F 
ATOM     79  C   UNL A   1      48.179  27.728  31.874  1.00  0.00     0.059 A 
ATOM     80  C   UNL A   1      47.107  26.731  33.812  1.00  0.00     0.059 A 
ATOM     81  F   UNL A   1      44.861  27.231  34.279  1.00  0.00    -0.206 F 
ATOM     82  C   UNL A   1      48.219  26.886  32.987  1.00  0.00     0.060 A 
BRANCH  82  83
ATOM     83  S   UNL A   1      49.750  25.990  33.327  1.00  0.00     0.124 S 
ATOM     84  O   UNL A   1      50.284  26.744  34.455  1.00  0.00    -0.237 OA
ATOM     85  O   UNL A   1      49.258  24.651  33.631  1.00  0.00    -0.237 OA
ATOM     86  O   UNL A   1      50.497  26.112  32.079  1.00  0.00    -0.744 OA
ENDBRANCH  82  83
ENDBRANCH  50  75
BRANCH  62  87
ATOM     87  C   UNL A   1      42.872  34.305  34.194  1.00  0.00     0.058 A 
ATOM     88  C   UNL A   1      43.660  35.361  33.708  1.00  0.00     0.135 A 
ATOM     89  C   UNL A   1      42.564  34.292  35.563  1.00  0.00     0.135 A 
ATOM     90  F   UNL A   1      43.989  35.419  32.407  1.00  0.00    -0.206 F 
ATOM     91  C   UNL A   1      44.145  36.355  34.552  1.00  0.00     0.059 A 
ATOM     92  C   UNL A   1      43.015  35.291  36.421  1.00  0.00     0.059 A 
ATOM     93  F   UNL A   1      41.804  33.310  36.073  1.00  0.00    -0.206 F 
ATOM     94  C   UNL A   1      43.819  36.309  35.908  1.00  0.00     0.060 A 
BRANCH  94  95
ATOM     95  S   UNL A   1      44.447  37.613  36.988  1.00  0.00     0.124 S 
ATOM     96  O   UNL A   1      43.525  37.537  38.116  1.00  0.00    -0.237 OA
ATOM     97  O   UNL A   1      45.812  37.166  37.251  1.00  0.00    -0.237 OA
ATOM     98  O   UNL A   1      44.336  38.814  36.167  1.00  0.00    -0.744 OA
ENDBRANCH  94  95
ENDBRANCH  62  87
ENDBRANCH  36  37
ENDBRANCH  28  31
ENDBRANCH  26  27
ENDBRANCH  25  26
ENDBRANCH  24  25
ENDBRANCH   1  24
TORSDOF 19
ENDMDL
MODEL 3
REMARK VINA RESULT:     -10.4      3.036      8.773
REMARK SMILES CN(CCS(C)(=O)=O)S(=O)(=O)c1cc(C(=O)NCCCCNC(=O)c2ccc(-c3c4nc(c(-c5c(F)cc(S(=O)(=O)[O-])cc5F)c5ccc([nH]5)c(-c5c(F)cc(S(=O)(=O)[O-])cc5F)c5nc(c(-c6c(F)cc(S(=O)(=O)[O-])cc6F)c6ccc3[nH]6)C=C5)C=C4)cc2)ccc1F
REMARK SMILES IDX 18 1 17 2 15 3 16 4 14 6 12 7 13 8 93 9 92 10 94 11 91 12
REMARK SMILES IDX 9 13 10 14 11 15 2 16 1 17 3 18 4 19 5 20 6 21 7 22 8 23
REMARK SMILES IDX 19 24 20 25 21 26 22 27 23 28 24 30 25 31 26 32 90 33 27 34
REMARK SMILES IDX 89 35 28 36 29 37 30 38 83 39 31 40 88 41 82 42 84 43 32 44
REMARK SMILES IDX 87 45 81 46 80 47 33 49 67 50 46 51 66 52 47 53 50 54 65 55
REMARK SMILES IDX 85 56 48 57 49 58 64 60 86 61 51 62 34 63 35 64 44 65 36 66
REMARK SMILES IDX 37 67 43 68 45 69 38 70 39 71 40 72 41 73 42 74 68 75 69 76
REMARK SMILES IDX 78 77 70 78 71 79 77 80 79 81 72 82 73 83 74 84 75 85 76 86
REMARK SMILES IDX 52 87 53 88 62 89 54 90 55 91 61 92 63 93 56 94 57 95 58 96
REMARK SMILES IDX 59 97 60 98
REMARK H PARENT 17 5 22 29 84 48 50 59
REMARK Flexibility Score: inf
ROOT
ATOM      1  C   UNL A   1      36.776  23.622  24.284  1.00  0.00     0.116 C 
ENDROOT
BRANCH   1   2
ATOM      2  N   UNL A   1      35.601  22.914  23.814  1.00  0.00    -0.352 N 
ATOM      3  C   UNL A   1      34.258  23.173  23.902  1.00  0.00     0.251 C 
ATOM      4  O   UNL A   1      33.486  22.374  23.375  1.00  0.00    -0.269 OA
ATOM      5  H   UNL A   1      35.809  22.079  23.336  1.00  0.00     0.163 HD
BRANCH   3   6
ATOM      6  C   UNL A   1      33.684  24.369  24.583  1.00  0.00     0.041 A 
ATOM      7  C   UNL A   1      33.160  26.744  24.454  1.00  0.00     0.119 A 
ATOM      8  C   UNL A   1      33.733  25.596  23.892  1.00  0.00     0.038 A 
ATOM      9  C   UNL A   1      32.595  26.695  25.720  1.00  0.00     0.143 A 
ATOM     10  C   UNL A   1      32.502  25.485  26.394  1.00  0.00     0.041 A 
ATOM     11  F   UNL A   1      32.034  27.776  26.279  1.00  0.00    -0.206 F 
ATOM     12  C   UNL A   1      33.008  24.321  25.809  1.00  0.00     0.017 A 
BRANCH   7  13
ATOM     13  S   UNL A   1      33.009  28.232  23.527  1.00  0.00     0.245 S 
ATOM     14  O   UNL A   1      33.819  28.138  22.336  1.00  0.00    -0.207 OA
ATOM     15  O   UNL A   1      33.198  29.333  24.448  1.00  0.00    -0.207 OA
BRANCH  13  16
ATOM     16  N   UNL A   1      31.386  28.247  23.010  1.00  0.00    -0.200 NA
ATOM     17  C   UNL A   1      31.008  27.144  22.106  1.00  0.00     0.124 C 
BRANCH  16  18
ATOM     18  C   UNL A   1      30.288  28.798  23.847  1.00  0.00     0.118 C 
BRANCH  18  19
ATOM     19  C   UNL A   1      29.676  30.126  23.452  1.00  0.00     0.153 C 
BRANCH  19  20
ATOM     20  S   UNL A   1      28.064  30.079  22.687  1.00  0.00     0.148 S 
ATOM     21  C   UNL A   1      27.303  28.532  23.127  1.00  0.00     0.158 C 
ATOM     22  O   UNL A   1      27.279  31.120  23.328  1.00  0.00    -0.229 OA
ATOM     23  O   UNL A   1      28.238  30.078  21.252  1.00  0.00    -0.229 OA
ENDBRANCH  19  20
ENDBRANCH  18  19
ENDBRANCH  16  18
ENDBRANCH  13  16
ENDBRANCH   7  13
ENDBRANCH   3   6
ENDBRANCH   1   2
BRANCH   1  24
ATOM     24  C   UNL A   1      36.990  23.370  25.780  1.00  0.00     0.023 C 
BRANCH  24  25
ATOM     25  C   UNL A   1      38.336  22.717  26.117  1.00  0.00     0.023 C 
BRANCH  25  26
ATOM     26  C   UNL A   1      39.311  23.604  26.887  1.00  0.00     0.116 C 
BRANCH  26  27
ATOM     27  N   UNL A   1      40.512  23.929  26.133  1.00  0.00    -0.352 N 
ATOM     28  C   UNL A   1      41.322  25.033  26.241  1.00  0.00     0.251 C 
ATOM     29  H   UNL A   1      40.779  23.269  25.453  1.00  0.00     0.163 HD
ATOM     30  O   UNL A   1      42.241  25.199  25.445  1.00  0.00    -0.269 OA
BRANCH  28  31
ATOM     31  C   UNL A   1      41.052  26.036  27.293  1.00  0.00     0.039 A 
ATOM     32  C   UNL A   1      40.049  25.776  28.230  1.00  0.00     0.014 A 
ATOM     33  C   UNL A   1      41.806  27.211  27.374  1.00  0.00     0.014 A 
ATOM     34  C   UNL A   1      39.849  26.662  29.290  1.00  0.00     0.010 A 
ATOM     35  C   UNL A   1      41.650  28.057  28.470  1.00  0.00     0.010 A 
ATOM     36  C   UNL A   1      40.675  27.789  29.440  1.00  0.00    -0.014 A 
BRANCH  36  37
ATOM     37  C   UNL A   1      40.544  28.684  30.618  1.00  0.00     0.031 A 
ATOM     38  C   UNL A   1      39.525  29.790  30.622  1.00  0.00     0.074 A 
ATOM     39  C   UNL A   1      41.382  28.532  31.664  1.00  0.00     0.049 A 
ATOM     40  N   UNL A   1      39.301  30.700  31.534  1.00  0.00    -0.248 NA
ATOM     41  C   UNL A   1      38.662  29.905  29.434  1.00  0.00     0.031 C 
ATOM     42  C   UNL A   1      42.442  27.526  31.757  1.00  0.00     0.029 A 
ATOM     43  N   UNL A   1      41.478  29.224  32.845  1.00  0.00    -0.354 N 
ATOM     44  C   UNL A   1      38.278  31.496  31.032  1.00  0.00     0.074 A 
ATOM     45  C   UNL A   1      37.965  30.997  29.710  1.00  0.00     0.031 C 
ATOM     46  C   UNL A   1      43.058  27.644  32.944  1.00  0.00     0.029 A 
ATOM     47  C   UNL A   1      42.466  28.756  33.681  1.00  0.00     0.049 A 
ATOM     48  H   UNL A   1      40.896  29.984  33.073  1.00  0.00     0.167 HD
ATOM     49  C   UNL A   1      37.640  32.529  31.629  1.00  0.00     0.037 A 
ATOM     50  C   UNL A   1      42.851  29.174  34.902  1.00  0.00     0.037 A 
ATOM     51  C   UNL A   1      37.941  33.006  32.956  1.00  0.00     0.049 A 
ATOM     52  C   UNL A   1      42.131  30.329  35.544  1.00  0.00     0.074 A 
ATOM     53  C   UNL A   1      37.320  34.019  33.665  1.00  0.00     0.029 A 
ATOM     54  N   UNL A   1      38.942  32.502  33.772  1.00  0.00    -0.354 N 
ATOM     55  N   UNL A   1      41.135  31.040  35.072  1.00  0.00    -0.248 NA
ATOM     56  C   UNL A   1      42.581  30.733  36.883  1.00  0.00     0.031 C 
ATOM     57  C   UNL A   1      37.973  34.154  34.894  1.00  0.00     0.029 A 
ATOM     58  C   UNL A   1      38.967  33.192  34.972  1.00  0.00     0.049 A 
ATOM     59  H   UNL A   1      39.548  31.762  33.533  1.00  0.00     0.167 HD
ATOM     60  C   UNL A   1      40.823  31.962  36.066  1.00  0.00     0.074 A 
ATOM     61  C   UNL A   1      41.729  31.709  37.168  1.00  0.00     0.031 C 
ATOM     62  C   UNL A   1      39.871  32.927  36.064  1.00  0.00     0.037 A 
BRANCH  49  63
ATOM     63  C   UNL A   1      36.538  33.209  30.865  1.00  0.00     0.058 A 
ATOM     64  C   UNL A   1      36.832  34.118  29.836  1.00  0.00     0.135 A 
ATOM     65  C   UNL A   1      35.187  33.003  31.190  1.00  0.00     0.135 A 
ATOM     66  F   UNL A   1      38.105  34.348  29.479  1.00  0.00    -0.206 F 
ATOM     67  C   UNL A   1      35.827  34.808  29.166  1.00  0.00     0.059 A 
ATOM     68  C   UNL A   1      34.164  33.662  30.515  1.00  0.00     0.059 A 
ATOM     69  F   UNL A   1      34.849  32.129  32.151  1.00  0.00    -0.206 F 
ATOM     70  C   UNL A   1      34.495  34.574  29.513  1.00  0.00     0.060 A 
BRANCH  70  71
ATOM     71  S   UNL A   1      33.201  35.452  28.611  1.00  0.00     0.124 S 
ATOM     72  O   UNL A   1      33.979  36.364  27.782  1.00  0.00    -0.237 OA
ATOM     73  O   UNL A   1      32.528  34.364  27.905  1.00  0.00    -0.237 OA
ATOM     74  O   UNL A   1      32.415  36.077  29.671  1.00  0.00    -0.744 OA
ENDBRANCH  70  71
ENDBRANCH  49  63
BRANCH  50  75
ATOM     75  C   UNL A   1      43.950  28.464  35.611  1.00  0.00     0.058 A 
ATOM     76  C   UNL A   1      45.295  28.794  35.392  1.00  0.00     0.135 A 
ATOM     77  C   UNL A   1      43.670  27.405  36.488  1.00  0.00     0.135 A 
ATOM     78  F   UNL A   1      45.617  29.791  34.553  1.00  0.00    -0.206 F 
ATOM     79  C   UNL A   1      46.327  28.084  35.996  1.00  0.00     0.059 A 
ATOM     80  C   UNL A   1      44.684  26.695  37.124  1.00  0.00     0.059 A 
ATOM     81  F   UNL A   1      42.397  27.061  36.737  1.00  0.00    -0.206 F 
ATOM     82  C   UNL A   1      46.010  27.031  36.856  1.00  0.00     0.060 A 
BRANCH  82  83
ATOM     83  S   UNL A   1      47.365  26.102  37.609  1.00  0.00     0.124 S 
ATOM     84  O   UNL A   1      48.040  25.567  36.431  1.00  0.00    -0.237 OA
ATOM     85  O   UNL A   1      48.083  27.144  38.335  1.00  0.00    -0.237 OA
ATOM     86  O   UNL A   1      46.679  25.119  38.441  1.00  0.00    -0.744 OA
ENDBRANCH  82  83
ENDBRANCH  50  75
BRANCH  62  87
ATOM     87  C   UNL A   1      39.734  33.775  37.298  1.00  0.00     0.058 A 
ATOM     88  C   UNL A   1      38.838  33.407  38.315  1.00  0.00     0.135 A 
ATOM     89  C   UNL A   1      40.426  34.988  37.439  1.00  0.00     0.135 A 
ATOM     90  F   UNL A   1      38.146  32.260  38.227  1.00  0.00    -0.206 F 
ATOM     91  C   UNL A   1      38.619  34.222  39.420  1.00  0.00     0.059 A 
ATOM     92  C   UNL A   1      40.243  35.806  38.550  1.00  0.00     0.059 A 
ATOM     93  F   UNL A   1      41.302  35.378  36.499  1.00  0.00    -0.206 F 
ATOM     94  C   UNL A   1      39.325  35.421  39.527  1.00  0.00     0.060 A 
BRANCH  94  95
ATOM     95  S   UNL A   1      39.038  36.461  40.975  1.00  0.00     0.124 S 
ATOM     96  O   UNL A   1      40.374  36.544  41.554  1.00  0.00    -0.237 OA
ATOM     97  O   UNL A   1      38.528  37.691  40.375  1.00  0.00    -0.237 OA
ATOM     98  O   UNL A   1      38.063  35.701  41.751  1.00  0.00    -0.744 OA
ENDBRANCH  94  95
ENDBRANCH  62  87
ENDBRANCH  36  37
ENDBRANCH  28  31
ENDBRANCH  26  27
ENDBRANCH  25  26
ENDBRANCH  24  25
ENDBRANCH   1  24
TORSDOF 19
ENDMDL
