MODEL 1
REMARK VINA RESULT:     -12.5      0.000      0.000
REMARK SMILES CCN(CC)c1ccc([C@@H]2[NH2+][C@@H](C(=O)NCCCCNC(=O)c3ccc(-c4c5nc(c(-c6c(F)cc(S(=O)(=O)[O-])cc6F)c6ccc([nH]6)c(-c6c(F)cc(S(=O)(=O)[O-])cc6F)c6nc(c(-c7c(F)cc(S(=O)(=O)[O-])cc7F)c7ccc4[nH]7)C=C6)C=C5)cc3)Cc3c2[nH]c2ccccc32)cc1
REMARK SMILES IDX 17 1 16 2 15 3 13 4 14 5 12 7 10 8 11 9 91 10 90 13 92 14
REMARK SMILES IDX 89 15 98 16 93 17 97 19 94 20 96 21 95 22 9 23 6 24 7 25
REMARK SMILES IDX 100 26 8 27 99 28 3 29 2 30 1 31 4 32 5 33 18 34 19 35 20 36
REMARK SMILES IDX 21 37 22 39 23 40 24 41 88 42 25 43 87 44 26 45 27 46 28 47
REMARK SMILES IDX 81 48 29 49 86 50 80 51 82 52 30 53 85 54 79 55 78 56 31 58
REMARK SMILES IDX 65 59 44 60 64 61 45 62 48 63 63 64 83 65 46 66 47 67 62 69
REMARK SMILES IDX 84 70 49 71 32 72 33 73 42 74 34 75 35 76 41 77 43 78 36 79
REMARK SMILES IDX 37 80 38 81 39 82 40 83 66 84 67 85 76 86 68 87 69 88 75 89
REMARK SMILES IDX 77 90 70 91 71 92 72 93 73 94 74 95 50 96 51 97 60 98 52 99
REMARK SMILES IDX 53 100 59 101 61 102 54 103 55 104 56 105 57 106 58 107
REMARK H PARENT 15 6 11 11 11 12 92 18 20 38 82 57 48 68
REMARK Flexibility Score: inf
ROOT
ATOM      1  C   UNL A   1      31.299  27.623  26.106  1.00  0.00     0.023 C 
ENDROOT
BRANCH   1   2
ATOM      2  C   UNL A   1      32.017  28.145  24.864  1.00  0.00     0.116 C 
BRANCH   2   3
ATOM      3  N   UNL A   1      31.160  28.156  23.696  1.00  0.00    -0.351 N 
ATOM      4  C   UNL A   1      31.163  27.327  22.607  1.00  0.00     0.278 C 
ATOM      5  O   UNL A   1      30.471  27.667  21.640  1.00  0.00    -0.268 OA
ATOM      6  H   UNL A   1      30.474  28.862  23.684  1.00  0.00     0.163 HD
BRANCH   4   7
ATOM      7  C   UNL A   1      31.941  25.983  22.568  1.00  0.00     0.277 C 
ATOM      8  C   UNL A   1      31.857  24.358  24.571  1.00  0.00     0.262 C 
ATOM      9  N   UNL A   1      31.217  24.971  23.375  1.00  0.00    -0.325 N 
ATOM     10  C   UNL A   1      33.282  24.783  24.653  1.00  0.00     0.083 A 
ATOM     11  H   UNL A   1      30.358  25.416  23.699  1.00  0.00     0.347 HD
ATOM     12  H   UNL A   1      31.133  24.183  22.733  1.00  0.00     0.347 HD
ATOM     13  C   UNL A   1      34.084  25.185  23.612  1.00  0.00    -0.006 A 
ATOM     14  N   UNL A   1      34.150  24.871  25.712  1.00  0.00    -0.353 N 
ATOM     15  C   UNL A   1      33.490  26.081  22.596  1.00  0.00     0.114 C 
ATOM     16  C   UNL A   1      35.172  24.301  23.831  1.00  0.00     0.003 A 
ATOM     17  C   UNL A   1      35.354  24.389  25.220  1.00  0.00     0.046 A 
ATOM     18  H   UNL A   1      33.960  25.202  26.619  1.00  0.00     0.166 HD
ATOM     19  C   UNL A   1      35.952  23.352  23.138  1.00  0.00     0.010 A 
ATOM     20  C   UNL A   1      36.459  23.878  25.897  1.00  0.00     0.026 A 
ATOM     21  C   UNL A   1      36.890  22.598  23.876  1.00  0.00     0.001 A 
ATOM     22  C   UNL A   1      37.194  22.918  25.204  1.00  0.00     0.002 A 
BRANCH   8  23
ATOM     23  C   UNL A   1      31.676  22.826  24.381  1.00  0.00     0.016 A 
ATOM     24  C   UNL A   1      32.485  20.107  24.126  1.00  0.00     0.037 A 
ATOM     25  C   UNL A   1      31.951  20.607  25.317  1.00  0.00     0.026 A 
ATOM     26  C   UNL A   1      32.364  20.937  23.009  1.00  0.00     0.026 A 
ATOM     27  C   UNL A   1      31.535  21.938  25.446  1.00  0.00     0.012 A 
ATOM     28  C   UNL A   1      31.925  22.260  23.119  1.00  0.00     0.012 A 
BRANCH  24  29
ATOM     29  N   UNL A   1      33.119  18.875  24.049  1.00  0.00    -0.372 N 
BRANCH  29  30
ATOM     30  C   UNL A   1      32.722  17.906  23.009  1.00  0.00     0.113 C 
ATOM     31  C   UNL A   1      33.797  16.884  22.670  1.00  0.00     0.027 C 
ENDBRANCH  29  30
BRANCH  29  32
ATOM     32  C   UNL A   1      34.400  18.657  24.727  1.00  0.00     0.113 C 
ATOM     33  C   UNL A   1      35.172  19.938  25.025  1.00  0.00     0.027 C 
ENDBRANCH  29  32
ENDBRANCH  24  29
ENDBRANCH   8  23
ENDBRANCH   4   7
ENDBRANCH   2   3
ENDBRANCH   1   2
BRANCH   1  34
ATOM     34  C   UNL A   1      32.054  27.804  27.425  1.00  0.00     0.023 C 
BRANCH  34  35
ATOM     35  C   UNL A   1      33.428  28.468  27.320  1.00  0.00     0.116 C 
BRANCH  35  36
ATOM     36  N   UNL A   1      33.406  29.888  27.650  1.00  0.00    -0.352 N 
ATOM     37  C   UNL A   1      34.368  30.689  28.210  1.00  0.00     0.251 C 
ATOM     38  H   UNL A   1      32.563  30.347  27.436  1.00  0.00     0.163 HD
ATOM     39  O   UNL A   1      34.067  31.843  28.541  1.00  0.00    -0.269 OA
BRANCH  37  40
ATOM     40  C   UNL A   1      35.742  30.196  28.445  1.00  0.00     0.039 A 
ATOM     41  C   UNL A   1      36.659  30.210  27.389  1.00  0.00     0.014 A 
ATOM     42  C   UNL A   1      36.132  29.700  29.691  1.00  0.00     0.014 A 
ATOM     43  C   UNL A   1      37.979  29.804  27.603  1.00  0.00     0.010 A 
ATOM     44  C   UNL A   1      37.467  29.369  29.925  1.00  0.00     0.010 A 
ATOM     45  C   UNL A   1      38.408  29.422  28.885  1.00  0.00    -0.014 A 
BRANCH  45  46
ATOM     46  C   UNL A   1      39.834  29.094  29.158  1.00  0.00     0.031 A 
ATOM     47  C   UNL A   1      40.765  30.137  29.719  1.00  0.00     0.074 A 
ATOM     48  C   UNL A   1      40.310  27.875  28.833  1.00  0.00     0.049 A 
ATOM     49  N   UNL A   1      42.049  30.055  29.957  1.00  0.00    -0.248 NA
ATOM     50  C   UNL A   1      40.181  31.452  30.028  1.00  0.00     0.031 C 
ATOM     51  C   UNL A   1      39.525  26.793  28.234  1.00  0.00     0.029 A 
ATOM     52  N   UNL A   1      41.571  27.342  28.946  1.00  0.00    -0.354 N 
ATOM     53  C   UNL A   1      42.429  31.307  30.428  1.00  0.00     0.074 A 
ATOM     54  C   UNL A   1      41.250  32.145  30.392  1.00  0.00     0.031 C 
ATOM     55  C   UNL A   1      40.315  25.723  28.051  1.00  0.00     0.029 A 
ATOM     56  C   UNL A   1      41.672  26.052  28.478  1.00  0.00     0.049 A 
ATOM     57  H   UNL A   1      42.333  27.837  29.327  1.00  0.00     0.167 HD
ATOM     58  C   UNL A   1      43.644  31.715  30.869  1.00  0.00     0.037 A 
ATOM     59  C   UNL A   1      42.736  25.230  28.387  1.00  0.00     0.037 A 
ATOM     60  C   UNL A   1      44.810  30.869  30.919  1.00  0.00     0.049 A 
ATOM     61  C   UNL A   1      44.076  25.706  28.879  1.00  0.00     0.074 A 
ATOM     62  C   UNL A   1      46.069  31.170  31.411  1.00  0.00     0.029 A 
ATOM     63  N   UNL A   1      44.866  29.563  30.455  1.00  0.00    -0.354 N 
ATOM     64  N   UNL A   1      44.400  26.869  29.392  1.00  0.00    -0.248 NA
ATOM     65  C   UNL A   1      45.194  24.757  28.789  1.00  0.00     0.031 C 
ATOM     66  C   UNL A   1      46.900  30.067  31.192  1.00  0.00     0.029 A 
ATOM     67  C   UNL A   1      46.145  29.055  30.623  1.00  0.00     0.049 A 
ATOM     68  H   UNL A   1      44.109  29.070  30.065  1.00  0.00     0.167 HD
ATOM     69  C   UNL A   1      45.751  26.782  29.711  1.00  0.00     0.074 A 
ATOM     70  C   UNL A   1      46.180  25.448  29.346  1.00  0.00     0.031 C 
ATOM     71  C   UNL A   1      46.561  27.722  30.258  1.00  0.00     0.037 A 
BRANCH  58  72
ATOM     72  C   UNL A   1      43.780  33.143  31.329  1.00  0.00     0.058 A 
ATOM     73  C   UNL A   1      43.594  33.509  32.673  1.00  0.00     0.135 A 
ATOM     74  C   UNL A   1      44.137  34.154  30.421  1.00  0.00     0.135 A 
ATOM     75  F   UNL A   1      43.240  32.589  33.582  1.00  0.00    -0.206 F 
ATOM     76  C   UNL A   1      43.724  34.829  33.092  1.00  0.00     0.059 A 
ATOM     77  C   UNL A   1      44.304  35.476  30.825  1.00  0.00     0.059 A 
ATOM     78  F   UNL A   1      44.330  33.863  29.125  1.00  0.00    -0.206 F 
ATOM     79  C   UNL A   1      44.080  35.806  32.160  1.00  0.00     0.060 A 
BRANCH  79  80
ATOM     80  S   UNL A   1      44.245  37.514  32.723  1.00  0.00     0.124 S 
ATOM     81  O   UNL A   1      44.137  38.246  31.465  1.00  0.00    -0.237 OA
ATOM     82  O   UNL A   1      43.114  37.652  33.635  1.00  0.00    -0.237 OA
ATOM     83  O   UNL A   1      45.561  37.540  33.352  1.00  0.00    -0.744 OA
ENDBRANCH  79  80
ENDBRANCH  58  72
BRANCH  59  84
ATOM     84  C   UNL A   1      42.571  23.864  27.819  1.00  0.00     0.058 A 
ATOM     85  C   UNL A   1      42.572  23.650  26.433  1.00  0.00     0.135 A 
ATOM     86  C   UNL A   1      42.428  22.742  28.652  1.00  0.00     0.135 A 
ATOM     87  F   UNL A   1      42.697  24.690  25.594  1.00  0.00    -0.206 F 
ATOM     88  C   UNL A   1      42.425  22.377  25.890  1.00  0.00     0.059 A 
ATOM     89  C   UNL A   1      42.308  21.457  28.134  1.00  0.00     0.059 A 
ATOM     90  F   UNL A   1      42.436  22.889  29.986  1.00  0.00    -0.206 F 
ATOM     91  C   UNL A   1      42.299  21.285  26.751  1.00  0.00     0.060 A 
BRANCH  91  92
ATOM     92  S   UNL A   1      42.167  19.631  26.036  1.00  0.00     0.124 S 
ATOM     93  O   UNL A   1      42.613  18.796  27.143  1.00  0.00    -0.237 OA
ATOM     94  O   UNL A   1      40.746  19.554  25.708  1.00  0.00    -0.237 OA
ATOM     95  O   UNL A   1      43.065  19.690  24.886  1.00  0.00    -0.744 OA
ENDBRANCH  91  92
ENDBRANCH  59  84
BRANCH  71  96
ATOM     96  C   UNL A   1      47.991  27.335  30.533  1.00  0.00     0.058 A 
ATOM     97  C   UNL A   1      48.352  26.586  31.663  1.00  0.00     0.135 A 
ATOM     98  C   UNL A   1      49.004  27.676  29.622  1.00  0.00     0.135 A 
ATOM     99  F   UNL A   1      47.425  26.238  32.569  1.00  0.00    -0.206 F 
ATOM    100  C   UNL A   1      49.672  26.208  31.893  1.00  0.00     0.059 A 
ATOM    101  C   UNL A   1      50.325  27.283  29.816  1.00  0.00     0.059 A 
ATOM    102  F   UNL A   1      48.714  28.384  28.519  1.00  0.00    -0.206 F 
ATOM    103  C   UNL A   1      50.651  26.559  30.961  1.00  0.00     0.060 A 
BRANCH 103 104
ATOM    104  S   UNL A   1      52.353  26.034  31.255  1.00  0.00     0.124 S 
ATOM    105  O   UNL A   1      52.155  24.732  31.882  1.00  0.00    -0.237 OA
ATOM    106  O   UNL A   1      52.909  26.010  29.906  1.00  0.00    -0.237 OA
ATOM    107  O   UNL A   1      52.886  27.076  32.128  1.00  0.00    -0.744 OA
ENDBRANCH 103 104
ENDBRANCH  71  96
ENDBRANCH  45  46
ENDBRANCH  37  40
ENDBRANCH  35  36
ENDBRANCH  34  35
ENDBRANCH   1  34
TORSDOF 18
ENDMDL
MODEL 2
REMARK VINA RESULT:     -12.1      2.877      9.477
REMARK SMILES CCN(CC)c1ccc([C@@H]2[NH2+][C@@H](C(=O)NCCCCNC(=O)c3ccc(-c4c5nc(c(-c6c(F)cc(S(=O)(=O)[O-])cc6F)c6ccc([nH]6)c(-c6c(F)cc(S(=O)(=O)[O-])cc6F)c6nc(c(-c7c(F)cc(S(=O)(=O)[O-])cc7F)c7ccc4[nH]7)C=C6)C=C5)cc3)Cc3c2[nH]c2ccccc32)cc1
REMARK SMILES IDX 17 1 16 2 15 3 13 4 14 5 12 7 10 8 11 9 91 10 90 13 92 14
REMARK SMILES IDX 89 15 98 16 93 17 97 19 94 20 96 21 95 22 9 23 6 24 7 25
REMARK SMILES IDX 100 26 8 27 99 28 3 29 2 30 1 31 4 32 5 33 18 34 19 35 20 36
REMARK SMILES IDX 21 37 22 39 23 40 24 41 88 42 25 43 87 44 26 45 27 46 28 47
REMARK SMILES IDX 81 48 29 49 86 50 80 51 82 52 30 53 85 54 79 55 78 56 31 58
REMARK SMILES IDX 65 59 44 60 64 61 45 62 48 63 63 64 83 65 46 66 47 67 62 69
REMARK SMILES IDX 84 70 49 71 32 72 33 73 42 74 34 75 35 76 41 77 43 78 36 79
REMARK SMILES IDX 37 80 38 81 39 82 40 83 66 84 67 85 76 86 68 87 69 88 75 89
REMARK SMILES IDX 77 90 70 91 71 92 72 93 73 94 74 95 50 96 51 97 60 98 52 99
REMARK SMILES IDX 53 100 59 101 61 102 54 103 55 104 56 105 57 106 58 107
REMARK H PARENT 15 6 11 11 11 12 92 18 20 38 82 57 48 68
REMARK Flexibility Score: inf
ROOT
ATOM      1  C   UNL A   1      34.836  22.800  26.059  1.00  0.00     0.023 C 
ENDROOT
BRANCH   1   2
ATOM      2  C   UNL A   1      33.983  22.658  24.800  1.00  0.00     0.116 C 
BRANCH   2   3
ATOM      3  N   UNL A   1      32.777  21.890  25.035  1.00  0.00    -0.351 N 
ATOM      4  C   UNL A   1      31.550  22.311  25.469  1.00  0.00     0.278 C 
ATOM      5  O   UNL A   1      30.739  21.436  25.796  1.00  0.00    -0.268 OA
ATOM      6  H   UNL A   1      32.851  20.925  24.857  1.00  0.00     0.163 HD
BRANCH   4   7
ATOM      7  C   UNL A   1      31.132  23.807  25.510  1.00  0.00     0.277 C 
ATOM      8  C   UNL A   1      32.080  25.482  23.790  1.00  0.00     0.262 C 
ATOM      9  N   UNL A   1      31.159  24.363  24.136  1.00  0.00    -0.325 N 
ATOM     10  C   UNL A   1      32.740  25.990  25.024  1.00  0.00     0.083 A 
ATOM     11  H   UNL A   1      31.392  23.591  23.512  1.00  0.00     0.347 HD
ATOM     12  H   UNL A   1      30.238  24.790  24.042  1.00  0.00     0.347 HD
ATOM     13  C   UNL A   1      32.263  25.904  26.310  1.00  0.00    -0.006 A 
ATOM     14  N   UNL A   1      33.923  26.659  25.218  1.00  0.00    -0.353 N 
ATOM     15  C   UNL A   1      31.636  24.632  26.725  1.00  0.00     0.114 C 
ATOM     16  C   UNL A   1      32.359  27.276  26.661  1.00  0.00     0.003 A 
ATOM     17  C   UNL A   1      33.628  27.623  26.171  1.00  0.00     0.046 A 
ATOM     18  H   UNL A   1      34.787  26.492  24.779  1.00  0.00     0.166 HD
ATOM     19  C   UNL A   1      31.565  28.317  27.185  1.00  0.00     0.010 A 
ATOM     20  C   UNL A   1      34.284  28.813  26.474  1.00  0.00     0.026 A 
ATOM     21  C   UNL A   1      32.116  29.615  27.228  1.00  0.00     0.001 A 
ATOM     22  C   UNL A   1      33.472  29.837  26.961  1.00  0.00     0.002 A 
BRANCH   8  23
ATOM     23  C   UNL A   1      31.180  26.538  23.087  1.00  0.00     0.016 A 
ATOM     24  C   UNL A   1      29.700  28.957  22.828  1.00  0.00     0.037 A 
ATOM     25  C   UNL A   1      30.965  28.802  22.252  1.00  0.00     0.026 A 
ATOM     26  C   UNL A   1      29.105  27.790  23.313  1.00  0.00     0.026 A 
ATOM     27  C   UNL A   1      31.692  27.611  22.360  1.00  0.00     0.012 A 
ATOM     28  C   UNL A   1      29.811  26.586  23.402  1.00  0.00     0.012 A 
BRANCH  24  29
ATOM     29  N   UNL A   1      29.075  30.191  22.940  1.00  0.00    -0.372 N 
BRANCH  29  30
ATOM     30  C   UNL A   1      27.795  30.433  22.246  1.00  0.00     0.113 C 
ATOM     31  C   UNL A   1      27.947  30.842  20.788  1.00  0.00     0.027 C 
ENDBRANCH  29  30
BRANCH  29  32
ATOM     32  C   UNL A   1      29.457  31.124  24.004  1.00  0.00     0.113 C 
ATOM     33  C   UNL A   1      29.157  32.585  23.686  1.00  0.00     0.027 C 
ENDBRANCH  29  32
ENDBRANCH  24  29
ENDBRANCH   8  23
ENDBRANCH   4   7
ENDBRANCH   2   3
ENDBRANCH   1   2
BRANCH   1  34
ATOM     34  C   UNL A   1      35.899  23.899  26.012  1.00  0.00     0.023 C 
BRANCH  34  35
ATOM     35  C   UNL A   1      36.981  23.732  24.943  1.00  0.00     0.116 C 
BRANCH  35  36
ATOM     36  N   UNL A   1      38.003  22.758  25.307  1.00  0.00    -0.352 N 
ATOM     37  C   UNL A   1      39.153  22.902  26.039  1.00  0.00     0.251 C 
ATOM     38  H   UNL A   1      37.840  21.847  24.973  1.00  0.00     0.163 HD
ATOM     39  O   UNL A   1      39.952  21.958  26.091  1.00  0.00    -0.269 OA
BRANCH  37  40
ATOM     40  C   UNL A   1      39.466  24.163  26.745  1.00  0.00     0.039 A 
ATOM     41  C   UNL A   1      39.001  24.344  28.052  1.00  0.00     0.014 A 
ATOM     42  C   UNL A   1      40.196  25.180  26.125  1.00  0.00     0.014 A 
ATOM     43  C   UNL A   1      39.334  25.503  28.759  1.00  0.00     0.010 A 
ATOM     44  C   UNL A   1      40.593  26.300  26.856  1.00  0.00     0.010 A 
ATOM     45  C   UNL A   1      40.171  26.473  28.183  1.00  0.00    -0.014 A 
BRANCH  45  46
ATOM     46  C   UNL A   1      40.629  27.659  28.958  1.00  0.00     0.031 A 
ATOM     47  C   UNL A   1      41.971  27.654  29.643  1.00  0.00     0.074 A 
ATOM     48  C   UNL A   1      39.804  28.716  29.106  1.00  0.00     0.049 A 
ATOM     49  N   UNL A   1      42.507  28.564  30.415  1.00  0.00    -0.248 NA
ATOM     50  C   UNL A   1      42.807  26.458  29.458  1.00  0.00     0.031 C 
ATOM     51  C   UNL A   1      38.459  28.823  28.537  1.00  0.00     0.029 A 
ATOM     52  N   UNL A   1      39.968  29.896  29.788  1.00  0.00    -0.354 N 
ATOM     53  C   UNL A   1      43.733  28.047  30.819  1.00  0.00     0.074 A 
ATOM     54  C   UNL A   1      43.837  26.722  30.249  1.00  0.00     0.031 C 
ATOM     55  C   UNL A   1      37.929  30.009  28.877  1.00  0.00     0.029 A 
ATOM     56  C   UNL A   1      38.875  30.730  29.723  1.00  0.00     0.049 A 
ATOM     57  H   UNL A   1      40.791  30.124  30.280  1.00  0.00     0.167 HD
ATOM     58  C   UNL A   1      44.692  28.631  31.579  1.00  0.00     0.037 A 
ATOM     59  C   UNL A   1      38.651  31.932  30.290  1.00  0.00     0.037 A 
ATOM     60  C   UNL A   1      44.588  29.960  32.127  1.00  0.00     0.049 A 
ATOM     61  C   UNL A   1      39.729  32.559  31.132  1.00  0.00     0.074 A 
ATOM     62  C   UNL A   1      45.533  30.664  32.854  1.00  0.00     0.029 A 
ATOM     63  N   UNL A   1      43.475  30.780  32.022  1.00  0.00    -0.354 N 
ATOM     64  N   UNL A   1      40.913  32.087  31.440  1.00  0.00    -0.248 NA
ATOM     65  C   UNL A   1      39.446  33.886  31.697  1.00  0.00     0.031 C 
ATOM     66  C   UNL A   1      44.970  31.886  33.235  1.00  0.00     0.029 A 
ATOM     67  C   UNL A   1      43.698  31.972  32.693  1.00  0.00     0.049 A 
ATOM     68  H   UNL A   1      42.648  30.550  31.540  1.00  0.00     0.167 HD
ATOM     69  C   UNL A   1      41.527  33.069  32.212  1.00  0.00     0.074 A 
ATOM     70  C   UNL A   1      40.587  34.167  32.310  1.00  0.00     0.031 C 
ATOM     71  C   UNL A   1      42.757  33.061  32.783  1.00  0.00     0.037 A 
BRANCH  58  72
ATOM     72  C   UNL A   1      45.938  27.836  31.866  1.00  0.00     0.058 A 
ATOM     73  C   UNL A   1      47.037  27.837  30.990  1.00  0.00     0.135 A 
ATOM     74  C   UNL A   1      46.052  27.093  33.053  1.00  0.00     0.135 A 
ATOM     75  F   UNL A   1      46.981  28.518  29.836  1.00  0.00    -0.206 F 
ATOM     76  C   UNL A   1      48.186  27.103  31.263  1.00  0.00     0.059 A 
ATOM     77  C   UNL A   1      47.206  26.378  33.362  1.00  0.00     0.059 A 
ATOM     78  F   UNL A   1      45.036  27.057  33.929  1.00  0.00    -0.206 F 
ATOM     79  C   UNL A   1      48.262  26.377  32.453  1.00  0.00     0.060 A 
BRANCH  79  80
ATOM     80  S   UNL A   1      49.763  25.431  32.791  1.00  0.00     0.124 S 
ATOM     81  O   UNL A   1      50.286  25.225  31.444  1.00  0.00    -0.237 OA
ATOM     82  O   UNL A   1      50.526  26.349  33.632  1.00  0.00    -0.237 OA
ATOM     83  O   UNL A   1      49.268  24.234  33.462  1.00  0.00    -0.744 OA
ENDBRANCH  79  80
ENDBRANCH  58  72
BRANCH  59  84
ATOM     84  C   UNL A   1      37.355  32.628  30.064  1.00  0.00     0.058 A 
ATOM     85  C   UNL A   1      36.229  32.333  30.848  1.00  0.00     0.135 A 
ATOM     86  C   UNL A   1      37.221  33.615  29.075  1.00  0.00     0.135 A 
ATOM     87  F   UNL A   1      36.303  31.392  31.801  1.00  0.00    -0.206 F 
ATOM     88  C   UNL A   1      35.013  32.981  30.651  1.00  0.00     0.059 A 
ATOM     89  C   UNL A   1      36.024  34.297  28.878  1.00  0.00     0.059 A 
ATOM     90  F   UNL A   1      38.272  33.946  28.308  1.00  0.00    -0.206 F 
ATOM     91  C   UNL A   1      34.923  33.966  29.666  1.00  0.00     0.060 A 
BRANCH  91  92
ATOM     92  S   UNL A   1      33.356  34.842  29.459  1.00  0.00     0.124 S 
ATOM     93  O   UNL A   1      33.793  36.081  28.828  1.00  0.00    -0.237 OA
ATOM     94  O   UNL A   1      32.604  33.922  28.610  1.00  0.00    -0.237 OA
ATOM     95  O   UNL A   1      32.860  34.968  30.826  1.00  0.00    -0.744 OA
ENDBRANCH  91  92
ENDBRANCH  59  84
BRANCH  71  96
ATOM     96  C   UNL A   1      43.180  34.292  33.540  1.00  0.00     0.058 A 
ATOM     97  C   UNL A   1      43.844  35.358  32.913  1.00  0.00     0.135 A 
ATOM     98  C   UNL A   1      42.869  34.428  34.903  1.00  0.00     0.135 A 
ATOM     99  F   UNL A   1      44.171  35.279  31.613  1.00  0.00    -0.206 F 
ATOM    100  C   UNL A   1      44.206  36.504  33.614  1.00  0.00     0.059 A 
ATOM    101  C   UNL A   1      43.193  35.577  35.617  1.00  0.00     0.059 A 
ATOM    102  F   UNL A   1      42.226  33.444  35.553  1.00  0.00    -0.206 F 
ATOM    103  C   UNL A   1      43.872  36.605  34.967  1.00  0.00     0.060 A 
BRANCH 103 104
ATOM    104  S   UNL A   1      44.318  38.111  35.857  1.00  0.00     0.124 S 
ATOM    105  O   UNL A   1      43.772  39.143  34.982  1.00  0.00    -0.237 OA
ATOM    106  O   UNL A   1      43.631  37.934  37.133  1.00  0.00    -0.237 OA
ATOM    107  O   UNL A   1      45.775  38.051  35.923  1.00  0.00    -0.744 OA
ENDBRANCH 103 104
ENDBRANCH  71  96
ENDBRANCH  45  46
ENDBRANCH  37  40
ENDBRANCH  35  36
ENDBRANCH  34  35
ENDBRANCH   1  34
TORSDOF 18
ENDMDL
MODEL 3
REMARK VINA RESULT:     -11.7      0.456      7.920
REMARK SMILES CCN(CC)c1ccc([C@@H]2[NH2+][C@@H](C(=O)NCCCCNC(=O)c3ccc(-c4c5nc(c(-c6c(F)cc(S(=O)(=O)[O-])cc6F)c6ccc([nH]6)c(-c6c(F)cc(S(=O)(=O)[O-])cc6F)c6nc(c(-c7c(F)cc(S(=O)(=O)[O-])cc7F)c7ccc4[nH]7)C=C6)C=C5)cc3)Cc3c2[nH]c2ccccc32)cc1
REMARK SMILES IDX 17 1 16 2 15 3 13 4 14 5 12 7 10 8 11 9 91 10 90 13 92 14
REMARK SMILES IDX 89 15 98 16 93 17 97 19 94 20 96 21 95 22 9 23 6 24 7 25
REMARK SMILES IDX 100 26 8 27 99 28 3 29 2 30 1 31 4 32 5 33 18 34 19 35 20 36
REMARK SMILES IDX 21 37 22 39 23 40 24 41 88 42 25 43 87 44 26 45 27 46 28 47
REMARK SMILES IDX 81 48 29 49 86 50 80 51 82 52 30 53 85 54 79 55 78 56 31 58
REMARK SMILES IDX 65 59 44 60 64 61 45 62 48 63 63 64 83 65 46 66 47 67 62 69
REMARK SMILES IDX 84 70 49 71 32 72 33 73 42 74 34 75 35 76 41 77 43 78 36 79
REMARK SMILES IDX 37 80 38 81 39 82 40 83 66 84 67 85 76 86 68 87 69 88 75 89
REMARK SMILES IDX 77 90 70 91 71 92 72 93 73 94 74 95 50 96 51 97 60 98 52 99
REMARK SMILES IDX 53 100 59 101 61 102 54 103 55 104 56 105 57 106 58 107
REMARK H PARENT 15 6 11 11 11 12 92 18 20 38 82 57 48 68
REMARK Flexibility Score: inf
ROOT
ATOM      1  C   UNL A   1      31.610  27.294  26.021  1.00  0.00     0.023 C 
ENDROOT
BRANCH   1   2
ATOM      2  C   UNL A   1      32.170  28.039  24.811  1.00  0.00     0.116 C 
BRANCH   2   3
ATOM      3  N   UNL A   1      31.269  28.002  23.677  1.00  0.00    -0.351 N 
ATOM      4  C   UNL A   1      31.243  27.140  22.615  1.00  0.00     0.278 C 
ATOM      5  O   UNL A   1      30.510  27.441  21.665  1.00  0.00    -0.268 OA
ATOM      6  H   UNL A   1      30.574  28.699  23.670  1.00  0.00     0.163 HD
BRANCH   4   7
ATOM      7  C   UNL A   1      32.036  25.805  22.587  1.00  0.00     0.277 C 
ATOM      8  C   UNL A   1      31.977  24.200  24.607  1.00  0.00     0.262 C 
ATOM      9  N   UNL A   1      31.327  24.793  23.406  1.00  0.00    -0.325 N 
ATOM     10  C   UNL A   1      33.397  24.643  24.680  1.00  0.00     0.083 A 
ATOM     11  H   UNL A   1      30.464  25.231  23.728  1.00  0.00     0.347 HD
ATOM     12  H   UNL A   1      31.250  23.998  22.773  1.00  0.00     0.347 HD
ATOM     13  C   UNL A   1      34.191  25.044  23.633  1.00  0.00    -0.006 A 
ATOM     14  N   UNL A   1      34.266  24.752  25.737  1.00  0.00    -0.353 N 
ATOM     15  C   UNL A   1      33.584  25.922  22.611  1.00  0.00     0.114 C 
ATOM     16  C   UNL A   1      35.291  24.176  23.859  1.00  0.00     0.003 A 
ATOM     17  C   UNL A   1      35.475  24.279  25.247  1.00  0.00     0.046 A 
ATOM     18  H   UNL A   1      34.075  25.090  26.641  1.00  0.00     0.166 HD
ATOM     19  C   UNL A   1      36.080  23.229  23.173  1.00  0.00     0.010 A 
ATOM     20  C   UNL A   1      36.587  23.788  25.926  1.00  0.00     0.026 A 
ATOM     21  C   UNL A   1      37.029  22.494  23.916  1.00  0.00     0.001 A 
ATOM     22  C   UNL A   1      37.333  22.830  25.240  1.00  0.00     0.002 A 
BRANCH   8  23
ATOM     23  C   UNL A   1      31.814  22.663  24.433  1.00  0.00     0.016 A 
ATOM     24  C   UNL A   1      32.657  19.961  24.123  1.00  0.00     0.037 A 
ATOM     25  C   UNL A   1      32.202  20.454  25.349  1.00  0.00     0.026 A 
ATOM     26  C   UNL A   1      32.439  20.785  23.017  1.00  0.00     0.026 A 
ATOM     27  C   UNL A   1      31.770  21.776  25.506  1.00  0.00     0.012 A 
ATOM     28  C   UNL A   1      31.982  22.100  23.157  1.00  0.00     0.012 A 
BRANCH  24  29
ATOM     29  N   UNL A   1      33.310  18.742  24.002  1.00  0.00    -0.372 N 
BRANCH  29  30
ATOM     30  C   UNL A   1      34.620  18.541  24.652  1.00  0.00     0.113 C 
ATOM     31  C   UNL A   1      35.388  19.829  24.912  1.00  0.00     0.027 C 
ENDBRANCH  29  30
BRANCH  29  32
ATOM     32  C   UNL A   1      32.581  17.550  23.561  1.00  0.00     0.113 C 
ATOM     33  C   UNL A   1      33.267  16.235  23.914  1.00  0.00     0.027 C 
ENDBRANCH  29  32
ENDBRANCH  24  29
ENDBRANCH   8  23
ENDBRANCH   4   7
ENDBRANCH   2   3
ENDBRANCH   1   2
BRANCH   1  34
ATOM     34  C   UNL A   1      32.264  27.635  27.362  1.00  0.00     0.023 C 
BRANCH  34  35
ATOM     35  C   UNL A   1      33.617  28.346  27.281  1.00  0.00     0.116 C 
BRANCH  35  36
ATOM     36  N   UNL A   1      33.546  29.758  27.637  1.00  0.00    -0.352 N 
ATOM     37  C   UNL A   1      34.486  30.588  28.191  1.00  0.00     0.251 C 
ATOM     38  H   UNL A   1      32.680  30.187  27.448  1.00  0.00     0.163 HD
ATOM     39  O   UNL A   1      34.147  31.723  28.549  1.00  0.00    -0.269 OA
BRANCH  37  40
ATOM     40  C   UNL A   1      35.883  30.146  28.390  1.00  0.00     0.039 A 
ATOM     41  C   UNL A   1      36.774  30.206  27.313  1.00  0.00     0.014 A 
ATOM     42  C   UNL A   1      36.321  29.655  29.622  1.00  0.00     0.014 A 
ATOM     43  C   UNL A   1      38.113  29.849  27.493  1.00  0.00     0.010 A 
ATOM     44  C   UNL A   1      37.673  29.374  29.822  1.00  0.00     0.010 A 
ATOM     45  C   UNL A   1      38.587  29.472  28.761  1.00  0.00    -0.014 A 
BRANCH  45  46
ATOM     46  C   UNL A   1      40.030  29.198  28.999  1.00  0.00     0.031 A 
ATOM     47  C   UNL A   1      40.619  27.853  28.660  1.00  0.00     0.074 A 
ATOM     48  C   UNL A   1      40.798  30.137  29.587  1.00  0.00     0.049 A 
ATOM     49  N   UNL A   1      41.834  27.410  28.858  1.00  0.00    -0.248 NA
ATOM     50  C   UNL A   1      39.716  26.869  28.042  1.00  0.00     0.031 C 
ATOM     51  C   UNL A   1      40.337  31.461  30.011  1.00  0.00     0.029 A 
ATOM     52  N   UNL A   1      42.125  30.122  29.943  1.00  0.00    -0.354 N 
ATOM     53  C   UNL A   1      41.839  26.096  28.406  1.00  0.00     0.074 A 
ATOM     54  C   UNL A   1      40.492  25.797  27.971  1.00  0.00     0.031 C 
ATOM     55  C   UNL A   1      41.365  32.135  30.551  1.00  0.00     0.029 A 
ATOM     56  C   UNL A   1      42.549  31.280  30.552  1.00  0.00     0.049 A 
ATOM     57  H   UNL A   1      42.718  29.352  29.778  1.00  0.00     0.167 HD
ATOM     58  C   UNL A   1      42.875  25.224  28.340  1.00  0.00     0.037 A 
ATOM     59  C   UNL A   1      43.748  31.615  31.067  1.00  0.00     0.037 A 
ATOM     60  C   UNL A   1      44.219  25.535  28.757  1.00  0.00     0.049 A 
ATOM     61  C   UNL A   1      44.883  30.630  30.986  1.00  0.00     0.074 A 
ATOM     62  C   UNL A   1      45.351  24.743  28.669  1.00  0.00     0.029 A 
ATOM     63  N   UNL A   1      44.612  26.727  29.350  1.00  0.00    -0.354 N 
ATOM     64  N   UNL A   1      44.887  29.418  30.485  1.00  0.00    -0.248 NA
ATOM     65  C   UNL A   1      46.178  31.059  31.531  1.00  0.00     0.031 C 
ATOM     66  C   UNL A   1      46.415  25.432  29.259  1.00  0.00     0.029 A 
ATOM     67  C   UNL A   1      45.963  26.679  29.658  1.00  0.00     0.049 A 
ATOM     68  H   UNL A   1      44.020  27.492  29.525  1.00  0.00     0.167 HD
ATOM     69  C   UNL A   1      46.190  28.950  30.630  1.00  0.00     0.074 A 
ATOM     70  C   UNL A   1      46.947  30.016  31.252  1.00  0.00     0.031 C 
ATOM     71  C   UNL A   1      46.709  27.748  30.276  1.00  0.00     0.037 A 
BRANCH  58  72
ATOM     72  C   UNL A   1      42.598  23.845  27.799  1.00  0.00     0.058 A 
ATOM     73  C   UNL A   1      42.358  22.751  28.648  1.00  0.00     0.135 A 
ATOM     74  C   UNL A   1      42.534  23.622  26.414  1.00  0.00     0.135 A 
ATOM     75  F   UNL A   1      42.418  22.901  29.979  1.00  0.00    -0.206 F 
ATOM     76  C   UNL A   1      42.099  21.481  28.142  1.00  0.00     0.059 A 
ATOM     77  C   UNL A   1      42.244  22.367  25.887  1.00  0.00     0.059 A 
ATOM     78  F   UNL A   1      42.751  24.631  25.555  1.00  0.00    -0.206 F 
ATOM     79  C   UNL A   1      42.044  21.299  26.759  1.00  0.00     0.060 A 
BRANCH  79  80
ATOM     80  S   UNL A   1      41.706  19.644  26.121  1.00  0.00     0.124 S 
ATOM     81  O   UNL A   1      42.072  18.812  27.263  1.00  0.00    -0.237 OA
ATOM     82  O   UNL A   1      40.279  19.712  25.821  1.00  0.00    -0.237 OA
ATOM     83  O   UNL A   1      42.584  19.539  24.961  1.00  0.00    -0.744 OA
ENDBRANCH  79  80
ENDBRANCH  58  72
BRANCH  59  84
ATOM     84  C   UNL A   1      43.939  32.952  31.693  1.00  0.00     0.058 A 
ATOM     85  C   UNL A   1      44.346  34.057  30.930  1.00  0.00     0.135 A 
ATOM     86  C   UNL A   1      43.700  33.156  33.061  1.00  0.00     0.135 A 
ATOM     87  F   UNL A   1      44.596  33.912  29.620  1.00  0.00    -0.206 F 
ATOM     88  C   UNL A   1      44.522  35.313  31.502  1.00  0.00     0.059 A 
ATOM     89  C   UNL A   1      43.841  34.409  33.650  1.00  0.00     0.059 A 
ATOM     90  F   UNL A   1      43.293  32.136  33.833  1.00  0.00    -0.206 F 
ATOM     91  C   UNL A   1      44.261  35.480  32.863  1.00  0.00     0.060 A 
BRANCH  91  92
ATOM     92  S   UNL A   1      44.437  37.128  33.583  1.00  0.00     0.124 S 
ATOM     93  O   UNL A   1      43.181  37.267  34.308  1.00  0.00    -0.237 OA
ATOM     94  O   UNL A   1      45.635  36.976  34.402  1.00  0.00    -0.237 OA
ATOM     95  O   UNL A   1      44.591  37.989  32.414  1.00  0.00    -0.744 OA
ENDBRANCH  91  92
ENDBRANCH  59  84
BRANCH  71  96
ATOM     96  C   UNL A   1      48.179  27.527  30.519  1.00  0.00     0.058 A 
ATOM     97  C   UNL A   1      49.149  27.864  29.562  1.00  0.00     0.135 A 
ATOM     98  C   UNL A   1      48.624  27.018  31.750  1.00  0.00     0.135 A 
ATOM     99  F   UNL A   1      48.778  28.349  28.367  1.00  0.00    -0.206 F 
ATOM    100  C   UNL A   1      50.506  27.683  29.807  1.00  0.00     0.059 A 
ATOM    101  C   UNL A   1      49.978  26.857  32.029  1.00  0.00     0.059 A 
ATOM    102  F   UNL A   1      47.742  26.687  32.707  1.00  0.00    -0.206 F 
ATOM    103  C   UNL A   1      50.912  27.181  31.046  1.00  0.00     0.060 A 
BRANCH 103 104
ATOM    104  S   UNL A   1      52.678  26.982  31.363  1.00  0.00     0.124 S 
ATOM    105  O   UNL A   1      52.890  27.927  32.454  1.00  0.00    -0.237 OA
ATOM    106  O   UNL A   1      52.773  25.570  31.722  1.00  0.00    -0.237 OA
ATOM    107  O   UNL A   1      53.296  27.342  30.091  1.00  0.00    -0.744 OA
ENDBRANCH 103 104
ENDBRANCH  71  96
ENDBRANCH  45  46
ENDBRANCH  37  40
ENDBRANCH  35  36
ENDBRANCH  34  35
ENDBRANCH   1  34
TORSDOF 18
ENDMDL
