MODEL 1
REMARK VINA RESULT:     -12.2      0.000      0.000
REMARK SMILES Cc1nsc(N[C@@H](C)C2CCCC2)c1C(=O)NCCCCNC(=O)c1ccc(-c2c3nc(c(-c4c(F)cc(S(=O)(=O)[O-])cc4F)c4ccc([nH]4)c(-c4c(F)cc(S(=O)(=O)[O-])cc4F)c4nc(c(-c5c(F)cc(S(=O)(=O)[O-])cc5F)c5ccc2[nH]5)C=C4)C=C3)cc1
REMARK SMILES IDX 19 1 18 2 17 3 15 4 16 5 14 7 1 8 2 9 3 10 4 11 5 12 6 13
REMARK SMILES IDX 7 15 8 16 9 17 10 18 13 19 11 20 12 21 20 22 21 23 22 24
REMARK SMILES IDX 23 25 24 27 25 28 26 29 90 30 27 31 89 32 28 33 29 34 30 35
REMARK SMILES IDX 83 36 31 37 88 38 82 39 84 40 32 41 87 42 81 43 80 44 33 46
REMARK SMILES IDX 67 47 46 48 66 49 47 50 50 51 65 52 85 53 48 54 49 55 64 57
REMARK SMILES IDX 86 58 51 59 34 60 35 61 44 62 36 63 37 64 43 65 45 66 38 67
REMARK SMILES IDX 39 68 40 69 41 70 42 71 68 72 69 73 78 74 70 75 71 76 77 77
REMARK SMILES IDX 79 78 72 79 73 80 74 81 75 82 76 83 52 84 53 85 62 86 54 87
REMARK SMILES IDX 55 88 61 89 63 90 56 91 57 92 58 93 59 94 60 95
REMARK H PARENT 17 6 6 14 22 26 84 45 50 56
REMARK Flexibility Score: inf
ROOT
ATOM      1  C   UNL A   1      33.942  27.442  25.572  1.00  0.00     0.023 C 
ENDROOT
BRANCH   1   2
ATOM      2  C   UNL A   1      33.840  25.917  25.682  1.00  0.00     0.116 C 
BRANCH   2   3
ATOM      3  N   UNL A   1      34.339  25.250  24.505  1.00  0.00    -0.352 N 
ATOM      4  C   UNL A   1      34.253  24.015  23.925  1.00  0.00     0.256 C 
ATOM      5  O   UNL A   1      34.836  23.999  22.828  1.00  0.00    -0.269 OA
ATOM      6  H   UNL A   1      34.898  25.855  23.968  1.00  0.00     0.163 HD
BRANCH   4   7
ATOM      7  C   UNL A   1      33.607  22.788  24.448  1.00  0.00     0.097 A 
ATOM      8  C   UNL A   1      30.980  23.211  24.844  1.00  0.00     0.069 C 
ATOM      9  C   UNL A   1      32.249  22.438  24.869  1.00  0.00     0.066 A 
ATOM     10  N   UNL A   1      32.076  21.213  25.369  1.00  0.00    -0.195 NA
ATOM     11  S   UNL A   1      33.475  20.387  25.313  1.00  0.00    -0.018 S 
ATOM     12  C   UNL A   1      34.421  21.642  24.631  1.00  0.00     0.122 A 
BRANCH  12  13
ATOM     13  N   UNL A   1      35.749  21.517  24.329  1.00  0.00    -0.372 N 
ATOM     14  H   UNL A   1      36.010  21.660  23.390  1.00  0.00     0.161 HD
BRANCH  13  15
ATOM     15  C   UNL A   1      36.812  21.191  25.266  1.00  0.00     0.080 C 
ATOM     16  C   UNL A   1      37.534  19.939  24.767  1.00  0.00     0.031 C 
BRANCH  15  17
ATOM     17  C   UNL A   1      37.760  22.388  25.495  1.00  0.00     0.011 C 
ATOM     18  C   UNL A   1      37.175  23.612  26.200  1.00  0.00     0.006 C 
ATOM     19  C   UNL A   1      39.014  22.104  26.333  1.00  0.00     0.006 C 
ATOM     20  C   UNL A   1      38.406  24.467  26.478  1.00  0.00     0.000 C 
ATOM     21  C   UNL A   1      39.542  23.481  26.739  1.00  0.00     0.000 C 
ENDBRANCH  15  17
ENDBRANCH  13  15
ENDBRANCH  12  13
ENDBRANCH   4   7
ENDBRANCH   2   3
ENDBRANCH   1   2
BRANCH   1  22
ATOM     22  C   UNL A   1      33.006  28.219  26.513  1.00  0.00     0.023 C 
BRANCH  22  23
ATOM     23  C   UNL A   1      33.709  28.974  27.641  1.00  0.00     0.116 C 
BRANCH  23  24
ATOM     24  N   UNL A   1      33.413  30.404  27.642  1.00  0.00    -0.352 N 
ATOM     25  C   UNL A   1      34.248  31.431  28.034  1.00  0.00     0.251 C 
ATOM     26  H   UNL A   1      32.518  30.666  27.328  1.00  0.00     0.163 HD
ATOM     27  O   UNL A   1      33.798  32.527  28.354  1.00  0.00    -0.269 OA
BRANCH  25  28
ATOM     28  C   UNL A   1      35.698  31.179  28.057  1.00  0.00     0.039 A 
ATOM     29  C   UNL A   1      36.565  32.054  28.713  1.00  0.00     0.014 A 
ATOM     30  C   UNL A   1      36.161  29.995  27.485  1.00  0.00     0.014 A 
ATOM     31  C   UNL A   1      37.895  31.678  28.883  1.00  0.00     0.010 A 
ATOM     32  C   UNL A   1      37.455  29.586  27.732  1.00  0.00     0.010 A 
ATOM     33  C   UNL A   1      38.333  30.425  28.422  1.00  0.00    -0.014 A 
BRANCH  33  34
ATOM     34  C   UNL A   1      39.653  29.923  28.830  1.00  0.00     0.031 A 
ATOM     35  C   UNL A   1      39.883  29.893  30.305  1.00  0.00     0.074 A 
ATOM     36  C   UNL A   1      40.506  29.288  27.993  1.00  0.00     0.049 A 
ATOM     37  N   UNL A   1      40.766  30.540  30.992  1.00  0.00    -0.248 NA
ATOM     38  C   UNL A   1      38.938  29.126  31.138  1.00  0.00     0.031 C 
ATOM     39  C   UNL A   1      40.266  28.942  26.588  1.00  0.00     0.029 A 
ATOM     40  N   UNL A   1      41.713  28.698  28.248  1.00  0.00    -0.354 N 
ATOM     41  C   UNL A   1      40.649  30.074  32.302  1.00  0.00     0.074 A 
ATOM     42  C   UNL A   1      39.398  29.368  32.367  1.00  0.00     0.031 C 
ATOM     43  C   UNL A   1      41.152  28.004  26.196  1.00  0.00     0.029 A 
ATOM     44  C   UNL A   1      42.133  27.826  27.249  1.00  0.00     0.049 A 
ATOM     45  H   UNL A   1      42.237  28.874  29.063  1.00  0.00     0.167 HD
ATOM     46  C   UNL A   1      41.723  30.059  33.141  1.00  0.00     0.037 A 
ATOM     47  C   UNL A   1      43.209  27.003  27.258  1.00  0.00     0.037 A 
ATOM     48  C   UNL A   1      42.802  30.848  32.609  1.00  0.00     0.049 A 
ATOM     49  C   UNL A   1      44.187  27.539  28.230  1.00  0.00     0.074 A 
ATOM     50  C   UNL A   1      43.100  32.184  32.467  1.00  0.00     0.029 A 
ATOM     51  N   UNL A   1      43.645  30.149  31.786  1.00  0.00    -0.354 N 
ATOM     52  N   UNL A   1      44.781  28.694  28.090  1.00  0.00    -0.248 NA
ATOM     53  C   UNL A   1      44.289  26.944  29.557  1.00  0.00     0.031 C 
ATOM     54  C   UNL A   1      44.022  32.272  31.382  1.00  0.00     0.029 A 
ATOM     55  C   UNL A   1      44.282  30.986  30.912  1.00  0.00     0.049 A 
ATOM     56  H   UNL A   1      43.775  29.174  31.821  1.00  0.00     0.167 HD
ATOM     57  C   UNL A   1      44.939  29.154  29.382  1.00  0.00     0.074 A 
ATOM     58  C   UNL A   1      44.800  27.980  30.229  1.00  0.00     0.031 C 
ATOM     59  C   UNL A   1      44.830  30.482  29.669  1.00  0.00     0.037 A 
BRANCH  46  60
ATOM     60  C   UNL A   1      42.016  28.980  34.174  1.00  0.00     0.058 A 
ATOM     61  C   UNL A   1      42.247  27.655  33.738  1.00  0.00     0.135 A 
ATOM     62  C   UNL A   1      41.753  29.119  35.555  1.00  0.00     0.135 A 
ATOM     63  F   UNL A   1      42.509  27.398  32.445  1.00  0.00    -0.206 F 
ATOM     64  C   UNL A   1      42.140  26.552  34.589  1.00  0.00     0.059 A 
ATOM     65  C   UNL A   1      41.692  28.038  36.429  1.00  0.00     0.059 A 
ATOM     66  F   UNL A   1      41.441  30.296  36.109  1.00  0.00    -0.206 F 
ATOM     67  C   UNL A   1      41.840  26.755  35.931  1.00  0.00     0.060 A 
BRANCH  67  68
ATOM     68  S   UNL A   1      41.585  25.335  37.013  1.00  0.00     0.124 S 
ATOM     69  O   UNL A   1      41.392  24.263  36.043  1.00  0.00    -0.237 OA
ATOM     70  O   UNL A   1      42.833  25.300  37.769  1.00  0.00    -0.237 OA
ATOM     71  O   UNL A   1      40.404  25.711  37.783  1.00  0.00    -0.744 OA
ENDBRANCH  67  68
ENDBRANCH  46  60
BRANCH  47  72
ATOM     72  C   UNL A   1      43.359  25.683  26.599  1.00  0.00     0.058 A 
ATOM     73  C   UNL A   1      44.159  25.510  25.459  1.00  0.00     0.135 A 
ATOM     74  C   UNL A   1      42.917  24.506  27.239  1.00  0.00     0.135 A 
ATOM     75  F   UNL A   1      44.638  26.578  24.802  1.00  0.00    -0.206 F 
ATOM     76  C   UNL A   1      44.534  24.244  24.998  1.00  0.00     0.059 A 
ATOM     77  C   UNL A   1      43.272  23.233  26.794  1.00  0.00     0.059 A 
ATOM     78  F   UNL A   1      42.196  24.567  28.369  1.00  0.00    -0.206 F 
ATOM     79  C   UNL A   1      44.100  23.110  25.686  1.00  0.00     0.060 A 
BRANCH  79  80
ATOM     80  S   UNL A   1      44.717  21.483  25.190  1.00  0.00     0.124 S 
ATOM     81  O   UNL A   1      44.640  21.564  23.735  1.00  0.00    -0.237 OA
ATOM     82  O   UNL A   1      46.060  21.476  25.759  1.00  0.00    -0.237 OA
ATOM     83  O   UNL A   1      43.773  20.559  25.814  1.00  0.00    -0.744 OA
ENDBRANCH  79  80
ENDBRANCH  47  72
BRANCH  59  84
ATOM     84  C   UNL A   1      45.138  31.465  28.578  1.00  0.00     0.058 A 
ATOM     85  C   UNL A   1      44.246  31.852  27.565  1.00  0.00     0.135 A 
ATOM     86  C   UNL A   1      46.386  32.104  28.618  1.00  0.00     0.135 A 
ATOM     87  F   UNL A   1      43.006  31.347  27.507  1.00  0.00    -0.206 F 
ATOM     88  C   UNL A   1      44.597  32.808  26.611  1.00  0.00     0.059 A 
ATOM     89  C   UNL A   1      46.745  33.081  27.697  1.00  0.00     0.059 A 
ATOM     90  F   UNL A   1      47.263  31.808  29.592  1.00  0.00    -0.206 F 
ATOM     91  C   UNL A   1      45.849  33.419  26.686  1.00  0.00     0.060 A 
BRANCH  91  92
ATOM     92  S   UNL A   1      46.278  34.705  25.493  1.00  0.00     0.124 S 
ATOM     93  O   UNL A   1      47.698  34.458  25.273  1.00  0.00    -0.237 OA
ATOM     94  O   UNL A   1      45.398  34.400  24.369  1.00  0.00    -0.237 OA
ATOM     95  O   UNL A   1      45.964  35.944  26.201  1.00  0.00    -0.744 OA
ENDBRANCH  91  92
ENDBRANCH  59  84
ENDBRANCH  33  34
ENDBRANCH  25  28
ENDBRANCH  23  24
ENDBRANCH  22  23
ENDBRANCH   1  22
TORSDOF 17
ENDMDL
MODEL 2
REMARK VINA RESULT:     -12.1      2.455      9.191
REMARK SMILES Cc1nsc(N[C@@H](C)C2CCCC2)c1C(=O)NCCCCNC(=O)c1ccc(-c2c3nc(c(-c4c(F)cc(S(=O)(=O)[O-])cc4F)c4ccc([nH]4)c(-c4c(F)cc(S(=O)(=O)[O-])cc4F)c4nc(c(-c5c(F)cc(S(=O)(=O)[O-])cc5F)c5ccc2[nH]5)C=C4)C=C3)cc1
REMARK SMILES IDX 19 1 18 2 17 3 15 4 16 5 14 7 1 8 2 9 3 10 4 11 5 12 6 13
REMARK SMILES IDX 7 15 8 16 9 17 10 18 13 19 11 20 12 21 20 22 21 23 22 24
REMARK SMILES IDX 23 25 24 27 25 28 26 29 90 30 27 31 89 32 28 33 29 34 30 35
REMARK SMILES IDX 83 36 31 37 88 38 82 39 84 40 32 41 87 42 81 43 80 44 33 46
REMARK SMILES IDX 67 47 46 48 66 49 47 50 50 51 65 52 85 53 48 54 49 55 64 57
REMARK SMILES IDX 86 58 51 59 34 60 35 61 44 62 36 63 37 64 43 65 45 66 38 67
REMARK SMILES IDX 39 68 40 69 41 70 42 71 68 72 69 73 78 74 70 75 71 76 77 77
REMARK SMILES IDX 79 78 72 79 73 80 74 81 75 82 76 83 52 84 53 85 62 86 54 87
REMARK SMILES IDX 55 88 61 89 63 90 56 91 57 92 58 93 59 94 60 95
REMARK H PARENT 17 6 6 14 22 26 84 45 50 56
REMARK Flexibility Score: inf
ROOT
ATOM      1  C   UNL A   1      38.317  23.463  26.264  1.00  0.00     0.023 C 
ENDROOT
BRANCH   1   2
ATOM      2  C   UNL A   1      36.870  23.501  25.762  1.00  0.00     0.116 C 
BRANCH   2   3
ATOM      3  N   UNL A   1      35.928  23.109  26.782  1.00  0.00    -0.352 N 
ATOM      4  C   UNL A   1      34.574  22.979  26.917  1.00  0.00     0.256 C 
ATOM      5  O   UNL A   1      34.283  22.511  28.030  1.00  0.00    -0.269 OA
ATOM      6  H   UNL A   1      36.391  22.867  27.615  1.00  0.00     0.163 HD
BRANCH   4   7
ATOM      7  C   UNL A   1      33.507  23.339  25.953  1.00  0.00     0.097 A 
ATOM      8  C   UNL A   1      33.268  26.013  25.780  1.00  0.00     0.069 C 
ATOM      9  C   UNL A   1      32.923  24.598  25.486  1.00  0.00     0.066 A 
ATOM     10  N   UNL A   1      31.893  24.501  24.643  1.00  0.00    -0.195 NA
ATOM     11  S   UNL A   1      31.599  22.940  24.301  1.00  0.00    -0.018 S 
ATOM     12  C   UNL A   1      32.829  22.282  25.296  1.00  0.00     0.122 A 
BRANCH  12  13
ATOM     13  N   UNL A   1      33.082  20.942  25.410  1.00  0.00    -0.372 N 
ATOM     14  H   UNL A   1      32.712  20.483  26.198  1.00  0.00     0.161 HD
BRANCH  13  15
ATOM     15  C   UNL A   1      33.849  20.135  24.475  1.00  0.00     0.080 C 
ATOM     16  C   UNL A   1      35.325  20.201  24.872  1.00  0.00     0.031 C 
BRANCH  15  17
ATOM     17  C   UNL A   1      33.307  18.691  24.389  1.00  0.00     0.011 C 
ATOM     18  C   UNL A   1      34.309  17.594  24.029  1.00  0.00     0.006 C 
ATOM     19  C   UNL A   1      32.666  18.135  25.667  1.00  0.00     0.006 C 
ATOM     20  C   UNL A   1      33.517  16.315  24.276  1.00  0.00     0.000 C 
ATOM     21  C   UNL A   1      32.591  16.623  25.450  1.00  0.00     0.000 C 
ENDBRANCH  15  17
ENDBRANCH  13  15
ENDBRANCH  12  13
ENDBRANCH   4   7
ENDBRANCH   2   3
ENDBRANCH   1   2
BRANCH   1  22
ATOM     22  C   UNL A   1      39.100  22.199  25.869  1.00  0.00     0.023 C 
BRANCH  22  23
ATOM     23  C   UNL A   1      39.964  21.604  26.981  1.00  0.00     0.116 C 
BRANCH  23  24
ATOM     24  N   UNL A   1      41.163  20.938  26.479  1.00  0.00    -0.352 N 
ATOM     25  C   UNL A   1      42.351  21.530  26.100  1.00  0.00     0.251 C 
ATOM     26  H   UNL A   1      41.120  19.958  26.402  1.00  0.00     0.163 HD
ATOM     27  O   UNL A   1      43.138  20.953  25.356  1.00  0.00    -0.269 OA
BRANCH  25  28
ATOM     28  C   UNL A   1      42.655  22.875  26.615  1.00  0.00     0.039 A 
ATOM     29  C   UNL A   1      42.406  24.009  25.840  1.00  0.00     0.014 A 
ATOM     30  C   UNL A   1      43.108  22.981  27.929  1.00  0.00     0.014 A 
ATOM     31  C   UNL A   1      42.516  25.264  26.435  1.00  0.00     0.010 A 
ATOM     32  C   UNL A   1      43.130  24.218  28.538  1.00  0.00     0.010 A 
ATOM     33  C   UNL A   1      42.846  25.368  27.797  1.00  0.00    -0.014 A 
BRANCH  33  34
ATOM     34  C   UNL A   1      42.705  26.661  28.481  1.00  0.00     0.031 A 
ATOM     35  C   UNL A   1      43.840  27.608  28.268  1.00  0.00     0.074 A 
ATOM     36  C   UNL A   1      41.553  27.092  29.042  1.00  0.00     0.049 A 
ATOM     37  N   UNL A   1      44.652  28.098  29.147  1.00  0.00    -0.248 NA
ATOM     38  C   UNL A   1      44.185  27.975  26.882  1.00  0.00     0.031 C 
ATOM     39  C   UNL A   1      40.256  26.406  29.027  1.00  0.00     0.029 A 
ATOM     40  N   UNL A   1      41.253  28.291  29.628  1.00  0.00    -0.354 N 
ATOM     41  C   UNL A   1      45.445  29.020  28.463  1.00  0.00     0.074 A 
ATOM     42  C   UNL A   1      45.251  28.758  27.063  1.00  0.00     0.031 C 
ATOM     43  C   UNL A   1      39.278  27.282  29.336  1.00  0.00     0.029 A 
ATOM     44  C   UNL A   1      39.889  28.528  29.755  1.00  0.00     0.049 A 
ATOM     45  H   UNL A   1      41.940  28.927  29.932  1.00  0.00     0.167 HD
ATOM     46  C   UNL A   1      45.967  30.106  29.100  1.00  0.00     0.037 A 
ATOM     47  C   UNL A   1      39.274  29.660  30.175  1.00  0.00     0.037 A 
ATOM     48  C   UNL A   1      45.859  29.965  30.528  1.00  0.00     0.049 A 
ATOM     49  C   UNL A   1      40.236  30.426  30.996  1.00  0.00     0.074 A 
ATOM     50  C   UNL A   1      46.485  29.248  31.522  1.00  0.00     0.029 A 
ATOM     51  N   UNL A   1      44.681  30.438  31.042  1.00  0.00    -0.354 N 
ATOM     52  N   UNL A   1      40.720  29.992  32.129  1.00  0.00    -0.248 NA
ATOM     53  C   UNL A   1      40.940  31.563  30.415  1.00  0.00     0.031 C 
ATOM     54  C   UNL A   1      45.545  29.146  32.590  1.00  0.00     0.029 A 
ATOM     55  C   UNL A   1      44.384  29.827  32.230  1.00  0.00     0.049 A 
ATOM     56  H   UNL A   1      44.123  31.126  30.614  1.00  0.00     0.167 HD
ATOM     57  C   UNL A   1      42.003  30.500  32.170  1.00  0.00     0.074 A 
ATOM     58  C   UNL A   1      42.015  31.592  31.207  1.00  0.00     0.031 C 
ATOM     59  C   UNL A   1      43.023  29.783  32.721  1.00  0.00     0.037 A 
BRANCH  46  60
ATOM     60  C   UNL A   1      46.128  31.490  28.488  1.00  0.00     0.058 A 
ATOM     61  C   UNL A   1      44.987  32.152  27.977  1.00  0.00     0.135 A 
ATOM     62  C   UNL A   1      47.367  32.037  28.089  1.00  0.00     0.135 A 
ATOM     63  F   UNL A   1      43.752  31.724  28.289  1.00  0.00    -0.206 F 
ATOM     64  C   UNL A   1      45.074  33.215  27.074  1.00  0.00     0.059 A 
ATOM     65  C   UNL A   1      47.475  33.127  27.230  1.00  0.00     0.059 A 
ATOM     66  F   UNL A   1      48.536  31.482  28.427  1.00  0.00    -0.206 F 
ATOM     67  C   UNL A   1      46.326  33.681  26.691  1.00  0.00     0.060 A 
BRANCH  67  68
ATOM     68  S   UNL A   1      46.454  34.973  25.439  1.00  0.00     0.124 S 
ATOM     69  O   UNL A   1      45.454  34.536  24.471  1.00  0.00    -0.237 OA
ATOM     70  O   UNL A   1      46.126  36.171  26.204  1.00  0.00    -0.237 OA
ATOM     71  O   UNL A   1      47.843  34.877  25.001  1.00  0.00    -0.744 OA
ENDBRANCH  67  68
ENDBRANCH  46  60
BRANCH  47  72
ATOM     72  C   UNL A   1      37.956  30.196  29.757  1.00  0.00     0.058 A 
ATOM     73  C   UNL A   1      37.058  30.758  30.678  1.00  0.00     0.135 A 
ATOM     74  C   UNL A   1      37.662  30.399  28.392  1.00  0.00     0.135 A 
ATOM     75  F   UNL A   1      37.274  30.629  31.996  1.00  0.00    -0.206 F 
ATOM     76  C   UNL A   1      35.953  31.513  30.273  1.00  0.00     0.059 A 
ATOM     77  C   UNL A   1      36.563  31.141  27.964  1.00  0.00     0.059 A 
ATOM     78  F   UNL A   1      38.491  29.950  27.436  1.00  0.00    -0.206 F 
ATOM     79  C   UNL A   1      35.724  31.715  28.911  1.00  0.00     0.060 A 
BRANCH  79  80
ATOM     80  S   UNL A   1      34.393  32.824  28.392  1.00  0.00     0.124 S 
ATOM     81  O   UNL A   1      35.102  33.763  27.531  1.00  0.00    -0.237 OA
ATOM     82  O   UNL A   1      33.475  31.910  27.720  1.00  0.00    -0.237 OA
ATOM     83  O   UNL A   1      33.904  33.378  29.652  1.00  0.00    -0.744 OA
ENDBRANCH  79  80
ENDBRANCH  47  72
BRANCH  59  84
ATOM     84  C   UNL A   1      42.681  28.774  33.778  1.00  0.00     0.058 A 
ATOM     85  C   UNL A   1      42.574  27.390  33.569  1.00  0.00     0.135 A 
ATOM     86  C   UNL A   1      42.531  29.242  35.092  1.00  0.00     0.135 A 
ATOM     87  F   UNL A   1      42.783  26.856  32.358  1.00  0.00    -0.206 F 
ATOM     88  C   UNL A   1      42.295  26.514  34.619  1.00  0.00     0.059 A 
ATOM     89  C   UNL A   1      42.284  28.385  36.158  1.00  0.00     0.059 A 
ATOM     90  F   UNL A   1      42.669  30.552  35.360  1.00  0.00    -0.206 F 
ATOM     91  C   UNL A   1      42.152  27.021  35.911  1.00  0.00     0.060 A 
BRANCH  91  92
ATOM     92  S   UNL A   1      41.859  25.881  37.280  1.00  0.00     0.124 S 
ATOM     93  O   UNL A   1      42.157  24.589  36.673  1.00  0.00    -0.237 OA
ATOM     94  O   UNL A   1      42.809  26.344  38.287  1.00  0.00    -0.237 OA
ATOM     95  O   UNL A   1      40.454  26.103  37.613  1.00  0.00    -0.744 OA
ENDBRANCH  91  92
ENDBRANCH  59  84
ENDBRANCH  33  34
ENDBRANCH  25  28
ENDBRANCH  23  24
ENDBRANCH  22  23
ENDBRANCH   1  22
TORSDOF 17
ENDMDL
MODEL 3
REMARK VINA RESULT:     -11.9      2.847      4.903
REMARK SMILES Cc1nsc(N[C@@H](C)C2CCCC2)c1C(=O)NCCCCNC(=O)c1ccc(-c2c3nc(c(-c4c(F)cc(S(=O)(=O)[O-])cc4F)c4ccc([nH]4)c(-c4c(F)cc(S(=O)(=O)[O-])cc4F)c4nc(c(-c5c(F)cc(S(=O)(=O)[O-])cc5F)c5ccc2[nH]5)C=C4)C=C3)cc1
REMARK SMILES IDX 19 1 18 2 17 3 15 4 16 5 14 7 1 8 2 9 3 10 4 11 5 12 6 13
REMARK SMILES IDX 7 15 8 16 9 17 10 18 13 19 11 20 12 21 20 22 21 23 22 24
REMARK SMILES IDX 23 25 24 27 25 28 26 29 90 30 27 31 89 32 28 33 29 34 30 35
REMARK SMILES IDX 83 36 31 37 88 38 82 39 84 40 32 41 87 42 81 43 80 44 33 46
REMARK SMILES IDX 67 47 46 48 66 49 47 50 50 51 65 52 85 53 48 54 49 55 64 57
REMARK SMILES IDX 86 58 51 59 34 60 35 61 44 62 36 63 37 64 43 65 45 66 38 67
REMARK SMILES IDX 39 68 40 69 41 70 42 71 68 72 69 73 78 74 70 75 71 76 77 77
REMARK SMILES IDX 79 78 72 79 73 80 74 81 75 82 76 83 52 84 53 85 62 86 54 87
REMARK SMILES IDX 55 88 61 89 63 90 56 91 57 92 58 93 59 94 60 95
REMARK H PARENT 17 6 6 14 22 26 84 45 50 56
REMARK Flexibility Score: inf
ROOT
ATOM      1  C   UNL A   1      35.178  30.630  27.650  1.00  0.00     0.023 C 
ENDROOT
BRANCH   1   2
ATOM      2  C   UNL A   1      34.640  29.426  26.871  1.00  0.00     0.116 C 
BRANCH   2   3
ATOM      3  N   UNL A   1      33.327  29.669  26.326  1.00  0.00    -0.352 N 
ATOM      4  C   UNL A   1      32.503  29.126  25.381  1.00  0.00     0.256 C 
ATOM      5  O   UNL A   1      31.403  29.702  25.367  1.00  0.00    -0.269 OA
ATOM      6  H   UNL A   1      32.906  30.447  26.758  1.00  0.00     0.163 HD
BRANCH   4   7
ATOM      7  C   UNL A   1      32.783  28.022  24.431  1.00  0.00     0.097 A 
ATOM      8  C   UNL A   1      34.064  26.015  25.683  1.00  0.00     0.069 C 
ATOM      9  C   UNL A   1      33.461  26.728  24.527  1.00  0.00     0.066 A 
ATOM     10  N   UNL A   1      33.578  26.031  23.395  1.00  0.00    -0.195 NA
ATOM     11  S   UNL A   1      32.847  26.820  22.178  1.00  0.00    -0.018 S 
ATOM     12  C   UNL A   1      32.342  28.177  23.093  1.00  0.00     0.122 A 
BRANCH  12  13
ATOM     13  N   UNL A   1      31.630  29.225  22.575  1.00  0.00    -0.372 N 
ATOM     14  H   UNL A   1      32.106  30.081  22.471  1.00  0.00     0.161 HD
BRANCH  13  15
ATOM     15  C   UNL A   1      30.235  29.190  22.166  1.00  0.00     0.080 C 
ATOM     16  C   UNL A   1      29.509  28.133  22.999  1.00  0.00     0.031 C 
BRANCH  15  17
ATOM     17  C   UNL A   1      29.580  30.586  22.250  1.00  0.00     0.011 C 
ATOM     18  C   UNL A   1      28.639  30.981  21.112  1.00  0.00     0.006 C 
ATOM     19  C   UNL A   1      28.715  30.850  23.489  1.00  0.00     0.006 C 
ATOM     20  C   UNL A   1      27.998  32.264  21.629  1.00  0.00     0.000 C 
ATOM     21  C   UNL A   1      27.889  32.090  23.142  1.00  0.00     0.000 C 
ENDBRANCH  15  17
ENDBRANCH  13  15
ENDBRANCH  12  13
ENDBRANCH   4   7
ENDBRANCH   2   3
ENDBRANCH   1   2
BRANCH   1  22
ATOM     22  C   UNL A   1      34.160  31.764  27.864  1.00  0.00     0.023 C 
BRANCH  22  23
ATOM     23  C   UNL A   1      34.761  33.168  27.909  1.00  0.00     0.116 C 
BRANCH  23  24
ATOM     24  N   UNL A   1      34.213  33.991  28.984  1.00  0.00    -0.352 N 
ATOM     25  C   UNL A   1      34.450  33.865  30.338  1.00  0.00     0.251 C 
ATOM     26  H   UNL A   1      33.606  34.717  28.713  1.00  0.00     0.163 HD
ATOM     27  O   UNL A   1      33.675  34.336  31.164  1.00  0.00    -0.269 OA
BRANCH  25  28
ATOM     28  C   UNL A   1      35.663  33.152  30.769  1.00  0.00     0.039 A 
ATOM     29  C   UNL A   1      35.596  31.828  31.208  1.00  0.00     0.014 A 
ATOM     30  C   UNL A   1      36.886  33.808  30.635  1.00  0.00     0.014 A 
ATOM     31  C   UNL A   1      36.783  31.129  31.413  1.00  0.00     0.010 A 
ATOM     32  C   UNL A   1      38.056  33.088  30.753  1.00  0.00     0.010 A 
ATOM     33  C   UNL A   1      38.016  31.750  31.152  1.00  0.00    -0.014 A 
BRANCH  33  34
ATOM     34  C   UNL A   1      39.242  30.940  31.115  1.00  0.00     0.031 A 
ATOM     35  C   UNL A   1      39.902  30.742  32.440  1.00  0.00     0.074 A 
ATOM     36  C   UNL A   1      39.624  30.205  30.046  1.00  0.00     0.049 A 
ATOM     37  N   UNL A   1      41.079  31.124  32.815  1.00  0.00    -0.248 NA
ATOM     38  C   UNL A   1      39.108  30.136  33.525  1.00  0.00     0.031 C 
ATOM     39  C   UNL A   1      38.889  30.034  28.788  1.00  0.00     0.029 A 
ATOM     40  N   UNL A   1      40.679  29.346  29.899  1.00  0.00    -0.354 N 
ATOM     41  C   UNL A   1      41.265  30.590  34.091  1.00  0.00     0.074 A 
ATOM     42  C   UNL A   1      39.967  30.172  34.546  1.00  0.00     0.031 C 
ATOM     43  C   UNL A   1      39.368  28.959  28.127  1.00  0.00     0.029 A 
ATOM     44  C   UNL A   1      40.557  28.488  28.813  1.00  0.00     0.049 A 
ATOM     45  H   UNL A   1      41.454  29.338  30.506  1.00  0.00     0.167 HD
ATOM     46  C   UNL A   1      42.511  30.273  34.545  1.00  0.00     0.037 A 
ATOM     47  C   UNL A   1      41.360  27.452  28.472  1.00  0.00     0.037 A 
ATOM     48  C   UNL A   1      43.526  30.849  33.702  1.00  0.00     0.049 A 
ATOM     49  C   UNL A   1      42.687  27.681  29.086  1.00  0.00     0.074 A 
ATOM     50  C   UNL A   1      44.068  32.094  33.483  1.00  0.00     0.029 A 
ATOM     51  N   UNL A   1      43.888  30.051  32.650  1.00  0.00    -0.354 N 
ATOM     52  N   UNL A   1      43.460  28.686  28.774  1.00  0.00    -0.248 NA
ATOM     53  C   UNL A   1      43.051  26.973  30.308  1.00  0.00     0.031 C 
ATOM     54  C   UNL A   1      44.605  32.066  32.161  1.00  0.00     0.029 A 
ATOM     55  C   UNL A   1      44.401  30.797  31.624  1.00  0.00     0.049 A 
ATOM     56  H   UNL A   1      43.792  29.072  32.634  1.00  0.00     0.167 HD
ATOM     57  C   UNL A   1      44.110  28.995  29.951  1.00  0.00     0.074 A 
ATOM     58  C   UNL A   1      43.970  27.815  30.790  1.00  0.00     0.031 C 
ATOM     59  C   UNL A   1      44.408  30.287  30.268  1.00  0.00     0.037 A 
BRANCH  46  60
ATOM     60  C   UNL A   1      42.848  29.077  35.423  1.00  0.00     0.058 A 
ATOM     61  C   UNL A   1      43.735  29.252  36.511  1.00  0.00     0.135 A 
ATOM     62  C   UNL A   1      42.611  27.735  35.053  1.00  0.00     0.135 A 
ATOM     63  F   UNL A   1      44.037  30.484  36.955  1.00  0.00    -0.206 F 
ATOM     64  C   UNL A   1      44.398  28.184  37.122  1.00  0.00     0.059 A 
ATOM     65  C   UNL A   1      43.222  26.655  35.682  1.00  0.00     0.059 A 
ATOM     66  F   UNL A   1      41.857  27.406  33.999  1.00  0.00    -0.206 F 
ATOM     67  C   UNL A   1      44.149  26.889  36.684  1.00  0.00     0.060 A 
BRANCH  67  68
ATOM     68  S   UNL A   1      45.083  25.515  37.384  1.00  0.00     0.124 S 
ATOM     69  O   UNL A   1      44.690  25.584  38.787  1.00  0.00    -0.237 OA
ATOM     70  O   UNL A   1      44.565  24.379  36.629  1.00  0.00    -0.237 OA
ATOM     71  O   UNL A   1      46.468  25.872  37.097  1.00  0.00    -0.744 OA
ENDBRANCH  67  68
ENDBRANCH  46  60
BRANCH  47  72
ATOM     72  C   UNL A   1      40.989  26.189  27.790  1.00  0.00     0.058 A 
ATOM     73  C   UNL A   1      41.821  25.591  26.831  1.00  0.00     0.135 A 
ATOM     74  C   UNL A   1      39.915  25.405  28.263  1.00  0.00     0.135 A 
ATOM     75  F   UNL A   1      42.878  26.259  26.344  1.00  0.00    -0.206 F 
ATOM     76  C   UNL A   1      41.627  24.277  26.393  1.00  0.00     0.059 A 
ATOM     77  C   UNL A   1      39.697  24.096  27.836  1.00  0.00     0.059 A 
ATOM     78  F   UNL A   1      39.098  25.866  29.223  1.00  0.00    -0.206 F 
ATOM     79  C   UNL A   1      40.571  23.531  26.916  1.00  0.00     0.060 A 
BRANCH  79  80
ATOM     80  S   UNL A   1      40.417  21.783  26.473  1.00  0.00     0.124 S 
ATOM     81  O   UNL A   1      41.527  21.610  25.542  1.00  0.00    -0.237 OA
ATOM     82  O   UNL A   1      40.560  21.123  27.767  1.00  0.00    -0.237 OA
ATOM     83  O   UNL A   1      39.085  21.701  25.880  1.00  0.00    -0.744 OA
ENDBRANCH  79  80
ENDBRANCH  47  72
BRANCH  59  84
ATOM     84  C   UNL A   1      44.583  31.264  29.143  1.00  0.00     0.058 A 
ATOM     85  C   UNL A   1      43.634  32.220  28.747  1.00  0.00     0.135 A 
ATOM     86  C   UNL A   1      45.823  31.274  28.485  1.00  0.00     0.135 A 
ATOM     87  F   UNL A   1      42.458  32.327  29.379  1.00  0.00    -0.206 F 
ATOM     88  C   UNL A   1      43.896  33.123  27.715  1.00  0.00     0.059 A 
ATOM     89  C   UNL A   1      46.116  32.185  27.476  1.00  0.00     0.059 A 
ATOM     90  F   UNL A   1      46.787  30.413  28.852  1.00  0.00    -0.206 F 
ATOM     91  C   UNL A   1      45.141  33.099  27.086  1.00  0.00     0.060 A 
BRANCH  91  92
ATOM     92  S   UNL A   1      45.504  34.311  25.799  1.00  0.00     0.124 S 
ATOM     93  O   UNL A   1      46.956  34.220  25.692  1.00  0.00    -0.237 OA
ATOM     94  O   UNL A   1      44.750  33.798  24.659  1.00  0.00    -0.237 OA
ATOM     95  O   UNL A   1      44.998  35.563  26.357  1.00  0.00    -0.744 OA
ENDBRANCH  91  92
ENDBRANCH  59  84
ENDBRANCH  33  34
ENDBRANCH  25  28
ENDBRANCH  23  24
ENDBRANCH  22  23
ENDBRANCH   1  22
TORSDOF 17
ENDMDL
