MODEL 1
REMARK VINA RESULT:     -10.5      0.000      0.000
REMARK SMILES COC[C@@H](C)Nc1ccc([N+](=O)[O-])c(C(=O)NCCCCNC(=O)c2ccc(-c3c4nc(c(-c5c(F)cc(S(=O)(=O)[O-])cc5F)c5ccc([nH]5)c(-c5c(F)cc(S(=O)(=O)[O-])cc5F)c5nc(c(-c6c(F)cc(S(=O)(=O)[O-])cc6F)c6ccc3[nH]6)C=C5)C=C4)cc2)c1
REMARK SMILES IDX 19 1 18 2 17 3 15 4 16 5 14 7 7 8 8 9 91 10 9 11 10 12 6 13
REMARK SMILES IDX 4 15 5 16 3 17 2 18 1 19 11 20 12 21 13 22 20 23 21 24 22 25
REMARK SMILES IDX 23 26 24 28 25 29 26 30 90 31 27 32 89 33 28 34 29 35 30 36
REMARK SMILES IDX 83 37 31 38 88 39 82 40 84 41 32 42 87 43 81 44 80 45 33 47
REMARK SMILES IDX 67 48 46 49 66 50 47 51 50 52 65 53 85 54 48 55 49 56 64 58
REMARK SMILES IDX 86 59 51 60 34 61 35 62 44 63 36 64 37 65 43 66 45 67 38 68
REMARK SMILES IDX 39 69 40 70 41 71 42 72 68 73 69 74 78 75 70 76 71 77 77 78
REMARK SMILES IDX 79 79 72 80 73 81 74 82 75 83 76 84 52 85 53 86 62 87 54 88
REMARK SMILES IDX 55 89 61 90 63 91 56 92 57 93 58 94 59 95 60 96
REMARK H PARENT 17 6 6 14 22 27 84 46 50 57
REMARK Flexibility Score: inf
ROOT
ATOM      1  C   UNL A   1      37.975  22.365  25.523  1.00  0.00     0.023 C 
ENDROOT
BRANCH   1   2
ATOM      2  C   UNL A   1      36.468  22.397  25.313  1.00  0.00     0.116 C 
BRANCH   2   3
ATOM      3  N   UNL A   1      35.669  22.524  26.523  1.00  0.00    -0.352 N 
ATOM      4  C   UNL A   1      34.376  22.135  26.819  1.00  0.00     0.258 C 
ATOM      5  O   UNL A   1      33.945  22.392  27.938  1.00  0.00    -0.269 OA
ATOM      6  H   UNL A   1      36.135  22.969  27.267  1.00  0.00     0.163 HD
BRANCH   4   7
ATOM      7  C   UNL A   1      33.480  21.499  25.810  1.00  0.00     0.119 A 
ATOM      8  C   UNL A   1      32.861  19.463  24.585  1.00  0.00     0.036 A 
ATOM      9  C   UNL A   1      32.257  20.260  23.606  1.00  0.00     0.033 A 
ATOM     10  C   UNL A   1      33.372  20.106  25.720  1.00  0.00     0.046 A 
ATOM     11  C   UNL A   1      32.168  21.643  23.759  1.00  0.00     0.088 A 
ATOM     12  C   UNL A   1      32.780  22.250  24.865  1.00  0.00     0.282 A 
BRANCH   8  13
ATOM     13  N   UNL A   1      32.908  18.093  24.406  1.00  0.00    -0.380 N 
ATOM     14  H   UNL A   1      32.051  17.608  24.416  1.00  0.00     0.160 HD
BRANCH  13  15
ATOM     15  C   UNL A   1      34.128  17.298  24.204  1.00  0.00     0.102 C 
ATOM     16  C   UNL A   1      34.126  16.732  22.780  1.00  0.00     0.033 C 
BRANCH  15  17
ATOM     17  C   UNL A   1      34.182  16.179  25.271  1.00  0.00     0.184 C 
BRANCH  17  18
ATOM     18  O   UNL A   1      33.414  15.020  24.945  1.00  0.00    -0.383 OA
ATOM     19  C   UNL A   1      32.277  14.816  25.770  1.00  0.00     0.194 C 
ENDBRANCH  17  18
ENDBRANCH  15  17
ENDBRANCH  13  15
ENDBRANCH   8  13
BRANCH  12  20
ATOM     20  N   UNL A   1      32.556  23.670  25.029  1.00  0.00     0.063 N 
ATOM     21  O   UNL A   1      31.499  24.009  25.579  1.00  0.00    -0.258 OA
ATOM     22  O   UNL A   1      33.510  24.416  24.765  1.00  0.00    -0.258 OA
ENDBRANCH  12  20
ENDBRANCH   4   7
ENDBRANCH   2   3
ENDBRANCH   1   2
BRANCH   1  23
ATOM     23  C   UNL A   1      38.656  21.012  25.377  1.00  0.00     0.023 C 
BRANCH  23  24
ATOM     24  C   UNL A   1      39.559  20.585  26.529  1.00  0.00     0.116 C 
BRANCH  24  25
ATOM     25  N   UNL A   1      40.484  19.512  26.189  1.00  0.00    -0.352 N 
ATOM     26  C   UNL A   1      41.853  19.548  26.030  1.00  0.00     0.251 C 
ATOM     27  H   UNL A   1      40.069  18.630  26.051  1.00  0.00     0.163 HD
ATOM     28  O   UNL A   1      42.450  18.542  25.665  1.00  0.00    -0.269 OA
BRANCH  26  29
ATOM     29  C   UNL A   1      42.587  20.814  26.256  1.00  0.00     0.039 A 
ATOM     30  C   UNL A   1      42.955  21.585  25.150  1.00  0.00     0.014 A 
ATOM     31  C   UNL A   1      42.865  21.263  27.548  1.00  0.00     0.014 A 
ATOM     32  C   UNL A   1      43.505  22.855  25.346  1.00  0.00     0.010 A 
ATOM     33  C   UNL A   1      43.337  22.558  27.743  1.00  0.00     0.010 A 
ATOM     34  C   UNL A   1      43.647  23.375  26.644  1.00  0.00    -0.014 A 
BRANCH  34  35
ATOM     35  C   UNL A   1      44.078  24.780  26.874  1.00  0.00     0.031 A 
ATOM     36  C   UNL A   1      45.518  25.172  26.690  1.00  0.00     0.074 A 
ATOM     37  C   UNL A   1      43.186  25.680  27.334  1.00  0.00     0.049 A 
ATOM     38  N   UNL A   1      46.095  26.322  26.926  1.00  0.00    -0.248 NA
ATOM     39  C   UNL A   1      46.434  24.128  26.207  1.00  0.00     0.031 C 
ATOM     40  C   UNL A   1      41.772  25.408  27.613  1.00  0.00     0.029 A 
ATOM     41  N   UNL A   1      43.337  27.004  27.666  1.00  0.00    -0.354 N 
ATOM     42  C   UNL A   1      47.442  26.136  26.637  1.00  0.00     0.074 A 
ATOM     43  C   UNL A   1      47.603  24.749  26.257  1.00  0.00     0.031 C 
ATOM     44  C   UNL A   1      41.185  26.532  28.052  1.00  0.00     0.029 A 
ATOM     45  C   UNL A   1      42.182  27.596  28.123  1.00  0.00     0.049 A 
ATOM     46  H   UNL A   1      44.191  27.486  27.584  1.00  0.00     0.167 HD
ATOM     47  C   UNL A   1      48.448  27.043  26.664  1.00  0.00     0.037 A 
ATOM     48  C   UNL A   1      41.952  28.849  28.559  1.00  0.00     0.037 A 
ATOM     49  C   UNL A   1      48.276  28.429  27.016  1.00  0.00     0.049 A 
ATOM     50  C   UNL A   1      43.082  29.841  28.571  1.00  0.00     0.074 A 
ATOM     51  C   UNL A   1      49.219  29.441  27.003  1.00  0.00     0.029 A 
ATOM     52  N   UNL A   1      47.087  28.994  27.449  1.00  0.00    -0.354 N 
ATOM     53  N   UNL A   1      44.334  29.667  28.223  1.00  0.00    -0.248 NA
ATOM     54  C   UNL A   1      42.769  31.201  29.032  1.00  0.00     0.031 C 
ATOM     55  C   UNL A   1      48.608  30.613  27.464  1.00  0.00     0.029 A 
ATOM     56  C   UNL A   1      47.275  30.339  27.727  1.00  0.00     0.049 A 
ATOM     57  H   UNL A   1      46.234  28.513  27.545  1.00  0.00     0.167 HD
ATOM     58  C   UNL A   1      44.955  30.897  28.406  1.00  0.00     0.074 A 
ATOM     59  C   UNL A   1      43.937  31.812  28.880  1.00  0.00     0.031 C 
ATOM     60  C   UNL A   1      46.251  31.237  28.199  1.00  0.00     0.037 A 
BRANCH  47  61
ATOM     61  C   UNL A   1      49.824  26.563  26.293  1.00  0.00     0.058 A 
ATOM     62  C   UNL A   1      50.650  25.910  27.223  1.00  0.00     0.135 A 
ATOM     63  C   UNL A   1      50.314  26.734  24.989  1.00  0.00     0.135 A 
ATOM     64  F   UNL A   1      50.237  25.734  28.487  1.00  0.00    -0.206 F 
ATOM     65  C   UNL A   1      51.926  25.476  26.882  1.00  0.00     0.059 A 
ATOM     66  C   UNL A   1      51.578  26.282  24.618  1.00  0.00     0.059 A 
ATOM     67  F   UNL A   1      49.566  27.350  24.061  1.00  0.00    -0.206 F 
ATOM     68  C   UNL A   1      52.382  25.669  25.577  1.00  0.00     0.060 A 
BRANCH  68  69
ATOM     69  S   UNL A   1      54.044  25.103  25.152  1.00  0.00     0.124 S 
ATOM     70  O   UNL A   1      53.819  23.676  24.941  1.00  0.00    -0.237 OA
ATOM     71  O   UNL A   1      54.342  25.880  23.953  1.00  0.00    -0.237 OA
ATOM     72  O   UNL A   1      54.831  25.448  26.330  1.00  0.00    -0.744 OA
ENDBRANCH  68  69
ENDBRANCH  47  61
BRANCH  48  73
ATOM     73  C   UNL A   1      40.587  29.243  28.998  1.00  0.00     0.058 A 
ATOM     74  C   UNL A   1      40.294  29.426  30.358  1.00  0.00     0.135 A 
ATOM     75  C   UNL A   1      39.557  29.468  28.072  1.00  0.00     0.135 A 
ATOM     76  F   UNL A   1      41.243  29.215  31.282  1.00  0.00    -0.206 F 
ATOM     77  C   UNL A   1      39.026  29.808  30.786  1.00  0.00     0.059 A 
ATOM     78  C   UNL A   1      38.287  29.872  28.473  1.00  0.00     0.059 A 
ATOM     79  F   UNL A   1      39.792  29.322  26.758  1.00  0.00    -0.206 F 
ATOM     80  C   UNL A   1      38.029  30.032  29.834  1.00  0.00     0.060 A 
BRANCH  80  81
ATOM     81  S   UNL A   1      36.406  30.589  30.396  1.00  0.00     0.124 S 
ATOM     82  O   UNL A   1      36.709  31.926  30.890  1.00  0.00    -0.237 OA
ATOM     83  O   UNL A   1      35.617  30.524  29.169  1.00  0.00    -0.237 OA
ATOM     84  O   UNL A   1      36.049  29.603  31.412  1.00  0.00    -0.744 OA
ENDBRANCH  80  81
ENDBRANCH  48  73
BRANCH  60  85
ATOM     85  C   UNL A   1      46.642  32.663  28.469  1.00  0.00     0.058 A 
ATOM     86  C   UNL A   1      47.169  33.060  29.707  1.00  0.00     0.135 A 
ATOM     87  C   UNL A   1      46.536  33.635  27.459  1.00  0.00     0.135 A 
ATOM     88  F   UNL A   1      47.282  32.172  30.708  1.00  0.00    -0.206 F 
ATOM     89  C   UNL A   1      47.560  34.372  29.944  1.00  0.00     0.059 A 
ATOM     90  C   UNL A   1      46.945  34.948  27.665  1.00  0.00     0.059 A 
ATOM     91  F   UNL A   1      46.046  33.305  26.253  1.00  0.00    -0.206 F 
ATOM     92  C   UNL A   1      47.447  35.310  28.914  1.00  0.00     0.060 A 
BRANCH  92  93
ATOM     93  S   UNL A   1      47.995  37.003  29.220  1.00  0.00     0.124 S 
ATOM     94  O   UNL A   1      47.403  37.712  28.091  1.00  0.00    -0.237 OA
ATOM     95  O   UNL A   1      47.409  37.290  30.526  1.00  0.00    -0.237 OA
ATOM     96  O   UNL A   1      49.451  36.897  29.203  1.00  0.00    -0.744 OA
ENDBRANCH  92  93
ENDBRANCH  60  85
ENDBRANCH  34  35
ENDBRANCH  26  29
ENDBRANCH  24  25
ENDBRANCH  23  24
ENDBRANCH   1  23
TORSDOF 19
ENDMDL
MODEL 2
REMARK VINA RESULT:     -10.3      3.924      9.677
REMARK SMILES COC[C@@H](C)Nc1ccc([N+](=O)[O-])c(C(=O)NCCCCNC(=O)c2ccc(-c3c4nc(c(-c5c(F)cc(S(=O)(=O)[O-])cc5F)c5ccc([nH]5)c(-c5c(F)cc(S(=O)(=O)[O-])cc5F)c5nc(c(-c6c(F)cc(S(=O)(=O)[O-])cc6F)c6ccc3[nH]6)C=C5)C=C4)cc2)c1
REMARK SMILES IDX 19 1 18 2 17 3 15 4 16 5 14 7 7 8 8 9 91 10 9 11 10 12 6 13
REMARK SMILES IDX 4 15 5 16 3 17 2 18 1 19 11 20 12 21 13 22 20 23 21 24 22 25
REMARK SMILES IDX 23 26 24 28 25 29 26 30 90 31 27 32 89 33 28 34 29 35 30 36
REMARK SMILES IDX 83 37 31 38 88 39 82 40 84 41 32 42 87 43 81 44 80 45 33 47
REMARK SMILES IDX 67 48 46 49 66 50 47 51 50 52 65 53 85 54 48 55 49 56 64 58
REMARK SMILES IDX 86 59 51 60 34 61 35 62 44 63 36 64 37 65 43 66 45 67 38 68
REMARK SMILES IDX 39 69 40 70 41 71 42 72 68 73 69 74 78 75 70 76 71 77 77 78
REMARK SMILES IDX 79 79 72 80 73 81 74 82 75 83 76 84 52 85 53 86 62 87 54 88
REMARK SMILES IDX 55 89 61 90 63 91 56 92 57 93 58 94 59 95 60 96
REMARK H PARENT 17 6 6 14 22 27 84 46 50 57
REMARK Flexibility Score: inf
ROOT
ATOM      1  C   UNL A   1      32.971  28.930  26.884  1.00  0.00     0.023 C 
ENDROOT
BRANCH   1   2
ATOM      2  C   UNL A   1      33.708  27.916  26.021  1.00  0.00     0.116 C 
BRANCH   2   3
ATOM      3  N   UNL A   1      34.234  28.428  24.764  1.00  0.00    -0.352 N 
ATOM      4  C   UNL A   1      33.691  28.490  23.495  1.00  0.00     0.258 C 
ATOM      5  O   UNL A   1      34.383  28.968  22.602  1.00  0.00    -0.269 OA
ATOM      6  H   UNL A   1      35.145  28.797  24.831  1.00  0.00     0.163 HD
BRANCH   4   7
ATOM      7  C   UNL A   1      32.347  27.930  23.171  1.00  0.00     0.119 A 
ATOM      8  C   UNL A   1      29.915  28.269  23.154  1.00  0.00     0.036 A 
ATOM      9  C   UNL A   1      29.742  26.880  23.110  1.00  0.00     0.033 A 
ATOM     10  C   UNL A   1      31.223  28.762  23.080  1.00  0.00     0.046 A 
ATOM     11  C   UNL A   1      30.838  26.023  22.998  1.00  0.00     0.088 A 
ATOM     12  C   UNL A   1      32.132  26.560  23.025  1.00  0.00     0.282 A 
BRANCH   8  13
ATOM     13  N   UNL A   1      28.802  29.084  23.242  1.00  0.00    -0.380 N 
ATOM     14  H   UNL A   1      27.959  28.666  23.529  1.00  0.00     0.160 HD
BRANCH  13  15
ATOM     15  C   UNL A   1      28.771  30.523  22.942  1.00  0.00     0.102 C 
ATOM     16  C   UNL A   1      27.743  31.202  23.852  1.00  0.00     0.033 C 
BRANCH  15  17
ATOM     17  C   UNL A   1      28.435  30.717  21.444  1.00  0.00     0.184 C 
BRANCH  17  18
ATOM     18  O   UNL A   1      27.960  32.023  21.114  1.00  0.00    -0.383 OA
ATOM     19  C   UNL A   1      28.035  32.347  19.735  1.00  0.00     0.194 C 
ENDBRANCH  17  18
ENDBRANCH  15  17
ENDBRANCH  13  15
ENDBRANCH   8  13
BRANCH  12  20
ATOM     20  N   UNL A   1      33.220  25.635  22.790  1.00  0.00     0.063 N 
ATOM     21  O   UNL A   1      33.486  24.843  23.705  1.00  0.00    -0.258 OA
ATOM     22  O   UNL A   1      33.676  25.596  21.638  1.00  0.00    -0.258 OA
ENDBRANCH  12  20
ENDBRANCH   4   7
ENDBRANCH   2   3
ENDBRANCH   1   2
BRANCH   1  23
ATOM     23  C   UNL A   1      33.732  30.196  27.252  1.00  0.00     0.023 C 
BRANCH  23  24
ATOM     24  C   UNL A   1      35.079  29.995  27.937  1.00  0.00     0.116 C 
BRANCH  24  25
ATOM     25  N   UNL A   1      35.221  30.727  29.189  1.00  0.00    -0.352 N 
ATOM     26  C   UNL A   1      36.306  30.820  30.035  1.00  0.00     0.251 C 
ATOM     27  H   UNL A   1      34.423  31.228  29.473  1.00  0.00     0.163 HD
ATOM     28  O   UNL A   1      36.202  31.432  31.091  1.00  0.00    -0.269 OA
BRANCH  26  29
ATOM     29  C   UNL A   1      37.574  30.142  29.684  1.00  0.00     0.039 A 
ATOM     30  C   UNL A   1      37.976  30.117  28.346  1.00  0.00     0.014 A 
ATOM     31  C   UNL A   1      38.386  29.580  30.671  1.00  0.00     0.014 A 
ATOM     32  C   UNL A   1      39.242  29.625  28.014  1.00  0.00     0.010 A 
ATOM     33  C   UNL A   1      39.675  29.165  30.351  1.00  0.00     0.010 A 
ATOM     34  C   UNL A   1      40.124  29.198  29.021  1.00  0.00    -0.014 A 
BRANCH  34  35
ATOM     35  C   UNL A   1      41.529  28.821  28.712  1.00  0.00     0.031 A 
ATOM     36  C   UNL A   1      42.610  29.866  28.699  1.00  0.00     0.074 A 
ATOM     37  C   UNL A   1      41.813  27.552  28.358  1.00  0.00     0.049 A 
ATOM     38  N   UNL A   1      43.870  29.745  28.370  1.00  0.00    -0.248 NA
ATOM     39  C   UNL A   1      42.217  31.233  29.076  1.00  0.00     0.031 C 
ATOM     40  C   UNL A   1      40.841  26.457  28.271  1.00  0.00     0.029 A 
ATOM     41  N   UNL A   1      42.999  26.967  27.986  1.00  0.00    -0.354 N 
ATOM     42  C   UNL A   1      44.415  31.018  28.482  1.00  0.00     0.074 A 
ATOM     43  C   UNL A   1      43.338  31.906  28.863  1.00  0.00     0.031 C 
ATOM     44  C   UNL A   1      41.473  25.335  27.894  1.00  0.00     0.029 A 
ATOM     45  C   UNL A   1      42.885  25.632  27.674  1.00  0.00     0.049 A 
ATOM     46  H   UNL A   1      43.852  27.458  27.947  1.00  0.00     0.167 HD
ATOM     47  C   UNL A   1      45.701  31.409  28.308  1.00  0.00     0.037 A 
ATOM     48  C   UNL A   1      43.809  24.748  27.251  1.00  0.00     0.037 A 
ATOM     49  C   UNL A   1      46.775  30.516  27.957  1.00  0.00     0.049 A 
ATOM     50  C   UNL A   1      45.231  25.202  27.072  1.00  0.00     0.074 A 
ATOM     51  C   UNL A   1      48.123  30.801  27.829  1.00  0.00     0.029 A 
ATOM     52  N   UNL A   1      46.623  29.166  27.674  1.00  0.00    -0.354 N 
ATOM     53  N   UNL A   1      45.744  26.395  27.257  1.00  0.00    -0.248 NA
ATOM     54  C   UNL A   1      46.203  24.191  26.633  1.00  0.00     0.031 C 
ATOM     55  C   UNL A   1      48.782  29.633  27.432  1.00  0.00     0.029 A 
ATOM     56  C   UNL A   1      47.850  28.609  27.351  1.00  0.00     0.049 A 
ATOM     57  H   UNL A   1      45.770  28.676  27.699  1.00  0.00     0.167 HD
ATOM     58  C   UNL A   1      47.099  26.276  26.972  1.00  0.00     0.074 A 
ATOM     59  C   UNL A   1      47.331  24.889  26.620  1.00  0.00     0.031 C 
ATOM     60  C   UNL A   1      48.064  27.227  27.001  1.00  0.00     0.037 A 
BRANCH  47  61
ATOM     61  C   UNL A   1      46.016  32.866  28.503  1.00  0.00     0.058 A 
ATOM     62  C   UNL A   1      45.977  33.776  27.435  1.00  0.00     0.135 A 
ATOM     63  C   UNL A   1      46.336  33.364  29.776  1.00  0.00     0.135 A 
ATOM     64  F   UNL A   1      45.692  33.350  26.194  1.00  0.00    -0.206 F 
ATOM     65  C   UNL A   1      46.278  35.121  27.614  1.00  0.00     0.059 A 
ATOM     66  C   UNL A   1      46.613  34.713  29.984  1.00  0.00     0.059 A 
ATOM     67  F   UNL A   1      46.386  32.539  30.833  1.00  0.00    -0.206 F 
ATOM     68  C   UNL A   1      46.598  35.580  28.893  1.00  0.00     0.060 A 
BRANCH  68  69
ATOM     69  S   UNL A   1      46.991  37.329  29.108  1.00  0.00     0.124 S 
ATOM     70  O   UNL A   1      45.659  37.926  29.124  1.00  0.00    -0.237 OA
ATOM     71  O   UNL A   1      47.702  37.336  30.383  1.00  0.00    -0.237 OA
ATOM     72  O   UNL A   1      47.805  37.641  27.938  1.00  0.00    -0.744 OA
ENDBRANCH  68  69
ENDBRANCH  47  61
BRANCH  48  73
ATOM     73  C   UNL A   1      43.420  23.338  26.988  1.00  0.00     0.058 A 
ATOM     74  C   UNL A   1      43.145  22.459  28.047  1.00  0.00     0.135 A 
ATOM     75  C   UNL A   1      43.291  22.846  25.680  1.00  0.00     0.135 A 
ATOM     76  F   UNL A   1      43.262  22.880  29.315  1.00  0.00    -0.206 F 
ATOM     77  C   UNL A   1      42.766  21.140  27.819  1.00  0.00     0.059 A 
ATOM     78  C   UNL A   1      42.891  21.538  25.426  1.00  0.00     0.059 A 
ATOM     79  F   UNL A   1      43.526  23.652  24.633  1.00  0.00    -0.206 F 
ATOM     80  C   UNL A   1      42.638  20.689  26.504  1.00  0.00     0.060 A 
BRANCH  80  81
ATOM     81  S   UNL A   1      42.085  18.994  26.219  1.00  0.00     0.124 S 
ATOM     82  O   UNL A   1      42.271  18.399  27.538  1.00  0.00    -0.237 OA
ATOM     83  O   UNL A   1      40.701  19.188  25.796  1.00  0.00    -0.237 OA
ATOM     84  O   UNL A   1      42.988  18.518  25.176  1.00  0.00    -0.744 OA
ENDBRANCH  80  81
ENDBRANCH  48  73
BRANCH  60  85
ATOM     85  C   UNL A   1      49.464  26.802  26.658  1.00  0.00     0.058 A 
ATOM     86  C   UNL A   1      49.935  26.820  25.337  1.00  0.00     0.135 A 
ATOM     87  C   UNL A   1      50.362  26.420  27.669  1.00  0.00     0.135 A 
ATOM     88  F   UNL A   1      49.115  27.169  24.332  1.00  0.00    -0.206 F 
ATOM     89  C   UNL A   1      51.241  26.458  25.025  1.00  0.00     0.059 A 
ATOM     90  C   UNL A   1      51.679  26.077  27.385  1.00  0.00     0.059 A 
ATOM     91  F   UNL A   1      49.964  26.393  28.951  1.00  0.00    -0.206 F 
ATOM     92  C   UNL A   1      52.108  26.090  26.057  1.00  0.00     0.060 A 
BRANCH  92  93
ATOM     93  S   UNL A   1      53.811  25.658  25.646  1.00  0.00     0.124 S 
ATOM     94  O   UNL A   1      54.281  25.084  26.902  1.00  0.00    -0.237 OA
ATOM     95  O   UNL A   1      53.638  24.716  24.544  1.00  0.00    -0.237 OA
ATOM     96  O   UNL A   1      54.407  26.940  25.278  1.00  0.00    -0.744 OA
ENDBRANCH  92  93
ENDBRANCH  60  85
ENDBRANCH  34  35
ENDBRANCH  26  29
ENDBRANCH  24  25
ENDBRANCH  23  24
ENDBRANCH   1  23
TORSDOF 19
ENDMDL
MODEL 3
REMARK VINA RESULT:     -10.3      0.452      8.325
REMARK SMILES COC[C@@H](C)Nc1ccc([N+](=O)[O-])c(C(=O)NCCCCNC(=O)c2ccc(-c3c4nc(c(-c5c(F)cc(S(=O)(=O)[O-])cc5F)c5ccc([nH]5)c(-c5c(F)cc(S(=O)(=O)[O-])cc5F)c5nc(c(-c6c(F)cc(S(=O)(=O)[O-])cc6F)c6ccc3[nH]6)C=C5)C=C4)cc2)c1
REMARK SMILES IDX 19 1 18 2 17 3 15 4 16 5 14 7 7 8 8 9 91 10 9 11 10 12 6 13
REMARK SMILES IDX 4 15 5 16 3 17 2 18 1 19 11 20 12 21 13 22 20 23 21 24 22 25
REMARK SMILES IDX 23 26 24 28 25 29 26 30 90 31 27 32 89 33 28 34 29 35 30 36
REMARK SMILES IDX 83 37 31 38 88 39 82 40 84 41 32 42 87 43 81 44 80 45 33 47
REMARK SMILES IDX 67 48 46 49 66 50 47 51 50 52 65 53 85 54 48 55 49 56 64 58
REMARK SMILES IDX 86 59 51 60 34 61 35 62 44 63 36 64 37 65 43 66 45 67 38 68
REMARK SMILES IDX 39 69 40 70 41 71 42 72 68 73 69 74 78 75 70 76 71 77 77 78
REMARK SMILES IDX 79 79 72 80 73 81 74 82 75 83 76 84 52 85 53 86 62 87 54 88
REMARK SMILES IDX 55 89 61 90 63 91 56 92 57 93 58 94 59 95 60 96
REMARK H PARENT 17 6 6 14 22 27 84 46 50 57
REMARK Flexibility Score: inf
ROOT
ATOM      1  C   UNL A   1      37.935  22.605  25.399  1.00  0.00     0.023 C 
ENDROOT
BRANCH   1   2
ATOM      2  C   UNL A   1      36.429  22.753  25.238  1.00  0.00     0.116 C 
BRANCH   2   3
ATOM      3  N   UNL A   1      35.656  22.666  26.468  1.00  0.00    -0.352 N 
ATOM      4  C   UNL A   1      34.378  22.204  26.723  1.00  0.00     0.258 C 
ATOM      5  O   UNL A   1      33.969  22.268  27.877  1.00  0.00    -0.269 OA
ATOM      6  H   UNL A   1      36.130  22.998  27.265  1.00  0.00     0.163 HD
BRANCH   4   7
ATOM      7  C   UNL A   1      33.473  21.716  25.643  1.00  0.00     0.119 A 
ATOM      8  C   UNL A   1      32.776  19.841  24.218  1.00  0.00     0.036 A 
ATOM      9  C   UNL A   1      32.235  20.759  23.310  1.00  0.00     0.033 A 
ATOM     10  C   UNL A   1      33.295  20.345  25.417  1.00  0.00     0.046 A 
ATOM     11  C   UNL A   1      32.215  22.124  23.594  1.00  0.00     0.088 A 
ATOM     12  C   UNL A   1      32.833  22.589  24.763  1.00  0.00     0.282 A 
BRANCH   8  13
ATOM     13  N   UNL A   1      32.755  18.494  23.909  1.00  0.00    -0.380 N 
ATOM     14  H   UNL A   1      31.937  18.140  23.492  1.00  0.00     0.160 HD
BRANCH  13  15
ATOM     15  C   UNL A   1      33.851  17.544  24.152  1.00  0.00     0.102 C 
ATOM     16  C   UNL A   1      34.194  16.830  22.840  1.00  0.00     0.033 C 
BRANCH  15  17
ATOM     17  C   UNL A   1      33.420  16.550  25.256  1.00  0.00     0.184 C 
BRANCH  17  18
ATOM     18  O   UNL A   1      32.965  15.288  24.764  1.00  0.00    -0.383 OA
ATOM     19  C   UNL A   1      32.606  14.358  25.773  1.00  0.00     0.194 C 
ENDBRANCH  17  18
ENDBRANCH  15  17
ENDBRANCH  13  15
ENDBRANCH   8  13
BRANCH  12  20
ATOM     20  N   UNL A   1      32.680  23.997  25.059  1.00  0.00     0.063 N 
ATOM     21  O   UNL A   1      33.630  24.736  24.764  1.00  0.00    -0.258 OA
ATOM     22  O   UNL A   1      31.554  24.370  25.419  1.00  0.00    -0.258 OA
ENDBRANCH  12  20
ENDBRANCH   4   7
ENDBRANCH   2   3
ENDBRANCH   1   2
BRANCH   1  23
ATOM     23  C   UNL A   1      38.491  21.190  25.349  1.00  0.00     0.023 C 
BRANCH  23  24
ATOM     24  C   UNL A   1      39.442  20.800  26.475  1.00  0.00     0.116 C 
BRANCH  24  25
ATOM     25  N   UNL A   1      40.311  19.675  26.154  1.00  0.00    -0.352 N 
ATOM     26  C   UNL A   1      41.686  19.620  26.072  1.00  0.00     0.251 C 
ATOM     27  H   UNL A   1      39.846  18.828  25.965  1.00  0.00     0.163 HD
ATOM     28  O   UNL A   1      42.233  18.586  25.710  1.00  0.00    -0.269 OA
BRANCH  26  29
ATOM     29  C   UNL A   1      42.490  20.825  26.379  1.00  0.00     0.039 A 
ATOM     30  C   UNL A   1      43.011  21.575  25.321  1.00  0.00     0.014 A 
ATOM     31  C   UNL A   1      42.685  21.242  27.697  1.00  0.00     0.014 A 
ATOM     32  C   UNL A   1      43.635  22.798  25.582  1.00  0.00     0.010 A 
ATOM     33  C   UNL A   1      43.234  22.497  27.950  1.00  0.00     0.010 A 
ATOM     34  C   UNL A   1      43.700  23.296  26.895  1.00  0.00    -0.014 A 
BRANCH  34  35
ATOM     35  C   UNL A   1      44.213  24.662  27.181  1.00  0.00     0.031 A 
ATOM     36  C   UNL A   1      43.268  25.756  27.596  1.00  0.00     0.074 A 
ATOM     37  C   UNL A   1      45.517  24.937  26.981  1.00  0.00     0.049 A 
ATOM     38  N   UNL A   1      43.515  27.024  27.803  1.00  0.00    -0.248 NA
ATOM     39  C   UNL A   1      41.856  25.382  27.772  1.00  0.00     0.031 C 
ATOM     40  C   UNL A   1      46.525  23.978  26.519  1.00  0.00     0.029 A 
ATOM     41  N   UNL A   1      46.220  26.108  27.123  1.00  0.00    -0.354 N 
ATOM     42  C   UNL A   1      42.290  27.602  28.116  1.00  0.00     0.074 A 
ATOM     43  C   UNL A   1      41.294  26.556  28.023  1.00  0.00     0.031 C 
ATOM     44  C   UNL A   1      47.715  24.593  26.437  1.00  0.00     0.029 A 
ATOM     45  C   UNL A   1      47.553  25.997  26.802  1.00  0.00     0.049 A 
ATOM     46  H   UNL A   1      45.809  26.949  27.427  1.00  0.00     0.167 HD
ATOM     47  C   UNL A   1      42.023  28.882  28.471  1.00  0.00     0.037 A 
ATOM     48  C   UNL A   1      48.534  26.920  26.793  1.00  0.00     0.037 A 
ATOM     49  C   UNL A   1      43.022  29.912  28.589  1.00  0.00     0.049 A 
ATOM     50  C   UNL A   1      48.215  28.332  27.200  1.00  0.00     0.074 A 
ATOM     51  C   UNL A   1      42.862  31.220  29.013  1.00  0.00     0.029 A 
ATOM     52  N   UNL A   1      44.364  29.753  28.280  1.00  0.00    -0.354 N 
ATOM     53  N   UNL A   1      47.064  28.844  27.566  1.00  0.00    -0.248 NA
ATOM     54  C   UNL A   1      49.327  29.293  27.197  1.00  0.00     0.031 C 
ATOM     55  C   UNL A   1      44.101  31.863  28.924  1.00  0.00     0.029 A 
ATOM     56  C   UNL A   1      45.042  30.945  28.483  1.00  0.00     0.049 A 
ATOM     57  H   UNL A   1      44.777  28.917  27.963  1.00  0.00     0.167 HD
ATOM     58  C   UNL A   1      47.316  30.181  27.852  1.00  0.00     0.074 A 
ATOM     59  C   UNL A   1      48.732  30.395  27.634  1.00  0.00     0.031 C 
ATOM     60  C   UNL A   1      46.452  31.143  28.260  1.00  0.00     0.037 A 
BRANCH  47  61
ATOM     61  C   UNL A   1      40.591  29.235  28.765  1.00  0.00     0.058 A 
ATOM     62  C   UNL A   1      39.656  29.431  27.736  1.00  0.00     0.135 A 
ATOM     63  C   UNL A   1      40.142  29.355  30.089  1.00  0.00     0.135 A 
ATOM     64  F   UNL A   1      40.036  29.343  26.452  1.00  0.00    -0.206 F 
ATOM     65  C   UNL A   1      38.335  29.767  28.008  1.00  0.00     0.059 A 
ATOM     66  C   UNL A   1      38.816  29.664  30.386  1.00  0.00     0.059 A 
ATOM     67  F   UNL A   1      40.992  29.177  31.112  1.00  0.00    -0.206 F 
ATOM     68  C   UNL A   1      37.925  29.884  29.338  1.00  0.00     0.060 A 
BRANCH  68  69
ATOM     69  S   UNL A   1      36.207  30.326  29.674  1.00  0.00     0.124 S 
ATOM     70  O   UNL A   1      36.260  31.783  29.589  1.00  0.00    -0.237 OA
ATOM     71  O   UNL A   1      35.493  29.656  28.591  1.00  0.00    -0.237 OA
ATOM     72  O   UNL A   1      35.971  29.782  31.006  1.00  0.00    -0.744 OA
ENDBRANCH  68  69
ENDBRANCH  47  61
BRANCH  48  73
ATOM     73  C   UNL A   1      49.916  26.531  26.407  1.00  0.00     0.058 A 
ATOM     74  C   UNL A   1      50.812  26.021  27.360  1.00  0.00     0.135 A 
ATOM     75  C   UNL A   1      50.362  26.635  25.081  1.00  0.00     0.135 A 
ATOM     76  F   UNL A   1      50.435  25.910  28.642  1.00  0.00    -0.206 F 
ATOM     77  C   UNL A   1      52.104  25.639  27.014  1.00  0.00     0.059 A 
ATOM     78  C   UNL A   1      51.641  26.238  24.706  1.00  0.00     0.059 A 
ATOM     79  F   UNL A   1      49.537  27.100  24.130  1.00  0.00    -0.206 F 
ATOM     80  C   UNL A   1      52.509  25.748  25.682  1.00  0.00     0.060 A 
BRANCH  80  81
ATOM     81  S   UNL A   1      54.166  25.190  25.233  1.00  0.00     0.124 S 
ATOM     82  O   UNL A   1      53.917  23.802  24.858  1.00  0.00    -0.237 OA
ATOM     83  O   UNL A   1      54.510  26.094  24.140  1.00  0.00    -0.237 OA
ATOM     84  O   UNL A   1      54.929  25.387  26.461  1.00  0.00    -0.744 OA
ENDBRANCH  80  81
ENDBRANCH  48  73
BRANCH  60  85
ATOM     85  C   UNL A   1      47.015  32.514  28.513  1.00  0.00     0.058 A 
ATOM     86  C   UNL A   1      47.063  33.486  27.503  1.00  0.00     0.135 A 
ATOM     87  C   UNL A   1      47.463  32.875  29.794  1.00  0.00     0.135 A 
ATOM     88  F   UNL A   1      46.655  33.189  26.259  1.00  0.00    -0.206 F 
ATOM     89  C   UNL A   1      47.553  34.764  27.748  1.00  0.00     0.059 A 
ATOM     90  C   UNL A   1      47.933  34.154  30.069  1.00  0.00     0.059 A 
ATOM     91  F   UNL A   1      47.429  31.984  30.798  1.00  0.00    -0.206 F 
ATOM     92  C   UNL A   1      47.984  35.090  29.036  1.00  0.00     0.060 A 
BRANCH  92  93
ATOM     93  S   UNL A   1      48.583  36.764  29.352  1.00  0.00     0.124 S 
ATOM     94  O   UNL A   1      49.192  36.615  30.669  1.00  0.00    -0.237 OA
ATOM     95  O   UNL A   1      49.510  36.979  28.245  1.00  0.00    -0.237 OA
ATOM     96  O   UNL A   1      47.367  37.573  29.308  1.00  0.00    -0.744 OA
ENDBRANCH  92  93
ENDBRANCH  60  85
ENDBRANCH  34  35
ENDBRANCH  26  29
ENDBRANCH  24  25
ENDBRANCH  23  24
ENDBRANCH   1  23
TORSDOF 19
ENDMDL
