MODEL 1
REMARK VINA RESULT:     -14.5      0.000      0.000
REMARK SMILES Cc1ccccc1-c1c(Cl)ccc2c1C=C(C(=O)NCCCCNC(=O)c1ccc(-c3c4nc(c(-c5c(F)cc(S(=O)(=O)[O-])cc5F)c5ccc([nH]5)c(-c5c(F)cc(S(=O)(=O)[O-])cc5F)c5nc(c(-c6c(F)cc(S(=O)(=O)[O-])cc6F)c6ccc3[nH]6)C=C5)C=C4)cc1)[C@@H](C(F)(F)F)O2
REMARK SMILES IDX 22 1 21 2 20 3 19 4 17 5 18 6 16 8 8 9 9 10 14 11 10 12
REMARK SMILES IDX 11 13 13 14 15 15 12 16 98 17 93 18 7 19 1 20 2 21 3 22 4 23
REMARK SMILES IDX 6 24 5 25 94 26 95 27 96 28 97 29 23 30 24 31 25 32 26 34
REMARK SMILES IDX 27 35 28 36 92 37 29 38 91 39 30 40 31 41 32 42 85 43 33 44
REMARK SMILES IDX 90 45 84 46 86 47 34 48 89 49 83 50 82 51 35 53 69 54 48 55
REMARK SMILES IDX 68 56 49 57 52 58 67 59 87 60 50 61 51 62 66 64 88 65 53 66
REMARK SMILES IDX 36 67 37 68 46 69 38 70 39 71 45 72 47 73 40 74 41 75 42 76
REMARK SMILES IDX 43 77 44 78 70 79 71 80 80 81 72 82 73 83 79 84 81 85 74 86
REMARK SMILES IDX 75 87 76 88 77 89 78 90 54 91 55 92 64 93 56 94 57 95 63 96
REMARK SMILES IDX 65 97 58 98 59 99 60 100 61 101 62 102
REMARK H PARENT 19 7 24 33 86 52 52 63
REMARK Flexibility Score: inf
ROOT
ATOM      1  C   UNL A   1      32.952  29.892  27.246  1.00  0.00     0.023 C 
ENDROOT
BRANCH   1   2
ATOM      2  C   UNL A   1      32.146  28.752  26.610  1.00  0.00     0.023 C 
BRANCH   2   3
ATOM      3  C   UNL A   1      31.721  28.961  25.149  1.00  0.00     0.116 C 
BRANCH   3   4
ATOM      4  N   UNL A   1      32.872  29.104  24.276  1.00  0.00    -0.352 N 
ATOM      5  C   UNL A   1      33.685  28.237  23.638  1.00  0.00     0.251 C 
ATOM      6  O   UNL A   1      34.732  28.703  23.177  1.00  0.00    -0.270 OA
ATOM      7  H   UNL A   1      33.113  30.045  24.114  1.00  0.00     0.163 HD
BRANCH   5   8
ATOM      8  C   UNL A   1      33.367  26.805  23.365  1.00  0.00     0.067 C 
ATOM      9  C   UNL A   1      33.717  24.002  25.783  1.00  0.00     0.012 A 
ATOM     10  C   UNL A   1      32.871  23.533  26.821  1.00  0.00     0.049 A 
ATOM     11  C   UNL A   1      33.170  24.944  24.870  1.00  0.00     0.027 A 
ATOM     12  Cl  UNL A   1      33.443  22.471  28.068  1.00  0.00    -0.084 Cl
ATOM     13  C   UNL A   1      31.528  23.918  26.909  1.00  0.00     0.025 A 
ATOM     14  C   UNL A   1      31.787  25.242  24.924  1.00  0.00     0.128 A 
ATOM     15  C   UNL A   1      34.015  25.862  24.067  1.00  0.00     0.026 C 
ATOM     16  C   UNL A   1      30.978  24.740  25.937  1.00  0.00     0.049 A 
ATOM     17  O   UNL A   1      31.146  26.084  24.049  1.00  0.00    -0.475 OA
ATOM     18  C   UNL A   1      31.944  26.544  22.936  1.00  0.00     0.314 C 
BRANCH   9  19
ATOM     19  C   UNL A   1      35.070  23.412  25.605  1.00  0.00    -0.013 A 
ATOM     20  C   UNL A   1      34.308  21.294  24.354  1.00  0.00     0.045 C 
ATOM     21  C   UNL A   1      35.352  22.190  24.959  1.00  0.00    -0.043 A 
ATOM     22  C   UNL A   1      36.689  21.752  24.859  1.00  0.00     0.004 A 
ATOM     23  C   UNL A   1      37.746  22.522  25.338  1.00  0.00     0.000 A 
ATOM     24  C   UNL A   1      36.165  24.169  26.088  1.00  0.00     0.009 A 
ATOM     25  C   UNL A   1      37.484  23.742  25.943  1.00  0.00     0.001 A 
ENDBRANCH   9  19
BRANCH  18  26
ATOM     26  C   UNL A   1      31.836  25.598  21.729  1.00  0.00     0.429 C 
ATOM     27  F   UNL A   1      31.075  24.514  22.026  1.00  0.00    -0.167 F 
ATOM     28  F   UNL A   1      31.237  26.208  20.674  1.00  0.00    -0.167 F 
ATOM     29  F   UNL A   1      33.030  25.134  21.296  1.00  0.00    -0.167 F 
ENDBRANCH  18  26
ENDBRANCH   5   8
ENDBRANCH   3   4
ENDBRANCH   2   3
ENDBRANCH   1   2
BRANCH   1  30
ATOM     30  C   UNL A   1      34.462  29.672  27.282  1.00  0.00     0.116 C 
BRANCH  30  31
ATOM     31  N   UNL A   1      35.223  30.892  27.474  1.00  0.00    -0.352 N 
ATOM     32  C   UNL A   1      36.438  31.068  28.133  1.00  0.00     0.251 C 
ATOM     33  H   UNL A   1      34.828  31.705  27.086  1.00  0.00     0.163 HD
ATOM     34  O   UNL A   1      36.790  32.143  28.528  1.00  0.00    -0.269 OA
BRANCH  32  35
ATOM     35  C   UNL A   1      37.344  29.891  28.202  1.00  0.00     0.039 A 
ATOM     36  C   UNL A   1      37.314  29.132  29.380  1.00  0.00     0.014 A 
ATOM     37  C   UNL A   1      38.332  29.678  27.248  1.00  0.00     0.014 A 
ATOM     38  C   UNL A   1      38.383  28.292  29.691  1.00  0.00     0.010 A 
ATOM     39  C   UNL A   1      39.428  28.913  27.593  1.00  0.00     0.010 A 
ATOM     40  C   UNL A   1      39.478  28.255  28.832  1.00  0.00    -0.014 A 
BRANCH  40  41
ATOM     41  C   UNL A   1      40.755  27.622  29.135  1.00  0.00     0.031 A 
ATOM     42  C   UNL A   1      41.001  26.210  28.747  1.00  0.00     0.074 A 
ATOM     43  C   UNL A   1      41.780  28.366  29.603  1.00  0.00     0.049 A 
ATOM     44  N   UNL A   1      42.013  25.501  29.122  1.00  0.00    -0.248 NA
ATOM     45  C   UNL A   1      40.064  25.460  27.919  1.00  0.00     0.031 C 
ATOM     46  C   UNL A   1      43.203  28.041  29.517  1.00  0.00     0.029 A 
ATOM     47  N   UNL A   1      41.781  29.528  30.352  1.00  0.00    -0.354 N 
ATOM     48  C   UNL A   1      42.041  24.357  28.353  1.00  0.00     0.074 A 
ATOM     49  C   UNL A   1      40.752  24.336  27.703  1.00  0.00     0.031 C 
ATOM     50  C   UNL A   1      43.878  28.797  30.396  1.00  0.00     0.029 A 
ATOM     51  C   UNL A   1      42.894  29.507  31.194  1.00  0.00     0.049 A 
ATOM     52  H   UNL A   1      41.111  30.248  30.299  1.00  0.00     0.167 HD
ATOM     53  C   UNL A   1      43.212  23.656  28.252  1.00  0.00     0.037 A 
ATOM     54  C   UNL A   1      42.818  29.423  32.556  1.00  0.00     0.037 A 
ATOM     55  C   UNL A   1      44.208  24.170  29.204  1.00  0.00     0.049 A 
ATOM     56  C   UNL A   1      43.493  28.190  33.128  1.00  0.00     0.074 A 
ATOM     57  C   UNL A   1      45.313  24.994  29.064  1.00  0.00     0.029 A 
ATOM     58  N   UNL A   1      43.971  24.065  30.573  1.00  0.00    -0.354 N 
ATOM     59  N   UNL A   1      43.824  27.146  32.418  1.00  0.00    -0.248 NA
ATOM     60  C   UNL A   1      43.834  28.023  34.539  1.00  0.00     0.031 C 
ATOM     61  C   UNL A   1      45.695  25.443  30.355  1.00  0.00     0.029 A 
ATOM     62  C   UNL A   1      44.837  24.877  31.282  1.00  0.00     0.049 A 
ATOM     63  H   UNL A   1      43.282  23.492  30.980  1.00  0.00     0.167 HD
ATOM     64  C   UNL A   1      44.374  26.186  33.223  1.00  0.00     0.074 A 
ATOM     65  C   UNL A   1      44.383  26.795  34.541  1.00  0.00     0.031 C 
ATOM     66  C   UNL A   1      44.761  24.969  32.736  1.00  0.00     0.037 A 
BRANCH  53  67
ATOM     67  C   UNL A   1      43.572  22.714  27.100  1.00  0.00     0.058 A 
ATOM     68  C   UNL A   1      42.899  21.478  26.940  1.00  0.00     0.135 A 
ATOM     69  C   UNL A   1      44.616  22.909  26.173  1.00  0.00     0.135 A 
ATOM     70  F   UNL A   1      41.810  21.173  27.660  1.00  0.00    -0.206 F 
ATOM     71  C   UNL A   1      43.304  20.487  26.036  1.00  0.00     0.059 A 
ATOM     72  C   UNL A   1      45.068  21.922  25.290  1.00  0.00     0.059 A 
ATOM     73  F   UNL A   1      45.222  24.088  26.024  1.00  0.00    -0.206 F 
ATOM     74  C   UNL A   1      44.417  20.703  25.238  1.00  0.00     0.060 A 
BRANCH  74  75
ATOM     75  S   UNL A   1      44.981  19.402  24.127  1.00  0.00     0.124 S 
ATOM     76  O   UNL A   1      44.335  18.219  24.688  1.00  0.00    -0.237 OA
ATOM     77  O   UNL A   1      44.470  19.856  22.839  1.00  0.00    -0.237 OA
ATOM     78  O   UNL A   1      46.434  19.439  24.268  1.00  0.00    -0.744 OA
ENDBRANCH  74  75
ENDBRANCH  53  67
BRANCH  54  79
ATOM     79  C   UNL A   1      41.617  30.087  33.127  1.00  0.00     0.058 A 
ATOM     80  C   UNL A   1      41.652  31.489  33.238  1.00  0.00     0.135 A 
ATOM     81  C   UNL A   1      40.361  29.464  33.089  1.00  0.00     0.135 A 
ATOM     82  F   UNL A   1      42.831  32.129  33.305  1.00  0.00    -0.206 F 
ATOM     83  C   UNL A   1      40.502  32.255  33.106  1.00  0.00     0.059 A 
ATOM     84  C   UNL A   1      39.191  30.214  32.969  1.00  0.00     0.059 A 
ATOM     85  F   UNL A   1      40.269  28.129  33.003  1.00  0.00    -0.206 F 
ATOM     86  C   UNL A   1      39.287  31.605  32.894  1.00  0.00     0.060 A 
BRANCH  86  87
ATOM     87  S   UNL A   1      37.901  32.602  32.297  1.00  0.00     0.124 S 
ATOM     88  O   UNL A   1      36.947  31.579  31.884  1.00  0.00    -0.237 OA
ATOM     89  O   UNL A   1      37.549  33.346  33.505  1.00  0.00    -0.237 OA
ATOM     90  O   UNL A   1      38.494  33.389  31.223  1.00  0.00    -0.744 OA
ENDBRANCH  86  87
ENDBRANCH  54  79
BRANCH  66  91
ATOM     91  C   UNL A   1      45.188  23.785  33.571  1.00  0.00     0.058 A 
ATOM     92  C   UNL A   1      46.449  23.668  34.183  1.00  0.00     0.135 A 
ATOM     93  C   UNL A   1      44.259  22.766  33.894  1.00  0.00     0.135 A 
ATOM     94  F   UNL A   1      47.377  24.626  34.054  1.00  0.00    -0.206 F 
ATOM     95  C   UNL A   1      46.792  22.581  34.991  1.00  0.00     0.059 A 
ATOM     96  C   UNL A   1      44.563  21.703  34.742  1.00  0.00     0.059 A 
ATOM     97  F   UNL A   1      43.011  22.776  33.401  1.00  0.00    -0.206 F 
ATOM     98  C   UNL A   1      45.844  21.602  35.265  1.00  0.00     0.060 A 
BRANCH  98  99
ATOM     99  S   UNL A   1      46.256  20.227  36.355  1.00  0.00     0.124 S 
ATOM    100  O   UNL A   1      45.451  19.151  35.785  1.00  0.00    -0.237 OA
ATOM    101  O   UNL A   1      47.699  20.092  36.180  1.00  0.00    -0.237 OA
ATOM    102  O   UNL A   1      45.835  20.707  37.667  1.00  0.00    -0.744 OA
ENDBRANCH  98  99
ENDBRANCH  66  91
ENDBRANCH  40  41
ENDBRANCH  32  35
ENDBRANCH  30  31
ENDBRANCH   1  30
TORSDOF 16
ENDMDL
MODEL 2
REMARK VINA RESULT:     -14.4      4.629     11.114
REMARK SMILES Cc1ccccc1-c1c(Cl)ccc2c1C=C(C(=O)NCCCCNC(=O)c1ccc(-c3c4nc(c(-c5c(F)cc(S(=O)(=O)[O-])cc5F)c5ccc([nH]5)c(-c5c(F)cc(S(=O)(=O)[O-])cc5F)c5nc(c(-c6c(F)cc(S(=O)(=O)[O-])cc6F)c6ccc3[nH]6)C=C5)C=C4)cc1)[C@@H](C(F)(F)F)O2
REMARK SMILES IDX 22 1 21 2 20 3 19 4 17 5 18 6 16 8 8 9 9 10 14 11 10 12
REMARK SMILES IDX 11 13 13 14 15 15 12 16 98 17 93 18 7 19 1 20 2 21 3 22 4 23
REMARK SMILES IDX 6 24 5 25 94 26 95 27 96 28 97 29 23 30 24 31 25 32 26 34
REMARK SMILES IDX 27 35 28 36 92 37 29 38 91 39 30 40 31 41 32 42 85 43 33 44
REMARK SMILES IDX 90 45 84 46 86 47 34 48 89 49 83 50 82 51 35 53 69 54 48 55
REMARK SMILES IDX 68 56 49 57 52 58 67 59 87 60 50 61 51 62 66 64 88 65 53 66
REMARK SMILES IDX 36 67 37 68 46 69 38 70 39 71 45 72 47 73 40 74 41 75 42 76
REMARK SMILES IDX 43 77 44 78 70 79 71 80 80 81 72 82 73 83 79 84 81 85 74 86
REMARK SMILES IDX 75 87 76 88 77 89 78 90 54 91 55 92 64 93 56 94 57 95 63 96
REMARK SMILES IDX 65 97 58 98 59 99 60 100 61 101 62 102
REMARK H PARENT 19 7 24 33 86 52 52 63
REMARK Flexibility Score: inf
ROOT
ATOM      1  C   UNL A   1      37.784  22.387  25.082  1.00  0.00     0.023 C 
ENDROOT
BRANCH   1   2
ATOM      2  C   UNL A   1      36.530  22.671  24.244  1.00  0.00     0.023 C 
BRANCH   2   3
ATOM      3  C   UNL A   1      35.260  21.910  24.650  1.00  0.00     0.116 C 
BRANCH   3   4
ATOM      4  N   UNL A   1      35.013  22.012  26.077  1.00  0.00    -0.352 N 
ATOM      5  C   UNL A   1      34.242  22.808  26.846  1.00  0.00     0.251 C 
ATOM      6  O   UNL A   1      34.468  22.786  28.060  1.00  0.00    -0.270 OA
ATOM      7  H   UNL A   1      35.523  21.352  26.600  1.00  0.00     0.163 HD
BRANCH   5   8
ATOM      8  C   UNL A   1      33.090  23.619  26.354  1.00  0.00     0.067 C 
ATOM      9  C   UNL A   1      33.327  26.727  24.327  1.00  0.00     0.012 A 
ATOM     10  C   UNL A   1      33.500  26.941  22.935  1.00  0.00     0.049 A 
ATOM     11  C   UNL A   1      33.020  25.406  24.751  1.00  0.00     0.027 A 
ATOM     12  Cl  UNL A   1      33.989  28.476  22.291  1.00  0.00    -0.084 Cl
ATOM     13  C   UNL A   1      33.305  25.916  22.001  1.00  0.00     0.025 A 
ATOM     14  C   UNL A   1      32.735  24.414  23.783  1.00  0.00     0.128 A 
ATOM     15  C   UNL A   1      33.280  24.929  26.132  1.00  0.00     0.026 C 
ATOM     16  C   UNL A   1      32.884  24.665  22.423  1.00  0.00     0.049 A 
ATOM     17  O   UNL A   1      32.363  23.126  24.085  1.00  0.00    -0.475 OA
ATOM     18  C   UNL A   1      32.112  22.868  25.484  1.00  0.00     0.314 C 
BRANCH   9  19
ATOM     19  C   UNL A   1      33.340  27.883  25.262  1.00  0.00    -0.013 A 
ATOM     20  C   UNL A   1      31.045  28.835  24.588  1.00  0.00     0.045 C 
ATOM     21  C   UNL A   1      32.315  28.842  25.393  1.00  0.00    -0.043 A 
ATOM     22  C   UNL A   1      32.459  29.888  26.328  1.00  0.00     0.004 A 
ATOM     23  C   UNL A   1      33.569  29.968  27.165  1.00  0.00     0.000 A 
ATOM     24  C   UNL A   1      34.460  27.995  26.122  1.00  0.00     0.009 A 
ATOM     25  C   UNL A   1      34.567  29.011  27.071  1.00  0.00     0.001 A 
ENDBRANCH   9  19
BRANCH  18  26
ATOM     26  C   UNL A   1      30.643  23.125  25.857  1.00  0.00     0.429 C 
ATOM     27  F   UNL A   1      30.550  23.843  27.005  1.00  0.00    -0.167 F 
ATOM     28  F   UNL A   1      30.009  23.850  24.900  1.00  0.00    -0.167 F 
ATOM     29  F   UNL A   1      29.925  21.993  26.041  1.00  0.00    -0.167 F 
ENDBRANCH  18  26
ENDBRANCH   5   8
ENDBRANCH   3   4
ENDBRANCH   2   3
ENDBRANCH   1   2
BRANCH   1  30
ATOM     30  C   UNL A   1      38.148  23.476  26.087  1.00  0.00     0.116 C 
BRANCH  30  31
ATOM     31  N   UNL A   1      39.235  23.108  26.974  1.00  0.00    -0.352 N 
ATOM     32  C   UNL A   1      40.184  23.930  27.579  1.00  0.00     0.251 C 
ATOM     33  H   UNL A   1      39.312  22.148  27.177  1.00  0.00     0.163 HD
ATOM     34  O   UNL A   1      41.220  23.496  27.995  1.00  0.00    -0.269 OA
BRANCH  32  35
ATOM     35  C   UNL A   1      39.797  25.347  27.814  1.00  0.00     0.039 A 
ATOM     36  C   UNL A   1      40.264  26.295  26.892  1.00  0.00     0.014 A 
ATOM     37  C   UNL A   1      39.197  25.749  29.000  1.00  0.00     0.014 A 
ATOM     38  C   UNL A   1      40.301  27.644  27.245  1.00  0.00     0.010 A 
ATOM     39  C   UNL A   1      39.311  27.071  29.383  1.00  0.00     0.010 A 
ATOM     40  C   UNL A   1      39.903  28.012  28.527  1.00  0.00    -0.014 A 
BRANCH  40  41
ATOM     41  C   UNL A   1      40.109  29.329  29.118  1.00  0.00     0.031 A 
ATOM     42  C   UNL A   1      39.055  30.369  29.013  1.00  0.00     0.074 A 
ATOM     43  C   UNL A   1      41.176  29.548  29.917  1.00  0.00     0.049 A 
ATOM     44  N   UNL A   1      39.202  31.611  29.335  1.00  0.00    -0.248 NA
ATOM     45  C   UNL A   1      37.732  30.079  28.473  1.00  0.00     0.031 C 
ATOM     46  C   UNL A   1      41.301  30.587  30.937  1.00  0.00     0.029 A 
ATOM     47  N   UNL A   1      42.428  28.960  29.929  1.00  0.00    -0.354 N 
ATOM     48  C   UNL A   1      37.953  32.194  29.363  1.00  0.00     0.074 A 
ATOM     49  C   UNL A   1      37.097  31.229  28.716  1.00  0.00     0.031 C 
ATOM     50  C   UNL A   1      42.597  30.737  31.252  1.00  0.00     0.029 A 
ATOM     51  C   UNL A   1      43.359  29.922  30.322  1.00  0.00     0.049 A 
ATOM     52  H   UNL A   1      42.627  28.024  29.699  1.00  0.00     0.167 HD
ATOM     53  C   UNL A   1      37.780  33.356  30.066  1.00  0.00     0.037 A 
ATOM     54  C   UNL A   1      44.336  30.417  29.505  1.00  0.00     0.037 A 
ATOM     55  C   UNL A   1      39.076  33.896  30.501  1.00  0.00     0.049 A 
ATOM     56  C   UNL A   1      44.239  31.915  29.277  1.00  0.00     0.074 A 
ATOM     57  C   UNL A   1      39.744  33.890  31.715  1.00  0.00     0.029 A 
ATOM     58  N   UNL A   1      40.004  34.316  29.548  1.00  0.00    -0.354 N 
ATOM     59  N   UNL A   1      43.174  32.622  29.541  1.00  0.00    -0.248 NA
ATOM     60  C   UNL A   1      45.317  32.731  28.724  1.00  0.00     0.031 C 
ATOM     61  C   UNL A   1      41.099  34.239  31.475  1.00  0.00     0.029 A 
ATOM     62  C   UNL A   1      41.252  34.476  30.120  1.00  0.00     0.049 A 
ATOM     63  H   UNL A   1      39.798  34.475  28.599  1.00  0.00     0.167 HD
ATOM     64  C   UNL A   1      43.382  33.929  29.190  1.00  0.00     0.074 A 
ATOM     65  C   UNL A   1      44.750  33.951  28.708  1.00  0.00     0.031 C 
ATOM     66  C   UNL A   1      42.402  34.875  29.316  1.00  0.00     0.037 A 
BRANCH  53  67
ATOM     67  C   UNL A   1      36.444  33.851  30.624  1.00  0.00     0.058 A 
ATOM     68  C   UNL A   1      35.427  34.321  29.756  1.00  0.00     0.135 A 
ATOM     69  C   UNL A   1      36.119  33.980  31.990  1.00  0.00     0.135 A 
ATOM     70  F   UNL A   1      35.517  34.175  28.426  1.00  0.00    -0.206 F 
ATOM     71  C   UNL A   1      34.266  34.966  30.202  1.00  0.00     0.059 A 
ATOM     72  C   UNL A   1      34.989  34.656  32.462  1.00  0.00     0.059 A 
ATOM     73  F   UNL A   1      36.846  33.405  32.949  1.00  0.00    -0.206 F 
ATOM     74  C   UNL A   1      34.072  35.164  31.560  1.00  0.00     0.060 A 
BRANCH  74  75
ATOM     75  S   UNL A   1      32.614  36.056  32.129  1.00  0.00     0.124 S 
ATOM     76  O   UNL A   1      32.210  36.781  30.928  1.00  0.00    -0.237 OA
ATOM     77  O   UNL A   1      31.732  34.970  32.544  1.00  0.00    -0.237 OA
ATOM     78  O   UNL A   1      33.126  36.890  33.213  1.00  0.00    -0.744 OA
ENDBRANCH  74  75
ENDBRANCH  53  67
BRANCH  54  79
ATOM     79  C   UNL A   1      44.840  29.429  28.515  1.00  0.00     0.058 A 
ATOM     80  C   UNL A   1      45.743  28.457  28.982  1.00  0.00     0.135 A 
ATOM     81  C   UNL A   1      44.117  29.145  27.347  1.00  0.00     0.135 A 
ATOM     82  F   UNL A   1      46.478  28.695  30.081  1.00  0.00    -0.206 F 
ATOM     83  C   UNL A   1      45.776  27.180  28.440  1.00  0.00     0.059 A 
ATOM     84  C   UNL A   1      44.145  27.872  26.778  1.00  0.00     0.059 A 
ATOM     85  F   UNL A   1      43.257  30.044  26.847  1.00  0.00    -0.206 F 
ATOM     86  C   UNL A   1      44.914  26.878  27.387  1.00  0.00     0.060 A 
BRANCH  86  87
ATOM     87  S   UNL A   1      44.658  25.132  26.993  1.00  0.00     0.124 S 
ATOM     88  O   UNL A   1      43.481  25.184  26.133  1.00  0.00    -0.237 OA
ATOM     89  O   UNL A   1      45.917  24.807  26.324  1.00  0.00    -0.237 OA
ATOM     90  O   UNL A   1      44.463  24.520  28.301  1.00  0.00    -0.744 OA
ENDBRANCH  86  87
ENDBRANCH  54  79
BRANCH  66  91
ATOM     91  C   UNL A   1      42.468  36.284  28.775  1.00  0.00     0.058 A 
ATOM     92  C   UNL A   1      43.137  37.341  29.416  1.00  0.00     0.135 A 
ATOM     93  C   UNL A   1      41.954  36.580  27.489  1.00  0.00     0.135 A 
ATOM     94  F   UNL A   1      43.771  37.159  30.583  1.00  0.00    -0.206 F 
ATOM     95  C   UNL A   1      43.222  38.621  28.861  1.00  0.00     0.059 A 
ATOM     96  C   UNL A   1      42.076  37.835  26.894  1.00  0.00     0.059 A 
ATOM     97  F   UNL A   1      41.320  35.651  26.758  1.00  0.00    -0.206 F 
ATOM     98  C   UNL A   1      42.687  38.860  27.600  1.00  0.00     0.060 A 
BRANCH  98  99
ATOM     99  S   UNL A   1      42.842  40.491  26.849  1.00  0.00     0.124 S 
ATOM    100  O   UNL A   1      43.778  40.224  25.762  1.00  0.00    -0.237 OA
ATOM    101  O   UNL A   1      41.474  40.795  26.441  1.00  0.00    -0.237 OA
ATOM    102  O   UNL A   1      43.357  41.311  27.942  1.00  0.00    -0.744 OA
ENDBRANCH  98  99
ENDBRANCH  66  91
ENDBRANCH  40  41
ENDBRANCH  32  35
ENDBRANCH  30  31
ENDBRANCH   1  30
TORSDOF 16
ENDMDL
MODEL 3
REMARK VINA RESULT:     -13.6      1.051      1.811
REMARK SMILES Cc1ccccc1-c1c(Cl)ccc2c1C=C(C(=O)NCCCCNC(=O)c1ccc(-c3c4nc(c(-c5c(F)cc(S(=O)(=O)[O-])cc5F)c5ccc([nH]5)c(-c5c(F)cc(S(=O)(=O)[O-])cc5F)c5nc(c(-c6c(F)cc(S(=O)(=O)[O-])cc6F)c6ccc3[nH]6)C=C5)C=C4)cc1)[C@@H](C(F)(F)F)O2
REMARK SMILES IDX 22 1 21 2 20 3 19 4 17 5 18 6 16 8 8 9 9 10 14 11 10 12
REMARK SMILES IDX 11 13 13 14 15 15 12 16 98 17 93 18 7 19 1 20 2 21 3 22 4 23
REMARK SMILES IDX 6 24 5 25 94 26 95 27 96 28 97 29 23 30 24 31 25 32 26 34
REMARK SMILES IDX 27 35 28 36 92 37 29 38 91 39 30 40 31 41 32 42 85 43 33 44
REMARK SMILES IDX 90 45 84 46 86 47 34 48 89 49 83 50 82 51 35 53 69 54 48 55
REMARK SMILES IDX 68 56 49 57 52 58 67 59 87 60 50 61 51 62 66 64 88 65 53 66
REMARK SMILES IDX 36 67 37 68 46 69 38 70 39 71 45 72 47 73 40 74 41 75 42 76
REMARK SMILES IDX 43 77 44 78 70 79 71 80 80 81 72 82 73 83 79 84 81 85 74 86
REMARK SMILES IDX 75 87 76 88 77 89 78 90 54 91 55 92 64 93 56 94 57 95 63 96
REMARK SMILES IDX 65 97 58 98 59 99 60 100 61 101 62 102
REMARK H PARENT 19 7 24 33 86 52 52 63
REMARK Flexibility Score: inf
ROOT
ATOM      1  C   UNL A   1      34.200  28.685  26.841  1.00  0.00     0.023 C 
ENDROOT
BRANCH   1   2
ATOM      2  C   UNL A   1      32.841  28.104  26.428  1.00  0.00     0.023 C 
BRANCH   2   3
ATOM      3  C   UNL A   1      32.144  28.794  25.246  1.00  0.00     0.116 C 
BRANCH   3   4
ATOM      4  N   UNL A   1      33.078  29.081  24.173  1.00  0.00    -0.352 N 
ATOM      5  C   UNL A   1      33.785  28.322  23.310  1.00  0.00     0.251 C 
ATOM      6  O   UNL A   1      34.686  28.893  22.687  1.00  0.00    -0.270 OA
ATOM      7  H   UNL A   1      33.229  30.045  24.046  1.00  0.00     0.163 HD
BRANCH   5   8
ATOM      8  C   UNL A   1      33.493  26.895  22.986  1.00  0.00     0.067 C 
ATOM      9  C   UNL A   1      33.432  24.082  25.417  1.00  0.00     0.012 A 
ATOM     10  C   UNL A   1      32.429  23.623  26.311  1.00  0.00     0.049 A 
ATOM     11  C   UNL A   1      33.043  25.034  24.435  1.00  0.00     0.027 A 
ATOM     12  Cl  UNL A   1      32.789  22.551  27.627  1.00  0.00    -0.084 Cl
ATOM     13  C   UNL A   1      31.094  24.026  26.193  1.00  0.00     0.025 A 
ATOM     14  C   UNL A   1      31.673  25.350  24.277  1.00  0.00     0.128 A 
ATOM     15  C   UNL A   1      34.013  25.942  23.774  1.00  0.00     0.026 C 
ATOM     16  C   UNL A   1      30.710  24.857  25.152  1.00  0.00     0.049 A 
ATOM     17  O   UNL A   1      31.184  26.203  23.318  1.00  0.00    -0.475 OA
ATOM     18  C   UNL A   1      32.149  26.654  22.342  1.00  0.00     0.314 C 
BRANCH   9  19
ATOM     19  C   UNL A   1      34.788  23.474  25.447  1.00  0.00    -0.013 A 
ATOM     20  C   UNL A   1      34.144  21.259  24.304  1.00  0.00     0.045 C 
ATOM     21  C   UNL A   1      35.125  22.200  24.945  1.00  0.00    -0.043 A 
ATOM     22  C   UNL A   1      36.459  21.750  25.037  1.00  0.00     0.004 A 
ATOM     23  C   UNL A   1      37.464  22.556  25.565  1.00  0.00     0.000 A 
ATOM     24  C   UNL A   1      35.831  24.268  25.984  1.00  0.00     0.009 A 
ATOM     25  C   UNL A   1      37.152  23.824  26.028  1.00  0.00     0.001 A 
ENDBRANCH   9  19
BRANCH  18  26
ATOM     26  C   UNL A   1      32.216  25.712  21.128  1.00  0.00     0.429 C 
ATOM     27  F   UNL A   1      32.458  24.434  21.516  1.00  0.00    -0.167 F 
ATOM     28  F   UNL A   1      31.038  25.691  20.453  1.00  0.00    -0.167 F 
ATOM     29  F   UNL A   1      33.179  26.043  20.239  1.00  0.00    -0.167 F 
ENDBRANCH  18  26
ENDBRANCH   5   8
ENDBRANCH   3   4
ENDBRANCH   2   3
ENDBRANCH   1   2
BRANCH   1  30
ATOM     30  C   UNL A   1      34.145  29.717  27.963  1.00  0.00     0.116 C 
BRANCH  30  31
ATOM     31  N   UNL A   1      34.907  30.920  27.684  1.00  0.00    -0.352 N 
ATOM     32  C   UNL A   1      36.252  31.180  27.941  1.00  0.00     0.251 C 
ATOM     33  H   UNL A   1      34.407  31.650  27.254  1.00  0.00     0.163 HD
ATOM     34  O   UNL A   1      36.678  32.299  27.992  1.00  0.00    -0.269 OA
BRANCH  32  35
ATOM     35  C   UNL A   1      37.164  30.008  28.010  1.00  0.00     0.039 A 
ATOM     36  C   UNL A   1      37.127  29.241  29.182  1.00  0.00     0.014 A 
ATOM     37  C   UNL A   1      38.163  29.808  27.064  1.00  0.00     0.014 A 
ATOM     38  C   UNL A   1      38.198  28.404  29.497  1.00  0.00     0.010 A 
ATOM     39  C   UNL A   1      39.260  29.047  27.414  1.00  0.00     0.010 A 
ATOM     40  C   UNL A   1      39.301  28.380  28.648  1.00  0.00    -0.014 A 
BRANCH  40  41
ATOM     41  C   UNL A   1      40.580  27.752  28.959  1.00  0.00     0.031 A 
ATOM     42  C   UNL A   1      40.802  26.318  28.651  1.00  0.00     0.074 A 
ATOM     43  C   UNL A   1      41.622  28.512  29.359  1.00  0.00     0.049 A 
ATOM     44  N   UNL A   1      41.816  25.621  29.045  1.00  0.00    -0.248 NA
ATOM     45  C   UNL A   1      39.840  25.530  27.891  1.00  0.00     0.031 C 
ATOM     46  C   UNL A   1      43.039  28.167  29.260  1.00  0.00     0.029 A 
ATOM     47  N   UNL A   1      41.651  29.717  30.037  1.00  0.00    -0.354 N 
ATOM     48  C   UNL A   1      41.816  24.434  28.344  1.00  0.00     0.074 A 
ATOM     49  C   UNL A   1      40.512  24.387  27.727  1.00  0.00     0.031 C 
ATOM     50  C   UNL A   1      43.742  28.967  30.077  1.00  0.00     0.029 A 
ATOM     51  C   UNL A   1      42.783  29.733  30.853  1.00  0.00     0.049 A 
ATOM     52  H   UNL A   1      40.987  30.439  29.957  1.00  0.00     0.167 HD
ATOM     53  C   UNL A   1      42.978  23.715  28.259  1.00  0.00     0.037 A 
ATOM     54  C   UNL A   1      42.739  29.731  32.219  1.00  0.00     0.037 A 
ATOM     55  C   UNL A   1      44.000  24.274  29.155  1.00  0.00     0.049 A 
ATOM     56  C   UNL A   1      43.415  28.527  32.848  1.00  0.00     0.074 A 
ATOM     57  C   UNL A   1      45.109  25.076  28.941  1.00  0.00     0.029 A 
ATOM     58  N   UNL A   1      43.795  24.253  30.533  1.00  0.00    -0.354 N 
ATOM     59  N   UNL A   1      43.720  27.440  32.194  1.00  0.00    -0.248 NA
ATOM     60  C   UNL A   1      43.789  28.441  34.258  1.00  0.00     0.031 C 
ATOM     61  C   UNL A   1      45.526  25.597  30.194  1.00  0.00     0.029 A 
ATOM     62  C   UNL A   1      44.685  25.096  31.172  1.00  0.00     0.049 A 
ATOM     63  H   UNL A   1      43.110  23.712  30.989  1.00  0.00     0.167 HD
ATOM     64  C   UNL A   1      44.280  26.524  33.042  1.00  0.00     0.074 A 
ATOM     65  C   UNL A   1      44.326  27.210  34.321  1.00  0.00     0.031 C 
ATOM     66  C   UNL A   1      44.644  25.275  32.620  1.00  0.00     0.037 A 
BRANCH  53  67
ATOM     67  C   UNL A   1      43.301  22.703  27.157  1.00  0.00     0.058 A 
ATOM     68  C   UNL A   1      42.638  21.452  27.107  1.00  0.00     0.135 A 
ATOM     69  C   UNL A   1      44.303  22.846  26.176  1.00  0.00     0.135 A 
ATOM     70  F   UNL A   1      41.584  21.185  27.892  1.00  0.00    -0.206 F 
ATOM     71  C   UNL A   1      43.018  20.407  26.254  1.00  0.00     0.059 A 
ATOM     72  C   UNL A   1      44.731  21.808  25.341  1.00  0.00     0.059 A 
ATOM     73  F   UNL A   1      44.887  24.018  25.924  1.00  0.00    -0.206 F 
ATOM     74  C   UNL A   1      44.094  20.581  25.398  1.00  0.00     0.060 A 
BRANCH  74  75
ATOM     75  S   UNL A   1      44.628  19.215  24.352  1.00  0.00     0.124 S 
ATOM     76  O   UNL A   1      46.029  19.069  24.731  1.00  0.00    -0.237 OA
ATOM     77  O   UNL A   1      43.737  18.139  24.774  1.00  0.00    -0.237 OA
ATOM     78  O   UNL A   1      44.402  19.714  22.997  1.00  0.00    -0.744 OA
ENDBRANCH  74  75
ENDBRANCH  53  67
BRANCH  54  79
ATOM     79  C   UNL A   1      41.558  30.441  32.776  1.00  0.00     0.058 A 
ATOM     80  C   UNL A   1      40.543  29.649  33.343  1.00  0.00     0.135 A 
ATOM     81  C   UNL A   1      41.646  31.781  33.179  1.00  0.00     0.135 A 
ATOM     82  F   UNL A   1      40.402  28.367  32.968  1.00  0.00    -0.206 F 
ATOM     83  C   UNL A   1      39.783  30.102  34.413  1.00  0.00     0.059 A 
ATOM     84  C   UNL A   1      40.883  32.262  34.244  1.00  0.00     0.059 A 
ATOM     85  F   UNL A   1      42.582  32.586  32.657  1.00  0.00    -0.206 F 
ATOM     86  C   UNL A   1      40.018  31.386  34.903  1.00  0.00     0.060 A 
BRANCH  86  87
ATOM     87  S   UNL A   1      39.349  31.791  36.534  1.00  0.00     0.124 S 
ATOM     88  O   UNL A   1      40.558  31.883  37.344  1.00  0.00    -0.237 OA
ATOM     89  O   UNL A   1      38.676  33.058  36.254  1.00  0.00    -0.237 OA
ATOM     90  O   UNL A   1      38.473  30.662  36.825  1.00  0.00    -0.744 OA
ENDBRANCH  86  87
ENDBRANCH  54  79
BRANCH  66  91
ATOM     91  C   UNL A   1      45.079  24.138  33.514  1.00  0.00     0.058 A 
ATOM     92  C   UNL A   1      44.246  23.069  33.888  1.00  0.00     0.135 A 
ATOM     93  C   UNL A   1      46.431  24.025  33.920  1.00  0.00     0.135 A 
ATOM     94  F   UNL A   1      42.975  22.995  33.467  1.00  0.00    -0.206 F 
ATOM     95  C   UNL A   1      44.697  22.007  34.675  1.00  0.00     0.059 A 
ATOM     96  C   UNL A   1      46.915  22.947  34.658  1.00  0.00     0.059 A 
ATOM     97  F   UNL A   1      47.337  24.963  33.601  1.00  0.00    -0.206 F 
ATOM     98  C   UNL A   1      46.033  21.954  35.057  1.00  0.00     0.060 A 
BRANCH  98  99
ATOM     99  S   UNL A   1      46.640  20.558  36.022  1.00  0.00     0.124 S 
ATOM    100  O   UNL A   1      47.877  21.100  36.574  1.00  0.00    -0.237 OA
ATOM    101  O   UNL A   1      45.566  20.334  36.986  1.00  0.00    -0.237 OA
ATOM    102  O   UNL A   1      46.799  19.508  35.021  1.00  0.00    -0.744 OA
ENDBRANCH  98  99
ENDBRANCH  66  91
ENDBRANCH  40  41
ENDBRANCH  32  35
ENDBRANCH  30  31
ENDBRANCH   1  30
TORSDOF 16
ENDMDL
