MODEL 1
REMARK VINA RESULT:     -10.6      0.000      0.000
REMARK SMILES C[C@](NC(=O)Cc1csc(N)n1)(C(=O)NCCCCNC(=O)c1ccc(-c2c3nc(c(-c4c(F)cc(S(=O)(=O)[O-])cc4F)c4ccc([nH]4)c(-c4c(F)cc(S(=O)(=O)[O-])cc4F)c4nc(c(-c5c(F)cc(S(=O)(=O)[O-])cc5F)c5ccc2[nH]5)C=C4)C=C3)cc1)C(F)(F)F
REMARK SMILES IDX 17 1 16 2 15 3 13 4 14 5 2 7 1 8 89 9 90 10 91 11 92 12 3 13
REMARK SMILES IDX 4 14 5 16 6 17 7 18 8 19 12 20 9 21 10 22 11 23 18 26 19 27
REMARK SMILES IDX 20 28 21 29 22 31 23 32 24 33 88 34 25 35 87 36 26 37 27 38
REMARK SMILES IDX 28 39 81 40 29 41 86 42 80 43 82 44 30 45 85 46 79 47 78 48
REMARK SMILES IDX 31 50 65 51 44 52 64 53 45 54 48 55 63 56 83 57 46 58 47 59
REMARK SMILES IDX 62 61 84 62 49 63 32 64 33 65 42 66 34 67 35 68 41 69 43 70
REMARK SMILES IDX 36 71 37 72 38 73 39 74 40 75 66 76 67 77 76 78 68 79 69 80
REMARK SMILES IDX 75 81 77 82 70 83 71 84 72 85 73 86 74 87 50 88 51 89 60 90
REMARK SMILES IDX 52 91 53 92 59 93 61 94 54 95 55 96 56 97 57 98 58 99
REMARK H PARENT 15 6 3 15 11 24 11 25 20 30 82 49 48 60
REMARK Flexibility Score: inf
ROOT
ATOM      1  C   UNL A   1      32.573  29.547  24.905  1.00  0.00     0.023 C 
ENDROOT
BRANCH   1   2
ATOM      2  C   UNL A   1      31.590  28.854  23.970  1.00  0.00     0.116 C 
BRANCH   2   3
ATOM      3  N   UNL A   1      32.169  28.074  22.892  1.00  0.00    -0.354 N 
ATOM      4  C   UNL A   1      31.683  26.824  22.562  1.00  0.00     0.254 C 
ATOM      5  O   UNL A   1      31.247  26.673  21.418  1.00  0.00    -0.272 OA
ATOM      6  H   UNL A   1      32.925  28.446  22.383  1.00  0.00     0.163 HD
BRANCH   4   7
ATOM      7  C   UNL A   1      31.903  25.611  23.513  1.00  0.00     0.212 C 
ATOM      8  C   UNL A   1      31.121  24.359  23.090  1.00  0.00     0.056 C 
BRANCH   7   9
ATOM      9  C   UNL A   1      33.394  25.262  23.193  1.00  0.00     0.420 C 
ATOM     10  F   UNL A   1      34.250  25.742  24.121  1.00  0.00    -0.168 F 
ATOM     11  F   UNL A   1      33.565  23.910  23.184  1.00  0.00    -0.168 F 
ATOM     12  F   UNL A   1      33.798  25.699  21.979  1.00  0.00    -0.168 F 
ENDBRANCH   7   9
BRANCH   7  13
ATOM     13  N   UNL A   1      31.755  25.921  24.974  1.00  0.00    -0.334 N 
ATOM     14  C   UNL A   1      31.465  25.251  26.120  1.00  0.00     0.227 C 
ATOM     15  H   UNL A   1      31.912  26.876  25.152  1.00  0.00     0.164 HD
ATOM     16  O   UNL A   1      31.308  25.981  27.108  1.00  0.00    -0.275 OA
BRANCH  14  17
ATOM     17  C   UNL A   1      31.430  23.737  26.293  1.00  0.00     0.157 C 
BRANCH  17  18
ATOM     18  C   UNL A   1      32.729  22.991  26.175  1.00  0.00     0.063 A 
ATOM     19  C   UNL A   1      32.925  21.709  25.696  1.00  0.00     0.093 A 
ATOM     20  N   UNL A   1      33.918  23.647  26.488  1.00  0.00    -0.225 NA
ATOM     21  S   UNL A   1      34.580  21.285  25.746  1.00  0.00    -0.106 S 
ATOM     22  C   UNL A   1      34.954  22.871  26.271  1.00  0.00     0.180 A 
BRANCH  22  23
ATOM     23  N   UNL A   1      36.222  23.253  26.432  1.00  0.00    -0.375 N 
ATOM     24  H   UNL A   1      36.688  23.730  25.707  1.00  0.00     0.159 HD
ATOM     25  H   UNL A   1      36.691  23.059  27.275  1.00  0.00     0.159 HD
ENDBRANCH  22  23
ENDBRANCH  17  18
ENDBRANCH  14  17
ENDBRANCH   7  13
ENDBRANCH   4   7
ENDBRANCH   2   3
ENDBRANCH   1   2
BRANCH   1  26
ATOM     26  C   UNL A   1      33.573  28.612  25.589  1.00  0.00     0.023 C 
BRANCH  26  27
ATOM     27  C   UNL A   1      33.646  28.684  27.117  1.00  0.00     0.116 C 
BRANCH  27  28
ATOM     28  N   UNL A   1      33.589  30.027  27.672  1.00  0.00    -0.352 N 
ATOM     29  C   UNL A   1      34.599  30.719  28.305  1.00  0.00     0.251 C 
ATOM     30  H   UNL A   1      32.729  30.498  27.585  1.00  0.00     0.163 HD
ATOM     31  O   UNL A   1      34.417  31.864  28.712  1.00  0.00    -0.269 OA
BRANCH  29  32
ATOM     32  C   UNL A   1      35.927  30.091  28.466  1.00  0.00     0.039 A 
ATOM     33  C   UNL A   1      36.813  30.085  27.387  1.00  0.00     0.014 A 
ATOM     34  C   UNL A   1      36.306  29.534  29.691  1.00  0.00     0.014 A 
ATOM     35  C   UNL A   1      38.116  29.614  27.568  1.00  0.00     0.010 A 
ATOM     36  C   UNL A   1      37.618  29.115  29.886  1.00  0.00     0.010 A 
ATOM     37  C   UNL A   1      38.543  29.177  28.834  1.00  0.00    -0.014 A 
BRANCH  37  38
ATOM     38  C   UNL A   1      39.973  28.880  29.104  1.00  0.00     0.031 A 
ATOM     39  C   UNL A   1      40.888  29.932  29.662  1.00  0.00     0.074 A 
ATOM     40  C   UNL A   1      40.459  27.674  28.747  1.00  0.00     0.049 A 
ATOM     41  N   UNL A   1      42.170  29.857  29.914  1.00  0.00    -0.248 NA
ATOM     42  C   UNL A   1      40.295  31.247  29.950  1.00  0.00     0.031 C 
ATOM     43  C   UNL A   1      39.677  26.599  28.129  1.00  0.00     0.029 A 
ATOM     44  N   UNL A   1      41.724  27.151  28.836  1.00  0.00    -0.354 N 
ATOM     45  C   UNL A   1      42.538  31.112  30.385  1.00  0.00     0.074 A 
ATOM     46  C   UNL A   1      41.355  31.943  30.335  1.00  0.00     0.031 C 
ATOM     47  C   UNL A   1      40.473  25.539  27.919  1.00  0.00     0.029 A 
ATOM     48  C   UNL A   1      41.827  25.868  28.350  1.00  0.00     0.049 A 
ATOM     49  H   UNL A   1      42.486  27.647  29.213  1.00  0.00     0.167 HD
ATOM     50  C   UNL A   1      43.749  31.523  30.834  1.00  0.00     0.037 A 
ATOM     51  C   UNL A   1      42.893  25.049  28.258  1.00  0.00     0.037 A 
ATOM     52  C   UNL A   1      44.917  30.679  30.883  1.00  0.00     0.049 A 
ATOM     53  C   UNL A   1      44.226  25.530  28.764  1.00  0.00     0.074 A 
ATOM     54  C   UNL A   1      46.173  30.977  31.385  1.00  0.00     0.029 A 
ATOM     55  N   UNL A   1      44.979  29.379  30.403  1.00  0.00    -0.354 N 
ATOM     56  N   UNL A   1      44.535  26.690  29.293  1.00  0.00    -0.248 NA
ATOM     57  C   UNL A   1      45.350  24.590  28.670  1.00  0.00     0.031 C 
ATOM     58  C   UNL A   1      47.007  29.878  31.158  1.00  0.00     0.029 A 
ATOM     59  C   UNL A   1      46.258  28.871  30.570  1.00  0.00     0.049 A 
ATOM     60  H   UNL A   1      44.226  28.889  30.002  1.00  0.00     0.167 HD
ATOM     61  C   UNL A   1      45.884  26.607  29.624  1.00  0.00     0.074 A 
ATOM     62  C   UNL A   1      46.325  25.280  29.244  1.00  0.00     0.031 C 
ATOM     63  C   UNL A   1      46.682  27.545  30.191  1.00  0.00     0.037 A 
BRANCH  50  64
ATOM     64  C   UNL A   1      43.877  32.947  31.310  1.00  0.00     0.058 A 
ATOM     65  C   UNL A   1      43.677  33.296  32.655  1.00  0.00     0.135 A 
ATOM     66  C   UNL A   1      44.251  33.967  30.421  1.00  0.00     0.135 A 
ATOM     67  F   UNL A   1      43.306  32.364  33.548  1.00  0.00    -0.206 F 
ATOM     68  C   UNL A   1      43.812  34.609  33.095  1.00  0.00     0.059 A 
ATOM     69  C   UNL A   1      44.423  35.283  30.845  1.00  0.00     0.059 A 
ATOM     70  F   UNL A   1      44.458  33.692  29.123  1.00  0.00    -0.206 F 
ATOM     71  C   UNL A   1      44.187  35.596  32.182  1.00  0.00     0.060 A 
BRANCH  71  72
ATOM     72  S   UNL A   1      44.363  37.292  32.772  1.00  0.00     0.124 S 
ATOM     73  O   UNL A   1      43.220  37.406  33.673  1.00  0.00    -0.237 OA
ATOM     74  O   UNL A   1      45.673  37.265  33.414  1.00  0.00    -0.237 OA
ATOM     75  O   UNL A   1      44.280  38.089  31.552  1.00  0.00    -0.744 OA
ENDBRANCH  71  72
ENDBRANCH  50  64
BRANCH  51  76
ATOM     76  C   UNL A   1      42.733  23.681  27.696  1.00  0.00     0.058 A 
ATOM     77  C   UNL A   1      42.504  22.581  28.536  1.00  0.00     0.135 A 
ATOM     78  C   UNL A   1      42.786  23.447  26.314  1.00  0.00     0.135 A 
ATOM     79  F   UNL A   1      42.448  22.753  29.866  1.00  0.00    -0.206 F 
ATOM     80  C   UNL A   1      42.352  21.295  28.029  1.00  0.00     0.059 A 
ATOM     81  C   UNL A   1      42.609  22.174  25.780  1.00  0.00     0.059 A 
ATOM     82  F   UNL A   1      42.982  24.468  25.464  1.00  0.00    -0.206 F 
ATOM     83  C   UNL A   1      42.404  21.101  26.648  1.00  0.00     0.060 A 
BRANCH  83  84
ATOM     84  S   UNL A   1      42.161  19.434  25.999  1.00  0.00     0.124 S 
ATOM     85  O   UNL A   1      40.715  19.396  25.819  1.00  0.00    -0.237 OA
ATOM     86  O   UNL A   1      42.958  19.464  24.776  1.00  0.00    -0.237 OA
ATOM     87  O   UNL A   1      42.688  18.581  27.061  1.00  0.00    -0.744 OA
ENDBRANCH  83  84
ENDBRANCH  51  76
BRANCH  63  88
ATOM     88  C   UNL A   1      48.109  27.159  30.473  1.00  0.00     0.058 A 
ATOM     89  C   UNL A   1      49.116  27.281  29.503  1.00  0.00     0.135 A 
ATOM     90  C   UNL A   1      48.481  26.707  31.750  1.00  0.00     0.135 A 
ATOM     91  F   UNL A   1      48.813  27.700  28.264  1.00  0.00    -0.206 F 
ATOM     92  C   UNL A   1      50.436  26.944  29.780  1.00  0.00     0.059 A 
ATOM     93  C   UNL A   1      49.801  26.395  32.059  1.00  0.00     0.059 A 
ATOM     94  F   UNL A   1      47.561  26.581  32.719  1.00  0.00    -0.206 F 
ATOM     95  C   UNL A   1      50.771  26.505  31.063  1.00  0.00     0.060 A 
BRANCH  95  96
ATOM     96  S   UNL A   1      52.494  26.106  31.419  1.00  0.00     0.124 S 
ATOM     97  O   UNL A   1      52.379  24.750  31.946  1.00  0.00    -0.237 OA
ATOM     98  O   UNL A   1      53.119  26.224  30.105  1.00  0.00    -0.237 OA
ATOM     99  O   UNL A   1      52.887  27.125  32.387  1.00  0.00    -0.744 OA
ENDBRANCH  95  96
ENDBRANCH  63  88
ENDBRANCH  37  38
ENDBRANCH  29  32
ENDBRANCH  27  28
ENDBRANCH  26  27
ENDBRANCH   1  26
TORSDOF 19
ENDMDL
MODEL 2
REMARK VINA RESULT:     -10.6      1.355      1.963
REMARK SMILES C[C@](NC(=O)Cc1csc(N)n1)(C(=O)NCCCCNC(=O)c1ccc(-c2c3nc(c(-c4c(F)cc(S(=O)(=O)[O-])cc4F)c4ccc([nH]4)c(-c4c(F)cc(S(=O)(=O)[O-])cc4F)c4nc(c(-c5c(F)cc(S(=O)(=O)[O-])cc5F)c5ccc2[nH]5)C=C4)C=C3)cc1)C(F)(F)F
REMARK SMILES IDX 17 1 16 2 15 3 13 4 14 5 2 7 1 8 89 9 90 10 91 11 92 12 3 13
REMARK SMILES IDX 4 14 5 16 6 17 7 18 8 19 12 20 9 21 10 22 11 23 18 26 19 27
REMARK SMILES IDX 20 28 21 29 22 31 23 32 24 33 88 34 25 35 87 36 26 37 27 38
REMARK SMILES IDX 28 39 81 40 29 41 86 42 80 43 82 44 30 45 85 46 79 47 78 48
REMARK SMILES IDX 31 50 65 51 44 52 64 53 45 54 48 55 63 56 83 57 46 58 47 59
REMARK SMILES IDX 62 61 84 62 49 63 32 64 33 65 42 66 34 67 35 68 41 69 43 70
REMARK SMILES IDX 36 71 37 72 38 73 39 74 40 75 66 76 67 77 76 78 68 79 69 80
REMARK SMILES IDX 75 81 77 82 70 83 71 84 72 85 73 86 74 87 50 88 51 89 60 90
REMARK SMILES IDX 52 91 53 92 59 93 61 94 54 95 55 96 56 97 57 98 58 99
REMARK H PARENT 15 6 3 15 11 24 11 25 20 30 82 49 48 60
REMARK Flexibility Score: inf
ROOT
ATOM      1  C   UNL A   1      31.832  28.689  25.204  1.00  0.00     0.023 C 
ENDROOT
BRANCH   1   2
ATOM      2  C   UNL A   1      31.869  27.668  24.074  1.00  0.00     0.116 C 
BRANCH   2   3
ATOM      3  N   UNL A   1      33.157  27.455  23.442  1.00  0.00    -0.354 N 
ATOM      4  C   UNL A   1      33.445  26.288  22.762  1.00  0.00     0.254 C 
ATOM      5  O   UNL A   1      33.727  26.389  21.565  1.00  0.00    -0.272 OA
ATOM      6  H   UNL A   1      33.843  28.160  23.498  1.00  0.00     0.163 HD
BRANCH   4   7
ATOM      7  C   UNL A   1      33.640  24.949  23.532  1.00  0.00     0.212 C 
ATOM      8  C   UNL A   1      33.626  25.119  25.058  1.00  0.00     0.056 C 
BRANCH   7   9
ATOM      9  C   UNL A   1      32.288  24.233  23.209  1.00  0.00     0.420 C 
ATOM     10  F   UNL A   1      32.465  23.035  22.608  1.00  0.00    -0.168 F 
ATOM     11  F   UNL A   1      31.607  23.980  24.362  1.00  0.00    -0.168 F 
ATOM     12  F   UNL A   1      31.459  24.973  22.439  1.00  0.00    -0.168 F 
ENDBRANCH   7   9
BRANCH   7  13
ATOM     13  N   UNL A   1      34.788  24.108  23.053  1.00  0.00    -0.334 N 
ATOM     14  C   UNL A   1      35.650  23.195  23.571  1.00  0.00     0.227 C 
ATOM     15  H   UNL A   1      34.967  24.262  22.097  1.00  0.00     0.164 HD
ATOM     16  O   UNL A   1      36.559  22.862  22.799  1.00  0.00    -0.275 OA
BRANCH  14  17
ATOM     17  C   UNL A   1      35.521  22.501  24.922  1.00  0.00     0.157 C 
BRANCH  17  18
ATOM     18  C   UNL A   1      34.708  21.239  24.984  1.00  0.00     0.063 A 
ATOM     19  C   UNL A   1      33.338  21.125  25.132  1.00  0.00     0.093 A 
ATOM     20  N   UNL A   1      35.342  20.014  24.788  1.00  0.00    -0.225 NA
ATOM     21  S   UNL A   1      32.860  19.484  25.141  1.00  0.00    -0.106 S 
ATOM     22  C   UNL A   1      34.477  19.027  24.813  1.00  0.00     0.180 A 
BRANCH  22  23
ATOM     23  N   UNL A   1      34.793  17.749  24.599  1.00  0.00    -0.375 N 
ATOM     24  H   UNL A   1      34.103  17.052  24.682  1.00  0.00     0.159 HD
ATOM     25  H   UNL A   1      35.715  17.504  24.358  1.00  0.00     0.159 HD
ENDBRANCH  22  23
ENDBRANCH  17  18
ENDBRANCH  14  17
ENDBRANCH   7  13
ENDBRANCH   4   7
ENDBRANCH   2   3
ENDBRANCH   1   2
BRANCH   1  26
ATOM     26  C   UNL A   1      32.157  28.124  26.589  1.00  0.00     0.023 C 
BRANCH  26  27
ATOM     27  C   UNL A   1      33.450  28.615  27.245  1.00  0.00     0.116 C 
BRANCH  27  28
ATOM     28  N   UNL A   1      33.417  29.991  27.714  1.00  0.00    -0.352 N 
ATOM     29  C   UNL A   1      34.449  30.715  28.271  1.00  0.00     0.251 C 
ATOM     30  H   UNL A   1      32.557  30.462  27.623  1.00  0.00     0.163 HD
ATOM     31  O   UNL A   1      34.286  31.885  28.608  1.00  0.00    -0.269 OA
BRANCH  29  32
ATOM     32  C   UNL A   1      35.778  30.089  28.432  1.00  0.00     0.039 A 
ATOM     33  C   UNL A   1      36.660  30.074  27.349  1.00  0.00     0.014 A 
ATOM     34  C   UNL A   1      36.162  29.543  29.661  1.00  0.00     0.014 A 
ATOM     35  C   UNL A   1      37.964  29.605  27.529  1.00  0.00     0.010 A 
ATOM     36  C   UNL A   1      37.476  29.127  29.854  1.00  0.00     0.010 A 
ATOM     37  C   UNL A   1      38.396  29.180  28.797  1.00  0.00    -0.014 A 
BRANCH  37  38
ATOM     38  C   UNL A   1      39.827  28.886  29.065  1.00  0.00     0.031 A 
ATOM     39  C   UNL A   1      40.745  29.944  29.607  1.00  0.00     0.074 A 
ATOM     40  C   UNL A   1      40.312  27.677  28.718  1.00  0.00     0.049 A 
ATOM     41  N   UNL A   1      42.027  29.872  29.855  1.00  0.00    -0.248 NA
ATOM     42  C   UNL A   1      40.152  31.261  29.884  1.00  0.00     0.031 C 
ATOM     43  C   UNL A   1      39.528  26.594  28.115  1.00  0.00     0.029 A 
ATOM     44  N   UNL A   1      41.578  27.155  28.807  1.00  0.00    -0.354 N 
ATOM     45  C   UNL A   1      42.398  31.132  30.310  1.00  0.00     0.074 A 
ATOM     46  C   UNL A   1      41.214  31.963  30.257  1.00  0.00     0.031 C 
ATOM     47  C   UNL A   1      40.323  25.533  27.913  1.00  0.00     0.029 A 
ATOM     48  C   UNL A   1      41.679  25.866  28.335  1.00  0.00     0.049 A 
ATOM     49  H   UNL A   1      42.341  27.655  29.176  1.00  0.00     0.167 HD
ATOM     50  C   UNL A   1      43.610  31.548  30.750  1.00  0.00     0.037 A 
ATOM     51  C   UNL A   1      42.744  25.047  28.247  1.00  0.00     0.037 A 
ATOM     52  C   UNL A   1      44.779  30.705  30.802  1.00  0.00     0.049 A 
ATOM     53  C   UNL A   1      44.079  25.534  28.741  1.00  0.00     0.074 A 
ATOM     54  C   UNL A   1      46.036  31.009  31.296  1.00  0.00     0.029 A 
ATOM     55  N   UNL A   1      44.839  29.399  30.336  1.00  0.00    -0.354 N 
ATOM     56  N   UNL A   1      44.391  26.699  29.257  1.00  0.00    -0.248 NA
ATOM     57  C   UNL A   1      45.203  24.593  28.652  1.00  0.00     0.031 C 
ATOM     58  C   UNL A   1      46.870  29.908  31.076  1.00  0.00     0.029 A 
ATOM     59  C   UNL A   1      46.119  28.894  30.503  1.00  0.00     0.049 A 
ATOM     60  H   UNL A   1      44.084  28.905  29.944  1.00  0.00     0.167 HD
ATOM     61  C   UNL A   1      45.741  26.620  29.583  1.00  0.00     0.074 A 
ATOM     62  C   UNL A   1      46.180  25.289  29.215  1.00  0.00     0.031 C 
ATOM     63  C   UNL A   1      46.542  27.564  30.136  1.00  0.00     0.037 A 
BRANCH  50  64
ATOM     64  C   UNL A   1      43.740  32.977  31.209  1.00  0.00     0.058 A 
ATOM     65  C   UNL A   1      43.568  33.336  32.556  1.00  0.00     0.135 A 
ATOM     66  C   UNL A   1      44.087  33.991  30.303  1.00  0.00     0.135 A 
ATOM     67  F   UNL A   1      43.224  32.411  33.465  1.00  0.00    -0.206 F 
ATOM     68  C   UNL A   1      43.705  34.655  32.981  1.00  0.00     0.059 A 
ATOM     69  C   UNL A   1      44.260  35.312  30.711  1.00  0.00     0.059 A 
ATOM     70  F   UNL A   1      44.266  33.706  29.004  1.00  0.00    -0.206 F 
ATOM     71  C   UNL A   1      44.053  35.635  32.051  1.00  0.00     0.060 A 
BRANCH  71  72
ATOM     72  S   UNL A   1      44.231  37.338  32.622  1.00  0.00     0.124 S 
ATOM     73  O   UNL A   1      43.136  37.439  33.583  1.00  0.00    -0.237 OA
ATOM     74  O   UNL A   1      45.574  37.337  33.192  1.00  0.00    -0.237 OA
ATOM     75  O   UNL A   1      44.070  38.126  31.404  1.00  0.00    -0.744 OA
ENDBRANCH  71  72
ENDBRANCH  50  64
BRANCH  51  76
ATOM     76  C   UNL A   1      42.582  23.673  27.700  1.00  0.00     0.058 A 
ATOM     77  C   UNL A   1      42.582  23.444  26.317  1.00  0.00     0.135 A 
ATOM     78  C   UNL A   1      42.443  22.561  28.545  1.00  0.00     0.135 A 
ATOM     79  F   UNL A   1      42.708  24.476  25.466  1.00  0.00    -0.206 F 
ATOM     80  C   UNL A   1      42.431  22.168  25.787  1.00  0.00     0.059 A 
ATOM     81  C   UNL A   1      42.319  21.270  28.041  1.00  0.00     0.059 A 
ATOM     82  F   UNL A   1      42.458  22.721  29.878  1.00  0.00    -0.206 F 
ATOM     83  C   UNL A   1      42.303  21.085  26.658  1.00  0.00     0.060 A 
BRANCH  83  84
ATOM     84  S   UNL A   1      42.153  19.426  25.960  1.00  0.00     0.124 S 
ATOM     85  O   UNL A   1      42.987  19.532  24.770  1.00  0.00    -0.237 OA
ATOM     86  O   UNL A   1      42.677  18.594  27.038  1.00  0.00    -0.237 OA
ATOM     87  O   UNL A   1      40.719  19.293  25.717  1.00  0.00    -0.744 OA
ENDBRANCH  83  84
ENDBRANCH  51  76
BRANCH  63  88
ATOM     88  C   UNL A   1      47.969  27.181  30.416  1.00  0.00     0.058 A 
ATOM     89  C   UNL A   1      49.012  27.513  29.537  1.00  0.00     0.135 A 
ATOM     90  C   UNL A   1      48.304  26.516  31.607  1.00  0.00     0.135 A 
ATOM     91  F   UNL A   1      48.746  28.141  28.381  1.00  0.00    -0.206 F 
ATOM     92  C   UNL A   1      50.332  27.176  29.815  1.00  0.00     0.059 A 
ATOM     93  C   UNL A   1      49.621  26.198  31.921  1.00  0.00     0.059 A 
ATOM     94  F   UNL A   1      47.348  26.183  32.489  1.00  0.00    -0.206 F 
ATOM     95  C   UNL A   1      50.628  26.521  31.012  1.00  0.00     0.060 A 
BRANCH  95  96
ATOM     96  S   UNL A   1      52.350  26.122  31.378  1.00  0.00     0.124 S 
ATOM     97  O   UNL A   1      52.221  24.810  32.004  1.00  0.00    -0.237 OA
ATOM     98  O   UNL A   1      52.960  26.134  30.052  1.00  0.00    -0.237 OA
ATOM     99  O   UNL A   1      52.769  27.203  32.265  1.00  0.00    -0.744 OA
ENDBRANCH  95  96
ENDBRANCH  63  88
ENDBRANCH  37  38
ENDBRANCH  29  32
ENDBRANCH  27  28
ENDBRANCH  26  27
ENDBRANCH   1  26
TORSDOF 19
ENDMDL
MODEL 3
REMARK VINA RESULT:     -10.5      1.619      2.288
REMARK SMILES C[C@](NC(=O)Cc1csc(N)n1)(C(=O)NCCCCNC(=O)c1ccc(-c2c3nc(c(-c4c(F)cc(S(=O)(=O)[O-])cc4F)c4ccc([nH]4)c(-c4c(F)cc(S(=O)(=O)[O-])cc4F)c4nc(c(-c5c(F)cc(S(=O)(=O)[O-])cc5F)c5ccc2[nH]5)C=C4)C=C3)cc1)C(F)(F)F
REMARK SMILES IDX 17 1 16 2 15 3 13 4 14 5 2 7 1 8 89 9 90 10 91 11 92 12 3 13
REMARK SMILES IDX 4 14 5 16 6 17 7 18 8 19 12 20 9 21 10 22 11 23 18 26 19 27
REMARK SMILES IDX 20 28 21 29 22 31 23 32 24 33 88 34 25 35 87 36 26 37 27 38
REMARK SMILES IDX 28 39 81 40 29 41 86 42 80 43 82 44 30 45 85 46 79 47 78 48
REMARK SMILES IDX 31 50 65 51 44 52 64 53 45 54 48 55 63 56 83 57 46 58 47 59
REMARK SMILES IDX 62 61 84 62 49 63 32 64 33 65 42 66 34 67 35 68 41 69 43 70
REMARK SMILES IDX 36 71 37 72 38 73 39 74 40 75 66 76 67 77 76 78 68 79 69 80
REMARK SMILES IDX 75 81 77 82 70 83 71 84 72 85 73 86 74 87 50 88 51 89 60 90
REMARK SMILES IDX 52 91 53 92 59 93 61 94 54 95 55 96 56 97 57 98 58 99
REMARK H PARENT 15 6 3 15 11 24 11 25 20 30 82 49 48 60
REMARK Flexibility Score: inf
ROOT
ATOM      1  C   UNL A   1      33.675  27.270  24.894  1.00  0.00     0.023 C 
ENDROOT
BRANCH   1   2
ATOM      2  C   UNL A   1      33.508  26.098  25.852  1.00  0.00     0.116 C 
BRANCH   2   3
ATOM      3  N   UNL A   1      32.147  25.682  26.128  1.00  0.00    -0.354 N 
ATOM      4  C   UNL A   1      31.818  24.351  26.303  1.00  0.00     0.254 C 
ATOM      5  O   UNL A   1      31.330  24.029  27.389  1.00  0.00    -0.272 OA
ATOM      6  H   UNL A   1      31.439  26.364  26.193  1.00  0.00     0.163 HD
BRANCH   4   7
ATOM      7  C   UNL A   1      31.841  23.364  25.099  1.00  0.00     0.212 C 
ATOM      8  C   UNL A   1      30.980  22.112  25.325  1.00  0.00     0.056 C 
BRANCH   7   9
ATOM      9  C   UNL A   1      31.049  24.191  24.034  1.00  0.00     0.420 C 
ATOM     10  F   UNL A   1      30.346  25.206  24.582  1.00  0.00    -0.168 F 
ATOM     11  F   UNL A   1      31.915  24.764  23.152  1.00  0.00    -0.168 F 
ATOM     12  F   UNL A   1      30.202  23.441  23.294  1.00  0.00    -0.168 F 
ENDBRANCH   7   9
BRANCH   7  13
ATOM     13  N   UNL A   1      33.210  23.039  24.577  1.00  0.00    -0.334 N 
ATOM     14  C   UNL A   1      34.149  22.072  24.751  1.00  0.00     0.227 C 
ATOM     15  H   UNL A   1      33.513  23.714  23.928  1.00  0.00     0.164 HD
ATOM     16  O   UNL A   1      35.229  22.308  24.192  1.00  0.00    -0.275 OA
BRANCH  14  17
ATOM     17  C   UNL A   1      33.945  20.735  25.454  1.00  0.00     0.157 C 
BRANCH  17  18
ATOM     18  C   UNL A   1      33.789  19.512  24.595  1.00  0.00     0.063 A 
ATOM     19  C   UNL A   1      34.533  18.348  24.642  1.00  0.00     0.093 A 
ATOM     20  N   UNL A   1      32.733  19.452  23.687  1.00  0.00    -0.225 NA
ATOM     21  S   UNL A   1      33.986  17.226  23.475  1.00  0.00    -0.106 S 
ATOM     22  C   UNL A   1      32.712  18.294  23.068  1.00  0.00     0.180 A 
BRANCH  22  23
ATOM     23  N   UNL A   1      31.780  17.936  22.184  1.00  0.00    -0.375 N 
ATOM     24  H   UNL A   1      31.298  17.084  22.295  1.00  0.00     0.159 HD
ATOM     25  H   UNL A   1      31.573  18.523  21.422  1.00  0.00     0.159 HD
ENDBRANCH  22  23
ENDBRANCH  17  18
ENDBRANCH  14  17
ENDBRANCH   7  13
ENDBRANCH   4   7
ENDBRANCH   2   3
ENDBRANCH   1   2
BRANCH   1  26
ATOM     26  C   UNL A   1      33.893  28.625  25.572  1.00  0.00     0.023 C 
BRANCH  26  27
ATOM     27  C   UNL A   1      33.648  28.685  27.082  1.00  0.00     0.116 C 
BRANCH  27  28
ATOM     28  N   UNL A   1      33.590  30.025  27.643  1.00  0.00    -0.352 N 
ATOM     29  C   UNL A   1      34.599  30.714  28.282  1.00  0.00     0.251 C 
ATOM     30  H   UNL A   1      32.731  30.497  27.556  1.00  0.00     0.163 HD
ATOM     31  O   UNL A   1      34.418  31.857  28.693  1.00  0.00    -0.269 OA
BRANCH  29  32
ATOM     32  C   UNL A   1      35.927  30.083  28.443  1.00  0.00     0.039 A 
ATOM     33  C   UNL A   1      36.822  30.096  27.372  1.00  0.00     0.014 A 
ATOM     34  C   UNL A   1      36.295  29.505  29.662  1.00  0.00     0.014 A 
ATOM     35  C   UNL A   1      38.123  29.622  27.556  1.00  0.00     0.010 A 
ATOM     36  C   UNL A   1      37.606  29.084  29.861  1.00  0.00     0.010 A 
ATOM     37  C   UNL A   1      38.540  29.164  28.818  1.00  0.00    -0.014 A 
BRANCH  37  38
ATOM     38  C   UNL A   1      39.967  28.863  29.095  1.00  0.00     0.031 A 
ATOM     39  C   UNL A   1      40.882  29.911  29.660  1.00  0.00     0.074 A 
ATOM     40  C   UNL A   1      40.453  27.657  28.739  1.00  0.00     0.049 A 
ATOM     41  N   UNL A   1      42.162  29.833  29.919  1.00  0.00    -0.248 NA
ATOM     42  C   UNL A   1      40.290  31.227  29.947  1.00  0.00     0.031 C 
ATOM     43  C   UNL A   1      39.671  26.584  28.114  1.00  0.00     0.029 A 
ATOM     44  N   UNL A   1      41.716  27.130  28.833  1.00  0.00    -0.354 N 
ATOM     45  C   UNL A   1      42.531  31.086  30.394  1.00  0.00     0.074 A 
ATOM     46  C   UNL A   1      41.351  31.920  30.339  1.00  0.00     0.031 C 
ATOM     47  C   UNL A   1      40.465  25.523  27.907  1.00  0.00     0.029 A 
ATOM     48  C   UNL A   1      41.818  25.847  28.346  1.00  0.00     0.049 A 
ATOM     49  H   UNL A   1      42.477  27.623  29.215  1.00  0.00     0.167 HD
ATOM     50  C   UNL A   1      43.740  31.493  30.850  1.00  0.00     0.037 A 
ATOM     51  C   UNL A   1      42.882  25.026  28.258  1.00  0.00     0.037 A 
ATOM     52  C   UNL A   1      44.906  30.647  30.904  1.00  0.00     0.049 A 
ATOM     53  C   UNL A   1      44.213  25.503  28.772  1.00  0.00     0.074 A 
ATOM     54  C   UNL A   1      46.160  30.940  31.414  1.00  0.00     0.029 A 
ATOM     55  N   UNL A   1      44.968  29.347  30.422  1.00  0.00    -0.354 N 
ATOM     56  N   UNL A   1      44.523  26.661  29.305  1.00  0.00    -0.248 NA
ATOM     57  C   UNL A   1      45.336  24.560  28.682  1.00  0.00     0.031 C 
ATOM     58  C   UNL A   1      46.993  29.840  31.188  1.00  0.00     0.029 A 
ATOM     59  C   UNL A   1      46.244  28.836  30.595  1.00  0.00     0.049 A 
ATOM     60  H   UNL A   1      44.216  28.859  30.016  1.00  0.00     0.167 HD
ATOM     61  C   UNL A   1      45.870  26.575  29.643  1.00  0.00     0.074 A 
ATOM     62  C   UNL A   1      46.309  25.247  29.263  1.00  0.00     0.031 C 
ATOM     63  C   UNL A   1      46.667  27.509  30.216  1.00  0.00     0.037 A 
BRANCH  50  64
ATOM     64  C   UNL A   1      43.870  32.916  31.329  1.00  0.00     0.058 A 
ATOM     65  C   UNL A   1      43.554  33.281  32.648  1.00  0.00     0.135 A 
ATOM     66  C   UNL A   1      44.359  33.917  30.475  1.00  0.00     0.135 A 
ATOM     67  F   UNL A   1      43.071  32.369  33.506  1.00  0.00    -0.206 F 
ATOM     68  C   UNL A   1      43.690  34.593  33.092  1.00  0.00     0.059 A 
ATOM     69  C   UNL A   1      44.534  35.229  30.907  1.00  0.00     0.059 A 
ATOM     70  F   UNL A   1      44.679  33.625  29.204  1.00  0.00    -0.206 F 
ATOM     71  C   UNL A   1      44.182  35.560  32.214  1.00  0.00     0.060 A 
BRANCH  71  72
ATOM     72  S   UNL A   1      44.357  37.255  32.811  1.00  0.00     0.124 S 
ATOM     73  O   UNL A   1      43.825  38.016  31.684  1.00  0.00    -0.237 OA
ATOM     74  O   UNL A   1      43.531  37.248  34.014  1.00  0.00    -0.237 OA
ATOM     75  O   UNL A   1      45.792  37.391  33.038  1.00  0.00    -0.744 OA
ENDBRANCH  71  72
ENDBRANCH  50  64
BRANCH  51  76
ATOM     76  C   UNL A   1      42.722  23.660  27.693  1.00  0.00     0.058 A 
ATOM     77  C   UNL A   1      42.510  22.555  28.530  1.00  0.00     0.135 A 
ATOM     78  C   UNL A   1      42.757  23.431  26.308  1.00  0.00     0.135 A 
ATOM     79  F   UNL A   1      42.472  22.721  29.862  1.00  0.00    -0.206 F 
ATOM     80  C   UNL A   1      42.359  21.270  28.021  1.00  0.00     0.059 A 
ATOM     81  C   UNL A   1      42.580  22.159  25.772  1.00  0.00     0.059 A 
ATOM     82  F   UNL A   1      42.936  24.457  25.460  1.00  0.00    -0.206 F 
ATOM     83  C   UNL A   1      42.393  21.083  26.639  1.00  0.00     0.060 A 
BRANCH  83  84
ATOM     84  S   UNL A   1      42.150  19.416  25.986  1.00  0.00     0.124 S 
ATOM     85  O   UNL A   1      43.010  19.434  24.809  1.00  0.00    -0.237 OA
ATOM     86  O   UNL A   1      42.602  18.585  27.097  1.00  0.00    -0.237 OA
ATOM     87  O   UNL A   1      40.715  19.366  25.719  1.00  0.00    -0.744 OA
ENDBRANCH  83  84
ENDBRANCH  51  76
BRANCH  63  88
ATOM     88  C   UNL A   1      48.091  27.119  30.505  1.00  0.00     0.058 A 
ATOM     89  C   UNL A   1      49.115  27.298  29.561  1.00  0.00     0.135 A 
ATOM     90  C   UNL A   1      48.444  26.605  31.763  1.00  0.00     0.135 A 
ATOM     91  F   UNL A   1      48.832  27.778  28.340  1.00  0.00    -0.206 F 
ATOM     92  C   UNL A   1      50.433  26.956  29.845  1.00  0.00     0.059 A 
ATOM     93  C   UNL A   1      49.760  26.286  32.081  1.00  0.00     0.059 A 
ATOM     94  F   UNL A   1      47.506  26.423  32.707  1.00  0.00    -0.206 F 
ATOM     95  C   UNL A   1      50.747  26.455  31.110  1.00  0.00     0.060 A 
BRANCH  95  96
ATOM     96  S   UNL A   1      52.467  26.050  31.478  1.00  0.00     0.124 S 
ATOM     97  O   UNL A   1      53.092  26.202  30.168  1.00  0.00    -0.237 OA
ATOM     98  O   UNL A   1      52.820  27.061  32.469  1.00  0.00    -0.237 OA
ATOM     99  O   UNL A   1      52.394  24.682  31.984  1.00  0.00    -0.744 OA
ENDBRANCH  95  96
ENDBRANCH  63  88
ENDBRANCH  37  38
ENDBRANCH  29  32
ENDBRANCH  27  28
ENDBRANCH  26  27
ENDBRANCH   1  26
TORSDOF 19
ENDMDL
