MODEL 1
REMARK VINA RESULT:     -11.9      0.000      0.000
REMARK SMILES COc1cc(NC(=O)/C=C/c2cccc([N+](=O)[O-])c2)c(C(=O)NCCCCNC(=O)c2ccc(-c3c4nc(c(-c5c(F)cc(S(=O)(=O)[O-])cc5F)c5ccc([nH]5)c(-c5c(F)cc(S(=O)(=O)[O-])cc5F)c5nc(c(-c6c(F)cc(S(=O)(=O)[O-])cc6F)c6ccc3[nH]6)C=C5)C=C4)cc2)cc1OC
REMARK SMILES IDX 25 1 24 2 23 3 21 4 22 5 20 7 3 8 4 9 98 10 5 11 97 12 2 13
REMARK SMILES IDX 1 14 99 15 100 16 6 17 7 18 8 20 9 21 10 22 11 23 12 24
REMARK SMILES IDX 19 25 13 26 15 27 14 28 16 29 17 30 18 31 26 32 27 33 28 34
REMARK SMILES IDX 29 35 30 37 31 38 32 39 96 40 33 41 95 42 34 43 35 44 36 45
REMARK SMILES IDX 89 46 37 47 94 48 88 49 90 50 38 51 93 52 87 53 86 54 39 56
REMARK SMILES IDX 73 57 52 58 72 59 53 60 56 61 71 62 91 63 54 64 55 65 70 67
REMARK SMILES IDX 92 68 57 69 40 70 41 71 50 72 42 73 43 74 49 75 51 76 44 77
REMARK SMILES IDX 45 78 46 79 47 80 48 81 74 82 75 83 84 84 76 85 77 86 83 87
REMARK SMILES IDX 85 88 78 89 79 90 80 91 81 92 82 93 58 94 59 95 68 96 60 97
REMARK SMILES IDX 61 98 67 99 69 100 62 101 63 102 64 103 65 104 66 105
REMARK H PARENT 23 6 6 19 28 36 90 55 56 66
REMARK Flexibility Score: inf
ROOT
ATOM      1  C   UNL A   1      35.511  22.282  24.076  1.00  0.00     0.023 C 
ENDROOT
BRANCH   1   2
ATOM      2  C   UNL A   1      33.988  22.208  23.939  1.00  0.00     0.116 C 
BRANCH   2   3
ATOM      3  N   UNL A   1      33.555  23.035  22.829  1.00  0.00    -0.352 N 
ATOM      4  C   UNL A   1      32.836  24.203  22.801  1.00  0.00     0.253 C 
ATOM      5  O   UNL A   1      32.578  24.695  21.702  1.00  0.00    -0.269 OA
ATOM      6  H   UNL A   1      33.824  22.700  21.943  1.00  0.00     0.163 HD
BRANCH   4   7
ATOM      7  C   UNL A   1      32.447  24.937  24.045  1.00  0.00     0.067 A 
ATOM      8  C   UNL A   1      31.844  26.173  26.495  1.00  0.00     0.162 A 
ATOM      9  C   UNL A   1      32.871  26.652  25.674  1.00  0.00     0.077 A 
ATOM     10  C   UNL A   1      31.098  25.077  26.083  1.00  0.00     0.161 A 
ATOM     11  C   UNL A   1      33.094  26.142  24.390  1.00  0.00     0.058 A 
ATOM     12  C   UNL A   1      31.409  24.475  24.865  1.00  0.00     0.066 A 
BRANCH   8  13
ATOM     13  O   UNL A   1      31.396  26.949  27.531  1.00  0.00    -0.493 OA
ATOM     14  C   UNL A   1      31.751  28.324  27.450  1.00  0.00     0.278 C 
ENDBRANCH   8  13
BRANCH  10  15
ATOM     15  O   UNL A   1      30.031  24.519  26.731  1.00  0.00    -0.493 OA
ATOM     16  C   UNL A   1      30.066  23.104  26.866  1.00  0.00     0.278 C 
ENDBRANCH  10  15
BRANCH  11  17
ATOM     17  N   UNL A   1      33.829  26.836  23.389  1.00  0.00    -0.322 N 
ATOM     18  C   UNL A   1      33.548  27.812  22.474  1.00  0.00     0.248 C 
ATOM     19  H   UNL A   1      34.768  26.542  23.344  1.00  0.00     0.170 HD
ATOM     20  O   UNL A   1      34.397  28.161  21.655  1.00  0.00    -0.270 OA
BRANCH  18  21
ATOM     21  C   UNL A   1      32.262  28.531  22.478  1.00  0.00     0.072 C 
ATOM     22  C   UNL A   1      31.077  27.919  22.333  1.00  0.00     0.014 C 
BRANCH  22  23
ATOM     23  C   UNL A   1      29.807  28.613  22.592  1.00  0.00    -0.019 A 
ATOM     24  C   UNL A   1      28.731  27.943  23.207  1.00  0.00     0.008 A 
ATOM     25  C   UNL A   1      29.607  29.906  22.105  1.00  0.00     0.093 A 
ATOM     26  C   UNL A   1      27.474  28.537  23.321  1.00  0.00     0.008 A 
ATOM     27  C   UNL A   1      28.349  30.512  22.250  1.00  0.00     0.270 A 
ATOM     28  C   UNL A   1      27.277  29.826  22.840  1.00  0.00     0.085 A 
BRANCH  27  29
ATOM     29  N   UNL A   1      28.149  31.886  21.780  1.00  0.00     0.062 N 
ATOM     30  O   UNL A   1      28.344  32.117  20.577  1.00  0.00    -0.258 OA
ATOM     31  O   UNL A   1      27.785  32.733  22.607  1.00  0.00    -0.258 OA
ENDBRANCH  27  29
ENDBRANCH  22  23
ENDBRANCH  18  21
ENDBRANCH  11  17
ENDBRANCH   4   7
ENDBRANCH   2   3
ENDBRANCH   1   2
BRANCH   1  32
ATOM     32  C   UNL A   1      36.053  23.700  24.228  1.00  0.00     0.023 C 
BRANCH  32  33
ATOM     33  C   UNL A   1      36.937  23.902  25.448  1.00  0.00     0.116 C 
BRANCH  33  34
ATOM     34  N   UNL A   1      38.015  22.927  25.535  1.00  0.00    -0.352 N 
ATOM     35  C   UNL A   1      39.245  23.081  26.122  1.00  0.00     0.251 C 
ATOM     36  H   UNL A   1      37.840  22.051  25.122  1.00  0.00     0.163 HD
ATOM     37  O   UNL A   1      40.102  22.210  26.006  1.00  0.00    -0.269 OA
BRANCH  35  38
ATOM     38  C   UNL A   1      39.528  24.326  26.860  1.00  0.00     0.039 A 
ATOM     39  C   UNL A   1      39.014  24.480  28.147  1.00  0.00     0.014 A 
ATOM     40  C   UNL A   1      40.343  25.313  26.294  1.00  0.00     0.014 A 
ATOM     41  C   UNL A   1      39.355  25.609  28.887  1.00  0.00     0.010 A 
ATOM     42  C   UNL A   1      40.751  26.392  27.066  1.00  0.00     0.010 A 
ATOM     43  C   UNL A   1      40.247  26.561  28.363  1.00  0.00    -0.014 A 
BRANCH  43  44
ATOM     44  C   UNL A   1      40.639  27.752  29.153  1.00  0.00     0.031 A 
ATOM     45  C   UNL A   1      41.960  27.773  29.873  1.00  0.00     0.074 A 
ATOM     46  C   UNL A   1      39.786  28.788  29.262  1.00  0.00     0.049 A 
ATOM     47  N   UNL A   1      42.472  28.707  30.631  1.00  0.00    -0.248 NA
ATOM     48  C   UNL A   1      42.801  26.571  29.753  1.00  0.00     0.031 C 
ATOM     49  C   UNL A   1      38.449  28.850  28.666  1.00  0.00     0.029 A 
ATOM     50  N   UNL A   1      39.913  29.986  29.917  1.00  0.00    -0.354 N 
ATOM     51  C   UNL A   1      43.686  28.204  31.082  1.00  0.00     0.074 A 
ATOM     52  C   UNL A   1      43.801  26.856  30.573  1.00  0.00     0.031 C 
ATOM     53  C   UNL A   1      37.888  30.032  28.967  1.00  0.00     0.029 A 
ATOM     54  C   UNL A   1      38.811  30.799  29.799  1.00  0.00     0.049 A 
ATOM     55  H   UNL A   1      40.717  30.240  30.424  1.00  0.00     0.167 HD
ATOM     56  C   UNL A   1      44.634  28.821  31.828  1.00  0.00     0.037 A 
ATOM     57  C   UNL A   1      38.572  32.024  30.305  1.00  0.00     0.037 A 
ATOM     58  C   UNL A   1      44.516  30.169  32.314  1.00  0.00     0.049 A 
ATOM     59  C   UNL A   1      39.645  32.702  31.111  1.00  0.00     0.074 A 
ATOM     60  C   UNL A   1      45.440  30.912  33.028  1.00  0.00     0.029 A 
ATOM     61  N   UNL A   1      43.401  30.978  32.141  1.00  0.00    -0.354 N 
ATOM     62  N   UNL A   1      40.824  32.244  31.461  1.00  0.00    -0.248 NA
ATOM     63  C   UNL A   1      39.366  34.066  31.577  1.00  0.00     0.031 C 
ATOM     64  C   UNL A   1      44.865  32.153  33.326  1.00  0.00     0.029 A 
ATOM     65  C   UNL A   1      43.605  32.205  32.751  1.00  0.00     0.049 A 
ATOM     66  H   UNL A   1      42.584  30.718  31.656  1.00  0.00     0.167 HD
ATOM     67  C   UNL A   1      41.437  33.271  32.170  1.00  0.00     0.074 A 
ATOM     68  C   UNL A   1      40.504  34.379  32.182  1.00  0.00     0.031 C 
ATOM     69  C   UNL A   1      42.661  33.297  32.755  1.00  0.00     0.037 A 
BRANCH  56  70
ATOM     70  C   UNL A   1      45.875  28.034  32.155  1.00  0.00     0.058 A 
ATOM     71  C   UNL A   1      46.985  28.012  31.293  1.00  0.00     0.135 A 
ATOM     72  C   UNL A   1      45.959  27.292  33.343  1.00  0.00     0.135 A 
ATOM     73  F   UNL A   1      46.955  28.691  30.135  1.00  0.00    -0.206 F 
ATOM     74  C   UNL A   1      48.111  27.247  31.573  1.00  0.00     0.059 A 
ATOM     75  C   UNL A   1      47.090  26.544  33.661  1.00  0.00     0.059 A 
ATOM     76  F   UNL A   1      44.931  27.277  34.206  1.00  0.00    -0.206 F 
ATOM     77  C   UNL A   1      48.153  26.511  32.758  1.00  0.00     0.060 A 
BRANCH  77  78
ATOM     78  S   UNL A   1      49.612  25.504  33.096  1.00  0.00     0.124 S 
ATOM     79  O   UNL A   1      49.005  24.259  33.556  1.00  0.00    -0.237 OA
ATOM     80  O   UNL A   1      50.262  25.447  31.791  1.00  0.00    -0.237 OA
ATOM     81  O   UNL A   1      50.324  26.269  34.115  1.00  0.00    -0.744 OA
ENDBRANCH  77  78
ENDBRANCH  56  70
BRANCH  57  82
ATOM     82  C   UNL A   1      37.270  32.690  30.036  1.00  0.00     0.058 A 
ATOM     83  C   UNL A   1      36.157  32.471  30.859  1.00  0.00     0.135 A 
ATOM     84  C   UNL A   1      37.126  33.594  28.970  1.00  0.00     0.135 A 
ATOM     85  F   UNL A   1      36.243  31.613  31.888  1.00  0.00    -0.206 F 
ATOM     86  C   UNL A   1      34.943  33.114  30.632  1.00  0.00     0.059 A 
ATOM     87  C   UNL A   1      35.931  34.269  28.738  1.00  0.00     0.059 A 
ATOM     88  F   UNL A   1      38.168  33.854  28.164  1.00  0.00    -0.206 F 
ATOM     89  C   UNL A   1      34.843  34.016  29.572  1.00  0.00     0.060 A 
BRANCH  89  90
ATOM     90  S   UNL A   1      33.285  34.897  29.330  1.00  0.00     0.124 S 
ATOM     91  O   UNL A   1      32.763  34.949  30.690  1.00  0.00    -0.237 OA
ATOM     92  O   UNL A   1      33.736  36.166  28.769  1.00  0.00    -0.237 OA
ATOM     93  O   UNL A   1      32.554  34.037  28.406  1.00  0.00    -0.744 OA
ENDBRANCH  89  90
ENDBRANCH  57  82
BRANCH  69  94
ATOM     94  C   UNL A   1      43.074  34.574  33.436  1.00  0.00     0.058 A 
ATOM     95  C   UNL A   1      42.882  34.774  34.811  1.00  0.00     0.135 A 
ATOM     96  C   UNL A   1      43.708  35.593  32.706  1.00  0.00     0.135 A 
ATOM     97  F   UNL A   1      42.277  33.834  35.554  1.00  0.00    -0.206 F 
ATOM     98  C   UNL A   1      43.277  35.953  35.435  1.00  0.00     0.059 A 
ATOM     99  C   UNL A   1      44.139  36.767  33.315  1.00  0.00     0.059 A 
ATOM    100  F   UNL A   1      43.927  35.446  31.389  1.00  0.00    -0.206 F 
ATOM    101  C   UNL A   1      43.904  36.944  34.678  1.00  0.00     0.060 A 
BRANCH 101 102
ATOM    102  S   UNL A   1      44.430  38.461  35.502  1.00  0.00     0.124 S 
ATOM    103  O   UNL A   1      43.854  38.289  36.831  1.00  0.00    -0.237 OA
ATOM    104  O   UNL A   1      45.885  38.369  35.425  1.00  0.00    -0.237 OA
ATOM    105  O   UNL A   1      43.831  39.516  34.689  1.00  0.00    -0.744 OA
ENDBRANCH 101 102
ENDBRANCH  69  94
ENDBRANCH  43  44
ENDBRANCH  35  38
ENDBRANCH  33  34
ENDBRANCH  32  33
ENDBRANCH   1  32
TORSDOF 20
ENDMDL
MODEL 2
REMARK VINA RESULT:     -11.9      2.426      2.855
REMARK SMILES COc1cc(NC(=O)/C=C/c2cccc([N+](=O)[O-])c2)c(C(=O)NCCCCNC(=O)c2ccc(-c3c4nc(c(-c5c(F)cc(S(=O)(=O)[O-])cc5F)c5ccc([nH]5)c(-c5c(F)cc(S(=O)(=O)[O-])cc5F)c5nc(c(-c6c(F)cc(S(=O)(=O)[O-])cc6F)c6ccc3[nH]6)C=C5)C=C4)cc2)cc1OC
REMARK SMILES IDX 25 1 24 2 23 3 21 4 22 5 20 7 3 8 4 9 98 10 5 11 97 12 2 13
REMARK SMILES IDX 1 14 99 15 100 16 6 17 7 18 8 20 9 21 10 22 11 23 12 24
REMARK SMILES IDX 19 25 13 26 15 27 14 28 16 29 17 30 18 31 26 32 27 33 28 34
REMARK SMILES IDX 29 35 30 37 31 38 32 39 96 40 33 41 95 42 34 43 35 44 36 45
REMARK SMILES IDX 89 46 37 47 94 48 88 49 90 50 38 51 93 52 87 53 86 54 39 56
REMARK SMILES IDX 73 57 52 58 72 59 53 60 56 61 71 62 91 63 54 64 55 65 70 67
REMARK SMILES IDX 92 68 57 69 40 70 41 71 50 72 42 73 43 74 49 75 51 76 44 77
REMARK SMILES IDX 45 78 46 79 47 80 48 81 74 82 75 83 84 84 76 85 77 86 83 87
REMARK SMILES IDX 85 88 78 89 79 90 80 91 81 92 82 93 58 94 59 95 68 96 60 97
REMARK SMILES IDX 61 98 67 99 69 100 62 101 63 102 64 103 65 104 66 105
REMARK H PARENT 23 6 6 19 28 36 90 55 56 66
REMARK Flexibility Score: inf
ROOT
ATOM      1  C   UNL A   1      35.253  22.115  24.404  1.00  0.00     0.023 C 
ENDROOT
BRANCH   1   2
ATOM      2  C   UNL A   1      33.748  22.111  24.125  1.00  0.00     0.116 C 
BRANCH   2   3
ATOM      3  N   UNL A   1      33.460  22.951  22.978  1.00  0.00    -0.352 N 
ATOM      4  C   UNL A   1      32.823  24.162  22.883  1.00  0.00     0.253 C 
ATOM      5  O   UNL A   1      32.687  24.655  21.763  1.00  0.00    -0.269 OA
ATOM      6  H   UNL A   1      33.777  22.588  22.119  1.00  0.00     0.163 HD
BRANCH   4   7
ATOM      7  C   UNL A   1      32.384  24.935  24.085  1.00  0.00     0.067 A 
ATOM      8  C   UNL A   1      31.688  26.254  26.467  1.00  0.00     0.162 A 
ATOM      9  C   UNL A   1      32.718  26.730  25.648  1.00  0.00     0.077 A 
ATOM     10  C   UNL A   1      30.986  25.119  26.087  1.00  0.00     0.161 A 
ATOM     11  C   UNL A   1      32.986  26.174  24.392  1.00  0.00     0.058 A 
ATOM     12  C   UNL A   1      31.342  24.476  24.903  1.00  0.00     0.066 A 
BRANCH   8  13
ATOM     13  O   UNL A   1      31.193  27.058  27.459  1.00  0.00    -0.493 OA
ATOM     14  C   UNL A   1      31.856  28.307  27.608  1.00  0.00     0.278 C 
ENDBRANCH   8  13
BRANCH  10  15
ATOM     15  O   UNL A   1      29.922  24.554  26.735  1.00  0.00    -0.493 OA
ATOM     16  C   UNL A   1      29.953  23.137  26.848  1.00  0.00     0.278 C 
ENDBRANCH  10  15
BRANCH  11  17
ATOM     17  N   UNL A   1      33.722  26.847  23.377  1.00  0.00    -0.322 N 
ATOM     18  C   UNL A   1      33.471  27.875  22.512  1.00  0.00     0.248 C 
ATOM     19  H   UNL A   1      34.631  26.486  23.275  1.00  0.00     0.170 HD
ATOM     20  O   UNL A   1      34.302  28.189  21.662  1.00  0.00    -0.270 OA
BRANCH  18  21
ATOM     21  C   UNL A   1      32.244  28.687  22.606  1.00  0.00     0.072 C 
ATOM     22  C   UNL A   1      31.056  28.281  22.133  1.00  0.00     0.014 C 
BRANCH  22  23
ATOM     23  C   UNL A   1      29.808  28.987  22.459  1.00  0.00    -0.019 A 
ATOM     24  C   UNL A   1      28.750  28.318  23.106  1.00  0.00     0.008 A 
ATOM     25  C   UNL A   1      29.606  30.292  22.008  1.00  0.00     0.093 A 
ATOM     26  C   UNL A   1      27.507  28.926  23.285  1.00  0.00     0.008 A 
ATOM     27  C   UNL A   1      28.364  30.911  22.218  1.00  0.00     0.270 A 
ATOM     28  C   UNL A   1      27.309  30.227  22.840  1.00  0.00     0.085 A 
BRANCH  27  29
ATOM     29  N   UNL A   1      28.164  32.297  21.785  1.00  0.00     0.062 N 
ATOM     30  O   UNL A   1      28.003  32.503  20.572  1.00  0.00    -0.258 OA
ATOM     31  O   UNL A   1      28.154  33.179  22.654  1.00  0.00    -0.258 OA
ENDBRANCH  27  29
ENDBRANCH  22  23
ENDBRANCH  18  21
ENDBRANCH  11  17
ENDBRANCH   4   7
ENDBRANCH   2   3
ENDBRANCH   1   2
BRANCH   1  32
ATOM     32  C   UNL A   1      35.846  23.508  24.599  1.00  0.00     0.023 C 
BRANCH  32  33
ATOM     33  C   UNL A   1      36.650  23.670  25.879  1.00  0.00     0.116 C 
BRANCH  33  34
ATOM     34  N   UNL A   1      37.617  22.601  26.080  1.00  0.00    -0.352 N 
ATOM     35  C   UNL A   1      38.917  22.708  26.504  1.00  0.00     0.251 C 
ATOM     36  H   UNL A   1      37.300  21.689  25.889  1.00  0.00     0.163 HD
ATOM     37  O   UNL A   1      39.653  21.726  26.505  1.00  0.00    -0.269 OA
BRANCH  35  38
ATOM     38  C   UNL A   1      39.421  24.031  26.918  1.00  0.00     0.039 A 
ATOM     39  C   UNL A   1      39.311  24.406  28.257  1.00  0.00     0.014 A 
ATOM     40  C   UNL A   1      40.045  24.872  25.990  1.00  0.00     0.014 A 
ATOM     41  C   UNL A   1      39.869  25.611  28.676  1.00  0.00     0.010 A 
ATOM     42  C   UNL A   1      40.676  26.029  26.428  1.00  0.00     0.010 A 
ATOM     43  C   UNL A   1      40.579  26.419  27.770  1.00  0.00    -0.014 A 
BRANCH  43  44
ATOM     44  C   UNL A   1      41.201  27.690  28.211  1.00  0.00     0.031 A 
ATOM     45  C   UNL A   1      42.694  27.862  28.129  1.00  0.00     0.074 A 
ATOM     46  C   UNL A   1      40.429  28.664  28.730  1.00  0.00     0.049 A 
ATOM     47  N   UNL A   1      43.427  28.884  28.485  1.00  0.00    -0.248 NA
ATOM     48  C   UNL A   1      43.466  26.722  27.610  1.00  0.00     0.031 C 
ATOM     49  C   UNL A   1      38.980  28.581  28.925  1.00  0.00     0.029 A 
ATOM     50  N   UNL A   1      40.756  29.912  29.196  1.00  0.00    -0.354 N 
ATOM     51  C   UNL A   1      44.742  28.508  28.242  1.00  0.00     0.074 A 
ATOM     52  C   UNL A   1      44.712  27.139  27.776  1.00  0.00     0.031 C 
ATOM     53  C   UNL A   1      38.541  29.736  29.451  1.00  0.00     0.029 A 
ATOM     54  C   UNL A   1      39.678  30.628  29.657  1.00  0.00     0.049 A 
ATOM     55  H   UNL A   1      41.677  30.261  29.199  1.00  0.00     0.167 HD
ATOM     56  C   UNL A   1      45.871  29.246  28.365  1.00  0.00     0.037 A 
ATOM     57  C   UNL A   1      39.614  31.864  30.188  1.00  0.00     0.037 A 
ATOM     58  C   UNL A   1      45.888  30.613  28.813  1.00  0.00     0.049 A 
ATOM     59  C   UNL A   1      40.875  32.677  30.296  1.00  0.00     0.074 A 
ATOM     60  C   UNL A   1      46.966  31.472  28.919  1.00  0.00     0.029 A 
ATOM     61  N   UNL A   1      44.770  31.320  29.235  1.00  0.00    -0.354 N 
ATOM     62  N   UNL A   1      42.103  32.336  29.983  1.00  0.00    -0.248 NA
ATOM     63  C   UNL A   1      40.743  34.046  30.810  1.00  0.00     0.031 C 
ATOM     64  C   UNL A   1      46.509  32.684  29.448  1.00  0.00     0.029 A 
ATOM     65  C   UNL A   1      45.135  32.599  29.620  1.00  0.00     0.049 A 
ATOM     66  H   UNL A   1      43.852  30.965  29.256  1.00  0.00     0.167 HD
ATOM     67  C   UNL A   1      42.887  33.454  30.243  1.00  0.00     0.074 A 
ATOM     68  C   UNL A   1      41.990  34.487  30.721  1.00  0.00     0.031 C 
ATOM     69  C   UNL A   1      44.227  33.614  30.097  1.00  0.00     0.037 A 
BRANCH  56  70
ATOM     70  C   UNL A   1      47.174  28.581  28.008  1.00  0.00     0.058 A 
ATOM     71  C   UNL A   1      47.635  28.523  26.681  1.00  0.00     0.135 A 
ATOM     72  C   UNL A   1      47.973  27.993  29.000  1.00  0.00     0.135 A 
ATOM     73  F   UNL A   1      46.904  29.054  25.688  1.00  0.00    -0.206 F 
ATOM     74  C   UNL A   1      48.813  27.866  26.346  1.00  0.00     0.059 A 
ATOM     75  C   UNL A   1      49.174  27.359  28.693  1.00  0.00     0.059 A 
ATOM     76  F   UNL A   1      47.585  28.019  30.285  1.00  0.00    -0.206 F 
ATOM     77  C   UNL A   1      49.575  27.281  27.359  1.00  0.00     0.060 A 
BRANCH  77  78
ATOM     78  S   UNL A   1      51.091  26.413  26.906  1.00  0.00     0.124 S 
ATOM     79  O   UNL A   1      50.701  25.022  27.118  1.00  0.00    -0.237 OA
ATOM     80  O   UNL A   1      51.276  26.813  25.514  1.00  0.00    -0.237 OA
ATOM     81  O   UNL A   1      52.077  26.939  27.844  1.00  0.00    -0.744 OA
ENDBRANCH  77  78
ENDBRANCH  56  70
BRANCH  57  82
ATOM     82  C   UNL A   1      38.303  32.409  30.629  1.00  0.00     0.058 A 
ATOM     83  C   UNL A   1      37.849  32.236  31.944  1.00  0.00     0.135 A 
ATOM     84  C   UNL A   1      37.495  33.150  29.752  1.00  0.00     0.135 A 
ATOM     85  F   UNL A   1      38.583  31.532  32.820  1.00  0.00    -0.206 F 
ATOM     86  C   UNL A   1      36.637  32.769  32.374  1.00  0.00     0.059 A 
ATOM     87  C   UNL A   1      36.292  33.716  30.164  1.00  0.00     0.059 A 
ATOM     88  F   UNL A   1      37.894  33.362  28.487  1.00  0.00    -0.206 F 
ATOM     89  C   UNL A   1      35.869  33.513  31.477  1.00  0.00     0.060 A 
BRANCH  89  90
ATOM     90  S   UNL A   1      34.333  34.259  32.064  1.00  0.00     0.124 S 
ATOM     91  O   UNL A   1      34.830  35.412  32.804  1.00  0.00    -0.237 OA
ATOM     92  O   UNL A   1      33.637  34.552  30.816  1.00  0.00    -0.237 OA
ATOM     93  O   UNL A   1      33.734  33.201  32.872  1.00  0.00    -0.744 OA
ENDBRANCH  89  90
ENDBRANCH  57  82
BRANCH  69  94
ATOM     94  C   UNL A   1      44.801  34.964  30.433  1.00  0.00     0.058 A 
ATOM     95  C   UNL A   1      45.283  35.264  31.716  1.00  0.00     0.135 A 
ATOM     96  C   UNL A   1      44.908  35.955  29.443  1.00  0.00     0.135 A 
ATOM     97  F   UNL A   1      45.201  34.355  32.699  1.00  0.00    -0.206 F 
ATOM     98  C   UNL A   1      45.823  36.511  32.014  1.00  0.00     0.059 A 
ATOM     99  C   UNL A   1      45.472  37.197  29.711  1.00  0.00     0.059 A 
ATOM    100  F   UNL A   1      44.474  35.714  28.195  1.00  0.00    -0.206 F 
ATOM    101  C   UNL A   1      45.913  37.471  31.005  1.00  0.00     0.060 A 
BRANCH 101 102
ATOM    102  S   UNL A   1      46.634  39.078  31.399  1.00  0.00     0.124 S 
ATOM    103  O   UNL A   1      45.646  39.625  32.322  1.00  0.00    -0.237 OA
ATOM    104  O   UNL A   1      47.917  38.708  31.989  1.00  0.00    -0.237 OA
ATOM    105  O   UNL A   1      46.717  39.742  30.101  1.00  0.00    -0.744 OA
ENDBRANCH 101 102
ENDBRANCH  69  94
ENDBRANCH  43  44
ENDBRANCH  35  38
ENDBRANCH  33  34
ENDBRANCH  32  33
ENDBRANCH   1  32
TORSDOF 20
ENDMDL
MODEL 3
REMARK VINA RESULT:     -11.3      3.151      4.512
REMARK SMILES COc1cc(NC(=O)/C=C/c2cccc([N+](=O)[O-])c2)c(C(=O)NCCCCNC(=O)c2ccc(-c3c4nc(c(-c5c(F)cc(S(=O)(=O)[O-])cc5F)c5ccc([nH]5)c(-c5c(F)cc(S(=O)(=O)[O-])cc5F)c5nc(c(-c6c(F)cc(S(=O)(=O)[O-])cc6F)c6ccc3[nH]6)C=C5)C=C4)cc2)cc1OC
REMARK SMILES IDX 25 1 24 2 23 3 21 4 22 5 20 7 3 8 4 9 98 10 5 11 97 12 2 13
REMARK SMILES IDX 1 14 99 15 100 16 6 17 7 18 8 20 9 21 10 22 11 23 12 24
REMARK SMILES IDX 19 25 13 26 15 27 14 28 16 29 17 30 18 31 26 32 27 33 28 34
REMARK SMILES IDX 29 35 30 37 31 38 32 39 96 40 33 41 95 42 34 43 35 44 36 45
REMARK SMILES IDX 89 46 37 47 94 48 88 49 90 50 38 51 93 52 87 53 86 54 39 56
REMARK SMILES IDX 73 57 52 58 72 59 53 60 56 61 71 62 91 63 54 64 55 65 70 67
REMARK SMILES IDX 92 68 57 69 40 70 41 71 50 72 42 73 43 74 49 75 51 76 44 77
REMARK SMILES IDX 45 78 46 79 47 80 48 81 74 82 75 83 84 84 76 85 77 86 83 87
REMARK SMILES IDX 85 88 78 89 79 90 80 91 81 92 82 93 58 94 59 95 68 96 60 97
REMARK SMILES IDX 61 98 67 99 69 100 62 101 63 102 64 103 65 104 66 105
REMARK H PARENT 23 6 6 19 28 36 90 55 56 66
REMARK Flexibility Score: inf
ROOT
ATOM      1  C   UNL A   1      36.582  23.158  25.339  1.00  0.00     0.023 C 
ENDROOT
BRANCH   1   2
ATOM      2  C   UNL A   1      35.066  23.325  25.460  1.00  0.00     0.116 C 
BRANCH   2   3
ATOM      3  N   UNL A   1      34.398  22.180  24.869  1.00  0.00    -0.352 N 
ATOM      4  C   UNL A   1      33.317  22.101  24.029  1.00  0.00     0.253 C 
ATOM      5  O   UNL A   1      32.931  20.981  23.691  1.00  0.00    -0.269 OA
ATOM      6  H   UNL A   1      34.789  21.311  25.114  1.00  0.00     0.163 HD
BRANCH   4   7
ATOM      7  C   UNL A   1      32.664  23.312  23.442  1.00  0.00     0.067 A 
ATOM      8  C   UNL A   1      31.354  25.454  22.180  1.00  0.00     0.162 A 
ATOM      9  C   UNL A   1      30.766  24.773  23.252  1.00  0.00     0.077 A 
ATOM     10  C   UNL A   1      32.616  25.074  21.744  1.00  0.00     0.161 A 
ATOM     11  C   UNL A   1      31.457  23.800  23.984  1.00  0.00     0.058 A 
ATOM     12  C   UNL A   1      33.253  24.010  22.379  1.00  0.00     0.066 A 
BRANCH   8  13
ATOM     13  O   UNL A   1      30.826  26.650  21.775  1.00  0.00    -0.493 OA
ATOM     14  C   UNL A   1      30.778  27.658  22.777  1.00  0.00     0.278 C 
ENDBRANCH   8  13
BRANCH  10  15
ATOM     15  O   UNL A   1      33.355  25.663  20.755  1.00  0.00    -0.493 OA
ATOM     16  C   UNL A   1      32.802  25.586  19.447  1.00  0.00     0.278 C 
ENDBRANCH  10  15
BRANCH  11  17
ATOM     17  N   UNL A   1      31.072  23.381  25.288  1.00  0.00    -0.322 N 
ATOM     18  C   UNL A   1      30.988  23.974  26.517  1.00  0.00     0.248 C 
ATOM     19  H   UNL A   1      30.801  22.435  25.311  1.00  0.00     0.170 HD
ATOM     20  O   UNL A   1      30.695  23.310  27.510  1.00  0.00    -0.270 OA
BRANCH  18  21
ATOM     21  C   UNL A   1      31.169  25.426  26.692  1.00  0.00     0.072 C 
ATOM     22  C   UNL A   1      32.364  26.032  26.618  1.00  0.00     0.014 C 
BRANCH  22  23
ATOM     23  C   UNL A   1      32.489  27.495  26.542  1.00  0.00    -0.019 A 
ATOM     24  C   UNL A   1      31.487  28.274  25.930  1.00  0.00     0.008 A 
ATOM     25  C   UNL A   1      33.669  28.117  26.955  1.00  0.00     0.093 A 
ATOM     26  C   UNL A   1      31.660  29.641  25.713  1.00  0.00     0.008 A 
ATOM     27  C   UNL A   1      33.826  29.498  26.764  1.00  0.00     0.270 A 
ATOM     28  C   UNL A   1      32.833  30.260  26.129  1.00  0.00     0.085 A 
BRANCH  27  29
ATOM     29  N   UNL A   1      35.045  30.161  27.237  1.00  0.00     0.062 N 
ATOM     30  O   UNL A   1      34.941  31.321  27.661  1.00  0.00    -0.258 OA
ATOM     31  O   UNL A   1      36.104  29.520  27.197  1.00  0.00    -0.258 OA
ENDBRANCH  27  29
ENDBRANCH  22  23
ENDBRANCH  18  21
ENDBRANCH  11  17
ENDBRANCH   4   7
ENDBRANCH   2   3
ENDBRANCH   1   2
BRANCH   1  32
ATOM     32  C   UNL A   1      37.379  24.390  25.761  1.00  0.00     0.023 C 
BRANCH  32  33
ATOM     33  C   UNL A   1      38.483  24.104  26.765  1.00  0.00     0.116 C 
BRANCH  33  34
ATOM     34  N   UNL A   1      39.803  24.040  26.154  1.00  0.00    -0.352 N 
ATOM     35  C   UNL A   1      40.914  24.782  26.466  1.00  0.00     0.251 C 
ATOM     36  H   UNL A   1      39.912  23.384  25.428  1.00  0.00     0.163 HD
ATOM     37  O   UNL A   1      41.926  24.705  25.776  1.00  0.00    -0.269 OA
BRANCH  35  38
ATOM     38  C   UNL A   1      40.852  25.700  27.619  1.00  0.00     0.039 A 
ATOM     39  C   UNL A   1      41.793  26.725  27.716  1.00  0.00     0.014 A 
ATOM     40  C   UNL A   1      39.834  25.574  28.569  1.00  0.00     0.014 A 
ATOM     41  C   UNL A   1      41.686  27.654  28.748  1.00  0.00     0.010 A 
ATOM     42  C   UNL A   1      39.679  26.551  29.544  1.00  0.00     0.010 A 
ATOM     43  C   UNL A   1      40.613  27.590  29.654  1.00  0.00    -0.014 A 
BRANCH  43  44
ATOM     44  C   UNL A   1      40.472  28.589  30.739  1.00  0.00     0.031 A 
ATOM     45  C   UNL A   1      41.314  28.473  31.981  1.00  0.00     0.074 A 
ATOM     46  C   UNL A   1      39.553  29.567  30.628  1.00  0.00     0.049 A 
ATOM     47  N   UNL A   1      41.322  29.229  33.046  1.00  0.00    -0.248 NA
ATOM     48  C   UNL A   1      42.246  27.335  32.046  1.00  0.00     0.031 C 
ATOM     49  C   UNL A   1      38.631  29.737  29.502  1.00  0.00     0.029 A 
ATOM     50  N   UNL A   1      39.236  30.598  31.475  1.00  0.00    -0.354 N 
ATOM     51  C   UNL A   1      42.249  28.657  33.909  1.00  0.00     0.074 A 
ATOM     52  C   UNL A   1      42.730  27.451  33.273  1.00  0.00     0.031 C 
ATOM     53  C   UNL A   1      37.867  30.820  29.719  1.00  0.00     0.029 A 
ATOM     54  C   UNL A   1      38.224  31.403  31.010  1.00  0.00     0.049 A 
ATOM     55  H   UNL A   1      39.691  30.748  32.334  1.00  0.00     0.167 HD
ATOM     56  C   UNL A   1      42.683  29.111  35.108  1.00  0.00     0.037 A 
ATOM     57  C   UNL A   1      37.648  32.488  31.562  1.00  0.00     0.037 A 
ATOM     58  C   UNL A   1      42.210  30.323  35.724  1.00  0.00     0.049 A 
ATOM     59  C   UNL A   1      38.159  32.991  32.884  1.00  0.00     0.074 A 
ATOM     60  C   UNL A   1      42.623  30.907  36.907  1.00  0.00     0.029 A 
ATOM     61  N   UNL A   1      41.210  31.135  35.204  1.00  0.00    -0.354 N 
ATOM     62  N   UNL A   1      39.096  32.484  33.651  1.00  0.00    -0.248 NA
ATOM     63  C   UNL A   1      37.551  34.219  33.409  1.00  0.00     0.031 C 
ATOM     64  C   UNL A   1      41.842  32.048  37.127  1.00  0.00     0.029 A 
ATOM     65  C   UNL A   1      40.980  32.205  36.053  1.00  0.00     0.049 A 
ATOM     66  H   UNL A   1      40.735  30.975  34.356  1.00  0.00     0.167 HD
ATOM     67  C   UNL A   1      39.205  33.343  34.738  1.00  0.00     0.074 A 
ATOM     68  C   UNL A   1      38.250  34.411  34.519  1.00  0.00     0.031 C 
ATOM     69  C   UNL A   1      40.021  33.259  35.819  1.00  0.00     0.037 A 
BRANCH  56  70
ATOM     70  C   UNL A   1      43.721  28.289  35.825  1.00  0.00     0.058 A 
ATOM     71  C   UNL A   1      43.365  27.273  36.729  1.00  0.00     0.135 A 
ATOM     72  C   UNL A   1      45.089  28.518  35.609  1.00  0.00     0.135 A 
ATOM     73  F   UNL A   1      42.072  27.021  36.987  1.00  0.00    -0.206 F 
ATOM     74  C   UNL A   1      44.324  26.548  37.426  1.00  0.00     0.059 A 
ATOM     75  C   UNL A   1      46.068  27.781  36.271  1.00  0.00     0.059 A 
ATOM     76  F   UNL A   1      45.489  29.474  34.755  1.00  0.00    -0.206 F 
ATOM     77  C   UNL A   1      45.675  26.813  37.195  1.00  0.00     0.060 A 
BRANCH  77  78
ATOM     78  S   UNL A   1      46.908  25.879  38.125  1.00  0.00     0.124 S 
ATOM     79  O   UNL A   1      46.443  26.072  39.495  1.00  0.00    -0.237 OA
ATOM     80  O   UNL A   1      46.751  24.532  37.586  1.00  0.00    -0.237 OA
ATOM     81  O   UNL A   1      48.163  26.544  37.788  1.00  0.00    -0.744 OA
ENDBRANCH  77  78
ENDBRANCH  56  70
BRANCH  57  82
ATOM     82  C   UNL A   1      36.543  33.179  30.846  1.00  0.00     0.058 A 
ATOM     83  C   UNL A   1      35.208  33.019  31.242  1.00  0.00     0.135 A 
ATOM     84  C   UNL A   1      36.807  34.048  29.775  1.00  0.00     0.135 A 
ATOM     85  F   UNL A   1      34.904  32.196  32.258  1.00  0.00    -0.206 F 
ATOM     86  C   UNL A   1      34.170  33.686  30.598  1.00  0.00     0.059 A 
ATOM     87  C   UNL A   1      35.790  34.747  29.132  1.00  0.00     0.059 A 
ATOM     88  F   UNL A   1      38.070  34.252  29.370  1.00  0.00    -0.206 F 
ATOM     89  C   UNL A   1      34.473  34.554  29.547  1.00  0.00     0.060 A 
BRANCH  89  90
ATOM     90  S   UNL A   1      33.127  35.468  28.763  1.00  0.00     0.124 S 
ATOM     91  O   UNL A   1      32.455  36.049  29.919  1.00  0.00    -0.237 OA
ATOM     92  O   UNL A   1      33.849  36.401  27.906  1.00  0.00    -0.237 OA
ATOM     93  O   UNL A   1      32.383  34.429  28.058  1.00  0.00    -0.744 OA
ENDBRANCH  89  90
ENDBRANCH  57  82
BRANCH  69  94
ATOM     94  C   UNL A   1      39.938  34.365  36.835  1.00  0.00     0.058 A 
ATOM     95  C   UNL A   1      39.122  34.265  37.972  1.00  0.00     0.135 A 
ATOM     96  C   UNL A   1      40.719  35.523  36.687  1.00  0.00     0.135 A 
ATOM     97  F   UNL A   1      38.351  33.182  38.158  1.00  0.00    -0.206 F 
ATOM     98  C   UNL A   1      39.059  35.288  38.912  1.00  0.00     0.059 A 
ATOM     99  C   UNL A   1      40.695  36.545  37.631  1.00  0.00     0.059 A 
ATOM    100  F   UNL A   1      41.527  35.664  35.624  1.00  0.00    -0.206 F 
ATOM    101  C   UNL A   1      39.849  36.425  38.733  1.00  0.00     0.060 A 
BRANCH 101 102
ATOM    102  S   UNL A   1      39.775  37.736  39.970  1.00  0.00     0.124 S 
ATOM    103  O   UNL A   1      41.056  38.405  39.766  1.00  0.00    -0.237 OA
ATOM    104  O   UNL A   1      38.594  38.488  39.558  1.00  0.00    -0.237 OA
ATOM    105  O   UNL A   1      39.641  37.009  41.230  1.00  0.00    -0.744 OA
ENDBRANCH 101 102
ENDBRANCH  69  94
ENDBRANCH  43  44
ENDBRANCH  35  38
ENDBRANCH  33  34
ENDBRANCH  32  33
ENDBRANCH   1  32
TORSDOF 20
ENDMDL
