MODEL 1
REMARK VINA RESULT:     -12.8      0.000      0.000
REMARK SMILES Cc1ccccc1OCCN1C(=O)CC[C@H](C(=O)NCCCCNC(=O)c2ccc(-c3c4nc(c(-c5c(F)cc(S(=O)(=O)[O-])cc5F)c5ccc([nH]5)c(-c5c(F)cc(S(=O)(=O)[O-])cc5F)c5nc(c(-c6c(F)cc(S(=O)(=O)[O-])cc6F)c6ccc3[nH]6)C=C5)C=C4)cc2)[C@@H]1c1ccco1
REMARK SMILES IDX 21 1 20 2 19 3 17 4 18 5 16 7 11 8 12 9 93 10 13 11 14 12
REMARK SMILES IDX 15 13 10 14 9 15 8 16 7 17 1 18 2 19 3 20 4 21 6 22 5 23
REMARK SMILES IDX 94 24 95 25 98 26 96 27 97 28 22 29 23 30 24 31 25 32 26 34
REMARK SMILES IDX 27 35 28 36 92 37 29 38 91 39 30 40 31 41 32 42 85 43 33 44
REMARK SMILES IDX 90 45 84 46 86 47 34 48 89 49 83 50 82 51 35 53 69 54 48 55
REMARK SMILES IDX 68 56 49 57 52 58 67 59 87 60 50 61 51 62 66 64 88 65 53 66
REMARK SMILES IDX 36 67 37 68 46 69 38 70 39 71 45 72 47 73 40 74 41 75 42 76
REMARK SMILES IDX 43 77 44 78 70 79 71 80 80 81 72 82 73 83 79 84 81 85 74 86
REMARK SMILES IDX 75 87 76 88 77 89 78 90 54 91 55 92 64 93 56 94 57 95 63 96
REMARK SMILES IDX 65 97 58 98 59 99 60 100 61 101 62 102
REMARK H PARENT 19 6 24 33 86 52 52 63
REMARK Flexibility Score: inf
ROOT
ATOM      1  C   UNL A   1      32.138  28.742  27.583  1.00  0.00     0.023 C 
ENDROOT
BRANCH   1   2
ATOM      2  C   UNL A   1      31.639  27.443  26.944  1.00  0.00     0.116 C 
BRANCH   2   3
ATOM      3  N   UNL A   1      30.924  27.616  25.684  1.00  0.00    -0.356 N 
ATOM      4  C   UNL A   1      30.698  26.734  24.669  1.00  0.00     0.225 C 
ATOM      5  O   UNL A   1      29.835  27.034  23.835  1.00  0.00    -0.275 OA
ATOM      6  H   UNL A   1      30.546  28.514  25.544  1.00  0.00     0.163 HD
BRANCH   4   7
ATOM      7  C   UNL A   1      31.460  25.413  24.515  1.00  0.00     0.109 C 
ATOM      8  N   UNL A   1      33.601  24.342  23.690  1.00  0.00    -0.328 N 
ATOM      9  C   UNL A   1      32.961  23.546  22.757  1.00  0.00     0.223 C 
ATOM     10  C   UNL A   1      32.973  25.545  24.261  1.00  0.00     0.164 C 
ATOM     11  O   UNL A   1      33.545  22.694  22.083  1.00  0.00    -0.275 OA
ATOM     12  C   UNL A   1      31.487  23.772  22.533  1.00  0.00     0.101 C 
ATOM     13  C   UNL A   1      30.710  24.381  23.679  1.00  0.00     0.026 C 
BRANCH   8  14
ATOM     14  C   UNL A   1      35.050  24.155  23.860  1.00  0.00     0.162 C 
BRANCH  14  15
ATOM     15  C   UNL A   1      35.473  23.038  24.827  1.00  0.00     0.251 C 
BRANCH  15  16
ATOM     16  O   UNL A   1      34.440  22.428  25.606  1.00  0.00    -0.491 OA
BRANCH  16  17
ATOM     17  C   UNL A   1      33.996  21.180  25.272  1.00  0.00     0.122 A 
ATOM     18  C   UNL A   1      31.486  21.581  25.602  1.00  0.00     0.048 C 
ATOM     19  C   UNL A   1      32.666  20.741  25.218  1.00  0.00    -0.009 A 
ATOM     20  C   UNL A   1      32.409  19.424  24.788  1.00  0.00     0.007 A 
ATOM     21  C   UNL A   1      33.447  18.541  24.486  1.00  0.00     0.001 A 
ATOM     22  C   UNL A   1      35.032  20.266  25.021  1.00  0.00     0.047 A 
ATOM     23  C   UNL A   1      34.763  18.957  24.623  1.00  0.00     0.004 A 
ENDBRANCH  16  17
ENDBRANCH  15  16
ENDBRANCH  14  15
ENDBRANCH   8  14
BRANCH  10  24
ATOM     24  C   UNL A   1      33.356  26.748  23.469  1.00  0.00     0.127 A 
ATOM     25  C   UNL A   1      33.363  26.985  22.110  1.00  0.00     0.048 A 
ATOM     26  O   UNL A   1      33.817  27.841  24.141  1.00  0.00    -0.467 OA
ATOM     27  C   UNL A   1      33.927  28.262  21.947  1.00  0.00     0.042 A 
ATOM     28  C   UNL A   1      34.155  28.764  23.205  1.00  0.00     0.195 A 
ENDBRANCH  10  24
ENDBRANCH   4   7
ENDBRANCH   2   3
ENDBRANCH   1   2
BRANCH   1  29
ATOM     29  C   UNL A   1      33.274  29.464  26.860  1.00  0.00     0.023 C 
BRANCH  29  30
ATOM     30  C   UNL A   1      34.398  29.967  27.744  1.00  0.00     0.116 C 
BRANCH  30  31
ATOM     31  N   UNL A   1      35.538  30.587  27.090  1.00  0.00    -0.352 N 
ATOM     32  C   UNL A   1      36.616  30.965  27.903  1.00  0.00     0.251 C 
ATOM     33  H   UNL A   1      35.552  30.735  26.117  1.00  0.00     0.163 HD
ATOM     34  O   UNL A   1      36.711  32.011  28.498  1.00  0.00    -0.269 OA
BRANCH  32  35
ATOM     35  C   UNL A   1      37.501  29.819  28.229  1.00  0.00     0.039 A 
ATOM     36  C   UNL A   1      37.421  29.112  29.428  1.00  0.00     0.014 A 
ATOM     37  C   UNL A   1      38.538  29.590  27.325  1.00  0.00     0.014 A 
ATOM     38  C   UNL A   1      38.475  28.264  29.782  1.00  0.00     0.010 A 
ATOM     39  C   UNL A   1      39.622  28.853  27.720  1.00  0.00     0.010 A 
ATOM     40  C   UNL A   1      39.597  28.199  28.953  1.00  0.00    -0.014 A 
BRANCH  40  41
ATOM     41  C   UNL A   1      40.848  27.528  29.263  1.00  0.00     0.031 A 
ATOM     42  C   UNL A   1      41.079  26.146  28.796  1.00  0.00     0.074 A 
ATOM     43  C   UNL A   1      41.870  28.295  29.696  1.00  0.00     0.049 A 
ATOM     44  N   UNL A   1      42.031  25.395  29.223  1.00  0.00    -0.248 NA
ATOM     45  C   UNL A   1      40.232  25.492  27.800  1.00  0.00     0.031 C 
ATOM     46  C   UNL A   1      43.299  28.011  29.635  1.00  0.00     0.029 A 
ATOM     47  N   UNL A   1      41.795  29.483  30.422  1.00  0.00    -0.354 N 
ATOM     48  C   UNL A   1      42.107  24.305  28.384  1.00  0.00     0.074 A 
ATOM     49  C   UNL A   1      40.928  24.377  27.555  1.00  0.00     0.031 C 
ATOM     50  C   UNL A   1      43.932  28.806  30.514  1.00  0.00     0.029 A 
ATOM     51  C   UNL A   1      42.906  29.507  31.273  1.00  0.00     0.049 A 
ATOM     52  H   UNL A   1      41.097  30.172  30.349  1.00  0.00     0.167 HD
ATOM     53  C   UNL A   1      43.233  23.538  28.384  1.00  0.00     0.037 A 
ATOM     54  C   UNL A   1      42.796  29.512  32.634  1.00  0.00     0.037 A 
ATOM     55  C   UNL A   1      44.201  24.042  29.354  1.00  0.00     0.049 A 
ATOM     56  C   UNL A   1      43.399  28.257  33.227  1.00  0.00     0.074 A 
ATOM     57  C   UNL A   1      45.274  24.909  29.223  1.00  0.00     0.029 A 
ATOM     58  N   UNL A   1      43.914  23.976  30.714  1.00  0.00    -0.354 N 
ATOM     59  N   UNL A   1      43.622  27.170  32.537  1.00  0.00    -0.248 NA
ATOM     60  C   UNL A   1      43.816  28.125  34.619  1.00  0.00     0.031 C 
ATOM     61  C   UNL A   1      45.570  25.439  30.503  1.00  0.00     0.029 A 
ATOM     62  C   UNL A   1      44.696  24.874  31.417  1.00  0.00     0.049 A 
ATOM     63  H   UNL A   1      43.248  23.374  31.119  1.00  0.00     0.167 HD
ATOM     64  C   UNL A   1      44.209  26.227  33.334  1.00  0.00     0.074 A 
ATOM     65  C   UNL A   1      44.302  26.870  34.633  1.00  0.00     0.031 C 
ATOM     66  C   UNL A   1      44.581  25.001  32.863  1.00  0.00     0.037 A 
BRANCH  53  67
ATOM     67  C   UNL A   1      43.547  22.535  27.300  1.00  0.00     0.058 A 
ATOM     68  C   UNL A   1      42.827  21.326  27.202  1.00  0.00     0.135 A 
ATOM     69  C   UNL A   1      44.567  22.703  26.342  1.00  0.00     0.135 A 
ATOM     70  F   UNL A   1      41.803  21.049  28.020  1.00  0.00    -0.206 F 
ATOM     71  C   UNL A   1      43.136  20.331  26.275  1.00  0.00     0.059 A 
ATOM     72  C   UNL A   1      44.927  21.700  25.432  1.00  0.00     0.059 A 
ATOM     73  F   UNL A   1      45.236  23.861  26.242  1.00  0.00    -0.206 F 
ATOM     74  C   UNL A   1      44.204  20.514  25.406  1.00  0.00     0.060 A 
BRANCH  74  75
ATOM     75  S   UNL A   1      44.613  19.187  24.255  1.00  0.00     0.124 S 
ATOM     76  O   UNL A   1      45.981  18.854  24.643  1.00  0.00    -0.237 OA
ATOM     77  O   UNL A   1      43.602  18.187  24.576  1.00  0.00    -0.237 OA
ATOM     78  O   UNL A   1      44.478  19.819  22.946  1.00  0.00    -0.744 OA
ENDBRANCH  74  75
ENDBRANCH  53  67
BRANCH  54  79
ATOM     79  C   UNL A   1      41.597  30.253  33.128  1.00  0.00     0.058 A 
ATOM     80  C   UNL A   1      41.717  31.657  33.213  1.00  0.00     0.135 A 
ATOM     81  C   UNL A   1      40.308  29.724  32.967  1.00  0.00     0.135 A 
ATOM     82  F   UNL A   1      42.924  32.214  33.398  1.00  0.00    -0.206 F 
ATOM     83  C   UNL A   1      40.648  32.500  32.921  1.00  0.00     0.059 A 
ATOM     84  C   UNL A   1      39.219  30.555  32.679  1.00  0.00     0.059 A 
ATOM     85  F   UNL A   1      40.129  28.400  32.865  1.00  0.00    -0.206 F 
ATOM     86  C   UNL A   1      39.428  31.932  32.565  1.00  0.00     0.060 A 
BRANCH  86  87
ATOM     87  S   UNL A   1      38.202  32.993  31.750  1.00  0.00     0.124 S 
ATOM     88  O   UNL A   1      38.135  34.135  32.652  1.00  0.00    -0.237 OA
ATOM     89  O   UNL A   1      38.837  33.236  30.452  1.00  0.00    -0.237 OA
ATOM     90  O   UNL A   1      37.014  32.149  31.708  1.00  0.00    -0.744 OA
ENDBRANCH  86  87
ENDBRANCH  54  79
BRANCH  66  91
ATOM     91  C   UNL A   1      44.979  23.829  33.721  1.00  0.00     0.058 A 
ATOM     92  C   UNL A   1      44.069  22.859  34.168  1.00  0.00     0.135 A 
ATOM     93  C   UNL A   1      46.345  23.563  33.980  1.00  0.00     0.135 A 
ATOM     94  F   UNL A   1      42.761  22.949  33.887  1.00  0.00    -0.206 F 
ATOM     95  C   UNL A   1      44.476  21.733  34.880  1.00  0.00     0.059 A 
ATOM     96  C   UNL A   1      46.777  22.416  34.637  1.00  0.00     0.059 A 
ATOM     97  F   UNL A   1      47.312  24.405  33.585  1.00  0.00    -0.206 F 
ATOM     98  C   UNL A   1      45.832  21.518  35.110  1.00  0.00     0.060 A 
BRANCH  98  99
ATOM     99  S   UNL A   1      46.365  20.038  35.984  1.00  0.00     0.124 S 
ATOM    100  O   UNL A   1      45.840  18.988  35.117  1.00  0.00    -0.237 OA
ATOM    101  O   UNL A   1      47.818  20.177  35.997  1.00  0.00    -0.237 OA
ATOM    102  O   UNL A   1      45.718  20.169  37.285  1.00  0.00    -0.744 OA
ENDBRANCH  98  99
ENDBRANCH  66  91
ENDBRANCH  40  41
ENDBRANCH  32  35
ENDBRANCH  30  31
ENDBRANCH  29  30
ENDBRANCH   1  29
TORSDOF 19
ENDMDL
MODEL 2
REMARK VINA RESULT:     -12.7      2.143      3.341
REMARK SMILES Cc1ccccc1OCCN1C(=O)CC[C@H](C(=O)NCCCCNC(=O)c2ccc(-c3c4nc(c(-c5c(F)cc(S(=O)(=O)[O-])cc5F)c5ccc([nH]5)c(-c5c(F)cc(S(=O)(=O)[O-])cc5F)c5nc(c(-c6c(F)cc(S(=O)(=O)[O-])cc6F)c6ccc3[nH]6)C=C5)C=C4)cc2)[C@@H]1c1ccco1
REMARK SMILES IDX 21 1 20 2 19 3 17 4 18 5 16 7 11 8 12 9 93 10 13 11 14 12
REMARK SMILES IDX 15 13 10 14 9 15 8 16 7 17 1 18 2 19 3 20 4 21 6 22 5 23
REMARK SMILES IDX 94 24 95 25 98 26 96 27 97 28 22 29 23 30 24 31 25 32 26 34
REMARK SMILES IDX 27 35 28 36 92 37 29 38 91 39 30 40 31 41 32 42 85 43 33 44
REMARK SMILES IDX 90 45 84 46 86 47 34 48 89 49 83 50 82 51 35 53 69 54 48 55
REMARK SMILES IDX 68 56 49 57 52 58 67 59 87 60 50 61 51 62 66 64 88 65 53 66
REMARK SMILES IDX 36 67 37 68 46 69 38 70 39 71 45 72 47 73 40 74 41 75 42 76
REMARK SMILES IDX 43 77 44 78 70 79 71 80 80 81 72 82 73 83 79 84 81 85 74 86
REMARK SMILES IDX 75 87 76 88 77 89 78 90 54 91 55 92 64 93 56 94 57 95 63 96
REMARK SMILES IDX 65 97 58 98 59 99 60 100 61 101 62 102
REMARK H PARENT 19 6 24 33 86 52 52 63
REMARK Flexibility Score: inf
ROOT
ATOM      1  C   UNL A   1      34.424  28.651  26.645  1.00  0.00     0.023 C 
ENDROOT
BRANCH   1   2
ATOM      2  C   UNL A   1      33.876  27.245  26.389  1.00  0.00     0.116 C 
BRANCH   2   3
ATOM      3  N   UNL A   1      32.475  27.197  25.983  1.00  0.00    -0.356 N 
ATOM      4  C   UNL A   1      31.569  26.181  26.055  1.00  0.00     0.225 C 
ATOM      5  O   UNL A   1      30.376  26.470  25.903  1.00  0.00    -0.275 OA
ATOM      6  H   UNL A   1      32.129  28.034  25.596  1.00  0.00     0.163 HD
BRANCH   4   7
ATOM      7  C   UNL A   1      31.960  24.719  26.302  1.00  0.00     0.109 C 
ATOM      8  N   UNL A   1      32.993  22.650  25.272  1.00  0.00    -0.328 N 
ATOM      9  C   UNL A   1      31.850  21.885  25.418  1.00  0.00     0.223 C 
ATOM     10  C   UNL A   1      32.963  24.121  25.300  1.00  0.00     0.164 C 
ATOM     11  O   UNL A   1      31.805  20.681  25.151  1.00  0.00    -0.275 OA
ATOM     12  C   UNL A   1      30.595  22.578  25.886  1.00  0.00     0.101 C 
ATOM     13  C   UNL A   1      30.778  23.840  26.699  1.00  0.00     0.026 C 
BRANCH   8  14
ATOM     14  C   UNL A   1      34.197  21.978  24.760  1.00  0.00     0.162 C 
BRANCH  14  15
ATOM     15  C   UNL A   1      35.481  22.186  25.578  1.00  0.00     0.251 C 
BRANCH  15  16
ATOM     16  O   UNL A   1      36.704  22.308  24.846  1.00  0.00    -0.491 OA
BRANCH  16  17
ATOM     17  C   UNL A   1      37.894  22.233  25.514  1.00  0.00     0.122 A 
ATOM     18  C   UNL A   1      38.403  19.759  25.079  1.00  0.00     0.048 C 
ATOM     19  C   UNL A   1      38.730  21.114  25.629  1.00  0.00    -0.009 A 
ATOM     20  C   UNL A   1      39.954  21.256  26.312  1.00  0.00     0.007 A 
ATOM     21  C   UNL A   1      40.310  22.458  26.928  1.00  0.00     0.001 A 
ATOM     22  C   UNL A   1      38.236  23.418  26.184  1.00  0.00     0.047 A 
ATOM     23  C   UNL A   1      39.439  23.536  26.881  1.00  0.00     0.004 A 
ENDBRANCH  16  17
ENDBRANCH  15  16
ENDBRANCH  14  15
ENDBRANCH   8  14
BRANCH  10  24
ATOM     24  C   UNL A   1      32.835  24.657  23.914  1.00  0.00     0.127 A 
ATOM     25  C   UNL A   1      33.743  25.283  23.087  1.00  0.00     0.048 A 
ATOM     26  O   UNL A   1      31.620  24.571  23.301  1.00  0.00    -0.467 OA
ATOM     27  C   UNL A   1      33.022  25.660  21.941  1.00  0.00     0.042 A 
ATOM     28  C   UNL A   1      31.745  25.177  22.094  1.00  0.00     0.195 A 
ENDBRANCH  10  24
ENDBRANCH   4   7
ENDBRANCH   2   3
ENDBRANCH   1   2
BRANCH   1  29
ATOM     29  C   UNL A   1      33.492  29.815  26.310  1.00  0.00     0.023 C 
BRANCH  29  30
ATOM     30  C   UNL A   1      33.233  30.792  27.441  1.00  0.00     0.116 C 
BRANCH  30  31
ATOM     31  N   UNL A   1      34.204  31.854  27.644  1.00  0.00    -0.352 N 
ATOM     32  C   UNL A   1      34.756  31.981  28.927  1.00  0.00     0.251 C 
ATOM     33  H   UNL A   1      34.464  32.458  26.911  1.00  0.00     0.163 HD
ATOM     34  O   UNL A   1      34.267  32.601  29.841  1.00  0.00    -0.269 OA
BRANCH  32  35
ATOM     35  C   UNL A   1      35.854  31.012  29.163  1.00  0.00     0.039 A 
ATOM     36  C   UNL A   1      35.897  30.166  30.271  1.00  0.00     0.014 A 
ATOM     37  C   UNL A   1      36.937  31.110  28.290  1.00  0.00     0.014 A 
ATOM     38  C   UNL A   1      37.098  29.516  30.577  1.00  0.00     0.010 A 
ATOM     39  C   UNL A   1      38.141  30.571  28.650  1.00  0.00     0.010 A 
ATOM     40  C   UNL A   1      38.227  29.783  29.800  1.00  0.00    -0.014 A 
BRANCH  40  41
ATOM     41  C   UNL A   1      39.584  29.352  30.091  1.00  0.00     0.031 A 
ATOM     42  C   UNL A   1      40.106  28.108  29.491  1.00  0.00     0.074 A 
ATOM     43  C   UNL A   1      40.414  30.258  30.647  1.00  0.00     0.049 A 
ATOM     44  N   UNL A   1      41.185  27.524  29.877  1.00  0.00    -0.248 NA
ATOM     45  C   UNL A   1      39.436  27.411  28.396  1.00  0.00     0.031 C 
ATOM     46  C   UNL A   1      41.872  30.281  30.619  1.00  0.00     0.029 A 
ATOM     47  N   UNL A   1      40.078  31.317  31.490  1.00  0.00    -0.354 N 
ATOM     48  C   UNL A   1      41.503  26.575  28.932  1.00  0.00     0.074 A 
ATOM     49  C   UNL A   1      40.353  26.497  28.065  1.00  0.00     0.031 C 
ATOM     50  C   UNL A   1      42.307  31.086  31.603  1.00  0.00     0.029 A 
ATOM     51  C   UNL A   1      41.142  31.472  32.387  1.00  0.00     0.049 A 
ATOM     52  H   UNL A   1      39.253  31.852  31.460  1.00  0.00     0.167 HD
ATOM     53  C   UNL A   1      42.765  26.059  28.900  1.00  0.00     0.037 A 
ATOM     54  C   UNL A   1      41.005  31.301  33.735  1.00  0.00     0.037 A 
ATOM     55  C   UNL A   1      43.586  26.639  29.959  1.00  0.00     0.049 A 
ATOM     56  C   UNL A   1      41.844  30.137  34.217  1.00  0.00     0.074 A 
ATOM     57  C   UNL A   1      44.458  27.716  29.967  1.00  0.00     0.029 A 
ATOM     58  N   UNL A   1      43.291  26.363  31.290  1.00  0.00    -0.354 N 
ATOM     59  N   UNL A   1      42.302  29.204  33.426  1.00  0.00    -0.248 NA
ATOM     60  C   UNL A   1      42.250  29.938  35.604  1.00  0.00     0.031 C 
ATOM     61  C   UNL A   1      44.610  28.148  31.307  1.00  0.00     0.029 A 
ATOM     62  C   UNL A   1      43.855  27.317  32.118  1.00  0.00     0.049 A 
ATOM     63  H   UNL A   1      42.757  25.596  31.600  1.00  0.00     0.167 HD
ATOM     64  C   UNL A   1      43.056  28.318  34.144  1.00  0.00     0.074 A 
ATOM     65  C   UNL A   1      42.987  28.815  35.507  1.00  0.00     0.031 C 
ATOM     66  C   UNL A   1      43.686  27.254  33.562  1.00  0.00     0.037 A 
BRANCH  53  67
ATOM     67  C   UNL A   1      43.303  25.271  27.731  1.00  0.00     0.058 A 
ATOM     68  C   UNL A   1      43.507  23.878  27.828  1.00  0.00     0.135 A 
ATOM     69  C   UNL A   1      43.660  25.841  26.492  1.00  0.00     0.135 A 
ATOM     70  F   UNL A   1      43.175  23.195  28.932  1.00  0.00    -0.206 F 
ATOM     71  C   UNL A   1      44.082  23.121  26.809  1.00  0.00     0.059 A 
ATOM     72  C   UNL A   1      44.282  25.111  25.470  1.00  0.00     0.059 A 
ATOM     73  F   UNL A   1      43.393  27.127  26.223  1.00  0.00    -0.206 F 
ATOM     74  C   UNL A   1      44.489  23.748  25.639  1.00  0.00     0.060 A 
BRANCH  74  75
ATOM     75  S   UNL A   1      45.280  22.751  24.360  1.00  0.00     0.124 S 
ATOM     76  O   UNL A   1      44.161  22.446  23.472  1.00  0.00    -0.237 OA
ATOM     77  O   UNL A   1      46.276  23.674  23.830  1.00  0.00    -0.237 OA
ATOM     78  O   UNL A   1      45.811  21.609  25.098  1.00  0.00    -0.744 OA
ENDBRANCH  74  75
ENDBRANCH  53  67
BRANCH  54  79
ATOM     79  C   UNL A   1      39.668  31.720  34.251  1.00  0.00     0.058 A 
ATOM     80  C   UNL A   1      39.502  33.095  34.523  1.00  0.00     0.135 A 
ATOM     81  C   UNL A   1      38.516  30.978  33.951  1.00  0.00     0.135 A 
ATOM     82  F   UNL A   1      40.568  33.845  34.845  1.00  0.00    -0.206 F 
ATOM     83  C   UNL A   1      38.296  33.747  34.282  1.00  0.00     0.059 A 
ATOM     84  C   UNL A   1      37.293  31.614  33.712  1.00  0.00     0.059 A 
ATOM     85  F   UNL A   1      38.609  29.671  33.670  1.00  0.00    -0.206 F 
ATOM     86  C   UNL A   1      37.225  33.008  33.788  1.00  0.00     0.060 A 
BRANCH  86  87
ATOM     87  S   UNL A   1      35.837  33.912  33.048  1.00  0.00     0.124 S 
ATOM     88  O   UNL A   1      35.719  35.068  33.927  1.00  0.00    -0.237 OA
ATOM     89  O   UNL A   1      36.343  34.180  31.699  1.00  0.00    -0.237 OA
ATOM     90  O   UNL A   1      34.744  32.950  33.119  1.00  0.00    -0.744 OA
ENDBRANCH  86  87
ENDBRANCH  54  79
BRANCH  66  91
ATOM     91  C   UNL A   1      44.301  26.100  34.308  1.00  0.00     0.058 A 
ATOM     92  C   UNL A   1      45.682  25.967  34.516  1.00  0.00     0.135 A 
ATOM     93  C   UNL A   1      43.480  25.168  34.989  1.00  0.00     0.135 A 
ATOM     94  F   UNL A   1      46.551  26.855  34.012  1.00  0.00    -0.206 F 
ATOM     95  C   UNL A   1      46.221  24.942  35.291  1.00  0.00     0.059 A 
ATOM     96  C   UNL A   1      43.994  24.175  35.814  1.00  0.00     0.059 A 
ATOM     97  F   UNL A   1      42.143  25.204  34.886  1.00  0.00    -0.206 F 
ATOM     98  C   UNL A   1      45.370  24.050  35.937  1.00  0.00     0.060 A 
BRANCH  98  99
ATOM     99  S   UNL A   1      46.059  22.758  36.982  1.00  0.00     0.124 S 
ATOM    100  O   UNL A   1      47.491  22.982  36.810  1.00  0.00    -0.237 OA
ATOM    101  O   UNL A   1      45.523  23.086  38.299  1.00  0.00    -0.237 OA
ATOM    102  O   UNL A   1      45.534  21.533  36.387  1.00  0.00    -0.744 OA
ENDBRANCH  98  99
ENDBRANCH  66  91
ENDBRANCH  40  41
ENDBRANCH  32  35
ENDBRANCH  30  31
ENDBRANCH  29  30
ENDBRANCH   1  29
TORSDOF 19
ENDMDL
MODEL 3
REMARK VINA RESULT:     -12.6      2.145      3.123
REMARK SMILES Cc1ccccc1OCCN1C(=O)CC[C@H](C(=O)NCCCCNC(=O)c2ccc(-c3c4nc(c(-c5c(F)cc(S(=O)(=O)[O-])cc5F)c5ccc([nH]5)c(-c5c(F)cc(S(=O)(=O)[O-])cc5F)c5nc(c(-c6c(F)cc(S(=O)(=O)[O-])cc6F)c6ccc3[nH]6)C=C5)C=C4)cc2)[C@@H]1c1ccco1
REMARK SMILES IDX 21 1 20 2 19 3 17 4 18 5 16 7 11 8 12 9 93 10 13 11 14 12
REMARK SMILES IDX 15 13 10 14 9 15 8 16 7 17 1 18 2 19 3 20 4 21 6 22 5 23
REMARK SMILES IDX 94 24 95 25 98 26 96 27 97 28 22 29 23 30 24 31 25 32 26 34
REMARK SMILES IDX 27 35 28 36 92 37 29 38 91 39 30 40 31 41 32 42 85 43 33 44
REMARK SMILES IDX 90 45 84 46 86 47 34 48 89 49 83 50 82 51 35 53 69 54 48 55
REMARK SMILES IDX 68 56 49 57 52 58 67 59 87 60 50 61 51 62 66 64 88 65 53 66
REMARK SMILES IDX 36 67 37 68 46 69 38 70 39 71 45 72 47 73 40 74 41 75 42 76
REMARK SMILES IDX 43 77 44 78 70 79 71 80 80 81 72 82 73 83 79 84 81 85 74 86
REMARK SMILES IDX 75 87 76 88 77 89 78 90 54 91 55 92 64 93 56 94 57 95 63 96
REMARK SMILES IDX 65 97 58 98 59 99 60 100 61 101 62 102
REMARK H PARENT 19 6 24 33 86 52 52 63
REMARK Flexibility Score: inf
ROOT
ATOM      1  C   UNL A   1      32.916  29.197  24.716  1.00  0.00     0.023 C 
ENDROOT
BRANCH   1   2
ATOM      2  C   UNL A   1      31.395  29.370  24.729  1.00  0.00     0.116 C 
BRANCH   2   3
ATOM      3  N   UNL A   1      30.658  28.370  23.965  1.00  0.00    -0.356 N 
ATOM      4  C   UNL A   1      30.282  27.102  24.301  1.00  0.00     0.225 C 
ATOM      5  O   UNL A   1      29.431  26.554  23.590  1.00  0.00    -0.275 OA
ATOM      6  H   UNL A   1      30.390  28.655  23.061  1.00  0.00     0.163 HD
BRANCH   4   7
ATOM      7  C   UNL A   1      30.866  26.339  25.495  1.00  0.00     0.109 C 
ATOM      8  N   UNL A   1      32.598  24.641  26.220  1.00  0.00    -0.328 N 
ATOM      9  C   UNL A   1      31.662  23.740  26.694  1.00  0.00     0.223 C 
ATOM     10  C   UNL A   1      32.251  25.708  25.267  1.00  0.00     0.164 C 
ATOM     11  O   UNL A   1      31.965  22.699  27.283  1.00  0.00    -0.275 OA
ATOM     12  C   UNL A   1      30.207  24.035  26.431  1.00  0.00     0.101 C 
ATOM     13  C   UNL A   1      29.833  25.486  26.225  1.00  0.00     0.026 C 
BRANCH   8  14
ATOM     14  C   UNL A   1      34.017  24.316  26.429  1.00  0.00     0.162 C 
BRANCH  14  15
ATOM     15  C   UNL A   1      34.480  22.954  25.890  1.00  0.00     0.251 C 
BRANCH  15  16
ATOM     16  O   UNL A   1      35.568  22.959  24.961  1.00  0.00    -0.491 OA
BRANCH  16  17
ATOM     17  C   UNL A   1      36.823  22.636  25.398  1.00  0.00     0.122 A 
ATOM     18  C   UNL A   1      36.769  20.133  24.850  1.00  0.00     0.048 C 
ATOM     19  C   UNL A   1      37.439  21.379  25.345  1.00  0.00    -0.009 A 
ATOM     20  C   UNL A   1      38.770  21.262  25.793  1.00  0.00     0.007 A 
ATOM     21  C   UNL A   1      39.450  22.349  26.346  1.00  0.00     0.001 A 
ATOM     22  C   UNL A   1      37.496  23.707  26.007  1.00  0.00     0.047 A 
ATOM     23  C   UNL A   1      38.804  23.569  26.472  1.00  0.00     0.004 A 
ENDBRANCH  16  17
ENDBRANCH  15  16
ENDBRANCH  14  15
ENDBRANCH   8  14
BRANCH  10  24
ATOM     24  C   UNL A   1      32.488  25.244  23.870  1.00  0.00     0.127 A 
ATOM     25  C   UNL A   1      32.269  24.026  23.261  1.00  0.00     0.048 A 
ATOM     26  O   UNL A   1      33.044  26.120  22.986  1.00  0.00    -0.467 OA
ATOM     27  C   UNL A   1      32.787  24.148  21.960  1.00  0.00     0.042 A 
ATOM     28  C   UNL A   1      33.214  25.446  21.821  1.00  0.00     0.195 A 
ENDBRANCH  10  24
ENDBRANCH   4   7
ENDBRANCH   2   3
ENDBRANCH   1   2
BRANCH   1  29
ATOM     29  C   UNL A   1      33.581  28.916  26.064  1.00  0.00     0.023 C 
BRANCH  29  30
ATOM     30  C   UNL A   1      33.393  29.987  27.121  1.00  0.00     0.116 C 
BRANCH  30  31
ATOM     31  N   UNL A   1      34.369  31.063  27.166  1.00  0.00    -0.352 N 
ATOM     32  C   UNL A   1      34.933  31.365  28.413  1.00  0.00     0.251 C 
ATOM     33  H   UNL A   1      34.622  31.558  26.353  1.00  0.00     0.163 HD
ATOM     34  O   UNL A   1      34.455  32.107  29.237  1.00  0.00    -0.269 OA
BRANCH  32  35
ATOM     35  C   UNL A   1      36.031  30.433  28.771  1.00  0.00     0.039 A 
ATOM     36  C   UNL A   1      36.194  29.904  30.051  1.00  0.00     0.014 A 
ATOM     37  C   UNL A   1      36.999  30.242  27.785  1.00  0.00     0.014 A 
ATOM     38  C   UNL A   1      37.408  29.294  30.380  1.00  0.00     0.010 A 
ATOM     39  C   UNL A   1      38.227  29.751  28.135  1.00  0.00     0.010 A 
ATOM     40  C   UNL A   1      38.438  29.287  29.435  1.00  0.00    -0.014 A 
BRANCH  40  41
ATOM     41  C   UNL A   1      39.811  28.875  29.673  1.00  0.00     0.031 A 
ATOM     42  C   UNL A   1      40.285  27.569  29.173  1.00  0.00     0.074 A 
ATOM     43  C   UNL A   1      40.681  29.826  30.070  1.00  0.00     0.049 A 
ATOM     44  N   UNL A   1      41.387  27.018  29.541  1.00  0.00    -0.248 NA
ATOM     45  C   UNL A   1      39.535  26.767  28.208  1.00  0.00     0.031 C 
ATOM     46  C   UNL A   1      42.133  29.831  29.936  1.00  0.00     0.029 A 
ATOM     47  N   UNL A   1      40.410  30.971  30.818  1.00  0.00    -0.354 N 
ATOM     48  C   UNL A   1      41.634  25.971  28.682  1.00  0.00     0.074 A 
ATOM     49  C   UNL A   1      40.424  25.814  27.911  1.00  0.00     0.031 C 
ATOM     50  C   UNL A   1      42.641  30.730  30.796  1.00  0.00     0.029 A 
ATOM     51  C   UNL A   1      41.536  31.208  31.615  1.00  0.00     0.049 A 
ATOM     52  H   UNL A   1      39.587  31.509  30.790  1.00  0.00     0.167 HD
ATOM     53  C   UNL A   1      42.888  25.441  28.615  1.00  0.00     0.037 A 
ATOM     54  C   UNL A   1      41.496  31.183  32.980  1.00  0.00     0.037 A 
ATOM     55  C   UNL A   1      43.785  26.121  29.546  1.00  0.00     0.049 A 
ATOM     56  C   UNL A   1      42.364  30.067  33.522  1.00  0.00     0.074 A 
ATOM     57  C   UNL A   1      44.658  27.183  29.377  1.00  0.00     0.029 A 
ATOM     58  N   UNL A   1      43.585  25.990  30.916  1.00  0.00    -0.354 N 
ATOM     59  N   UNL A   1      42.761  29.051  32.804  1.00  0.00    -0.248 NA
ATOM     60  C   UNL A   1      42.868  30.010  34.890  1.00  0.00     0.031 C 
ATOM     61  C   UNL A   1      44.907  27.753  30.650  1.00  0.00     0.029 A 
ATOM     62  C   UNL A   1      44.210  27.020  31.596  1.00  0.00     0.049 A 
ATOM     63  H   UNL A   1      43.073  25.266  31.343  1.00  0.00     0.167 HD
ATOM     64  C   UNL A   1      43.562  28.237  33.556  1.00  0.00     0.074 A 
ATOM     65  C   UNL A   1      43.592  28.876  34.860  1.00  0.00     0.031 C 
ATOM     66  C   UNL A   1      44.145  27.111  33.047  1.00  0.00     0.037 A 
BRANCH  53  67
ATOM     67  C   UNL A   1      43.338  24.528  27.501  1.00  0.00     0.058 A 
ATOM     68  C   UNL A   1      43.054  23.147  27.537  1.00  0.00     0.135 A 
ATOM     69  C   UNL A   1      44.077  24.957  26.379  1.00  0.00     0.135 A 
ATOM     70  F   UNL A   1      42.326  22.605  28.522  1.00  0.00    -0.206 F 
ATOM     71  C   UNL A   1      43.523  22.249  26.578  1.00  0.00     0.059 A 
ATOM     72  C   UNL A   1      44.599  24.070  25.428  1.00  0.00     0.059 A 
ATOM     73  F   UNL A   1      44.299  26.261  26.157  1.00  0.00    -0.206 F 
ATOM     74  C   UNL A   1      44.315  22.714  25.537  1.00  0.00     0.060 A 
BRANCH  74  75
ATOM     75  S   UNL A   1      44.951  21.521  24.342  1.00  0.00     0.124 S 
ATOM     76  O   UNL A   1      44.220  20.309  24.699  1.00  0.00    -0.237 OA
ATOM     77  O   UNL A   1      44.578  22.136  23.073  1.00  0.00    -0.237 OA
ATOM     78  O   UNL A   1      46.382  21.486  24.626  1.00  0.00    -0.744 OA
ENDBRANCH  74  75
ENDBRANCH  53  67
BRANCH  54  79
ATOM     79  C   UNL A   1      40.201  31.668  33.543  1.00  0.00     0.058 A 
ATOM     80  C   UNL A   1      39.274  30.677  33.931  1.00  0.00     0.135 A 
ATOM     81  C   UNL A   1      40.114  32.916  34.177  1.00  0.00     0.135 A 
ATOM     82  F   UNL A   1      39.293  29.474  33.334  1.00  0.00    -0.206 F 
ATOM     83  C   UNL A   1      38.459  30.837  35.049  1.00  0.00     0.059 A 
ATOM     84  C   UNL A   1      39.297  33.099  35.297  1.00  0.00     0.059 A 
ATOM     85  F   UNL A   1      40.975  33.894  33.862  1.00  0.00    -0.206 F 
ATOM     86  C   UNL A   1      38.550  32.019  35.777  1.00  0.00     0.060 A 
BRANCH  86  87
ATOM     87  S   UNL A   1      37.856  32.042  37.453  1.00  0.00     0.124 S 
ATOM     88  O   UNL A   1      37.421  30.662  37.625  1.00  0.00    -0.237 OA
ATOM     89  O   UNL A   1      39.016  32.453  38.249  1.00  0.00    -0.237 OA
ATOM     90  O   UNL A   1      36.792  33.033  37.354  1.00  0.00    -0.744 OA
ENDBRANCH  86  87
ENDBRANCH  54  79
BRANCH  66  91
ATOM     91  C   UNL A   1      44.808  26.036  33.866  1.00  0.00     0.058 A 
ATOM     92  C   UNL A   1      44.094  25.085  34.610  1.00  0.00     0.135 A 
ATOM     93  C   UNL A   1      46.207  25.835  33.783  1.00  0.00     0.135 A 
ATOM     94  F   UNL A   1      42.755  25.110  34.671  1.00  0.00    -0.206 F 
ATOM     95  C   UNL A   1      44.727  24.041  35.283  1.00  0.00     0.059 A 
ATOM     96  C   UNL A   1      46.851  24.766  34.397  1.00  0.00     0.059 A 
ATOM     97  F   UNL A   1      46.997  26.665  33.085  1.00  0.00    -0.206 F 
ATOM     98  C   UNL A   1      46.106  23.889  35.171  1.00  0.00     0.060 A 
BRANCH  98  99
ATOM     99  S   UNL A   1      46.921  22.511  35.994  1.00  0.00     0.124 S 
ATOM    100  O   UNL A   1      45.894  22.097  36.945  1.00  0.00    -0.237 OA
ATOM    101  O   UNL A   1      47.175  21.584  34.896  1.00  0.00    -0.237 OA
ATOM    102  O   UNL A   1      48.110  23.127  36.574  1.00  0.00    -0.744 OA
ENDBRANCH  98  99
ENDBRANCH  66  91
ENDBRANCH  40  41
ENDBRANCH  32  35
ENDBRANCH  30  31
ENDBRANCH  29  30
ENDBRANCH   1  29
TORSDOF 19
ENDMDL
