MODEL 1
REMARK VINA RESULT:     -10.1      0.000      0.000
REMARK SMILES O=C(NCCCCNC(=O)[C@]1([NH2+]C2CC2)CC[C@@H](SCCCO)C1)c1ccc(-c2c3nc(c(-c4c(F)cc(S(=O)(=O)[O-])cc4F)c4ccc([nH]4)c(-c4c(F)cc(S(=O)(=O)[O-])cc4F)c4nc(c(-c5c(F)cc(S(=O)(=O)[O-])cc5F)c5ccc2[nH]5)C=C4)C=C3)cc1
REMARK SMILES IDX 6 1 5 2 4 3 3 4 1 5 2 6 25 8 26 9 90 10 27 11 89 12 28 13
REMARK SMILES IDX 29 14 30 15 83 16 31 17 88 18 82 19 84 20 32 21 87 22 81 23
REMARK SMILES IDX 80 24 33 26 67 27 46 28 66 29 47 30 50 31 65 32 85 33 48 34
REMARK SMILES IDX 49 35 64 37 86 38 51 39 34 40 35 41 44 42 36 43 37 44 43 45
REMARK SMILES IDX 45 46 38 47 39 48 40 49 41 50 42 51 68 52 69 53 78 54 70 55
REMARK SMILES IDX 71 56 77 57 79 58 72 59 73 60 74 61 75 62 76 63 52 64 53 65
REMARK SMILES IDX 62 66 54 67 55 68 61 69 63 70 56 71 57 72 58 73 59 74 60 75
REMARK SMILES IDX 7 76 8 77 9 78 10 80 11 81 16 82 24 83 17 84 18 85 12 86
REMARK SMILES IDX 13 89 14 90 15 91 19 92 20 93 21 94 22 95 23 96
REMARK H PARENT 3 7 84 25 50 36 8 79 12 87 12 88 23 97
REMARK Flexibility Score: inf
ROOT
ATOM      1  C   UNL A   1      31.669  30.643  26.569  1.00  0.00     0.023 C 
ENDROOT
BRANCH   1   2
ATOM      2  C   UNL A   1      31.614  32.169  26.643  1.00  0.00     0.023 C 
BRANCH   2   3
ATOM      3  C   UNL A   1      32.856  32.808  27.248  1.00  0.00     0.116 C 
BRANCH   3   4
ATOM      4  N   UNL A   1      32.645  34.161  27.746  1.00  0.00    -0.352 N 
ATOM      5  O   UNL A   1      33.087  35.917  29.114  1.00  0.00    -0.269 OA
ATOM      6  C   UNL A   1      33.385  34.805  28.715  1.00  0.00     0.251 C 
ATOM      7  H   UNL A   1      31.898  34.666  27.351  1.00  0.00     0.163 HD
BRANCH   6   8
ATOM      8  C   UNL A   1      34.530  34.067  29.282  1.00  0.00     0.039 A 
ATOM      9  C   UNL A   1      34.298  33.092  30.254  1.00  0.00     0.014 A 
ATOM     10  C   UNL A   1      35.826  34.463  28.951  1.00  0.00     0.014 A 
ATOM     11  C   UNL A   1      35.364  32.614  31.001  1.00  0.00     0.010 A 
ATOM     12  C   UNL A   1      36.904  33.915  29.647  1.00  0.00     0.010 A 
ATOM     13  C   UNL A   1      36.678  33.013  30.699  1.00  0.00    -0.014 A 
BRANCH  13  14
ATOM     14  C   UNL A   1      37.804  32.416  31.456  1.00  0.00     0.031 A 
ATOM     15  C   UNL A   1      38.195  32.929  32.813  1.00  0.00     0.074 A 
ATOM     16  C   UNL A   1      38.454  31.375  30.901  1.00  0.00     0.049 A 
ATOM     17  N   UNL A   1      39.165  32.526  33.593  1.00  0.00    -0.248 NA
ATOM     18  C   UNL A   1      37.406  34.042  33.365  1.00  0.00     0.031 C 
ATOM     19  C   UNL A   1      38.155  30.804  29.584  1.00  0.00     0.029 A 
ATOM     20  N   UNL A   1      39.480  30.602  31.373  1.00  0.00    -0.354 N 
ATOM     21  C   UNL A   1      39.124  33.348  34.713  1.00  0.00     0.074 A 
ATOM     22  C   UNL A   1      38.037  34.283  34.508  1.00  0.00     0.031 C 
ATOM     23  C   UNL A   1      38.946  29.744  29.375  1.00  0.00     0.029 A 
ATOM     24  C   UNL A   1      39.855  29.605  30.504  1.00  0.00     0.049 A 
ATOM     25  H   UNL A   1      39.908  30.746  32.247  1.00  0.00     0.167 HD
ATOM     26  C   UNL A   1      39.922  33.320  35.809  1.00  0.00     0.037 A 
ATOM     27  C   UNL A   1      40.839  28.692  30.594  1.00  0.00     0.037 A 
ATOM     28  C   UNL A   1      40.987  32.368  36.004  1.00  0.00     0.049 A 
ATOM     29  C   UNL A   1      41.710  28.688  31.814  1.00  0.00     0.074 A 
ATOM     30  C   UNL A   1      41.835  32.234  37.091  1.00  0.00     0.029 A 
ATOM     31  N   UNL A   1      41.352  31.386  35.092  1.00  0.00    -0.354 N 
ATOM     32  N   UNL A   1      41.651  29.468  32.867  1.00  0.00    -0.248 NA
ATOM     33  C   UNL A   1      42.785  27.691  31.856  1.00  0.00     0.031 C 
ATOM     34  C   UNL A   1      42.735  31.196  36.820  1.00  0.00     0.029 A 
ATOM     35  C   UNL A   1      42.422  30.655  35.584  1.00  0.00     0.049 A 
ATOM     36  H   UNL A   1      40.914  31.232  34.224  1.00  0.00     0.167 HD
ATOM     37  C   UNL A   1      42.680  29.054  33.701  1.00  0.00     0.074 A 
ATOM     38  C   UNL A   1      43.330  27.939  33.039  1.00  0.00     0.031 C 
ATOM     39  C   UNL A   1      43.057  29.554  34.903  1.00  0.00     0.037 A 
BRANCH  26  40
ATOM     40  C   UNL A   1      39.693  34.359  36.873  1.00  0.00     0.058 A 
ATOM     41  C   UNL A   1      38.915  34.095  38.011  1.00  0.00     0.135 A 
ATOM     42  C   UNL A   1      40.305  35.620  36.778  1.00  0.00     0.135 A 
ATOM     43  F   UNL A   1      38.296  32.912  38.146  1.00  0.00    -0.206 F 
ATOM     44  C   UNL A   1      38.733  35.051  39.006  1.00  0.00     0.059 A 
ATOM     45  C   UNL A   1      40.155  36.583  37.772  1.00  0.00     0.059 A 
ATOM     46  F   UNL A   1      41.061  35.925  35.712  1.00  0.00    -0.206 F 
ATOM     47  C   UNL A   1      39.355  36.295  38.876  1.00  0.00     0.060 A 
BRANCH  47  48
ATOM     48  S   UNL A   1      39.113  37.525  40.175  1.00  0.00     0.124 S 
ATOM     49  O   UNL A   1      40.467  38.046  40.337  1.00  0.00    -0.237 OA
ATOM     50  O   UNL A   1      38.152  38.440  39.566  1.00  0.00    -0.237 OA
ATOM     51  O   UNL A   1      38.604  36.742  41.296  1.00  0.00    -0.744 OA
ENDBRANCH  47  48
ENDBRANCH  26  40
BRANCH  27  52
ATOM     52  C   UNL A   1      41.044  27.730  29.484  1.00  0.00     0.058 A 
ATOM     53  C   UNL A   1      42.141  27.847  28.619  1.00  0.00     0.135 A 
ATOM     54  C   UNL A   1      40.178  26.640  29.302  1.00  0.00     0.135 A 
ATOM     55  F   UNL A   1      42.995  28.873  28.756  1.00  0.00    -0.206 F 
ATOM     56  C   UNL A   1      42.373  26.919  27.612  1.00  0.00     0.059 A 
ATOM     57  C   UNL A   1      40.404  25.685  28.319  1.00  0.00     0.059 A 
ATOM     58  F   UNL A   1      39.127  26.473  30.119  1.00  0.00    -0.206 F 
ATOM     59  C   UNL A   1      41.501  25.837  27.472  1.00  0.00     0.060 A 
BRANCH  59  60
ATOM     60  S   UNL A   1      41.848  24.596  26.208  1.00  0.00     0.124 S 
ATOM     61  O   UNL A   1      43.160  24.116  26.626  1.00  0.00    -0.237 OA
ATOM     62  O   UNL A   1      40.741  23.661  26.379  1.00  0.00    -0.237 OA
ATOM     63  O   UNL A   1      41.821  25.366  24.968  1.00  0.00    -0.744 OA
ENDBRANCH  59  60
ENDBRANCH  27  52
BRANCH  39  64
ATOM     64  C   UNL A   1      44.218  28.885  35.579  1.00  0.00     0.058 A 
ATOM     65  C   UNL A   1      44.032  27.808  36.459  1.00  0.00     0.135 A 
ATOM     66  C   UNL A   1      45.531  29.310  35.325  1.00  0.00     0.135 A 
ATOM     67  F   UNL A   1      42.794  27.372  36.741  1.00  0.00    -0.206 F 
ATOM     68  C   UNL A   1      45.108  27.190  37.085  1.00  0.00     0.059 A 
ATOM     69  C   UNL A   1      46.624  28.693  35.922  1.00  0.00     0.059 A 
ATOM     70  F   UNL A   1      45.760  30.333  34.485  1.00  0.00    -0.206 F 
ATOM     71  C   UNL A   1      46.401  27.641  36.810  1.00  0.00     0.060 A 
BRANCH  71  72
ATOM     72  S   UNL A   1      47.794  26.818  37.611  1.00  0.00     0.124 S 
ATOM     73  O   UNL A   1      47.273  26.605  38.958  1.00  0.00    -0.237 OA
ATOM     74  O   UNL A   1      47.961  25.618  36.797  1.00  0.00    -0.237 OA
ATOM     75  O   UNL A   1      48.872  27.797  37.503  1.00  0.00    -0.744 OA
ENDBRANCH  71  72
ENDBRANCH  39  64
ENDBRANCH  13  14
ENDBRANCH   6   8
ENDBRANCH   3   4
ENDBRANCH   2   3
ENDBRANCH   1   2
BRANCH   1  76
ATOM     76  C   UNL A   1      33.050  30.090  26.205  1.00  0.00     0.116 C 
BRANCH  76  77
ATOM     77  N   UNL A   1      33.110  29.785  24.794  1.00  0.00    -0.351 N 
ATOM     78  C   UNL A   1      33.137  28.600  24.130  1.00  0.00     0.281 C 
ATOM     79  H   UNL A   1      33.136  30.576  24.209  1.00  0.00     0.163 HD
ATOM     80  O   UNL A   1      33.650  28.646  23.002  1.00  0.00    -0.268 OA
BRANCH  78  81
ATOM     81  C   UNL A   1      32.623  27.229  24.714  1.00  0.00     0.176 C 
ATOM     82  C   UNL A   1      33.323  26.747  25.998  1.00  0.00     0.080 C 
ATOM     83  C   UNL A   1      32.792  26.088  23.686  1.00  0.00     0.093 C 
ATOM     84  C   UNL A   1      34.066  25.444  25.684  1.00  0.00     0.022 C 
ATOM     85  C   UNL A   1      33.929  25.209  24.187  1.00  0.00     0.053 C 
BRANCH  81  86
ATOM     86  N   UNL A   1      31.136  27.362  24.886  1.00  0.00    -0.331 N 
ATOM     87  H   UNL A   1      30.936  28.350  25.047  1.00  0.00     0.347 HD
ATOM     88  H   UNL A   1      30.911  26.735  25.659  1.00  0.00     0.347 HD
BRANCH  86  89
ATOM     89  C   UNL A   1      30.272  26.913  23.783  1.00  0.00     0.183 C 
ATOM     90  C   UNL A   1      28.786  26.719  23.885  1.00  0.00     0.071 C 
ATOM     91  C   UNL A   1      29.327  27.928  23.184  1.00  0.00     0.071 C 
ENDBRANCH  86  89
ENDBRANCH  81  86
BRANCH  85  92
ATOM     92  S   UNL A   1      33.967  23.447  23.700  1.00  0.00    -0.158 SA
BRANCH  92  93
ATOM     93  C   UNL A   1      32.296  22.805  24.074  1.00  0.00     0.072 C 
BRANCH  93  94
ATOM     94  C   UNL A   1      32.064  22.390  25.527  1.00  0.00     0.039 C 
BRANCH  94  95
ATOM     95  C   UNL A   1      30.791  22.943  26.152  1.00  0.00     0.157 C 
BRANCH  95  96
ATOM     96  O   UNL A   1      31.098  23.767  27.267  1.00  0.00    -0.396 OA
ATOM     97  H   UNL A   1      31.218  23.214  28.055  1.00  0.00     0.210 HD
ENDBRANCH  95  96
ENDBRANCH  94  95
ENDBRANCH  93  94
ENDBRANCH  92  93
ENDBRANCH  85  92
ENDBRANCH  78  81
ENDBRANCH  76  77
ENDBRANCH   1  76
TORSDOF 21
ENDMDL
MODEL 2
REMARK VINA RESULT:     -10.0      3.063      4.570
REMARK SMILES O=C(NCCCCNC(=O)[C@]1([NH2+]C2CC2)CC[C@@H](SCCCO)C1)c1ccc(-c2c3nc(c(-c4c(F)cc(S(=O)(=O)[O-])cc4F)c4ccc([nH]4)c(-c4c(F)cc(S(=O)(=O)[O-])cc4F)c4nc(c(-c5c(F)cc(S(=O)(=O)[O-])cc5F)c5ccc2[nH]5)C=C4)C=C3)cc1
REMARK SMILES IDX 6 1 5 2 4 3 3 4 1 5 2 6 25 8 26 9 90 10 27 11 89 12 28 13
REMARK SMILES IDX 29 14 30 15 83 16 31 17 88 18 82 19 84 20 32 21 87 22 81 23
REMARK SMILES IDX 80 24 33 26 67 27 46 28 66 29 47 30 50 31 65 32 85 33 48 34
REMARK SMILES IDX 49 35 64 37 86 38 51 39 34 40 35 41 44 42 36 43 37 44 43 45
REMARK SMILES IDX 45 46 38 47 39 48 40 49 41 50 42 51 68 52 69 53 78 54 70 55
REMARK SMILES IDX 71 56 77 57 79 58 72 59 73 60 74 61 75 62 76 63 52 64 53 65
REMARK SMILES IDX 62 66 54 67 55 68 61 69 63 70 56 71 57 72 58 73 59 74 60 75
REMARK SMILES IDX 7 76 8 77 9 78 10 80 11 81 16 82 24 83 17 84 18 85 12 86
REMARK SMILES IDX 13 89 14 90 15 91 19 92 20 93 21 94 22 95 23 96
REMARK H PARENT 3 7 84 25 50 36 8 79 12 87 12 88 23 97
REMARK Flexibility Score: inf
ROOT
ATOM      1  C   UNL A   1      31.890  26.915  26.250  1.00  0.00     0.023 C 
ENDROOT
BRANCH   1   2
ATOM      2  C   UNL A   1      33.057  27.423  25.404  1.00  0.00     0.023 C 
BRANCH   2   3
ATOM      3  C   UNL A   1      34.112  28.186  26.192  1.00  0.00     0.116 C 
BRANCH   3   4
ATOM      4  N   UNL A   1      33.742  29.559  26.507  1.00  0.00    -0.352 N 
ATOM      5  O   UNL A   1      34.005  31.542  27.580  1.00  0.00    -0.269 OA
ATOM      6  C   UNL A   1      34.433  30.431  27.322  1.00  0.00     0.251 C 
ATOM      7  H   UNL A   1      32.914  29.899  26.098  1.00  0.00     0.163 HD
BRANCH   6   8
ATOM      8  C   UNL A   1      35.695  29.940  27.907  1.00  0.00     0.039 A 
ATOM      9  C   UNL A   1      35.687  29.406  29.197  1.00  0.00     0.014 A 
ATOM     10  C   UNL A   1      36.892  30.159  27.223  1.00  0.00     0.014 A 
ATOM     11  C   UNL A   1      36.890  29.225  29.861  1.00  0.00     0.010 A 
ATOM     12  C   UNL A   1      38.102  29.894  27.866  1.00  0.00     0.010 A 
ATOM     13  C   UNL A   1      38.109  29.457  29.201  1.00  0.00    -0.014 A 
BRANCH  13  14
ATOM     14  C   UNL A   1      39.379  29.169  29.909  1.00  0.00     0.031 A 
ATOM     15  C   UNL A   1      39.766  29.909  31.157  1.00  0.00     0.074 A 
ATOM     16  C   UNL A   1      40.170  28.198  29.413  1.00  0.00     0.049 A 
ATOM     17  N   UNL A   1      40.848  29.786  31.882  1.00  0.00    -0.248 NA
ATOM     18  C   UNL A   1      38.825  30.925  31.657  1.00  0.00     0.031 C 
ATOM     19  C   UNL A   1      39.888  27.422  28.201  1.00  0.00     0.029 A 
ATOM     20  N   UNL A   1      41.354  27.684  29.867  1.00  0.00    -0.354 N 
ATOM     21  C   UNL A   1      40.736  30.722  32.904  1.00  0.00     0.074 A 
ATOM     22  C   UNL A   1      39.482  31.416  32.700  1.00  0.00     0.031 C 
ATOM     23  C   UNL A   1      40.846  26.501  28.035  1.00  0.00     0.029 A 
ATOM     24  C   UNL A   1      41.844  26.668  29.082  1.00  0.00     0.049 A 
ATOM     25  H   UNL A   1      41.811  28.011  30.676  1.00  0.00     0.167 HD
ATOM     26  C   UNL A   1      41.603  30.972  33.915  1.00  0.00     0.037 A 
ATOM     27  C   UNL A   1      42.985  25.963  29.178  1.00  0.00     0.037 A 
ATOM     28  C   UNL A   1      42.839  30.256  34.112  1.00  0.00     0.049 A 
ATOM     29  C   UNL A   1      43.929  26.266  30.303  1.00  0.00     0.074 A 
ATOM     30  C   UNL A   1      43.774  30.412  35.122  1.00  0.00     0.029 A 
ATOM     31  N   UNL A   1      43.314  29.248  33.284  1.00  0.00    -0.354 N 
ATOM     32  N   UNL A   1      43.802  27.149  31.264  1.00  0.00    -0.248 NA
ATOM     33  C   UNL A   1      45.171  25.487  30.352  1.00  0.00     0.031 C 
ATOM     34  C   UNL A   1      44.830  29.524  34.883  1.00  0.00     0.029 A 
ATOM     35  C   UNL A   1      44.534  28.786  33.749  1.00  0.00     0.049 A 
ATOM     36  H   UNL A   1      42.850  28.911  32.483  1.00  0.00     0.167 HD
ATOM     37  C   UNL A   1      44.949  27.031  32.038  1.00  0.00     0.074 A 
ATOM     38  C   UNL A   1      45.745  25.974  31.444  1.00  0.00     0.031 C 
ATOM     39  C   UNL A   1      45.312  27.737  33.136  1.00  0.00     0.037 A 
BRANCH  26  40
ATOM     40  C   UNL A   1      41.263  32.080  34.875  1.00  0.00     0.058 A 
ATOM     41  C   UNL A   1      40.449  31.863  35.998  1.00  0.00     0.135 A 
ATOM     42  C   UNL A   1      41.802  33.365  34.697  1.00  0.00     0.135 A 
ATOM     43  F   UNL A   1      39.896  30.658  36.209  1.00  0.00    -0.206 F 
ATOM     44  C   UNL A   1      40.164  32.885  36.898  1.00  0.00     0.059 A 
ATOM     45  C   UNL A   1      41.548  34.397  35.597  1.00  0.00     0.059 A 
ATOM     46  F   UNL A   1      42.588  33.627  33.642  1.00  0.00    -0.206 F 
ATOM     47  C   UNL A   1      40.715  34.150  36.688  1.00  0.00     0.060 A 
BRANCH  47  48
ATOM     48  S   UNL A   1      40.339  35.467  37.865  1.00  0.00     0.124 S 
ATOM     49  O   UNL A   1      39.193  34.903  38.574  1.00  0.00    -0.237 OA
ATOM     50  O   UNL A   1      41.574  35.561  38.637  1.00  0.00    -0.237 OA
ATOM     51  O   UNL A   1      40.046  36.614  37.012  1.00  0.00    -0.744 OA
ENDBRANCH  47  48
ENDBRANCH  26  40
BRANCH  27  52
ATOM     52  C   UNL A   1      43.285  24.920  28.166  1.00  0.00     0.058 A 
ATOM     53  C   UNL A   1      43.981  25.233  26.991  1.00  0.00     0.135 A 
ATOM     54  C   UNL A   1      42.932  23.578  28.383  1.00  0.00     0.135 A 
ATOM     55  F   UNL A   1      44.339  26.502  26.742  1.00  0.00    -0.206 F 
ATOM     56  C   UNL A   1      44.316  24.254  26.063  1.00  0.00     0.059 A 
ATOM     57  C   UNL A   1      43.278  22.578  27.483  1.00  0.00     0.059 A 
ATOM     58  F   UNL A   1      42.285  23.226  29.505  1.00  0.00    -0.206 F 
ATOM     59  C   UNL A   1      43.965  22.927  26.321  1.00  0.00     0.060 A 
BRANCH  59  60
ATOM     60  S   UNL A   1      44.466  21.650  25.148  1.00  0.00     0.124 S 
ATOM     61  O   UNL A   1      45.883  21.507  25.461  1.00  0.00    -0.237 OA
ATOM     62  O   UNL A   1      43.611  20.529  25.526  1.00  0.00    -0.237 OA
ATOM     63  O   UNL A   1      44.161  22.249  23.852  1.00  0.00    -0.744 OA
ENDBRANCH  59  60
ENDBRANCH  27  52
BRANCH  39  64
ATOM     64  C   UNL A   1      46.624  27.374  33.769  1.00  0.00     0.058 A 
ATOM     65  C   UNL A   1      47.819  28.005  33.390  1.00  0.00     0.135 A 
ATOM     66  C   UNL A   1      46.682  26.403  34.780  1.00  0.00     0.135 A 
ATOM     67  F   UNL A   1      47.815  28.934  32.421  1.00  0.00    -0.206 F 
ATOM     68  C   UNL A   1      49.033  27.667  33.976  1.00  0.00     0.059 A 
ATOM     69  C   UNL A   1      47.882  26.065  35.395  1.00  0.00     0.059 A 
ATOM     70  F   UNL A   1      45.564  25.775  35.180  1.00  0.00    -0.206 F 
ATOM     71  C   UNL A   1      49.054  26.694  34.977  1.00  0.00     0.060 A 
BRANCH  71  72
ATOM     72  S   UNL A   1      50.633  26.277  35.746  1.00  0.00     0.124 S 
ATOM     73  O   UNL A   1      50.324  26.452  37.162  1.00  0.00    -0.237 OA
ATOM     74  O   UNL A   1      50.843  24.901  35.307  1.00  0.00    -0.237 OA
ATOM     75  O   UNL A   1      51.555  27.257  35.179  1.00  0.00    -0.744 OA
ENDBRANCH  71  72
ENDBRANCH  39  64
ENDBRANCH  13  14
ENDBRANCH   6   8
ENDBRANCH   3   4
ENDBRANCH   2   3
ENDBRANCH   1   2
BRANCH   1  76
ATOM     76  C   UNL A   1      31.373  25.536  25.828  1.00  0.00     0.116 C 
BRANCH  76  77
ATOM     77  N   UNL A   1      31.607  24.573  26.880  1.00  0.00    -0.351 N 
ATOM     78  C   UNL A   1      32.155  23.330  26.856  1.00  0.00     0.281 C 
ATOM     79  H   UNL A   1      31.317  24.869  27.773  1.00  0.00     0.163 HD
ATOM     80  O   UNL A   1      31.801  22.586  27.783  1.00  0.00    -0.268 OA
BRANCH  78  81
ATOM     81  C   UNL A   1      33.127  22.797  25.735  1.00  0.00     0.176 C 
ATOM     82  C   UNL A   1      32.560  22.800  24.303  1.00  0.00     0.080 C 
ATOM     83  C   UNL A   1      33.555  21.339  26.018  1.00  0.00     0.093 C 
ATOM     84  C   UNL A   1      32.461  21.350  23.819  1.00  0.00     0.022 C 
ATOM     85  C   UNL A   1      32.839  20.465  24.998  1.00  0.00     0.053 C 
BRANCH  81  86
ATOM     86  N   UNL A   1      34.398  23.590  25.852  1.00  0.00    -0.331 N 
ATOM     87  H   UNL A   1      34.444  23.952  26.804  1.00  0.00     0.347 HD
ATOM     88  H   UNL A   1      34.329  24.293  25.116  1.00  0.00     0.347 HD
BRANCH  86  89
ATOM     89  C   UNL A   1      35.669  22.898  25.584  1.00  0.00     0.183 C 
ATOM     90  C   UNL A   1      36.501  23.086  24.347  1.00  0.00     0.071 C 
ATOM     91  C   UNL A   1      36.932  23.723  25.633  1.00  0.00     0.071 C 
ENDBRANCH  86  89
ENDBRANCH  81  86
BRANCH  85  92
ATOM     92  S   UNL A   1      33.585  18.865  24.523  1.00  0.00    -0.158 SA
BRANCH  92  93
ATOM     93  C   UNL A   1      32.529  17.589  25.297  1.00  0.00     0.072 C 
BRANCH  93  94
ATOM     94  C   UNL A   1      33.254  16.315  25.731  1.00  0.00     0.039 C 
BRANCH  94  95
ATOM     95  C   UNL A   1      32.387  15.063  25.751  1.00  0.00     0.157 C 
BRANCH  95  96
ATOM     96  O   UNL A   1      33.176  13.904  25.525  1.00  0.00    -0.396 OA
ATOM     97  H   UNL A   1      32.599  13.165  25.277  1.00  0.00     0.210 HD
ENDBRANCH  95  96
ENDBRANCH  94  95
ENDBRANCH  93  94
ENDBRANCH  92  93
ENDBRANCH  85  92
ENDBRANCH  78  81
ENDBRANCH  76  77
ENDBRANCH   1  76
TORSDOF 21
ENDMDL
MODEL 3
REMARK VINA RESULT:      -9.9      4.269      5.899
REMARK SMILES O=C(NCCCCNC(=O)[C@]1([NH2+]C2CC2)CC[C@@H](SCCCO)C1)c1ccc(-c2c3nc(c(-c4c(F)cc(S(=O)(=O)[O-])cc4F)c4ccc([nH]4)c(-c4c(F)cc(S(=O)(=O)[O-])cc4F)c4nc(c(-c5c(F)cc(S(=O)(=O)[O-])cc5F)c5ccc2[nH]5)C=C4)C=C3)cc1
REMARK SMILES IDX 6 1 5 2 4 3 3 4 1 5 2 6 25 8 26 9 90 10 27 11 89 12 28 13
REMARK SMILES IDX 29 14 30 15 83 16 31 17 88 18 82 19 84 20 32 21 87 22 81 23
REMARK SMILES IDX 80 24 33 26 67 27 46 28 66 29 47 30 50 31 65 32 85 33 48 34
REMARK SMILES IDX 49 35 64 37 86 38 51 39 34 40 35 41 44 42 36 43 37 44 43 45
REMARK SMILES IDX 45 46 38 47 39 48 40 49 41 50 42 51 68 52 69 53 78 54 70 55
REMARK SMILES IDX 71 56 77 57 79 58 72 59 73 60 74 61 75 62 76 63 52 64 53 65
REMARK SMILES IDX 62 66 54 67 55 68 61 69 63 70 56 71 57 72 58 73 59 74 60 75
REMARK SMILES IDX 7 76 8 77 9 78 10 80 11 81 16 82 24 83 17 84 18 85 12 86
REMARK SMILES IDX 13 89 14 90 15 91 19 92 20 93 21 94 22 95 23 96
REMARK H PARENT 3 7 84 25 50 36 8 79 12 87 12 88 23 97
REMARK Flexibility Score: inf
ROOT
ATOM      1  C   UNL A   1      31.645  27.572  26.669  1.00  0.00     0.023 C 
ENDROOT
BRANCH   1   2
ATOM      2  C   UNL A   1      33.138  27.301  26.850  1.00  0.00     0.023 C 
BRANCH   2   3
ATOM      3  C   UNL A   1      34.036  28.456  26.432  1.00  0.00     0.116 C 
BRANCH   3   4
ATOM      4  N   UNL A   1      33.711  29.723  27.072  1.00  0.00    -0.352 N 
ATOM      5  O   UNL A   1      34.144  31.481  28.442  1.00  0.00    -0.269 OA
ATOM      6  C   UNL A   1      34.533  30.463  27.897  1.00  0.00     0.251 C 
ATOM      7  H   UNL A   1      32.814  30.089  26.899  1.00  0.00     0.163 HD
BRANCH   6   8
ATOM      8  C   UNL A   1      35.892  29.939  28.128  1.00  0.00     0.039 A 
ATOM      9  C   UNL A   1      36.229  29.450  29.392  1.00  0.00     0.014 A 
ATOM     10  C   UNL A   1      36.856  30.085  27.129  1.00  0.00     0.014 A 
ATOM     11  C   UNL A   1      37.564  29.241  29.702  1.00  0.00     0.010 A 
ATOM     12  C   UNL A   1      38.189  29.791  27.421  1.00  0.00     0.010 A 
ATOM     13  C   UNL A   1      38.556  29.400  28.719  1.00  0.00    -0.014 A 
BRANCH  13  14
ATOM     14  C   UNL A   1      39.964  29.082  29.057  1.00  0.00     0.031 A 
ATOM     15  C   UNL A   1      40.834  30.063  29.789  1.00  0.00     0.074 A 
ATOM     16  C   UNL A   1      40.436  27.869  28.712  1.00  0.00     0.049 A 
ATOM     17  N   UNL A   1      42.088  29.943  30.143  1.00  0.00    -0.248 NA
ATOM     18  C   UNL A   1      40.227  31.350  30.168  1.00  0.00     0.031 C 
ATOM     19  C   UNL A   1      39.673  26.844  27.993  1.00  0.00     0.029 A 
ATOM     20  N   UNL A   1      41.654  27.283  28.929  1.00  0.00    -0.354 N 
ATOM     21  C   UNL A   1      42.431  31.141  30.758  1.00  0.00     0.074 A 
ATOM     22  C   UNL A   1      41.254  31.983  30.721  1.00  0.00     0.031 C 
ATOM     23  C   UNL A   1      40.422  25.741  27.871  1.00  0.00     0.029 A 
ATOM     24  C   UNL A   1      41.739  26.004  28.435  1.00  0.00     0.049 A 
ATOM     25  H   UNL A   1      42.395  27.734  29.393  1.00  0.00     0.167 HD
ATOM     26  C   UNL A   1      43.620  31.498  31.302  1.00  0.00     0.037 A 
ATOM     27  C   UNL A   1      42.772  25.142  28.415  1.00  0.00     0.037 A 
ATOM     28  C   UNL A   1      44.776  30.637  31.346  1.00  0.00     0.049 A 
ATOM     29  C   UNL A   1      44.077  25.566  29.018  1.00  0.00     0.074 A 
ATOM     30  C   UNL A   1      46.020  30.891  31.900  1.00  0.00     0.029 A 
ATOM     31  N   UNL A   1      44.833  29.355  30.815  1.00  0.00    -0.354 N 
ATOM     32  N   UNL A   1      44.381  26.700  29.603  1.00  0.00    -0.248 NA
ATOM     33  C   UNL A   1      45.181  24.602  28.951  1.00  0.00     0.031 C 
ATOM     34  C   UNL A   1      46.838  29.778  31.673  1.00  0.00     0.029 A 
ATOM     35  C   UNL A   1      46.093  28.813  31.014  1.00  0.00     0.049 A 
ATOM     36  H   UNL A   1      44.086  28.898  30.365  1.00  0.00     0.167 HD
ATOM     37  C   UNL A   1      45.712  26.586  29.978  1.00  0.00     0.074 A 
ATOM     38  C   UNL A   1      46.147  25.263  29.574  1.00  0.00     0.031 C 
ATOM     39  C   UNL A   1      46.504  27.496  30.596  1.00  0.00     0.037 A 
BRANCH  26  40
ATOM     40  C   UNL A   1      43.745  32.884  31.873  1.00  0.00     0.058 A 
ATOM     41  C   UNL A   1      43.420  33.166  33.209  1.00  0.00     0.135 A 
ATOM     42  C   UNL A   1      44.245  33.935  31.087  1.00  0.00     0.135 A 
ATOM     43  F   UNL A   1      42.925  32.203  34.002  1.00  0.00    -0.206 F 
ATOM     44  C   UNL A   1      43.567  34.445  33.739  1.00  0.00     0.059 A 
ATOM     45  C   UNL A   1      44.421  35.216  31.602  1.00  0.00     0.059 A 
ATOM     46  F   UNL A   1      44.573  33.720  29.803  1.00  0.00    -0.206 F 
ATOM     47  C   UNL A   1      44.066  35.465  32.927  1.00  0.00     0.060 A 
BRANCH  47  48
ATOM     48  S   UNL A   1      44.253  37.119  33.628  1.00  0.00     0.124 S 
ATOM     49  O   UNL A   1      43.726  36.924  34.976  1.00  0.00    -0.237 OA
ATOM     50  O   UNL A   1      45.694  37.336  33.539  1.00  0.00    -0.237 OA
ATOM     51  O   UNL A   1      43.441  37.955  32.751  1.00  0.00    -0.744 OA
ENDBRANCH  47  48
ENDBRANCH  26  40
BRANCH  27  52
ATOM     52  C   UNL A   1      42.597  23.809  27.787  1.00  0.00     0.058 A 
ATOM     53  C   UNL A   1      42.691  23.647  26.399  1.00  0.00     0.135 A 
ATOM     54  C   UNL A   1      42.390  22.662  28.571  1.00  0.00     0.135 A 
ATOM     55  F   UNL A   1      42.888  24.715  25.611  1.00  0.00    -0.206 F 
ATOM     56  C   UNL A   1      42.585  22.394  25.806  1.00  0.00     0.059 A 
ATOM     57  C   UNL A   1      42.308  21.397  28.004  1.00  0.00     0.059 A 
ATOM     58  F   UNL A   1      42.317  22.765  29.907  1.00  0.00    -0.206 F 
ATOM     59  C   UNL A   1      42.398  21.273  26.618  1.00  0.00     0.060 A 
BRANCH  59  60
ATOM     60  S   UNL A   1      42.334  19.642  25.848  1.00  0.00     0.124 S 
ATOM     61  O   UNL A   1      40.944  19.582  25.411  1.00  0.00    -0.237 OA
ATOM     62  O   UNL A   1      43.332  19.758  24.790  1.00  0.00    -0.237 OA
ATOM     63  O   UNL A   1      42.693  18.743  26.941  1.00  0.00    -0.744 OA
ENDBRANCH  59  60
ENDBRANCH  27  52
BRANCH  39  64
ATOM     64  C   UNL A   1      47.918  27.078  30.880  1.00  0.00     0.058 A 
ATOM     65  C   UNL A   1      48.974  27.446  30.034  1.00  0.00     0.135 A 
ATOM     66  C   UNL A   1      48.220  26.322  32.023  1.00  0.00     0.135 A 
ATOM     67  F   UNL A   1      48.734  28.161  28.923  1.00  0.00    -0.206 F 
ATOM     68  C   UNL A   1      50.283  27.057  30.298  1.00  0.00     0.059 A 
ATOM     69  C   UNL A   1      49.524  25.941  32.319  1.00  0.00     0.059 A 
ATOM     70  F   UNL A   1      47.243  25.951  32.867  1.00  0.00    -0.206 F 
ATOM     71  C   UNL A   1      50.547  26.303  31.443  1.00  0.00     0.060 A 
BRANCH  71  72
ATOM     72  S   UNL A   1      52.252  25.821  31.788  1.00  0.00     0.124 S 
ATOM     73  O   UNL A   1      52.851  25.892  30.460  1.00  0.00    -0.237 OA
ATOM     74  O   UNL A   1      52.682  26.844  32.736  1.00  0.00    -0.237 OA
ATOM     75  O   UNL A   1      52.116  24.477  32.345  1.00  0.00    -0.744 OA
ENDBRANCH  71  72
ENDBRANCH  39  64
ENDBRANCH  13  14
ENDBRANCH   6   8
ENDBRANCH   3   4
ENDBRANCH   2   3
ENDBRANCH   1   2
BRANCH   1  76
ATOM     76  C   UNL A   1      30.898  26.460  25.927  1.00  0.00     0.116 C 
BRANCH  76  77
ATOM     77  N   UNL A   1      30.641  25.351  26.818  1.00  0.00    -0.351 N 
ATOM     78  C   UNL A   1      30.852  24.016  26.678  1.00  0.00     0.281 C 
ATOM     79  H   UNL A   1      30.241  25.608  27.680  1.00  0.00     0.163 HD
ATOM     80  O   UNL A   1      30.125  23.297  27.378  1.00  0.00    -0.268 OA
BRANCH  78  81
ATOM     81  C   UNL A   1      31.888  23.369  25.681  1.00  0.00     0.176 C 
ATOM     82  C   UNL A   1      33.364  23.741  25.918  1.00  0.00     0.080 C 
ATOM     83  C   UNL A   1      31.580  23.770  24.221  1.00  0.00     0.093 C 
ATOM     84  C   UNL A   1      33.865  24.528  24.703  1.00  0.00     0.022 C 
ATOM     85  C   UNL A   1      32.664  24.749  23.795  1.00  0.00     0.053 C 
BRANCH  81  86
ATOM     86  N   UNL A   1      31.656  21.884  25.719  1.00  0.00    -0.331 N 
ATOM     87  H   UNL A   1      30.885  21.681  25.083  1.00  0.00     0.347 HD
ATOM     88  H   UNL A   1      31.482  21.678  26.703  1.00  0.00     0.347 HD
BRANCH  86  89
ATOM     89  C   UNL A   1      32.775  21.003  25.350  1.00  0.00     0.183 C 
ATOM     90  C   UNL A   1      32.713  19.502  25.337  1.00  0.00     0.071 C 
ATOM     91  C   UNL A   1      32.665  20.255  24.043  1.00  0.00     0.071 C 
ENDBRANCH  86  89
ENDBRANCH  81  86
BRANCH  85  92
ATOM     92  S   UNL A   1      33.084  24.890  22.022  1.00  0.00    -0.158 SA
BRANCH  92  93
ATOM     93  C   UNL A   1      33.349  26.676  21.727  1.00  0.00     0.072 C 
BRANCH  93  94
ATOM     94  C   UNL A   1      32.987  27.593  22.895  1.00  0.00     0.039 C 
BRANCH  94  95
ATOM     95  C   UNL A   1      31.635  28.280  22.772  1.00  0.00     0.157 C 
BRANCH  95  96
ATOM     96  O   UNL A   1      30.866  27.689  21.735  1.00  0.00    -0.396 OA
ATOM     97  H   UNL A   1      30.057  28.208  21.597  1.00  0.00     0.210 HD
ENDBRANCH  95  96
ENDBRANCH  94  95
ENDBRANCH  93  94
ENDBRANCH  92  93
ENDBRANCH  85  92
ENDBRANCH  78  81
ENDBRANCH  76  77
ENDBRANCH   1  76
TORSDOF 21
ENDMDL
