MODEL 1
REMARK VINA RESULT:     -13.4      0.000      0.000
REMARK SMILES Cc1c(Cl)cccc1NC(=O)C[C@H](C(=O)NCCCCNC(=O)c1ccc(-c2c3nc(c(-c4c(F)cc(S(=O)(=O)[O-])cc4F)c4ccc([nH]4)c(-c4c(F)cc(S(=O)(=O)[O-])cc4F)c4nc(c(-c5c(F)cc(S(=O)(=O)[O-])cc5F)c5ccc2[nH]5)C=C4)C=C3)cc1)[C@H](C)c1ccccc1
REMARK SMILES IDX 18 1 17 2 16 3 14 4 15 5 13 7 12 8 10 9 9 10 11 12 8 13 1 14
REMARK SMILES IDX 2 15 3 16 4 17 5 18 7 19 6 20 90 21 91 22 92 23 93 24 97 25
REMARK SMILES IDX 94 26 96 27 95 28 19 29 20 30 21 31 22 32 23 34 24 35 25 36
REMARK SMILES IDX 89 37 26 38 88 39 27 40 28 41 29 42 82 43 30 44 87 45 81 46
REMARK SMILES IDX 83 47 31 48 86 49 80 50 79 51 32 53 66 54 45 55 65 56 46 57
REMARK SMILES IDX 49 58 64 59 84 60 47 61 48 62 63 64 85 65 50 66 33 67 34 68
REMARK SMILES IDX 43 69 35 70 36 71 42 72 44 73 37 74 38 75 39 76 40 77 41 78
REMARK SMILES IDX 67 79 68 80 77 81 69 82 70 83 76 84 78 85 71 86 72 87 73 88
REMARK SMILES IDX 74 89 75 90 51 91 52 92 61 93 53 94 54 95 60 96 62 97 55 98
REMARK SMILES IDX 56 99 57 100 58 101 59 102
REMARK H PARENT 16 6 9 11 21 33 83 52 49 63
REMARK Flexibility Score: inf
ROOT
ATOM      1  C   UNL A   1      39.274  22.039  26.089  1.00  0.00     0.023 C 
ENDROOT
BRANCH   1   2
ATOM      2  C   UNL A   1      37.203  22.346  25.467  1.00  0.00     0.116 C 
BRANCH   2   3
ATOM      3  N   UNL A   1      35.934  21.351  25.423  1.00  0.00    -0.356 N 
ATOM      4  C   UNL A   1      34.607  21.538  25.202  1.00  0.00     0.224 C 
ATOM      5  O   UNL A   1      33.863  20.562  25.321  1.00  0.00    -0.275 OA
ATOM      6  H   UNL A   1      36.171  20.411  25.592  1.00  0.00     0.163 HD
BRANCH   4   7
ATOM      7  C   UNL A   1      34.046  22.914  24.864  1.00  0.00     0.095 C 
BRANCH   7   8
ATOM      8  C   UNL A   1      33.809  22.933  23.332  1.00  0.00     0.114 C 
BRANCH   8   9
ATOM      9  C   UNL A   1      32.440  22.844  22.696  1.00  0.00     0.225 C 
ATOM     10  N   UNL A   1      31.585  23.909  22.639  1.00  0.00    -0.326 N 
ATOM     11  H   UNL A   1      30.632  23.709  22.486  1.00  0.00     0.169 HD
ATOM     12  O   UNL A   1      32.065  21.784  22.183  1.00  0.00    -0.275 OA
BRANCH  10  13
ATOM     13  C   UNL A   1      31.937  25.251  22.776  1.00  0.00     0.045 A 
ATOM     14  C   UNL A   1      29.311  25.866  23.780  1.00  0.00     0.048 C 
ATOM     15  C   UNL A   1      30.598  26.385  23.205  1.00  0.00    -0.009 A 
ATOM     16  C   UNL A   1      30.839  28.159  23.055  1.00  0.00     0.046 A 
ATOM     17  Cl  UNL A   1      29.551  29.241  23.402  1.00  0.00    -0.084 Cl
ATOM     18  C   UNL A   1      32.431  28.819  22.530  1.00  0.00     0.021 A 
ATOM     19  C   UNL A   1      33.553  25.895  22.299  1.00  0.00     0.026 A 
ATOM     20  C   UNL A   1      33.805  27.694  22.172  1.00  0.00     0.004 A 
ENDBRANCH  10  13
ENDBRANCH   8   9
ENDBRANCH   7   8
BRANCH   7  21
ATOM     21  C   UNL A   1      33.042  23.347  25.980  1.00  0.00     0.029 C 
ATOM     22  C   UNL A   1      31.656  22.706  25.993  1.00  0.00     0.013 C 
BRANCH  21  23
ATOM     23  C   UNL A   1      32.968  24.858  26.239  1.00  0.00    -0.044 A 
ATOM     24  C   UNL A   1      31.740  25.426  26.626  1.00  0.00     0.004 A 
ATOM     25  C   UNL A   1      34.022  25.718  25.902  1.00  0.00     0.004 A 
ATOM     26  C   UNL A   1      31.546  26.808  26.570  1.00  0.00     0.000 A 
ATOM     27  C   UNL A   1      33.821  27.096  25.831  1.00  0.00     0.000 A 
ATOM     28  C   UNL A   1      32.578  27.638  26.142  1.00  0.00     0.000 A 
ENDBRANCH  21  23
ENDBRANCH   7  21
ENDBRANCH   4   7
ENDBRANCH   2   3
ENDBRANCH   1   2
BRANCH   1  29
ATOM     29  C   UNL A   1      40.259  22.475  27.430  1.00  0.00     0.023 C 
BRANCH  29  30
ATOM     30  C   UNL A   1      41.549  23.265  27.240  1.00  0.00     0.116 C 
BRANCH  30  31
ATOM     31  N   UNL A   1      41.527  24.164  26.092  1.00  0.00    -0.352 N 
ATOM     32  C   UNL A   1      41.509  25.534  26.115  1.00  0.00     0.251 C 
ATOM     33  H   UNL A   1      41.527  23.740  25.204  1.00  0.00     0.163 HD
ATOM     34  O   UNL A   1      41.528  26.206  25.094  1.00  0.00    -0.269 OA
BRANCH  32  35
ATOM     35  C   UNL A   1      41.365  26.154  27.434  1.00  0.00     0.039 A 
ATOM     36  C   UNL A   1      42.374  27.026  27.835  1.00  0.00     0.014 A 
ATOM     37  C   UNL A   1      40.157  26.047  28.127  1.00  0.00     0.014 A 
ATOM     38  C   UNL A   1      42.152  27.843  28.931  1.00  0.00     0.010 A 
ATOM     39  C   UNL A   1      39.908  26.926  29.172  1.00  0.00     0.010 A 
ATOM     40  C   UNL A   1      40.907  27.823  29.582  1.00  0.00    -0.014 A 
BRANCH  40  41
ATOM     41  C   UNL A   1      40.667  28.730  30.722  1.00  0.00     0.031 A 
ATOM     42  C   UNL A   1      41.519  28.599  31.948  1.00  0.00     0.074 A 
ATOM     43  C   UNL A   1      39.701  29.665  30.630  1.00  0.00     0.049 A 
ATOM     44  N   UNL A   1      41.497  29.311  33.041  1.00  0.00    -0.248 NA
ATOM     45  C   UNL A   1      42.515  27.512  31.957  1.00  0.00     0.031 C 
ATOM     46  C   UNL A   1      38.802  29.844  29.484  1.00  0.00     0.029 A 
ATOM     47  N   UNL A   1      39.320  30.650  31.503  1.00  0.00    -0.354 N 
ATOM     48  C   UNL A   1      42.469  28.759  33.865  1.00  0.00     0.074 A 
ATOM     49  C   UNL A   1      43.017  27.614  33.177  1.00  0.00     0.031 C 
ATOM     50  C   UNL A   1      38.006  30.901  29.710  1.00  0.00     0.029 A 
ATOM     51  C   UNL A   1      38.302  31.444  31.031  1.00  0.00     0.049 A 
ATOM     52  H   UNL A   1      39.737  30.776  32.387  1.00  0.00     0.167 HD
ATOM     53  C   UNL A   1      42.883  29.191  35.077  1.00  0.00     0.037 A 
ATOM     54  C   UNL A   1      37.680  32.491  31.608  1.00  0.00     0.037 A 
ATOM     55  C   UNL A   1      42.332  30.346  35.733  1.00  0.00     0.049 A 
ATOM     56  C   UNL A   1      38.142  32.930  32.972  1.00  0.00     0.074 A 
ATOM     57  C   UNL A   1      42.700  30.901  36.944  1.00  0.00     0.029 A 
ATOM     58  N   UNL A   1      41.291  31.117  35.235  1.00  0.00    -0.354 N 
ATOM     59  N   UNL A   1      39.108  32.438  33.713  1.00  0.00    -0.248 NA
ATOM     60  C   UNL A   1      37.440  34.068  33.578  1.00  0.00     0.031 C 
ATOM     61  C   UNL A   1      41.835  31.966  37.211  1.00  0.00     0.029 A 
ATOM     62  C   UNL A   1      40.981  32.125  36.132  1.00  0.00     0.049 A 
ATOM     63  H   UNL A   1      40.839  30.970  34.373  1.00  0.00     0.167 HD
ATOM     64  C   UNL A   1      39.150  33.227  34.857  1.00  0.00     0.074 A 
ATOM     65  C   UNL A   1      38.125  34.238  34.699  1.00  0.00     0.031 C 
ATOM     66  C   UNL A   1      39.961  33.127  35.940  1.00  0.00     0.037 A 
BRANCH  53  67
ATOM     67  C   UNL A   1      43.965  28.414  35.770  1.00  0.00     0.058 A 
ATOM     68  C   UNL A   1      43.675  27.343  36.633  1.00  0.00     0.135 A 
ATOM     69  C   UNL A   1      45.315  28.712  35.531  1.00  0.00     0.135 A 
ATOM     70  F   UNL A   1      42.401  27.030  36.920  1.00  0.00    -0.206 F 
ATOM     71  C   UNL A   1      44.685  26.606  37.242  1.00  0.00     0.059 A 
ATOM     72  C   UNL A   1      46.342  27.968  36.101  1.00  0.00     0.059 A 
ATOM     73  F   UNL A   1      45.649  29.735  34.726  1.00  0.00    -0.206 F 
ATOM     74  C   UNL A   1      46.016  26.920  36.960  1.00  0.00     0.060 A 
BRANCH  74  75
ATOM     75  S   UNL A   1      47.312  25.922  37.722  1.00  0.00     0.124 S 
ATOM     76  O   UNL A   1      46.731  24.584  37.656  1.00  0.00    -0.237 OA
ATOM     77  O   UNL A   1      48.447  26.165  36.837  1.00  0.00    -0.237 OA
ATOM     78  O   UNL A   1      47.433  26.486  39.062  1.00  0.00    -0.744 OA
ENDBRANCH  74  75
ENDBRANCH  53  67
BRANCH  54  79
ATOM     79  C   UNL A   1      36.566  33.189  30.908  1.00  0.00     0.058 A 
ATOM     80  C   UNL A   1      36.804  34.019  29.802  1.00  0.00     0.135 A 
ATOM     81  C   UNL A   1      35.238  33.056  31.346  1.00  0.00     0.135 A 
ATOM     82  F   UNL A   1      38.053  34.182  29.342  1.00  0.00    -0.206 F 
ATOM     83  C   UNL A   1      35.774  34.717  29.177  1.00  0.00     0.059 A 
ATOM     84  C   UNL A   1      34.187  33.716  30.716  1.00  0.00     0.059 A 
ATOM     85  F   UNL A   1      34.948  32.261  32.388  1.00  0.00    -0.206 F 
ATOM     86  C   UNL A   1      34.468  34.559  29.643  1.00  0.00     0.060 A 
BRANCH  86  87
ATOM     87  S   UNL A   1      33.138  35.457  28.816  1.00  0.00     0.124 S 
ATOM     88  O   UNL A   1      33.885  36.452  28.054  1.00  0.00    -0.237 OA
ATOM     89  O   UNL A   1      32.497  34.402  28.037  1.00  0.00    -0.237 OA
ATOM     90  O   UNL A   1      32.345  35.977  29.925  1.00  0.00    -0.744 OA
ENDBRANCH  86  87
ENDBRANCH  54  79
BRANCH  66  91
ATOM     91  C   UNL A   1      39.806  34.165  37.017  1.00  0.00     0.058 A 
ATOM     92  C   UNL A   1      38.899  34.007  38.076  1.00  0.00     0.135 A 
ATOM     93  C   UNL A   1      40.624  35.307  37.018  1.00  0.00     0.135 A 
ATOM     94  F   UNL A   1      38.090  32.937  38.120  1.00  0.00    -0.206 F 
ATOM     95  C   UNL A   1      38.788  34.959  39.083  1.00  0.00     0.059 A 
ATOM     96  C   UNL A   1      40.558  36.251  38.035  1.00  0.00     0.059 A 
ATOM     97  F   UNL A   1      41.518  35.500  36.035  1.00  0.00    -0.206 F 
ATOM     98  C   UNL A   1      39.628  36.075  39.057  1.00  0.00     0.060 A 
BRANCH  98  99
ATOM     99  S   UNL A   1      39.497  37.282  40.391  1.00  0.00     0.124 S 
ATOM    100  O   UNL A   1      40.882  37.718  40.529  1.00  0.00    -0.237 OA
ATOM    101  O   UNL A   1      38.575  38.264  39.831  1.00  0.00    -0.237 OA
ATOM    102  O   UNL A   1      38.971  36.501  41.506  1.00  0.00    -0.744 OA
ENDBRANCH  98  99
ENDBRANCH  66  91
ENDBRANCH  40  41
ENDBRANCH  32  35
ENDBRANCH  30  31
ENDBRANCH  29  30
ENDBRANCH   1  29
TORSDOF 19
ENDMDL
MODEL 2
REMARK VINA RESULT:     -13.4      0.914      2.161
REMARK SMILES Cc1c(Cl)cccc1NC(=O)C[C@H](C(=O)NCCCCNC(=O)c1ccc(-c2c3nc(c(-c4c(F)cc(S(=O)(=O)[O-])cc4F)c4ccc([nH]4)c(-c4c(F)cc(S(=O)(=O)[O-])cc4F)c4nc(c(-c5c(F)cc(S(=O)(=O)[O-])cc5F)c5ccc2[nH]5)C=C4)C=C3)cc1)[C@H](C)c1ccccc1
REMARK SMILES IDX 18 1 17 2 16 3 14 4 15 5 13 7 12 8 10 9 9 10 11 12 8 13 1 14
REMARK SMILES IDX 2 15 3 16 4 17 5 18 7 19 6 20 90 21 91 22 92 23 93 24 97 25
REMARK SMILES IDX 94 26 96 27 95 28 19 29 20 30 21 31 22 32 23 34 24 35 25 36
REMARK SMILES IDX 89 37 26 38 88 39 27 40 28 41 29 42 82 43 30 44 87 45 81 46
REMARK SMILES IDX 83 47 31 48 86 49 80 50 79 51 32 53 66 54 45 55 65 56 46 57
REMARK SMILES IDX 49 58 64 59 84 60 47 61 48 62 63 64 85 65 50 66 33 67 34 68
REMARK SMILES IDX 43 69 35 70 36 71 42 72 44 73 37 74 38 75 39 76 40 77 41 78
REMARK SMILES IDX 67 79 68 80 77 81 69 82 70 83 76 84 78 85 71 86 72 87 73 88
REMARK SMILES IDX 74 89 75 90 51 91 52 92 61 93 53 94 54 95 60 96 62 97 55 98
REMARK SMILES IDX 56 99 57 100 58 101 59 102
REMARK H PARENT 16 6 9 11 21 33 83 52 49 63
REMARK Flexibility Score: inf
ROOT
ATOM      1  C   UNL A   1      38.741  21.588  25.872  1.00  0.00     0.023 C 
ENDROOT
BRANCH   1   2
ATOM      2  C   UNL A   1      36.576  21.698  26.135  1.00  0.00     0.116 C 
BRANCH   2   3
ATOM      3  N   UNL A   1      35.370  20.832  25.505  1.00  0.00    -0.356 N 
ATOM      4  C   UNL A   1      34.174  21.159  24.951  1.00  0.00     0.224 C 
ATOM      5  O   UNL A   1      33.419  20.238  24.631  1.00  0.00    -0.275 OA
ATOM      6  H   UNL A   1      35.535  19.861  25.528  1.00  0.00     0.163 HD
BRANCH   4   7
ATOM      7  C   UNL A   1      33.757  22.613  24.769  1.00  0.00     0.095 C 
BRANCH   7   8
ATOM      8  C   UNL A   1      33.846  23.281  26.166  1.00  0.00     0.114 C 
BRANCH   8   9
ATOM      9  C   UNL A   1      32.696  23.328  27.146  1.00  0.00     0.225 C 
ATOM     10  N   UNL A   1      31.706  24.268  27.072  1.00  0.00    -0.326 N 
ATOM     11  H   UNL A   1      31.173  24.420  27.887  1.00  0.00     0.169 HD
ATOM     12  O   UNL A   1      32.616  22.485  28.045  1.00  0.00    -0.275 OA
BRANCH  10  13
ATOM     13  C   UNL A   1      31.380  25.029  25.951  1.00  0.00     0.045 A 
ATOM     14  C   UNL A   1      32.614  27.346  27.131  1.00  0.00     0.048 C 
ATOM     15  C   UNL A   1      31.692  26.803  26.075  1.00  0.00    -0.009 A 
ATOM     16  C   UNL A   1      30.990  27.928  24.862  1.00  0.00     0.046 A 
ATOM     17  Cl  UNL A   1      31.230  29.623  25.010  1.00  0.00    -0.084 Cl
ATOM     18  C   UNL A   1      30.020  27.289  23.486  1.00  0.00     0.021 A 
ATOM     19  C   UNL A   1      30.455  24.368  24.550  1.00  0.00     0.026 A 
ATOM     20  C   UNL A   1      29.766  25.504  23.306  1.00  0.00     0.004 A 
ENDBRANCH  10  13
ENDBRANCH   8   9
ENDBRANCH   7   8
BRANCH   7  21
ATOM     21  C   UNL A   1      34.347  23.152  23.426  1.00  0.00     0.029 C 
ATOM     22  C   UNL A   1      35.865  23.169  23.259  1.00  0.00     0.013 C 
BRANCH  21  23
ATOM     23  C   UNL A   1      33.707  24.447  22.906  1.00  0.00    -0.044 A 
ATOM     24  C   UNL A   1      32.970  24.413  21.708  1.00  0.00     0.004 A 
ATOM     25  C   UNL A   1      34.004  25.695  23.468  1.00  0.00     0.004 A 
ATOM     26  C   UNL A   1      32.640  25.594  21.041  1.00  0.00     0.000 A 
ATOM     27  C   UNL A   1      33.689  26.873  22.793  1.00  0.00     0.000 A 
ATOM     28  C   UNL A   1      33.027  26.822  21.570  1.00  0.00     0.000 A 
ENDBRANCH  21  23
ENDBRANCH   7  21
ENDBRANCH   4   7
ENDBRANCH   2   3
ENDBRANCH   1   2
BRANCH   1  29
ATOM     29  C   UNL A   1      40.137  21.847  26.842  1.00  0.00     0.023 C 
BRANCH  29  30
ATOM     30  C   UNL A   1      40.577  23.253  27.237  1.00  0.00     0.116 C 
BRANCH  30  31
ATOM     31  N   UNL A   1      40.846  24.128  26.102  1.00  0.00    -0.352 N 
ATOM     32  C   UNL A   1      41.150  25.463  26.142  1.00  0.00     0.251 C 
ATOM     33  H   UNL A   1      40.805  23.714  25.210  1.00  0.00     0.163 HD
ATOM     34  O   UNL A   1      41.396  26.109  25.133  1.00  0.00    -0.269 OA
BRANCH  32  35
ATOM     35  C   UNL A   1      41.069  26.104  27.456  1.00  0.00     0.039 A 
ATOM     36  C   UNL A   1      42.075  27.012  27.779  1.00  0.00     0.014 A 
ATOM     37  C   UNL A   1      39.910  25.975  28.224  1.00  0.00     0.014 A 
ATOM     38  C   UNL A   1      41.896  27.842  28.873  1.00  0.00     0.010 A 
ATOM     39  C   UNL A   1      39.699  26.865  29.267  1.00  0.00     0.010 A 
ATOM     40  C   UNL A   1      40.694  27.798  29.600  1.00  0.00    -0.014 A 
BRANCH  40  41
ATOM     41  C   UNL A   1      40.497  28.720  30.737  1.00  0.00     0.031 A 
ATOM     42  C   UNL A   1      41.373  28.581  31.945  1.00  0.00     0.074 A 
ATOM     43  C   UNL A   1      39.548  29.673  30.658  1.00  0.00     0.049 A 
ATOM     44  N   UNL A   1      41.389  29.302  33.033  1.00  0.00    -0.248 NA
ATOM     45  C   UNL A   1      42.346  27.474  31.942  1.00  0.00     0.031 C 
ATOM     46  C   UNL A   1      38.629  29.862  29.530  1.00  0.00     0.029 A 
ATOM     47  N   UNL A   1      39.207  30.672  31.531  1.00  0.00    -0.354 N 
ATOM     48  C   UNL A   1      42.367  28.737  33.841  1.00  0.00     0.074 A 
ATOM     49  C   UNL A   1      42.877  27.575  33.150  1.00  0.00     0.031 C 
ATOM     50  C   UNL A   1      37.859  30.936  29.764  1.00  0.00     0.029 A 
ATOM     51  C   UNL A   1      38.195  31.483  31.074  1.00  0.00     0.049 A 
ATOM     52  H   UNL A   1      39.645  30.797  32.404  1.00  0.00     0.167 HD
ATOM     53  C   UNL A   1      42.815  29.170  35.039  1.00  0.00     0.037 A 
ATOM     54  C   UNL A   1      37.607  32.547  31.655  1.00  0.00     0.037 A 
ATOM     55  C   UNL A   1      42.302  30.341  35.697  1.00  0.00     0.049 A 
ATOM     56  C   UNL A   1      38.107  32.988  33.005  1.00  0.00     0.074 A 
ATOM     57  C   UNL A   1      42.708  30.899  36.895  1.00  0.00     0.029 A 
ATOM     58  N   UNL A   1      41.267  31.130  35.216  1.00  0.00    -0.354 N 
ATOM     59  N   UNL A   1      39.078  32.482  33.730  1.00  0.00    -0.248 NA
ATOM     60  C   UNL A   1      37.442  34.145  33.617  1.00  0.00     0.031 C 
ATOM     61  C   UNL A   1      41.871  31.983  37.172  1.00  0.00     0.029 A 
ATOM     62  C   UNL A   1      40.997  32.150  36.110  1.00  0.00     0.049 A 
ATOM     63  H   UNL A   1      40.794  30.985  34.364  1.00  0.00     0.167 HD
ATOM     64  C   UNL A   1      39.162  33.279  34.866  1.00  0.00     0.074 A 
ATOM     65  C   UNL A   1      38.154  34.310  34.721  1.00  0.00     0.031 C 
ATOM     66  C   UNL A   1      39.993  33.172  35.932  1.00  0.00     0.037 A 
BRANCH  53  67
ATOM     67  C   UNL A   1      43.896  28.376  35.716  1.00  0.00     0.058 A 
ATOM     68  C   UNL A   1      43.604  27.341  36.620  1.00  0.00     0.135 A 
ATOM     69  C   UNL A   1      45.246  28.622  35.419  1.00  0.00     0.135 A 
ATOM     70  F   UNL A   1      42.332  27.079  36.962  1.00  0.00    -0.206 F 
ATOM     71  C   UNL A   1      44.611  26.588  37.213  1.00  0.00     0.059 A 
ATOM     72  C   UNL A   1      46.268  27.860  35.974  1.00  0.00     0.059 A 
ATOM     73  F   UNL A   1      45.583  29.609  34.573  1.00  0.00    -0.206 F 
ATOM     74  C   UNL A   1      45.941  26.848  36.874  1.00  0.00     0.060 A 
BRANCH  74  75
ATOM     75  S   UNL A   1      47.230  25.829  37.618  1.00  0.00     0.124 S 
ATOM     76  O   UNL A   1      46.808  25.793  39.015  1.00  0.00    -0.237 OA
ATOM     77  O   UNL A   1      47.095  24.576  36.882  1.00  0.00    -0.237 OA
ATOM     78  O   UNL A   1      48.453  26.580  37.353  1.00  0.00    -0.744 OA
ENDBRANCH  74  75
ENDBRANCH  53  67
BRANCH  54  79
ATOM     79  C   UNL A   1      36.492  33.263  30.974  1.00  0.00     0.058 A 
ATOM     80  C   UNL A   1      36.714  34.034  29.822  1.00  0.00     0.135 A 
ATOM     81  C   UNL A   1      35.180  33.205  31.474  1.00  0.00     0.135 A 
ATOM     82  F   UNL A   1      37.947  34.123  29.302  1.00  0.00    -0.206 F 
ATOM     83  C   UNL A   1      35.687  34.748  29.212  1.00  0.00     0.059 A 
ATOM     84  C   UNL A   1      34.131  33.883  30.861  1.00  0.00     0.059 A 
ATOM     85  F   UNL A   1      34.905  32.468  32.561  1.00  0.00    -0.206 F 
ATOM     86  C   UNL A   1      34.398  34.666  29.740  1.00  0.00     0.060 A 
BRANCH  86  87
ATOM     87  S   UNL A   1      33.070  35.585  28.932  1.00  0.00     0.124 S 
ATOM     88  O   UNL A   1      32.239  35.961  30.071  1.00  0.00    -0.237 OA
ATOM     89  O   UNL A   1      33.799  36.670  28.286  1.00  0.00    -0.237 OA
ATOM     90  O   UNL A   1      32.487  34.602  28.024  1.00  0.00    -0.744 OA
ENDBRANCH  86  87
ENDBRANCH  54  79
BRANCH  66  91
ATOM     91  C   UNL A   1      39.882  34.221  37.003  1.00  0.00     0.058 A 
ATOM     92  C   UNL A   1      40.549  35.452  36.909  1.00  0.00     0.135 A 
ATOM     93  C   UNL A   1      39.045  34.011  38.111  1.00  0.00     0.135 A 
ATOM     94  F   UNL A   1      41.365  35.702  35.873  1.00  0.00    -0.206 F 
ATOM     95  C   UNL A   1      40.413  36.426  37.891  1.00  0.00     0.059 A 
ATOM     96  C   UNL A   1      38.863  34.986  39.084  1.00  0.00     0.059 A 
ATOM     97  F   UNL A   1      38.373  32.855  38.243  1.00  0.00    -0.206 F 
ATOM     98  C   UNL A   1      39.561  36.186  38.972  1.00  0.00     0.060 A 
BRANCH  98  99
ATOM     99  S   UNL A   1      39.366  37.476  40.217  1.00  0.00     0.124 S 
ATOM    100  O   UNL A   1      38.829  36.719  41.343  1.00  0.00    -0.237 OA
ATOM    101  O   UNL A   1      40.733  37.963  40.375  1.00  0.00    -0.237 OA
ATOM    102  O   UNL A   1      38.440  38.415  39.594  1.00  0.00    -0.744 OA
ENDBRANCH  98  99
ENDBRANCH  66  91
ENDBRANCH  40  41
ENDBRANCH  32  35
ENDBRANCH  30  31
ENDBRANCH  29  30
ENDBRANCH   1  29
TORSDOF 19
ENDMDL
MODEL 3
REMARK VINA RESULT:     -13.4      2.632      8.729
REMARK SMILES Cc1c(Cl)cccc1NC(=O)C[C@H](C(=O)NCCCCNC(=O)c1ccc(-c2c3nc(c(-c4c(F)cc(S(=O)(=O)[O-])cc4F)c4ccc([nH]4)c(-c4c(F)cc(S(=O)(=O)[O-])cc4F)c4nc(c(-c5c(F)cc(S(=O)(=O)[O-])cc5F)c5ccc2[nH]5)C=C4)C=C3)cc1)[C@H](C)c1ccccc1
REMARK SMILES IDX 18 1 17 2 16 3 14 4 15 5 13 7 12 8 10 9 9 10 11 12 8 13 1 14
REMARK SMILES IDX 2 15 3 16 4 17 5 18 7 19 6 20 90 21 91 22 92 23 93 24 97 25
REMARK SMILES IDX 94 26 96 27 95 28 19 29 20 30 21 31 22 32 23 34 24 35 25 36
REMARK SMILES IDX 89 37 26 38 88 39 27 40 28 41 29 42 82 43 30 44 87 45 81 46
REMARK SMILES IDX 83 47 31 48 86 49 80 50 79 51 32 53 66 54 45 55 65 56 46 57
REMARK SMILES IDX 49 58 64 59 84 60 47 61 48 62 63 64 85 65 50 66 33 67 34 68
REMARK SMILES IDX 43 69 35 70 36 71 42 72 44 73 37 74 38 75 39 76 40 77 41 78
REMARK SMILES IDX 67 79 68 80 77 81 69 82 70 83 76 84 78 85 71 86 72 87 73 88
REMARK SMILES IDX 74 89 75 90 51 91 52 92 61 93 53 94 54 95 60 96 62 97 55 98
REMARK SMILES IDX 56 99 57 100 58 101 59 102
REMARK H PARENT 16 6 9 11 21 33 83 52 49 63
REMARK Flexibility Score: inf
ROOT
ATOM      1  C   UNL A   1      33.084  29.157  27.124  1.00  0.00     0.023 C 
ENDROOT
BRANCH   1   2
ATOM      2  C   UNL A   1      32.080  27.248  26.783  1.00  0.00     0.116 C 
BRANCH   2   3
ATOM      3  N   UNL A   1      30.701  26.876  26.033  1.00  0.00    -0.356 N 
ATOM      4  C   UNL A   1      30.350  25.907  25.149  1.00  0.00     0.224 C 
ATOM      5  O   UNL A   1      29.209  25.941  24.684  1.00  0.00    -0.275 OA
ATOM      6  H   UNL A   1      29.958  27.479  26.264  1.00  0.00     0.163 HD
BRANCH   4   7
ATOM      7  C   UNL A   1      31.343  24.838  24.710  1.00  0.00     0.095 C 
BRANCH   7   8
ATOM      8  C   UNL A   1      30.805  23.484  25.241  1.00  0.00     0.114 C 
BRANCH   8   9
ATOM      9  C   UNL A   1      31.036  22.986  26.650  1.00  0.00     0.225 C 
ATOM     10  N   UNL A   1      32.193  22.365  27.029  1.00  0.00    -0.326 N 
ATOM     11  H   UNL A   1      32.159  21.819  27.849  1.00  0.00     0.169 HD
ATOM     12  O   UNL A   1      30.170  23.154  27.515  1.00  0.00    -0.275 OA
BRANCH  10  13
ATOM     13  C   UNL A   1      33.416  22.431  26.363  1.00  0.00     0.045 A 
ATOM     14  C   UNL A   1      33.195  19.660  25.620  1.00  0.00     0.048 C 
ATOM     15  C   UNL A   1      34.082  20.864  25.763  1.00  0.00    -0.009 A 
ATOM     16  C   UNL A   1      35.793  20.761  25.221  1.00  0.00     0.046 A 
ATOM     17  Cl  UNL A   1      36.451  19.260  24.708  1.00  0.00    -0.084 Cl
ATOM     18  C   UNL A   1      36.835  22.231  25.220  1.00  0.00     0.021 A 
ATOM     19  C   UNL A   1      34.430  23.923  26.319  1.00  0.00     0.026 A 
ATOM     20  C   UNL A   1      36.155  23.825  25.746  1.00  0.00     0.004 A 
ENDBRANCH  10  13
ENDBRANCH   8   9
ENDBRANCH   7   8
BRANCH   7  21
ATOM     21  C   UNL A   1      31.830  25.156  23.259  1.00  0.00     0.029 C 
ATOM     22  C   UNL A   1      32.662  24.104  22.530  1.00  0.00     0.013 C 
BRANCH  21  23
ATOM     23  C   UNL A   1      32.401  26.566  23.059  1.00  0.00    -0.044 A 
ATOM     24  C   UNL A   1      33.680  26.865  23.564  1.00  0.00     0.004 A 
ATOM     25  C   UNL A   1      31.614  27.621  22.577  1.00  0.00     0.004 A 
ATOM     26  C   UNL A   1      34.107  28.189  23.683  1.00  0.00     0.000 A 
ATOM     27  C   UNL A   1      32.035  28.943  22.712  1.00  0.00     0.000 A 
ATOM     28  C   UNL A   1      33.271  29.228  23.285  1.00  0.00     0.000 A 
ENDBRANCH  21  23
ENDBRANCH   7  21
ENDBRANCH   4   7
ENDBRANCH   2   3
ENDBRANCH   1   2
BRANCH   1  29
ATOM     29  C   UNL A   1      32.667  30.824  27.056  1.00  0.00     0.023 C 
BRANCH  29  30
ATOM     30  C   UNL A   1      33.576  31.892  27.656  1.00  0.00     0.116 C 
BRANCH  30  31
ATOM     31  N   UNL A   1      32.929  33.187  27.830  1.00  0.00    -0.352 N 
ATOM     32  C   UNL A   1      33.362  34.230  28.606  1.00  0.00     0.251 C 
ATOM     33  H   UNL A   1      32.090  33.327  27.335  1.00  0.00     0.163 HD
ATOM     34  O   UNL A   1      32.767  35.297  28.661  1.00  0.00    -0.269 OA
BRANCH  32  35
ATOM     35  C   UNL A   1      34.530  33.965  29.449  1.00  0.00     0.039 A 
ATOM     36  C   UNL A   1      34.333  33.156  30.565  1.00  0.00     0.014 A 
ATOM     37  C   UNL A   1      35.806  34.317  29.002  1.00  0.00     0.014 A 
ATOM     38  C   UNL A   1      35.441  32.650  31.226  1.00  0.00     0.010 A 
ATOM     39  C   UNL A   1      36.909  33.741  29.616  1.00  0.00     0.010 A 
ATOM     40  C   UNL A   1      36.731  32.911  30.734  1.00  0.00    -0.014 A 
BRANCH  40  41
ATOM     41  C   UNL A   1      37.902  32.329  31.421  1.00  0.00     0.031 A 
ATOM     42  C   UNL A   1      38.313  32.883  32.752  1.00  0.00     0.074 A 
ATOM     43  C   UNL A   1      38.564  31.306  30.847  1.00  0.00     0.049 A 
ATOM     44  N   UNL A   1      39.285  32.500  33.534  1.00  0.00    -0.248 NA
ATOM     45  C   UNL A   1      37.545  34.032  33.264  1.00  0.00     0.031 C 
ATOM     46  C   UNL A   1      38.251  30.724  29.537  1.00  0.00     0.029 A 
ATOM     47  N   UNL A   1      39.626  30.563  31.291  1.00  0.00    -0.354 N 
ATOM     48  C   UNL A   1      39.246  33.358  34.625  1.00  0.00     0.074 A 
ATOM     49  C   UNL A   1      38.201  34.324  34.376  1.00  0.00     0.031 C 
ATOM     50  C   UNL A   1      39.075  29.689  29.306  1.00  0.00     0.029 A 
ATOM     51  C   UNL A   1      40.003  29.564  30.425  1.00  0.00     0.049 A 
ATOM     52  H   UNL A   1      40.076  30.730  32.151  1.00  0.00     0.167 HD
ATOM     53  C   UNL A   1      40.000  33.322  35.745  1.00  0.00     0.037 A 
ATOM     54  C   UNL A   1      40.991  28.654  30.528  1.00  0.00     0.037 A 
ATOM     55  C   UNL A   1      41.024  32.338  35.976  1.00  0.00     0.049 A 
ATOM     56  C   UNL A   1      41.836  28.658  31.775  1.00  0.00     0.074 A 
ATOM     57  C   UNL A   1      41.823  32.179  37.092  1.00  0.00     0.029 A 
ATOM     58  N   UNL A   1      41.391  31.352  35.072  1.00  0.00    -0.354 N 
ATOM     59  N   UNL A   1      41.746  29.437  32.829  1.00  0.00    -0.248 NA
ATOM     60  C   UNL A   1      42.910  27.661  31.855  1.00  0.00     0.031 C 
ATOM     61  C   UNL A   1      42.723  31.141  36.834  1.00  0.00     0.029 A 
ATOM     62  C   UNL A   1      42.431  30.601  35.591  1.00  0.00     0.049 A 
ATOM     63  H   UNL A   1      40.974  31.207  34.191  1.00  0.00     0.167 HD
ATOM     64  C   UNL A   1      42.729  29.001  33.710  1.00  0.00     0.074 A 
ATOM     65  C   UNL A   1      43.388  27.879  33.071  1.00  0.00     0.031 C 
ATOM     66  C   UNL A   1      43.060  29.480  34.935  1.00  0.00     0.037 A 
BRANCH  53  67
ATOM     67  C   UNL A   1      39.758  34.372  36.791  1.00  0.00     0.058 A 
ATOM     68  C   UNL A   1      38.892  34.155  37.877  1.00  0.00     0.135 A 
ATOM     69  C   UNL A   1      40.440  35.598  36.735  1.00  0.00     0.135 A 
ATOM     70  F   UNL A   1      38.192  33.013  37.968  1.00  0.00    -0.206 F 
ATOM     71  C   UNL A   1      38.704  35.121  38.860  1.00  0.00     0.059 A 
ATOM     72  C   UNL A   1      40.294  36.564  37.724  1.00  0.00     0.059 A 
ATOM     73  F   UNL A   1      41.269  35.863  35.712  1.00  0.00    -0.206 F 
ATOM     74  C   UNL A   1      39.418  36.318  38.781  1.00  0.00     0.060 A 
BRANCH  74  75
ATOM     75  S   UNL A   1      39.196  37.538  40.091  1.00  0.00     0.124 S 
ATOM     76  O   UNL A   1      38.142  38.381  39.532  1.00  0.00    -0.237 OA
ATOM     77  O   UNL A   1      38.807  36.705  41.224  1.00  0.00    -0.237 OA
ATOM     78  O   UNL A   1      40.509  38.166  40.198  1.00  0.00    -0.744 OA
ENDBRANCH  74  75
ENDBRANCH  53  67
BRANCH  54  79
ATOM     79  C   UNL A   1      41.236  27.675  29.433  1.00  0.00     0.058 A 
ATOM     80  C   UNL A   1      40.382  26.581  29.227  1.00  0.00     0.135 A 
ATOM     81  C   UNL A   1      42.345  27.802  28.580  1.00  0.00     0.135 A 
ATOM     82  F   UNL A   1      39.308  26.411  30.013  1.00  0.00    -0.206 F 
ATOM     83  C   UNL A   1      40.634  25.632  28.241  1.00  0.00     0.059 A 
ATOM     84  C   UNL A   1      42.599  26.885  27.565  1.00  0.00     0.059 A 
ATOM     85  F   UNL A   1      43.186  28.839  28.718  1.00  0.00    -0.206 F 
ATOM     86  C   UNL A   1      41.748  25.793  27.414  1.00  0.00     0.060 A 
BRANCH  86  87
ATOM     87  S   UNL A   1      42.058  24.565  26.128  1.00  0.00     0.124 S 
ATOM     88  O   UNL A   1      42.286  25.413  24.962  1.00  0.00    -0.237 OA
ATOM     89  O   UNL A   1      43.229  23.867  26.649  1.00  0.00    -0.237 OA
ATOM     90  O   UNL A   1      40.827  23.782  26.107  1.00  0.00    -0.744 OA
ENDBRANCH  86  87
ENDBRANCH  54  79
BRANCH  66  91
ATOM     91  C   UNL A   1      44.149  28.767  35.685  1.00  0.00     0.058 A 
ATOM     92  C   UNL A   1      45.497  29.142  35.573  1.00  0.00     0.135 A 
ATOM     93  C   UNL A   1      43.828  27.730  36.577  1.00  0.00     0.135 A 
ATOM     94  F   UNL A   1      45.858  30.123  34.732  1.00  0.00    -0.206 F 
ATOM     95  C   UNL A   1      46.491  28.494  36.297  1.00  0.00     0.059 A 
ATOM     96  C   UNL A   1      44.801  27.096  37.341  1.00  0.00     0.059 A 
ATOM     97  F   UNL A   1      42.552  27.341  36.732  1.00  0.00    -0.206 F 
ATOM     98  C   UNL A   1      46.132  27.477  37.184  1.00  0.00     0.060 A 
BRANCH  98  99
ATOM     99  S   UNL A   1      47.430  26.673  38.144  1.00  0.00     0.124 S 
ATOM    100  O   UNL A   1      47.003  26.955  39.510  1.00  0.00    -0.237 OA
ATOM    101  O   UNL A   1      47.314  25.282  37.717  1.00  0.00    -0.237 OA
ATOM    102  O   UNL A   1      48.645  27.356  37.712  1.00  0.00    -0.744 OA
ENDBRANCH  98  99
ENDBRANCH  66  91
ENDBRANCH  40  41
ENDBRANCH  32  35
ENDBRANCH  30  31
ENDBRANCH  29  30
ENDBRANCH   1  29
TORSDOF 19
ENDMDL
