MODEL 1
REMARK VINA RESULT:     -13.9      0.000      0.000
REMARK SMILES C[N@@H+]1CCN(C(=O)c2ccc3[nH]c4c(c3c2)CSCC4)C[C@H]1C(=O)NCCCCNC(=O)c1ccc(-c2c3nc(c(-c4c(F)cc(S(=O)(=O)[O-])cc4F)c4ccc([nH]4)c(-c4c(F)cc(S(=O)(=O)[O-])cc4F)c4nc(c(-c5c(F)cc(S(=O)(=O)[O-])cc5F)c5ccc2[nH]5)C=C4)C=C3)cc1
REMARK SMILES IDX 28 1 27 2 26 3 25 4 23 5 24 6 22 8 1 9 2 10 3 11 4 13 21 14
REMARK SMILES IDX 5 15 6 16 7 17 8 18 9 19 16 20 10 21 15 22 11 23 14 24 12 25
REMARK SMILES IDX 13 26 17 27 20 29 18 30 19 31 29 32 30 33 31 34 32 36 33 37
REMARK SMILES IDX 34 38 98 39 35 40 97 41 36 42 37 43 38 44 91 45 39 46 96 47
REMARK SMILES IDX 90 48 92 49 40 50 95 51 89 52 88 53 41 55 75 56 54 57 74 58
REMARK SMILES IDX 55 59 58 60 73 61 93 62 56 63 57 64 72 66 94 67 59 68 42 69
REMARK SMILES IDX 43 70 52 71 44 72 45 73 51 74 53 75 46 76 47 77 48 78 49 79
REMARK SMILES IDX 50 80 76 81 77 82 86 83 78 84 79 85 85 86 87 87 80 88 81 89
REMARK SMILES IDX 82 90 83 91 84 92 60 93 61 94 70 95 62 96 63 97 69 98 71 99
REMARK SMILES IDX 64 100 65 101 66 102 67 103 68 104
REMARK H PARENT 25 7 2 12 12 28 30 35 92 54 58 65
REMARK Flexibility Score: inf
ROOT
ATOM      1  C   UNL A   1      39.281  22.021  26.159  1.00  0.00     0.023 C 
ENDROOT
BRANCH   1   2
ATOM      2  C   UNL A   1      38.925  23.459  26.545  1.00  0.00     0.023 C 
BRANCH   2   3
ATOM      3  C   UNL A   1      37.554  23.929  26.081  1.00  0.00     0.116 C 
BRANCH   3   4
ATOM      4  N   UNL A   1      37.335  23.700  24.662  1.00  0.00    -0.351 N 
ATOM      5  C   UNL A   1      36.260  23.145  24.032  1.00  0.00     0.280 C 
ATOM      6  O   UNL A   1      36.279  23.085  22.798  1.00  0.00    -0.268 OA
ATOM      7  H   UNL A   1      38.068  23.988  24.071  1.00  0.00     0.163 HD
BRANCH   5   8
ATOM      8  C   UNL A   1      35.028  22.670  24.815  1.00  0.00     0.293 C 
ATOM      9  C   UNL A   1      35.838  20.374  25.057  1.00  0.00     0.333 C 
ATOM     10  N   UNL A   1      35.343  21.560  25.762  1.00  0.00    -0.324 N 
ATOM     11  C   UNL A   1      34.136  21.219  26.544  1.00  0.00     0.284 C 
ATOM     12  H   UNL A   1      36.082  21.877  26.388  1.00  0.00     0.348 HD
ATOM     13  C   UNL A   1      33.532  22.435  27.272  1.00  0.00     0.181 C 
ATOM     14  C   UNL A   1      34.401  23.903  25.499  1.00  0.00     0.195 C 
ATOM     15  N   UNL A   1      33.266  23.551  26.362  1.00  0.00    -0.326 N 
BRANCH  15  16
ATOM     16  C   UNL A   1      32.160  24.358  26.591  1.00  0.00     0.254 C 
ATOM     17  O   UNL A   1      31.204  24.024  27.300  1.00  0.00    -0.269 OA
BRANCH  16  18
ATOM     18  C   UNL A   1      32.121  25.708  25.992  1.00  0.00     0.040 A 
ATOM     19  C   UNL A   1      33.220  26.565  26.093  1.00  0.00     0.016 A 
ATOM     20  C   UNL A   1      30.959  26.093  25.307  1.00  0.00     0.024 A 
ATOM     21  C   UNL A   1      33.157  27.865  25.584  1.00  0.00     0.027 A 
ATOM     22  C   UNL A   1      30.889  27.390  24.763  1.00  0.00     0.004 A 
ATOM     23  C   UNL A   1      31.981  28.247  24.928  1.00  0.00     0.046 A 
ATOM     24  C   UNL A   1      29.902  28.096  24.006  1.00  0.00    -0.009 A 
ATOM     25  N   UNL A   1      31.652  29.444  24.334  1.00  0.00    -0.358 N 
ATOM     26  C   UNL A   1      30.427  29.347  23.736  1.00  0.00     0.021 A 
ATOM     27  C   UNL A   1      28.584  27.572  23.533  1.00  0.00     0.107 C 
ATOM     28  H   UNL A   1      32.216  30.251  24.339  1.00  0.00     0.166 HD
ATOM     29  C   UNL A   1      29.804  30.434  22.934  1.00  0.00     0.065 C 
ATOM     30  S   UNL A   1      27.526  28.836  22.731  1.00  0.00    -0.157 SA
ATOM     31  C   UNL A   1      28.820  29.845  21.917  1.00  0.00     0.076 C 
ENDBRANCH  16  18
ENDBRANCH  15  16
ENDBRANCH   5   8
ENDBRANCH   3   4
ENDBRANCH   2   3
ENDBRANCH   1   2
BRANCH   1  32
ATOM     32  C   UNL A   1      40.702  21.578  26.515  1.00  0.00     0.116 C 
BRANCH  32  33
ATOM     33  N   UNL A   1      41.713  21.933  25.541  1.00  0.00    -0.352 N 
ATOM     34  C   UNL A   1      42.634  22.940  25.445  1.00  0.00     0.251 C 
ATOM     35  H   UNL A   1      41.745  21.311  24.779  1.00  0.00     0.163 HD
ATOM     36  O   UNL A   1      43.514  22.786  24.594  1.00  0.00    -0.269 OA
BRANCH  34  37
ATOM     37  C   UNL A   1      42.593  24.212  26.218  1.00  0.00     0.039 A 
ATOM     38  C   UNL A   1      43.062  24.387  27.518  1.00  0.00     0.014 A 
ATOM     39  C   UNL A   1      41.943  25.292  25.587  1.00  0.00     0.014 A 
ATOM     40  C   UNL A   1      42.777  25.553  28.216  1.00  0.00     0.010 A 
ATOM     41  C   UNL A   1      41.676  26.472  26.271  1.00  0.00     0.010 A 
ATOM     42  C   UNL A   1      42.049  26.579  27.605  1.00  0.00    -0.014 A 
BRANCH  42  43
ATOM     43  C   UNL A   1      41.838  27.806  28.366  1.00  0.00     0.031 A 
ATOM     44  C   UNL A   1      42.986  28.752  28.303  1.00  0.00     0.074 A 
ATOM     45  C   UNL A   1      40.691  28.117  29.003  1.00  0.00     0.049 A 
ATOM     46  N   UNL A   1      43.769  29.108  29.268  1.00  0.00    -0.248 NA
ATOM     47  C   UNL A   1      43.418  29.230  26.981  1.00  0.00     0.031 C 
ATOM     48  C   UNL A   1      39.413  27.408  28.964  1.00  0.00     0.029 A 
ATOM     49  N   UNL A   1      40.410  29.205  29.776  1.00  0.00    -0.354 N 
ATOM     50  C   UNL A   1      44.663  30.026  28.722  1.00  0.00     0.074 A 
ATOM     51  C   UNL A   1      44.513  29.927  27.295  1.00  0.00     0.031 C 
ATOM     52  C   UNL A   1      38.448  28.198  29.489  1.00  0.00     0.029 A 
ATOM     53  C   UNL A   1      39.053  29.411  30.012  1.00  0.00     0.049 A 
ATOM     54  H   UNL A   1      41.109  29.797  30.137  1.00  0.00     0.167 HD
ATOM     55  C   UNL A   1      45.294  30.946  29.504  1.00  0.00     0.037 A 
ATOM     56  C   UNL A   1      38.476  30.519  30.550  1.00  0.00     0.037 A 
ATOM     57  C   UNL A   1      45.265  30.548  30.890  1.00  0.00     0.049 A 
ATOM     58  C   UNL A   1      39.534  31.214  31.335  1.00  0.00     0.074 A 
ATOM     59  C   UNL A   1      45.727  29.449  31.590  1.00  0.00     0.029 A 
ATOM     60  N   UNL A   1      44.363  31.169  31.721  1.00  0.00    -0.354 N 
ATOM     61  N   UNL A   1      40.072  30.720  32.418  1.00  0.00    -0.248 NA
ATOM     62  C   UNL A   1      40.326  32.228  30.653  1.00  0.00     0.031 C 
ATOM     63  C   UNL A   1      44.726  29.193  32.570  1.00  0.00     0.029 A 
ATOM     64  C   UNL A   1      43.754  30.189  32.461  1.00  0.00     0.049 A 
ATOM     65  H   UNL A   1      44.188  32.136  31.776  1.00  0.00     0.167 HD
ATOM     66  C   UNL A   1      41.421  31.026  32.314  1.00  0.00     0.074 A 
ATOM     67  C   UNL A   1      41.505  32.021  31.246  1.00  0.00     0.031 C 
ATOM     68  C   UNL A   1      42.377  30.245  32.899  1.00  0.00     0.037 A 
BRANCH  55  69
ATOM     69  C   UNL A   1      45.602  32.366  29.080  1.00  0.00     0.058 A 
ATOM     70  C   UNL A   1      44.565  33.157  28.537  1.00  0.00     0.135 A 
ATOM     71  C   UNL A   1      46.907  32.877  28.901  1.00  0.00     0.135 A 
ATOM     72  F   UNL A   1      43.281  32.784  28.658  1.00  0.00    -0.206 F 
ATOM     73  C   UNL A   1      44.814  34.300  27.778  1.00  0.00     0.059 A 
ATOM     74  C   UNL A   1      47.173  34.043  28.192  1.00  0.00     0.059 A 
ATOM     75  F   UNL A   1      47.999  32.230  29.320  1.00  0.00    -0.206 F 
ATOM     76  C   UNL A   1      46.126  34.722  27.593  1.00  0.00     0.060 A 
BRANCH  76  77
ATOM     77  S   UNL A   1      46.458  36.124  26.516  1.00  0.00     0.124 S 
ATOM     78  O   UNL A   1      46.185  35.553  25.203  1.00  0.00    -0.237 OA
ATOM     79  O   UNL A   1      45.496  37.108  27.000  1.00  0.00    -0.237 OA
ATOM     80  O   UNL A   1      47.859  36.434  26.793  1.00  0.00    -0.744 OA
ENDBRANCH  76  77
ENDBRANCH  55  69
BRANCH  56  81
ATOM     81  C   UNL A   1      37.196  31.180  30.150  1.00  0.00     0.058 A 
ATOM     82  C   UNL A   1      36.321  31.736  31.105  1.00  0.00     0.135 A 
ATOM     83  C   UNL A   1      36.929  31.526  28.809  1.00  0.00     0.135 A 
ATOM     84  F   UNL A   1      36.498  31.483  32.412  1.00  0.00    -0.206 F 
ATOM     85  C   UNL A   1      35.289  32.622  30.758  1.00  0.00     0.059 A 
ATOM     86  C   UNL A   1      35.901  32.394  28.439  1.00  0.00     0.059 A 
ATOM     87  F   UNL A   1      37.717  31.105  27.810  1.00  0.00    -0.206 F 
ATOM     88  C   UNL A   1      35.101  32.963  29.420  1.00  0.00     0.060 A 
BRANCH  88  89
ATOM     89  S   UNL A   1      33.896  34.237  28.975  1.00  0.00     0.124 S 
ATOM     90  O   UNL A   1      33.036  33.528  28.035  1.00  0.00    -0.237 OA
ATOM     91  O   UNL A   1      33.299  34.561  30.267  1.00  0.00    -0.237 OA
ATOM     92  O   UNL A   1      34.718  35.295  28.391  1.00  0.00    -0.744 OA
ENDBRANCH  88  89
ENDBRANCH  56  81
BRANCH  68  93
ATOM     93  C   UNL A   1      41.961  29.186  33.887  1.00  0.00     0.058 A 
ATOM     94  C   UNL A   1      41.715  27.843  33.549  1.00  0.00     0.135 A 
ATOM     95  C   UNL A   1      42.051  29.494  35.255  1.00  0.00     0.135 A 
ATOM     96  F   UNL A   1      41.705  27.444  32.270  1.00  0.00    -0.206 F 
ATOM     97  C   UNL A   1      41.563  26.855  34.525  1.00  0.00     0.059 A 
ATOM     98  C   UNL A   1      41.934  28.521  36.243  1.00  0.00     0.059 A 
ATOM     99  F   UNL A   1      42.339  30.748  35.642  1.00  0.00    -0.206 F 
ATOM    100  C   UNL A   1      41.692  27.201  35.870  1.00  0.00     0.060 A 
BRANCH 100 101
ATOM    101  S   UNL A   1      41.639  25.899  37.121  1.00  0.00     0.124 S 
ATOM    102  O   UNL A   1      42.734  26.277  38.008  1.00  0.00    -0.237 OA
ATOM    103  O   UNL A   1      40.295  26.046  37.673  1.00  0.00    -0.237 OA
ATOM    104  O   UNL A   1      41.855  24.675  36.351  1.00  0.00    -0.744 OA
ENDBRANCH 100 101
ENDBRANCH  68  93
ENDBRANCH  42  43
ENDBRANCH  34  37
ENDBRANCH  32  33
ENDBRANCH   1  32
TORSDOF 16
ENDMDL
MODEL 2
REMARK VINA RESULT:     -13.5      1.874      3.108
REMARK SMILES C[N@@H+]1CCN(C(=O)c2ccc3[nH]c4c(c3c2)CSCC4)C[C@H]1C(=O)NCCCCNC(=O)c1ccc(-c2c3nc(c(-c4c(F)cc(S(=O)(=O)[O-])cc4F)c4ccc([nH]4)c(-c4c(F)cc(S(=O)(=O)[O-])cc4F)c4nc(c(-c5c(F)cc(S(=O)(=O)[O-])cc5F)c5ccc2[nH]5)C=C4)C=C3)cc1
REMARK SMILES IDX 28 1 27 2 26 3 25 4 23 5 24 6 22 8 1 9 2 10 3 11 4 13 21 14
REMARK SMILES IDX 5 15 6 16 7 17 8 18 9 19 16 20 10 21 15 22 11 23 14 24 12 25
REMARK SMILES IDX 13 26 17 27 20 29 18 30 19 31 29 32 30 33 31 34 32 36 33 37
REMARK SMILES IDX 34 38 98 39 35 40 97 41 36 42 37 43 38 44 91 45 39 46 96 47
REMARK SMILES IDX 90 48 92 49 40 50 95 51 89 52 88 53 41 55 75 56 54 57 74 58
REMARK SMILES IDX 55 59 58 60 73 61 93 62 56 63 57 64 72 66 94 67 59 68 42 69
REMARK SMILES IDX 43 70 52 71 44 72 45 73 51 74 53 75 46 76 47 77 48 78 49 79
REMARK SMILES IDX 50 80 76 81 77 82 86 83 78 84 79 85 85 86 87 87 80 88 81 89
REMARK SMILES IDX 82 90 83 91 84 92 60 93 61 94 70 95 62 96 63 97 69 98 71 99
REMARK SMILES IDX 64 100 65 101 66 102 67 103 68 104
REMARK H PARENT 25 7 2 12 12 28 30 35 92 54 58 65
REMARK Flexibility Score: inf
ROOT
ATOM      1  C   UNL A   1      35.734  21.899  25.828  1.00  0.00     0.023 C 
ENDROOT
BRANCH   1   2
ATOM      2  C   UNL A   1      34.857  22.719  26.778  1.00  0.00     0.023 C 
BRANCH   2   3
ATOM      3  C   UNL A   1      34.002  21.899  27.734  1.00  0.00     0.116 C 
BRANCH   3   4
ATOM      4  N   UNL A   1      32.593  22.251  27.665  1.00  0.00    -0.351 N 
ATOM      5  C   UNL A   1      31.851  22.639  26.588  1.00  0.00     0.280 C 
ATOM      6  O   UNL A   1      30.647  22.854  26.761  1.00  0.00    -0.268 OA
ATOM      7  H   UNL A   1      32.104  22.202  28.518  1.00  0.00     0.163 HD
BRANCH   5   8
ATOM      8  C   UNL A   1      32.466  22.739  25.184  1.00  0.00     0.293 C 
ATOM      9  C   UNL A   1      32.344  20.331  24.760  1.00  0.00     0.333 C 
ATOM     10  N   UNL A   1      31.982  21.664  24.269  1.00  0.00    -0.324 N 
ATOM     11  C   UNL A   1      32.541  21.876  22.917  1.00  0.00     0.284 C 
ATOM     12  H   UNL A   1      30.964  21.713  24.232  1.00  0.00     0.348 HD
ATOM     13  C   UNL A   1      32.240  23.280  22.359  1.00  0.00     0.181 C 
ATOM     14  C   UNL A   1      32.204  24.164  24.655  1.00  0.00     0.195 C 
ATOM     15  N   UNL A   1      32.665  24.344  23.272  1.00  0.00    -0.326 N 
BRANCH  15  16
ATOM     16  C   UNL A   1      33.151  25.531  22.744  1.00  0.00     0.254 C 
ATOM     17  O   UNL A   1      33.900  25.587  21.762  1.00  0.00    -0.269 OA
BRANCH  16  18
ATOM     18  C   UNL A   1      32.734  26.812  23.353  1.00  0.00     0.040 A 
ATOM     19  C   UNL A   1      33.486  27.391  24.378  1.00  0.00     0.016 A 
ATOM     20  C   UNL A   1      31.577  27.431  22.860  1.00  0.00     0.024 A 
ATOM     21  C   UNL A   1      33.056  28.567  24.998  1.00  0.00     0.027 A 
ATOM     22  C   UNL A   1      31.144  28.633  23.454  1.00  0.00     0.004 A 
ATOM     23  C   UNL A   1      31.884  29.160  24.516  1.00  0.00     0.046 A 
ATOM     24  C   UNL A   1      30.055  29.525  23.206  1.00  0.00    -0.009 A 
ATOM     25  N   UNL A   1      31.243  30.307  24.928  1.00  0.00    -0.358 N 
ATOM     26  C   UNL A   1      30.172  30.560  24.116  1.00  0.00     0.021 A 
ATOM     27  C   UNL A   1      29.023  29.411  22.130  1.00  0.00     0.107 C 
ATOM     28  H   UNL A   1      31.516  30.863  25.693  1.00  0.00     0.166 HD
ATOM     29  C   UNL A   1      29.309  31.766  24.230  1.00  0.00     0.065 C 
ATOM     30  S   UNL A   1      27.692  30.667  22.240  1.00  0.00    -0.157 SA
ATOM     31  C   UNL A   1      28.661  32.083  22.878  1.00  0.00     0.076 C 
ENDBRANCH  16  18
ENDBRANCH  15  16
ENDBRANCH   5   8
ENDBRANCH   3   4
ENDBRANCH   2   3
ENDBRANCH   1   2
BRANCH   1  32
ATOM     32  C   UNL A   1      36.959  22.628  25.272  1.00  0.00     0.116 C 
BRANCH  32  33
ATOM     33  N   UNL A   1      38.219  21.942  25.470  1.00  0.00    -0.352 N 
ATOM     34  C   UNL A   1      39.295  22.141  26.289  1.00  0.00     0.251 C 
ATOM     35  H   UNL A   1      38.322  21.157  24.884  1.00  0.00     0.163 HD
ATOM     36  O   UNL A   1      40.092  21.201  26.368  1.00  0.00    -0.269 OA
BRANCH  34  37
ATOM     37  C   UNL A   1      39.604  23.411  27.001  1.00  0.00     0.039 A 
ATOM     38  C   UNL A   1      38.866  24.589  26.915  1.00  0.00     0.014 A 
ATOM     39  C   UNL A   1      40.797  23.419  27.752  1.00  0.00     0.014 A 
ATOM     40  C   UNL A   1      39.365  25.771  27.449  1.00  0.00     0.010 A 
ATOM     41  C   UNL A   1      41.291  24.592  28.309  1.00  0.00     0.010 A 
ATOM     42  C   UNL A   1      40.597  25.779  28.110  1.00  0.00    -0.014 A 
BRANCH  42  43
ATOM     43  C   UNL A   1      41.038  27.036  28.707  1.00  0.00     0.031 A 
ATOM     44  C   UNL A   1      42.267  27.595  28.081  1.00  0.00     0.074 A 
ATOM     45  C   UNL A   1      40.368  27.692  29.676  1.00  0.00     0.049 A 
ATOM     46  N   UNL A   1      43.435  27.730  28.618  1.00  0.00    -0.248 NA
ATOM     47  C   UNL A   1      42.240  27.884  26.638  1.00  0.00     0.031 C 
ATOM     48  C   UNL A   1      39.045  27.395  30.224  1.00  0.00     0.029 A 
ATOM     49  N   UNL A   1      40.716  28.837  30.331  1.00  0.00    -0.354 N 
ATOM     50  C   UNL A   1      44.240  28.324  27.649  1.00  0.00     0.074 A 
ATOM     51  C   UNL A   1      43.509  28.232  26.413  1.00  0.00     0.031 C 
ATOM     52  C   UNL A   1      38.616  28.451  30.952  1.00  0.00     0.029 A 
ATOM     53  C   UNL A   1      39.674  29.444  31.027  1.00  0.00     0.049 A 
ATOM     54  H   UNL A   1      41.630  29.204  30.313  1.00  0.00     0.167 HD
ATOM     55  C   UNL A   1      45.348  29.036  27.994  1.00  0.00     0.037 A 
ATOM     56  C   UNL A   1      39.674  30.689  31.575  1.00  0.00     0.037 A 
ATOM     57  C   UNL A   1      45.776  28.707  29.331  1.00  0.00     0.049 A 
ATOM     58  C   UNL A   1      41.099  31.060  31.795  1.00  0.00     0.074 A 
ATOM     59  C   UNL A   1      46.175  27.541  29.958  1.00  0.00     0.029 A 
ATOM     60  N   UNL A   1      45.481  29.591  30.341  1.00  0.00    -0.354 N 
ATOM     61  N   UNL A   1      41.877  30.461  32.656  1.00  0.00    -0.248 NA
ATOM     62  C   UNL A   1      41.785  31.772  30.726  1.00  0.00     0.031 C 
ATOM     63  C   UNL A   1      45.624  27.623  31.268  1.00  0.00     0.029 A 
ATOM     64  C   UNL A   1      44.987  28.859  31.389  1.00  0.00     0.049 A 
ATOM     65  H   UNL A   1      45.602  30.568  30.315  1.00  0.00     0.167 HD
ATOM     66  C   UNL A   1      43.099  30.348  32.010  1.00  0.00     0.074 A 
ATOM     67  C   UNL A   1      43.004  31.241  30.855  1.00  0.00     0.031 C 
ATOM     68  C   UNL A   1      43.969  29.336  32.299  1.00  0.00     0.037 A 
BRANCH  55  69
ATOM     69  C   UNL A   1      45.820  30.287  27.284  1.00  0.00     0.058 A 
ATOM     70  C   UNL A   1      47.204  30.468  27.065  1.00  0.00     0.135 A 
ATOM     71  C   UNL A   1      45.022  31.435  27.083  1.00  0.00     0.135 A 
ATOM     72  F   UNL A   1      48.062  29.445  27.208  1.00  0.00    -0.206 F 
ATOM     73  C   UNL A   1      47.761  31.715  26.784  1.00  0.00     0.059 A 
ATOM     74  C   UNL A   1      45.553  32.677  26.751  1.00  0.00     0.059 A 
ATOM     75  F   UNL A   1      43.701  31.442  27.286  1.00  0.00    -0.206 F 
ATOM     76  C   UNL A   1      46.926  32.819  26.652  1.00  0.00     0.060 A 
BRANCH  76  77
ATOM     77  S   UNL A   1      47.650  34.449  26.411  1.00  0.00     0.124 S 
ATOM     78  O   UNL A   1      46.954  35.229  27.427  1.00  0.00    -0.237 OA
ATOM     79  O   UNL A   1      49.064  34.188  26.659  1.00  0.00    -0.237 OA
ATOM     80  O   UNL A   1      47.309  34.765  25.026  1.00  0.00    -0.744 OA
ENDBRANCH  76  77
ENDBRANCH  55  69
BRANCH  56  81
ATOM     81  C   UNL A   1      38.562  31.688  31.594  1.00  0.00     0.058 A 
ATOM     82  C   UNL A   1      37.938  32.121  30.406  1.00  0.00     0.135 A 
ATOM     83  C   UNL A   1      37.900  32.038  32.789  1.00  0.00     0.135 A 
ATOM     84  F   UNL A   1      38.478  31.825  29.213  1.00  0.00    -0.206 F 
ATOM     85  C   UNL A   1      36.711  32.802  30.402  1.00  0.00     0.059 A 
ATOM     86  C   UNL A   1      36.685  32.726  32.811  1.00  0.00     0.059 A 
ATOM     87  F   UNL A   1      38.362  31.644  33.983  1.00  0.00    -0.206 F 
ATOM     88  C   UNL A   1      36.080  33.080  31.614  1.00  0.00     0.060 A 
BRANCH  88  89
ATOM     89  S   UNL A   1      34.417  33.795  31.621  1.00  0.00     0.124 S 
ATOM     90  O   UNL A   1      33.708  32.909  32.535  1.00  0.00    -0.237 OA
ATOM     91  O   UNL A   1      34.666  35.148  32.108  1.00  0.00    -0.237 OA
ATOM     92  O   UNL A   1      34.003  33.708  30.222  1.00  0.00    -0.744 OA
ENDBRANCH  88  89
ENDBRANCH  56  81
BRANCH  68  93
ATOM     93  C   UNL A   1      43.725  28.477  33.514  1.00  0.00     0.058 A 
ATOM     94  C   UNL A   1      44.091  28.838  34.823  1.00  0.00     0.135 A 
ATOM     95  C   UNL A   1      42.877  27.366  33.370  1.00  0.00     0.135 A 
ATOM     96  F   UNL A   1      44.820  29.937  35.058  1.00  0.00    -0.206 F 
ATOM     97  C   UNL A   1      43.638  28.126  35.936  1.00  0.00     0.059 A 
ATOM     98  C   UNL A   1      42.389  26.661  34.466  1.00  0.00     0.059 A 
ATOM     99  F   UNL A   1      42.446  27.004  32.151  1.00  0.00    -0.206 F 
ATOM    100  C   UNL A   1      42.772  27.048  35.749  1.00  0.00     0.060 A 
BRANCH 100 101
ATOM    101  S   UNL A   1      42.074  26.221  37.195  1.00  0.00     0.124 S 
ATOM    102  O   UNL A   1      43.102  26.448  38.206  1.00  0.00    -0.237 OA
ATOM    103  O   UNL A   1      40.818  26.938  37.394  1.00  0.00    -0.237 OA
ATOM    104  O   UNL A   1      41.926  24.834  36.757  1.00  0.00    -0.744 OA
ENDBRANCH 100 101
ENDBRANCH  68  93
ENDBRANCH  42  43
ENDBRANCH  34  37
ENDBRANCH  32  33
ENDBRANCH   1  32
TORSDOF 16
ENDMDL
MODEL 3
REMARK VINA RESULT:     -13.0      1.891      2.681
REMARK SMILES C[N@@H+]1CCN(C(=O)c2ccc3[nH]c4c(c3c2)CSCC4)C[C@H]1C(=O)NCCCCNC(=O)c1ccc(-c2c3nc(c(-c4c(F)cc(S(=O)(=O)[O-])cc4F)c4ccc([nH]4)c(-c4c(F)cc(S(=O)(=O)[O-])cc4F)c4nc(c(-c5c(F)cc(S(=O)(=O)[O-])cc5F)c5ccc2[nH]5)C=C4)C=C3)cc1
REMARK SMILES IDX 28 1 27 2 26 3 25 4 23 5 24 6 22 8 1 9 2 10 3 11 4 13 21 14
REMARK SMILES IDX 5 15 6 16 7 17 8 18 9 19 16 20 10 21 15 22 11 23 14 24 12 25
REMARK SMILES IDX 13 26 17 27 20 29 18 30 19 31 29 32 30 33 31 34 32 36 33 37
REMARK SMILES IDX 34 38 98 39 35 40 97 41 36 42 37 43 38 44 91 45 39 46 96 47
REMARK SMILES IDX 90 48 92 49 40 50 95 51 89 52 88 53 41 55 75 56 54 57 74 58
REMARK SMILES IDX 55 59 58 60 73 61 93 62 56 63 57 64 72 66 94 67 59 68 42 69
REMARK SMILES IDX 43 70 52 71 44 72 45 73 51 74 53 75 46 76 47 77 48 78 49 79
REMARK SMILES IDX 50 80 76 81 77 82 86 83 78 84 79 85 85 86 87 87 80 88 81 89
REMARK SMILES IDX 82 90 83 91 84 92 60 93 61 94 70 95 62 96 63 97 69 98 71 99
REMARK SMILES IDX 64 100 65 101 66 102 67 103 68 104
REMARK H PARENT 25 7 2 12 12 28 30 35 92 54 58 65
REMARK Flexibility Score: inf
ROOT
ATOM      1  C   UNL A   1      36.630  21.758  24.576  1.00  0.00     0.023 C 
ENDROOT
BRANCH   1   2
ATOM      2  C   UNL A   1      35.997  22.907  23.787  1.00  0.00     0.023 C 
BRANCH   2   3
ATOM      3  C   UNL A   1      34.514  22.741  23.487  1.00  0.00     0.116 C 
BRANCH   3   4
ATOM      4  N   UNL A   1      34.109  23.436  22.276  1.00  0.00    -0.351 N 
ATOM      5  C   UNL A   1      33.219  24.459  22.122  1.00  0.00     0.280 C 
ATOM      6  O   UNL A   1      33.059  24.923  20.989  1.00  0.00    -0.268 OA
ATOM      7  H   UNL A   1      34.540  23.125  21.448  1.00  0.00     0.163 HD
BRANCH   5   8
ATOM      8  C   UNL A   1      32.485  25.070  23.325  1.00  0.00     0.293 C 
ATOM      9  C   UNL A   1      30.696  23.399  23.316  1.00  0.00     0.333 C 
ATOM     10  N   UNL A   1      31.736  24.051  24.118  1.00  0.00    -0.324 N 
ATOM     11  C   UNL A   1      31.133  24.693  25.306  1.00  0.00     0.284 C 
ATOM     12  H   UNL A   1      32.395  23.330  24.412  1.00  0.00     0.348 HD
ATOM     13  C   UNL A   1      32.166  25.442  26.169  1.00  0.00     0.181 C 
ATOM     14  C   UNL A   1      33.517  25.861  24.155  1.00  0.00     0.195 C 
ATOM     15  N   UNL A   1      32.943  26.410  25.390  1.00  0.00    -0.326 N 
BRANCH  15  16
ATOM     16  C   UNL A   1      33.338  27.596  25.992  1.00  0.00     0.254 C 
ATOM     17  O   UNL A   1      34.359  27.708  26.679  1.00  0.00    -0.269 OA
BRANCH  16  18
ATOM     18  C   UNL A   1      32.524  28.812  25.783  1.00  0.00     0.040 A 
ATOM     19  C   UNL A   1      32.666  29.918  26.626  1.00  0.00     0.016 A 
ATOM     20  C   UNL A   1      31.624  28.828  24.709  1.00  0.00     0.024 A 
ATOM     21  C   UNL A   1      31.850  31.041  26.469  1.00  0.00     0.027 A 
ATOM     22  C   UNL A   1      30.813  29.963  24.517  1.00  0.00     0.004 A 
ATOM     23  C   UNL A   1      30.935  31.032  25.410  1.00  0.00     0.046 A 
ATOM     24  C   UNL A   1      29.829  30.327  23.546  1.00  0.00    -0.009 A 
ATOM     25  N   UNL A   1      30.026  31.991  25.022  1.00  0.00    -0.358 N 
ATOM     26  C   UNL A   1      29.394  31.597  23.877  1.00  0.00     0.021 A 
ATOM     27  C   UNL A   1      29.397  29.528  22.358  1.00  0.00     0.107 C 
ATOM     28  H   UNL A   1      29.859  32.835  25.499  1.00  0.00     0.166 HD
ATOM     29  C   UNL A   1      28.408  32.435  23.141  1.00  0.00     0.065 C 
ATOM     30  S   UNL A   1      27.991  30.264  21.440  1.00  0.00    -0.157 SA
ATOM     31  C   UNL A   1      28.378  32.040  21.661  1.00  0.00     0.076 C 
ENDBRANCH  16  18
ENDBRANCH  15  16
ENDBRANCH   5   8
ENDBRANCH   3   4
ENDBRANCH   2   3
ENDBRANCH   1   2
BRANCH   1  32
ATOM     32  C   UNL A   1      37.466  22.176  25.788  1.00  0.00     0.116 C 
BRANCH  32  33
ATOM     33  N   UNL A   1      38.879  21.870  25.688  1.00  0.00    -0.352 N 
ATOM     34  C   UNL A   1      40.002  22.335  26.314  1.00  0.00     0.251 C 
ATOM     35  H   UNL A   1      39.072  21.172  25.022  1.00  0.00     0.163 HD
ATOM     36  O   UNL A   1      41.023  21.660  26.159  1.00  0.00    -0.269 OA
BRANCH  34  37
ATOM     37  C   UNL A   1      40.089  23.611  27.076  1.00  0.00     0.039 A 
ATOM     38  C   UNL A   1      39.119  24.611  27.098  1.00  0.00     0.014 A 
ATOM     39  C   UNL A   1      41.303  23.838  27.757  1.00  0.00     0.014 A 
ATOM     40  C   UNL A   1      39.399  25.848  27.666  1.00  0.00     0.010 A 
ATOM     41  C   UNL A   1      41.580  25.064  28.348  1.00  0.00     0.010 A 
ATOM     42  C   UNL A   1      40.644  26.086  28.255  1.00  0.00    -0.014 A 
BRANCH  42  43
ATOM     43  C   UNL A   1      40.855  27.382  28.893  1.00  0.00     0.031 A 
ATOM     44  C   UNL A   1      41.976  28.163  28.302  1.00  0.00     0.074 A 
ATOM     45  C   UNL A   1      40.072  27.884  29.870  1.00  0.00     0.049 A 
ATOM     46  N   UNL A   1      43.097  28.481  28.861  1.00  0.00    -0.248 NA
ATOM     47  C   UNL A   1      41.914  28.486  26.868  1.00  0.00     0.031 C 
ATOM     48  C   UNL A   1      38.815  27.347  30.389  1.00  0.00     0.029 A 
ATOM     49  N   UNL A   1      40.211  29.051  30.561  1.00  0.00    -0.354 N 
ATOM     50  C   UNL A   1      43.798  29.234  27.921  1.00  0.00     0.074 A 
ATOM     51  C   UNL A   1      43.106  29.054  26.672  1.00  0.00     0.031 C 
ATOM     52  C   UNL A   1      38.202  28.291  31.139  1.00  0.00     0.029 A 
ATOM     53  C   UNL A   1      39.072  29.448  31.258  1.00  0.00     0.049 A 
ATOM     54  H   UNL A   1      41.047  29.570  30.568  1.00  0.00     0.167 HD
ATOM     55  C   UNL A   1      44.763  30.116  28.303  1.00  0.00     0.037 A 
ATOM     56  C   UNL A   1      38.851  30.657  31.841  1.00  0.00     0.037 A 
ATOM     57  C   UNL A   1      45.227  29.824  29.637  1.00  0.00     0.049 A 
ATOM     58  C   UNL A   1      40.188  31.261  32.093  1.00  0.00     0.074 A 
ATOM     59  C   UNL A   1      45.815  28.726  30.237  1.00  0.00     0.029 A 
ATOM     60  N   UNL A   1      44.773  30.614  30.666  1.00  0.00    -0.354 N 
ATOM     61  N   UNL A   1      41.049  30.780  32.949  1.00  0.00    -0.248 NA
ATOM     62  C   UNL A   1      40.753  32.113  31.055  1.00  0.00     0.031 C 
ATOM     63  C   UNL A   1      45.244  28.672  31.540  1.00  0.00     0.029 A 
ATOM     64  C   UNL A   1      44.403  29.777  31.685  1.00  0.00     0.049 A 
ATOM     65  H   UNL A   1      44.724  31.597  30.670  1.00  0.00     0.167 HD
ATOM     66  C   UNL A   1      42.279  30.898  32.319  1.00  0.00     0.074 A 
ATOM     67  C   UNL A   1      42.043  31.796  31.188  1.00  0.00     0.031 C 
ATOM     68  C   UNL A   1      43.308  30.043  32.593  1.00  0.00     0.037 A 
BRANCH  55  69
ATOM     69  C   UNL A   1      45.018  31.450  27.635  1.00  0.00     0.058 A 
ATOM     70  C   UNL A   1      46.258  31.666  26.993  1.00  0.00     0.135 A 
ATOM     71  C   UNL A   1      44.242  32.609  27.853  1.00  0.00     0.135 A 
ATOM     72  F   UNL A   1      47.077  30.638  26.716  1.00  0.00    -0.206 F 
ATOM     73  C   UNL A   1      46.737  32.942  26.697  1.00  0.00     0.059 A 
ATOM     74  C   UNL A   1      44.679  33.887  27.518  1.00  0.00     0.059 A 
ATOM     75  F   UNL A   1      43.063  32.582  28.483  1.00  0.00    -0.206 F 
ATOM     76  C   UNL A   1      45.946  34.048  26.986  1.00  0.00     0.060 A 
BRANCH  76  77
ATOM     77  S   UNL A   1      46.609  35.700  26.720  1.00  0.00     0.124 S 
ATOM     78  O   UNL A   1      45.389  36.488  26.604  1.00  0.00    -0.237 OA
ATOM     79  O   UNL A   1      47.394  35.906  27.932  1.00  0.00    -0.237 OA
ATOM     80  O   UNL A   1      47.388  35.554  25.492  1.00  0.00    -0.744 OA
ENDBRANCH  76  77
ENDBRANCH  55  69
BRANCH  56  81
ATOM     81  C   UNL A   1      37.584  31.449  31.870  1.00  0.00     0.058 A 
ATOM     82  C   UNL A   1      36.931  31.754  33.082  1.00  0.00     0.135 A 
ATOM     83  C   UNL A   1      37.127  32.159  30.740  1.00  0.00     0.135 A 
ATOM     84  F   UNL A   1      37.300  31.147  34.220  1.00  0.00    -0.206 F 
ATOM     85  C   UNL A   1      35.934  32.739  33.176  1.00  0.00     0.059 A 
ATOM     86  C   UNL A   1      36.130  33.133  30.806  1.00  0.00     0.059 A 
ATOM     87  F   UNL A   1      37.698  31.999  29.539  1.00  0.00    -0.206 F 
ATOM     88  C   UNL A   1      35.556  33.440  32.032  1.00  0.00     0.060 A 
BRANCH  88  89
ATOM     89  S   UNL A   1      34.407  34.832  32.167  1.00  0.00     0.124 S 
ATOM     90  O   UNL A   1      34.136  35.140  30.768  1.00  0.00    -0.237 OA
ATOM     91  O   UNL A   1      33.301  34.245  32.917  1.00  0.00    -0.237 OA
ATOM     92  O   UNL A   1      35.178  35.841  32.890  1.00  0.00    -0.744 OA
ENDBRANCH  88  89
ENDBRANCH  56  81
BRANCH  68  93
ATOM     93  C   UNL A   1      43.203  29.119  33.779  1.00  0.00     0.058 A 
ATOM     94  C   UNL A   1      42.559  27.869  33.752  1.00  0.00     0.135 A 
ATOM     95  C   UNL A   1      43.989  29.409  34.907  1.00  0.00     0.135 A 
ATOM     96  F   UNL A   1      41.864  27.473  32.677  1.00  0.00    -0.206 F 
ATOM     97  C   UNL A   1      42.688  26.952  34.799  1.00  0.00     0.059 A 
ATOM     98  C   UNL A   1      44.157  28.499  35.946  1.00  0.00     0.059 A 
ATOM     99  F   UNL A   1      44.674  30.563  34.969  1.00  0.00    -0.206 F 
ATOM    100  C   UNL A   1      43.505  27.269  35.884  1.00  0.00     0.060 A 
BRANCH 100 101
ATOM    101  S   UNL A   1      43.784  26.026  37.165  1.00  0.00     0.124 S 
ATOM    102  O   UNL A   1      45.134  26.348  37.618  1.00  0.00    -0.237 OA
ATOM    103  O   UNL A   1      42.712  26.306  38.115  1.00  0.00    -0.237 OA
ATOM    104  O   UNL A   1      43.653  24.760  36.447  1.00  0.00    -0.744 OA
ENDBRANCH 100 101
ENDBRANCH  68  93
ENDBRANCH  42  43
ENDBRANCH  34  37
ENDBRANCH  32  33
ENDBRANCH   1  32
TORSDOF 16
ENDMDL
