MODEL 1
REMARK VINA RESULT:     -10.8      0.000      0.000
REMARK SMILES [NH3+][C@](CCC[P@TB4](=O)([O-])[O-])(Cc1ccccc1)C(=O)NCCCCNC(=O)c1ccc(-c2c3nc(c(-c4c(F)cc(S(=O)(=O)[O-])cc4F)c4ccc([nH]4)c(-c4c(F)cc(S(=O)(=O)[O-])cc4F)c4nc(c(-c5c(F)cc(S(=O)(=O)[O-])cc5F)c5ccc2[nH]5)C=C4)C=C3)cc1
REMARK SMILES IDX 21 1 20 2 19 3 17 4 18 5 2 7 1 8 10 12 11 13 12 14 16 15
REMARK SMILES IDX 13 16 15 17 14 18 3 19 4 20 5 21 6 22 7 23 8 24 9 25 22 26
REMARK SMILES IDX 23 27 24 28 25 29 26 31 27 32 28 33 92 34 29 35 91 36 30 37
REMARK SMILES IDX 31 38 32 39 85 40 33 41 90 42 84 43 86 44 34 45 89 46 83 47
REMARK SMILES IDX 82 48 35 50 69 51 48 52 68 53 49 54 52 55 67 56 87 57 50 58
REMARK SMILES IDX 51 59 66 61 88 62 53 63 36 64 37 65 46 66 38 67 39 68 45 69
REMARK SMILES IDX 47 70 40 71 41 72 42 73 43 74 44 75 70 76 71 77 80 78 72 79
REMARK SMILES IDX 73 80 79 81 81 82 74 83 75 84 76 85 77 86 78 87 54 88 55 89
REMARK SMILES IDX 64 90 56 91 57 92 63 93 65 94 58 95 59 96 60 97 61 98 62 99
REMARK H PARENT 19 6 1 9 1 10 1 11 24 30 86 49 52 60
REMARK Flexibility Score: inf
ROOT
ATOM      1  C   UNL A   1      33.421  28.123  25.995  1.00  0.00       nan C 
ENDROOT
BRANCH   1   2
ATOM      2  C   UNL A   1      33.862  26.661  26.107  1.00  0.00       nan C 
BRANCH   2   3
ATOM      3  N   UNL A   1      32.994  25.804  25.327  1.00  0.00       nan N 
ATOM      4  C   UNL A   1      33.530  25.088  24.280  1.00  0.00       nan C 
ATOM      5  O   UNL A   1      33.209  25.442  23.145  1.00  0.00       nan OA
ATOM      6  H   UNL A   1      32.036  25.734  25.541  1.00  0.00       nan HD
BRANCH   4   7
ATOM      7  C   UNL A   1      34.352  23.799  24.608  1.00  0.00       nan C 
BRANCH   7   8
ATOM      8  N   UNL A   1      34.358  23.564  26.089  1.00  0.00       nan N 
ATOM      9  H   UNL A   1      34.220  22.570  26.275  1.00  0.00       nan HD
ATOM     10  H   UNL A   1      33.604  24.098  26.522  1.00  0.00       nan HD
ATOM     11  H   UNL A   1      35.252  23.862  26.478  1.00  0.00       nan HD
ENDBRANCH   7   8
BRANCH   7  12
ATOM     12  C   UNL A   1      35.831  23.982  24.153  1.00  0.00       nan C 
BRANCH  12  13
ATOM     13  C   UNL A   1      36.872  23.152  24.883  1.00  0.00       nan A 
ATOM     14  C   UNL A   1      37.041  21.792  24.590  1.00  0.00       nan A 
ATOM     15  C   UNL A   1      37.750  23.753  25.798  1.00  0.00       nan A 
ATOM     16  C   UNL A   1      38.114  21.077  25.126  1.00  0.00       nan A 
ATOM     17  C   UNL A   1      38.825  23.040  26.331  1.00  0.00       nan A 
ATOM     18  C   UNL A   1      39.016  21.706  25.984  1.00  0.00       nan A 
ENDBRANCH  12  13
ENDBRANCH   7  12
BRANCH   7  19
ATOM     19  C   UNL A   1      33.677  22.544  23.982  1.00  0.00       nan C 
BRANCH  19  20
ATOM     20  C   UNL A   1      32.215  22.281  24.365  1.00  0.00       nan C 
BRANCH  20  21
ATOM     21  C   UNL A   1      31.951  22.057  25.858  1.00  0.00       nan C 
BRANCH  21  22
ATOM     22  P   UNL A   1      30.634  23.113  26.563  1.00  0.00       nan P 
ATOM     23  O   UNL A   1      31.647  23.821  27.461  1.00  0.00       nan OA
ATOM     24  O   UNL A   1      30.543  23.997  25.212  1.00  0.00       nan OA
ATOM     25  O   UNL A   1      29.389  24.112  27.231  1.00  0.00       nan OA
ENDBRANCH  21  22
ENDBRANCH  20  21
ENDBRANCH  19  20
ENDBRANCH   7  19
ENDBRANCH   4   7
ENDBRANCH   2   3
ENDBRANCH   1   2
BRANCH   1  26
ATOM     26  C   UNL A   1      33.589  28.937  27.284  1.00  0.00       nan C 
BRANCH  26  27
ATOM     27  C   UNL A   1      35.031  29.306  27.615  1.00  0.00       nan C 
BRANCH  27  28
ATOM     28  N   UNL A   1      35.109  30.256  28.717  1.00  0.00       nan N 
ATOM     29  C   UNL A   1      36.139  30.495  29.593  1.00  0.00       inf C 
ATOM     30  H   UNL A   1      34.306  30.807  28.853  1.00  0.00       inf HD
ATOM     31  O   UNL A   1      35.960  31.177  30.586  1.00  0.00    -0.269 OA
BRANCH  29  32
ATOM     32  C   UNL A   1      37.457  29.896  29.314  1.00  0.00     0.039 A 
ATOM     33  C   UNL A   1      37.897  29.815  27.993  1.00  0.00     0.014 A 
ATOM     34  C   UNL A   1      38.261  29.453  30.369  1.00  0.00     0.014 A 
ATOM     35  C   UNL A   1      39.186  29.353  27.730  1.00  0.00     0.010 A 
ATOM     36  C   UNL A   1      39.565  29.055  30.111  1.00  0.00     0.010 A 
ATOM     37  C   UNL A   1      40.041  29.010  28.791  1.00  0.00    -0.014 A 
BRANCH  37  38
ATOM     38  C   UNL A   1      41.450  28.626  28.553  1.00  0.00     0.031 A 
ATOM     39  C   UNL A   1      42.526  29.671  28.582  1.00  0.00     0.074 A 
ATOM     40  C   UNL A   1      41.739  27.352  28.222  1.00  0.00     0.049 A 
ATOM     41  N   UNL A   1      43.794  29.558  28.288  1.00  0.00    -0.248 NA
ATOM     42  C   UNL A   1      42.114  31.030  28.967  1.00  0.00     0.031 C 
ATOM     43  C   UNL A   1      40.764  26.261  28.130  1.00  0.00     0.029 A 
ATOM     44  N   UNL A   1      42.929  26.762  27.886  1.00  0.00    -0.354 N 
ATOM     45  C   UNL A   1      44.331  30.829  28.443  1.00  0.00     0.074 A 
ATOM     46  C   UNL A   1      43.241  31.709  28.805  1.00  0.00     0.031 C 
ATOM     47  C   UNL A   1      41.400  25.132  27.780  1.00  0.00     0.029 A 
ATOM     48  C   UNL A   1      42.816  25.427  27.578  1.00  0.00     0.049 A 
ATOM     49  H   UNL A   1      43.785  27.249  27.866  1.00  0.00     0.167 HD
ATOM     50  C   UNL A   1      45.621  31.221  28.315  1.00  0.00     0.037 A 
ATOM     51  C   UNL A   1      43.745  24.545  27.162  1.00  0.00     0.037 A 
ATOM     52  C   UNL A   1      46.696  30.332  27.963  1.00  0.00     0.049 A 
ATOM     53  C   UNL A   1      45.162  25.014  26.981  1.00  0.00     0.074 A 
ATOM     54  C   UNL A   1      48.047  30.613  27.861  1.00  0.00     0.029 A 
ATOM     55  N   UNL A   1      46.541  28.990  27.647  1.00  0.00    -0.354 N 
ATOM     56  N   UNL A   1      45.667  26.206  27.189  1.00  0.00    -0.248 NA
ATOM     57  C   UNL A   1      46.133  24.023  26.498  1.00  0.00     0.031 C 
ATOM     58  C   UNL A   1      48.702  29.451  27.438  1.00  0.00     0.029 A 
ATOM     59  C   UNL A   1      47.766  28.435  27.319  1.00  0.00     0.049 A 
ATOM     60  H   UNL A   1      45.685  28.503  27.656  1.00  0.00     0.167 HD
ATOM     61  C   UNL A   1      47.019  26.106  26.879  1.00  0.00     0.074 A 
ATOM     62  C   UNL A   1      47.254  24.732  26.481  1.00  0.00     0.031 C 
ATOM     63  C   UNL A   1      47.977  27.064  26.921  1.00  0.00     0.037 A 
BRANCH  50  64
ATOM     64  C   UNL A   1      45.928  32.674  28.555  1.00  0.00     0.058 A 
ATOM     65  C   UNL A   1      45.939  33.605  27.504  1.00  0.00     0.135 A 
ATOM     66  C   UNL A   1      46.214  33.141  29.847  1.00  0.00     0.135 A 
ATOM     67  F   UNL A   1      45.688  33.209  26.246  1.00  0.00    -0.206 F 
ATOM     68  C   UNL A   1      46.264  34.940  27.718  1.00  0.00     0.059 A 
ATOM     69  C   UNL A   1      46.515  34.479  30.089  1.00  0.00     0.059 A 
ATOM     70  F   UNL A   1      46.218  32.294  30.888  1.00  0.00    -0.206 F 
ATOM     71  C   UNL A   1      46.558  35.366  29.015  1.00  0.00     0.060 A 
BRANCH  71  72
ATOM     72  S   UNL A   1      47.003  37.097  29.272  1.00  0.00     0.124 S 
ATOM     73  O   UNL A   1      47.560  37.449  27.970  1.00  0.00    -0.237 OA
ATOM     74  O   UNL A   1      45.718  37.706  29.598  1.00  0.00    -0.237 OA
ATOM     75  O   UNL A   1      47.963  37.040  30.372  1.00  0.00    -0.744 OA
ENDBRANCH  71  72
ENDBRANCH  50  64
BRANCH  51  76
ATOM     76  C   UNL A   1      43.362  23.132  26.910  1.00  0.00     0.058 A 
ATOM     77  C   UNL A   1      43.291  22.633  25.602  1.00  0.00     0.135 A 
ATOM     78  C   UNL A   1      43.098  22.243  27.965  1.00  0.00     0.135 A 
ATOM     79  F   UNL A   1      43.529  23.446  24.561  1.00  0.00    -0.206 F 
ATOM     80  C   UNL A   1      42.968  21.305  25.345  1.00  0.00     0.059 A 
ATOM     81  C   UNL A   1      42.795  20.905  27.735  1.00  0.00     0.059 A 
ATOM     82  F   UNL A   1      43.168  22.669  29.236  1.00  0.00    -0.206 F 
ATOM     83  C   UNL A   1      42.728  20.447  26.419  1.00  0.00     0.060 A 
BRANCH  83  84
ATOM     84  S   UNL A   1      42.375  18.708  26.075  1.00  0.00     0.124 S 
ATOM     85  O   UNL A   1      40.973  18.767  25.678  1.00  0.00    -0.237 OA
ATOM     86  O   UNL A   1      43.329  18.408  25.010  1.00  0.00    -0.237 OA
ATOM     87  O   UNL A   1      42.645  18.052  27.351  1.00  0.00    -0.744 OA
ENDBRANCH  83  84
ENDBRANCH  51  76
BRANCH  63  88
ATOM     88  C   UNL A   1      49.373  26.664  26.534  1.00  0.00     0.058 A 
ATOM     89  C   UNL A   1      50.229  26.026  27.445  1.00  0.00     0.135 A 
ATOM     90  C   UNL A   1      49.829  26.848  25.219  1.00  0.00     0.135 A 
ATOM     91  F   UNL A   1      49.842  25.838  28.717  1.00  0.00    -0.206 F 
ATOM     92  C   UNL A   1      51.492  25.586  27.065  1.00  0.00     0.059 A 
ATOM     93  C   UNL A   1      51.079  26.393  24.812  1.00  0.00     0.059 A 
ATOM     94  F   UNL A   1      49.045  27.448  24.309  1.00  0.00    -0.206 F 
ATOM     95  C   UNL A   1      51.905  25.767  25.744  1.00  0.00     0.060 A 
BRANCH  95  96
ATOM     96  S   UNL A   1      53.519  25.128  25.249  1.00  0.00     0.124 S 
ATOM     97  O   UNL A   1      53.309  23.687  25.353  1.00  0.00    -0.237 OA
ATOM     98  O   UNL A   1      53.661  25.652  23.895  1.00  0.00    -0.237 OA
ATOM     99  O   UNL A   1      54.429  25.702  26.236  1.00  0.00    -0.744 OA
ENDBRANCH  95  96
ENDBRANCH  63  88
ENDBRANCH  37  38
ENDBRANCH  29  32
ENDBRANCH  27  28
ENDBRANCH  26  27
ENDBRANCH   1  26
TORSDOF 21
ENDMDL
MODEL 2
REMARK VINA RESULT:     -10.7      4.063      6.856
REMARK SMILES [NH3+][C@](CCC[P@TB4](=O)([O-])[O-])(Cc1ccccc1)C(=O)NCCCCNC(=O)c1ccc(-c2c3nc(c(-c4c(F)cc(S(=O)(=O)[O-])cc4F)c4ccc([nH]4)c(-c4c(F)cc(S(=O)(=O)[O-])cc4F)c4nc(c(-c5c(F)cc(S(=O)(=O)[O-])cc5F)c5ccc2[nH]5)C=C4)C=C3)cc1
REMARK SMILES IDX 21 1 20 2 19 3 17 4 18 5 2 7 1 8 10 12 11 13 12 14 16 15
REMARK SMILES IDX 13 16 15 17 14 18 3 19 4 20 5 21 6 22 7 23 8 24 9 25 22 26
REMARK SMILES IDX 23 27 24 28 25 29 26 31 27 32 28 33 92 34 29 35 91 36 30 37
REMARK SMILES IDX 31 38 32 39 85 40 33 41 90 42 84 43 86 44 34 45 89 46 83 47
REMARK SMILES IDX 82 48 35 50 69 51 48 52 68 53 49 54 52 55 67 56 87 57 50 58
REMARK SMILES IDX 51 59 66 61 88 62 53 63 36 64 37 65 46 66 38 67 39 68 45 69
REMARK SMILES IDX 47 70 40 71 41 72 42 73 43 74 44 75 70 76 71 77 80 78 72 79
REMARK SMILES IDX 73 80 79 81 81 82 74 83 75 84 76 85 77 86 78 87 54 88 55 89
REMARK SMILES IDX 64 90 56 91 57 92 63 93 65 94 58 95 59 96 60 97 61 98 62 99
REMARK H PARENT 19 6 1 9 1 10 1 11 24 30 86 49 52 60
REMARK Flexibility Score: inf
ROOT
ATOM      1  C   UNL A   1      37.440  33.623  29.462  1.00  0.00       nan C 
ENDROOT
BRANCH   1   2
ATOM      2  C   UNL A   1      37.221  34.552  30.660  1.00  0.00       nan C 
BRANCH   2   3
ATOM      3  N   UNL A   1      38.147  34.236  31.728  1.00  0.00       nan N 
ATOM      4  C   UNL A   1      37.667  34.121  33.013  1.00  0.00       nan C 
ATOM      5  O   UNL A   1      37.986  35.009  33.805  1.00  0.00       nan OA
ATOM      6  H   UNL A   1      39.104  34.106  31.538  1.00  0.00       nan HD
BRANCH   4   7
ATOM      7  C   UNL A   1      36.912  32.810  33.406  1.00  0.00       nan C 
BRANCH   7   8
ATOM      8  N   UNL A   1      37.143  32.505  34.856  1.00  0.00       nan N 
ATOM      9  H   UNL A   1      38.143  32.541  35.055  1.00  0.00       nan HD
ATOM     10  H   UNL A   1      36.788  31.573  35.069  1.00  0.00       nan HD
ATOM     11  H   UNL A   1      36.657  33.194  35.430  1.00  0.00       nan HD
ENDBRANCH   7   8
BRANCH   7  12
ATOM     12  C   UNL A   1      37.462  31.610  32.577  1.00  0.00       nan C 
BRANCH  12  13
ATOM     13  C   UNL A   1      38.738  30.964  33.088  1.00  0.00       nan A 
ATOM     14  C   UNL A   1      38.893  29.571  33.070  1.00  0.00       nan A 
ATOM     15  C   UNL A   1      39.823  31.752  33.499  1.00  0.00       nan A 
ATOM     16  C   UNL A   1      40.128  28.989  33.365  1.00  0.00       nan A 
ATOM     17  C   UNL A   1      41.059  31.172  33.790  1.00  0.00       nan A 
ATOM     18  C   UNL A   1      41.216  29.792  33.709  1.00  0.00       nan A 
ENDBRANCH  12  13
ENDBRANCH   7  12
BRANCH   7  19
ATOM     19  C   UNL A   1      35.374  32.996  33.253  1.00  0.00       nan C 
BRANCH  19  20
ATOM     20  C   UNL A   1      34.791  34.344  33.697  1.00  0.00       nan C 
BRANCH  20  21
ATOM     21  C   UNL A   1      33.676  34.908  32.810  1.00  0.00       nan C 
BRANCH  21  22
ATOM     22  P   UNL A   1      33.687  36.730  32.643  1.00  0.00       nan P 
ATOM     23  O   UNL A   1      33.698  36.615  31.119  1.00  0.00       nan OA
ATOM     24  O   UNL A   1      32.130  36.833  33.069  1.00  0.00       nan OA
ATOM     25  O   UNL A   1      33.697  38.452  32.483  1.00  0.00       nan OA
ENDBRANCH  21  22
ENDBRANCH  20  21
ENDBRANCH  19  20
ENDBRANCH   7  19
ENDBRANCH   4   7
ENDBRANCH   2   3
ENDBRANCH   1   2
BRANCH   1  26
ATOM     26  C   UNL A   1      36.154  33.213  28.734  1.00  0.00       nan C 
BRANCH  26  27
ATOM     27  C   UNL A   1      35.092  32.585  29.630  1.00  0.00       nan C 
BRANCH  27  28
ATOM     28  N   UNL A   1      34.248  31.649  28.899  1.00  0.00       nan N 
ATOM     29  C   UNL A   1      34.594  30.503  28.229  1.00  0.00       inf C 
ATOM     30  H   UNL A   1      33.290  31.872  28.885  1.00  0.00       inf HD
ATOM     31  O   UNL A   1      33.793  29.951  27.495  1.00  0.00    -0.269 OA
BRANCH  29  32
ATOM     32  C   UNL A   1      35.955  29.965  28.403  1.00  0.00     0.039 A 
ATOM     33  C   UNL A   1      36.848  30.025  27.333  1.00  0.00     0.014 A 
ATOM     34  C   UNL A   1      36.347  29.439  29.638  1.00  0.00     0.014 A 
ATOM     35  C   UNL A   1      38.169  29.621  27.523  1.00  0.00     0.010 A 
ATOM     36  C   UNL A   1      37.676  29.099  29.843  1.00  0.00     0.010 A 
ATOM     37  C   UNL A   1      38.599  29.195  28.790  1.00  0.00    -0.014 A 
BRANCH  37  38
ATOM     38  C   UNL A   1      40.019  28.868  29.053  1.00  0.00     0.031 A 
ATOM     39  C   UNL A   1      40.939  29.918  29.605  1.00  0.00     0.074 A 
ATOM     40  C   UNL A   1      40.491  27.654  28.708  1.00  0.00     0.049 A 
ATOM     41  N   UNL A   1      42.230  29.866  29.796  1.00  0.00    -0.248 NA
ATOM     42  C   UNL A   1      40.326  31.208  29.963  1.00  0.00     0.031 C 
ATOM     43  C   UNL A   1      39.692  26.570  28.131  1.00  0.00     0.029 A 
ATOM     44  N   UNL A   1      41.757  27.134  28.775  1.00  0.00    -0.354 N 
ATOM     45  C   UNL A   1      42.589  31.114  30.287  1.00  0.00     0.074 A 
ATOM     46  C   UNL A   1      41.387  31.920  30.315  1.00  0.00     0.031 C 
ATOM     47  C   UNL A   1      40.484  25.507  27.916  1.00  0.00     0.029 A 
ATOM     48  C   UNL A   1      41.852  25.850  28.293  1.00  0.00     0.049 A 
ATOM     49  H   UNL A   1      42.527  27.633  29.134  1.00  0.00     0.167 HD
ATOM     50  C   UNL A   1      43.806  31.540  30.697  1.00  0.00     0.037 A 
ATOM     51  C   UNL A   1      42.924  25.046  28.155  1.00  0.00     0.037 A 
ATOM     52  C   UNL A   1      44.990  30.724  30.672  1.00  0.00     0.049 A 
ATOM     53  C   UNL A   1      44.274  25.558  28.573  1.00  0.00     0.074 A 
ATOM     54  C   UNL A   1      46.263  31.037  31.116  1.00  0.00     0.029 A 
ATOM     55  N   UNL A   1      45.050  29.432  30.166  1.00  0.00    -0.354 N 
ATOM     56  N   UNL A   1      44.588  26.720  29.093  1.00  0.00    -0.248 NA
ATOM     57  C   UNL A   1      45.416  24.655  28.377  1.00  0.00     0.031 C 
ATOM     58  C   UNL A   1      47.101  29.953  30.837  1.00  0.00     0.029 A 
ATOM     59  C   UNL A   1      46.343  28.946  30.258  1.00  0.00     0.049 A 
ATOM     60  H   UNL A   1      44.285  28.935  29.797  1.00  0.00     0.167 HD
ATOM     61  C   UNL A   1      45.963  26.684  29.302  1.00  0.00     0.074 A 
ATOM     62  C   UNL A   1      46.416  25.379  28.863  1.00  0.00     0.031 C 
ATOM     63  C   UNL A   1      46.774  27.644  29.811  1.00  0.00     0.037 A 
BRANCH  50  64
ATOM     64  C   UNL A   1      43.909  32.953  31.203  1.00  0.00     0.058 A 
ATOM     65  C   UNL A   1      43.958  34.046  30.323  1.00  0.00     0.135 A 
ATOM     66  C   UNL A   1      43.959  33.219  32.580  1.00  0.00     0.135 A 
ATOM     67  F   UNL A   1      43.929  33.848  28.995  1.00  0.00    -0.206 F 
ATOM     68  C   UNL A   1      44.095  35.350  30.787  1.00  0.00     0.059 A 
ATOM     69  C   UNL A   1      44.067  34.518  33.069  1.00  0.00     0.059 A 
ATOM     70  F   UNL A   1      43.916  32.212  33.466  1.00  0.00    -0.206 F 
ATOM     71  C   UNL A   1      44.156  35.575  32.164  1.00  0.00     0.060 A 
BRANCH  71  72
ATOM     72  S   UNL A   1      44.360  37.270  32.751  1.00  0.00     0.124 S 
ATOM     73  O   UNL A   1      44.785  37.949  31.531  1.00  0.00    -0.237 OA
ATOM     74  O   UNL A   1      43.021  37.601  33.227  1.00  0.00    -0.237 OA
ATOM     75  O   UNL A   1      45.379  37.149  33.790  1.00  0.00    -0.744 OA
ENDBRANCH  71  72
ENDBRANCH  50  64
BRANCH  51  76
ATOM     76  C   UNL A   1      42.753  23.672  27.615  1.00  0.00     0.058 A 
ATOM     77  C   UNL A   1      42.592  22.580  28.479  1.00  0.00     0.135 A 
ATOM     78  C   UNL A   1      42.710  23.427  26.233  1.00  0.00     0.135 A 
ATOM     79  F   UNL A   1      42.633  22.764  29.807  1.00  0.00    -0.206 F 
ATOM     80  C   UNL A   1      42.397  21.291  27.994  1.00  0.00     0.059 A 
ATOM     81  C   UNL A   1      42.494  22.150  25.724  1.00  0.00     0.059 A 
ATOM     82  F   UNL A   1      42.844  24.442  25.366  1.00  0.00    -0.206 F 
ATOM     83  C   UNL A   1      42.344  21.087  26.614  1.00  0.00     0.060 A 
BRANCH  83  84
ATOM     84  S   UNL A   1      42.023  19.419  25.998  1.00  0.00     0.124 S 
ATOM     85  O   UNL A   1      42.939  19.344  24.865  1.00  0.00    -0.237 OA
ATOM     86  O   UNL A   1      42.368  18.596  27.154  1.00  0.00    -0.237 OA
ATOM     87  O   UNL A   1      40.603  19.452  25.663  1.00  0.00    -0.744 OA
ENDBRANCH  83  84
ENDBRANCH  51  76
BRANCH  63  88
ATOM     88  C   UNL A   1      48.237  27.321  29.930  1.00  0.00     0.058 A 
ATOM     89  C   UNL A   1      49.151  27.695  28.934  1.00  0.00     0.135 A 
ATOM     90  C   UNL A   1      48.739  26.703  31.086  1.00  0.00     0.135 A 
ATOM     91  F   UNL A   1      48.718  28.278  27.804  1.00  0.00    -0.206 F 
ATOM     92  C   UNL A   1      50.515  27.465  29.078  1.00  0.00     0.059 A 
ATOM     93  C   UNL A   1      50.101  26.486  31.262  1.00  0.00     0.059 A 
ATOM     94  F   UNL A   1      47.905  26.331  32.071  1.00  0.00    -0.206 F 
ATOM     95  C   UNL A   1      50.981  26.867  30.251  1.00  0.00     0.060 A 
BRANCH  95  96
ATOM     96  S   UNL A   1      52.760  26.639  30.454  1.00  0.00     0.124 S 
ATOM     97  O   UNL A   1      53.171  26.307  29.093  1.00  0.00    -0.237 OA
ATOM     98  O   UNL A   1      53.189  27.944  30.946  1.00  0.00    -0.237 OA
ATOM     99  O   UNL A   1      52.854  25.549  31.421  1.00  0.00    -0.744 OA
ENDBRANCH  95  96
ENDBRANCH  63  88
ENDBRANCH  37  38
ENDBRANCH  29  32
ENDBRANCH  27  28
ENDBRANCH  26  27
ENDBRANCH   1  26
TORSDOF 21
ENDMDL
MODEL 3
REMARK VINA RESULT:     -10.7      5.040     10.570
REMARK SMILES [NH3+][C@](CCC[P@TB4](=O)([O-])[O-])(Cc1ccccc1)C(=O)NCCCCNC(=O)c1ccc(-c2c3nc(c(-c4c(F)cc(S(=O)(=O)[O-])cc4F)c4ccc([nH]4)c(-c4c(F)cc(S(=O)(=O)[O-])cc4F)c4nc(c(-c5c(F)cc(S(=O)(=O)[O-])cc5F)c5ccc2[nH]5)C=C4)C=C3)cc1
REMARK SMILES IDX 21 1 20 2 19 3 17 4 18 5 2 7 1 8 10 12 11 13 12 14 16 15
REMARK SMILES IDX 13 16 15 17 14 18 3 19 4 20 5 21 6 22 7 23 8 24 9 25 22 26
REMARK SMILES IDX 23 27 24 28 25 29 26 31 27 32 28 33 92 34 29 35 91 36 30 37
REMARK SMILES IDX 31 38 32 39 85 40 33 41 90 42 84 43 86 44 34 45 89 46 83 47
REMARK SMILES IDX 82 48 35 50 69 51 48 52 68 53 49 54 52 55 67 56 87 57 50 58
REMARK SMILES IDX 51 59 66 61 88 62 53 63 36 64 37 65 46 66 38 67 39 68 45 69
REMARK SMILES IDX 47 70 40 71 41 72 42 73 43 74 44 75 70 76 71 77 80 78 72 79
REMARK SMILES IDX 73 80 79 81 81 82 74 83 75 84 76 85 77 86 78 87 54 88 55 89
REMARK SMILES IDX 64 90 56 91 57 92 63 93 65 94 58 95 59 96 60 97 61 98 62 99
REMARK H PARENT 19 6 1 9 1 10 1 11 24 30 86 49 52 60
REMARK Flexibility Score: inf
ROOT
ATOM      1  C   UNL A   1      34.396  23.862  25.793  1.00  0.00       nan C 
ENDROOT
BRANCH   1   2
ATOM      2  C   UNL A   1      33.886  25.006  24.912  1.00  0.00       nan C 
BRANCH   2   3
ATOM      3  N   UNL A   1      32.439  25.002  24.858  1.00  0.00       nan N 
ATOM      4  C   UNL A   1      31.764  26.192  25.010  1.00  0.00       nan C 
ATOM      5  O   UNL A   1      31.129  26.339  26.055  1.00  0.00       nan OA
ATOM      6  H   UNL A   1      31.945  24.163  24.714  1.00  0.00       nan HD
BRANCH   4   7
ATOM      7  C   UNL A   1      31.714  27.176  23.796  1.00  0.00       nan C 
BRANCH   7   8
ATOM      8  N   UNL A   1      31.865  26.411  22.515  1.00  0.00       nan N 
ATOM      9  H   UNL A   1      31.683  27.031  21.726  1.00  0.00       nan HD
ATOM     10  H   UNL A   1      31.200  25.638  22.500  1.00  0.00       nan HD
ATOM     11  H   UNL A   1      32.814  26.045  22.448  1.00  0.00       nan HD
ENDBRANCH   7   8
BRANCH   7  12
ATOM     12  C   UNL A   1      32.896  28.189  23.884  1.00  0.00       nan C 
BRANCH  12  13
ATOM     13  C   UNL A   1      33.096  28.881  25.220  1.00  0.00       nan A 
ATOM     14  C   UNL A   1      34.218  28.603  26.012  1.00  0.00       nan A 
ATOM     15  C   UNL A   1      32.211  29.884  25.643  1.00  0.00       nan A 
ATOM     16  C   UNL A   1      34.495  29.369  27.147  1.00  0.00       nan A 
ATOM     17  C   UNL A   1      32.490  30.653  26.774  1.00  0.00       nan A 
ATOM     18  C   UNL A   1      33.640  30.406  27.518  1.00  0.00       nan A 
ENDBRANCH  12  13
ENDBRANCH   7  12
BRANCH   7  19
ATOM     19  C   UNL A   1      30.325  27.874  23.711  1.00  0.00       nan C 
BRANCH  19  20
ATOM     20  C   UNL A   1      30.184  29.016  22.697  1.00  0.00       nan C 
BRANCH  20  21
ATOM     21  C   UNL A   1      29.372  30.226  23.169  1.00  0.00       nan C 
BRANCH  21  22
ATOM     22  P   UNL A   1      28.632  31.218  21.822  1.00  0.00       nan P 
ATOM     23  O   UNL A   1      27.994  29.968  21.217  1.00  0.00       nan OA
ATOM     24  O   UNL A   1      27.523  31.845  22.817  1.00  0.00       nan OA
ATOM     25  O   UNL A   1      27.932  32.155  20.547  1.00  0.00       nan OA
ENDBRANCH  21  22
ENDBRANCH  20  21
ENDBRANCH  19  20
ENDBRANCH   7  19
ENDBRANCH   4   7
ENDBRANCH   2   3
ENDBRANCH   1   2
BRANCH   1  26
ATOM     26  C   UNL A   1      35.570  23.077  25.196  1.00  0.00       nan C 
BRANCH  26  27
ATOM     27  C   UNL A   1      36.912  23.799  25.260  1.00  0.00       nan C 
BRANCH  27  28
ATOM     28  N   UNL A   1      38.018  22.873  25.466  1.00  0.00       nan N 
ATOM     29  C   UNL A   1      39.242  23.090  26.048  1.00  0.00       inf C 
ATOM     30  H   UNL A   1      37.864  21.958  25.139  1.00  0.00       inf HD
ATOM     31  O   UNL A   1      40.128  22.260  25.950  1.00  0.00    -0.269 OA
BRANCH  29  32
ATOM     32  C   UNL A   1      39.463  24.351  26.778  1.00  0.00     0.039 A 
ATOM     33  C   UNL A   1      38.934  24.492  28.061  1.00  0.00     0.014 A 
ATOM     34  C   UNL A   1      40.226  25.370  26.199  1.00  0.00     0.014 A 
ATOM     35  C   UNL A   1      39.231  25.635  28.801  1.00  0.00     0.010 A 
ATOM     36  C   UNL A   1      40.574  26.477  26.960  1.00  0.00     0.010 A 
ATOM     37  C   UNL A   1      40.087  26.614  28.269  1.00  0.00    -0.014 A 
BRANCH  37  38
ATOM     38  C   UNL A   1      40.514  27.784  29.071  1.00  0.00     0.031 A 
ATOM     39  C   UNL A   1      41.822  27.749  29.805  1.00  0.00     0.074 A 
ATOM     40  C   UNL A   1      39.678  28.832  29.204  1.00  0.00     0.049 A 
ATOM     41  N   UNL A   1      42.319  28.618  30.646  1.00  0.00    -0.248 NA
ATOM     42  C   UNL A   1      42.671  26.567  29.585  1.00  0.00     0.031 C 
ATOM     43  C   UNL A   1      38.366  28.954  28.562  1.00  0.00     0.029 A 
ATOM     44  N   UNL A   1      39.797  29.984  29.935  1.00  0.00    -0.354 N 
ATOM     45  C   UNL A   1      43.531  28.086  31.063  1.00  0.00     0.074 A 
ATOM     46  C   UNL A   1      43.672  26.795  30.423  1.00  0.00     0.031 C 
ATOM     47  C   UNL A   1      37.812  30.125  28.913  1.00  0.00     0.029 A 
ATOM     48  C   UNL A   1      38.705  30.814  29.840  1.00  0.00     0.049 A 
ATOM     49  H   UNL A   1      40.591  30.198  30.479  1.00  0.00     0.167 HD
ATOM     50  C   UNL A   1      44.454  28.636  31.887  1.00  0.00     0.037 A 
ATOM     51  C   UNL A   1      38.446  31.989  30.445  1.00  0.00     0.037 A 
ATOM     52  C   UNL A   1      44.305  29.925  32.508  1.00  0.00     0.049 A 
ATOM     53  C   UNL A   1      39.464  32.558  31.394  1.00  0.00     0.074 A 
ATOM     54  C   UNL A   1      45.202  30.601  33.316  1.00  0.00     0.029 A 
ATOM     55  N   UNL A   1      43.180  30.731  32.398  1.00  0.00    -0.354 N 
ATOM     56  N   UNL A   1      40.635  32.073  31.732  1.00  0.00    -0.248 NA
ATOM     57  C   UNL A   1      39.123  33.827  32.051  1.00  0.00     0.031 C 
ATOM     58  C   UNL A   1      44.601  31.795  33.731  1.00  0.00     0.029 A 
ATOM     59  C   UNL A   1      43.347  31.883  33.147  1.00  0.00     0.049 A 
ATOM     60  H   UNL A   1      42.382  30.515  31.864  1.00  0.00     0.167 HD
ATOM     61  C   UNL A   1      41.179  32.984  32.630  1.00  0.00     0.074 A 
ATOM     62  C   UNL A   1      40.214  34.056  32.772  1.00  0.00     0.031 C 
ATOM     63  C   UNL A   1      42.370  32.937  33.277  1.00  0.00     0.037 A 
BRANCH  50  64
ATOM     64  C   UNL A   1      45.699  27.838  32.162  1.00  0.00     0.058 A 
ATOM     65  C   UNL A   1      46.868  28.017  31.405  1.00  0.00     0.135 A 
ATOM     66  C   UNL A   1      45.726  26.884  33.191  1.00  0.00     0.135 A 
ATOM     67  F   UNL A   1      46.893  28.905  30.399  1.00  0.00    -0.206 F 
ATOM     68  C   UNL A   1      48.006  27.251  31.631  1.00  0.00     0.059 A 
ATOM     69  C   UNL A   1      46.862  26.125  33.454  1.00  0.00     0.059 A 
ATOM     70  F   UNL A   1      44.636  26.671  33.945  1.00  0.00    -0.206 F 
ATOM     71  C   UNL A   1      47.991  26.301  32.654  1.00  0.00     0.060 A 
BRANCH  71  72
ATOM     72  S   UNL A   1      49.467  25.295  32.917  1.00  0.00     0.124 S 
ATOM     73  O   UNL A   1      50.347  26.244  33.592  1.00  0.00    -0.237 OA
ATOM     74  O   UNL A   1      48.960  24.204  33.742  1.00  0.00    -0.237 OA
ATOM     75  O   UNL A   1      49.868  24.920  31.564  1.00  0.00    -0.744 OA
ENDBRANCH  71  72
ENDBRANCH  50  64
BRANCH  51  76
ATOM     76  C   UNL A   1      37.178  32.707  30.153  1.00  0.00     0.058 A 
ATOM     77  C   UNL A   1      37.132  33.705  29.170  1.00  0.00     0.135 A 
ATOM     78  C   UNL A   1      35.984  32.388  30.820  1.00  0.00     0.135 A 
ATOM     79  F   UNL A   1      38.249  34.049  28.511  1.00  0.00    -0.206 F 
ATOM     80  C   UNL A   1      35.949  34.366  28.858  1.00  0.00     0.059 A 
ATOM     81  C   UNL A   1      34.783  33.019  30.509  1.00  0.00     0.059 A 
ATOM     82  F   UNL A   1      35.974  31.429  31.758  1.00  0.00    -0.206 F 
ATOM     83  C   UNL A   1      34.778  34.011  29.529  1.00  0.00     0.060 A 
BRANCH  83  84
ATOM     84  S   UNL A   1      33.235  34.830  29.068  1.00  0.00     0.124 S 
ATOM     85  O   UNL A   1      32.539  34.887  30.348  1.00  0.00    -0.237 OA
ATOM     86  O   UNL A   1      33.711  36.106  28.543  1.00  0.00    -0.237 OA
ATOM     87  O   UNL A   1      32.659  33.927  28.075  1.00  0.00    -0.744 OA
ENDBRANCH  83  84
ENDBRANCH  51  76
BRANCH  63  88
ATOM     88  C   UNL A   1      42.704  34.080  34.194  1.00  0.00     0.058 A 
ATOM     89  C   UNL A   1      42.425  34.020  35.568  1.00  0.00     0.135 A 
ATOM     90  C   UNL A   1      43.379  35.211  33.708  1.00  0.00     0.135 A 
ATOM     91  F   UNL A   1      41.770  32.964  36.079  1.00  0.00    -0.206 F 
ATOM     92  C   UNL A   1      42.803  35.044  36.429  1.00  0.00     0.059 A 
ATOM     93  C   UNL A   1      43.788  36.235  34.555  1.00  0.00     0.059 A 
ATOM     94  F   UNL A   1      43.673  35.313  32.401  1.00  0.00    -0.206 F 
ATOM     95  C   UNL A   1      43.492  36.144  35.914  1.00  0.00     0.060 A 
BRANCH  95  96
ATOM     96  S   UNL A   1      44.037  37.432  37.055  1.00  0.00     0.124 S 
ATOM     97  O   UNL A   1      44.150  38.584  36.166  1.00  0.00    -0.237 OA
ATOM     98  O   UNL A   1      42.943  37.479  38.019  1.00  0.00    -0.237 OA
ATOM     99  O   UNL A   1      45.299  36.914  37.574  1.00  0.00    -0.744 OA
ENDBRANCH  95  96
ENDBRANCH  63  88
ENDBRANCH  37  38
ENDBRANCH  29  32
ENDBRANCH  27  28
ENDBRANCH  26  27
ENDBRANCH   1  26
TORSDOF 21
ENDMDL
