MODEL 1
REMARK VINA RESULT:     -10.9      0.000      0.000
REMARK SMILES CC(C)C[C@H](NC(=O)[C@H](Cc1ccccc1)NC(=O)CNC(=O)C[NH3+])C(=O)NCCCCNC(=O)c1ccc(-c2c3nc(c(-c4c(F)cc(S(=O)(=O)[O-])cc4F)c4ccc([nH]4)c(-c4c(F)cc(S(=O)(=O)[O-])cc4F)c4nc(c(-c5c(F)cc(S(=O)(=O)[O-])cc5F)c5ccc2[nH]5)C=C4)C=C3)cc1
REMARK SMILES IDX 26 1 27 2 28 3 5 5 4 6 2 7 1 8 3 9 6 10 7 11 8 13 9 14 17 15
REMARK SMILES IDX 18 16 19 18 20 19 21 20 22 21 23 23 24 24 25 25 10 29 11 30
REMARK SMILES IDX 12 31 16 32 13 33 15 34 14 35 29 36 30 37 31 38 32 39 33 40
REMARK SMILES IDX 34 41 35 43 36 44 37 45 101 46 38 47 100 48 39 49 40 50
REMARK SMILES IDX 41 51 94 52 42 53 99 54 93 55 95 56 43 57 98 58 92 59 91 60
REMARK SMILES IDX 44 62 78 63 57 64 77 65 58 66 61 67 76 68 96 69 59 70 60 71
REMARK SMILES IDX 75 73 97 74 62 75 45 76 46 77 55 78 47 79 48 80 54 81 56 82
REMARK SMILES IDX 49 83 50 84 51 85 52 86 53 87 79 88 80 89 89 90 81 91 82 92
REMARK SMILES IDX 88 93 90 94 83 95 84 96 85 97 86 98 87 99 63 100 64 101
REMARK SMILES IDX 73 102 65 103 66 104 72 105 74 106 67 107 68 108 69 109
REMARK SMILES IDX 70 110 71 111
REMARK H PARENT 28 4 6 12 17 17 21 22 25 26 25 27 25 28 33 42 95 61 61 72
REMARK Flexibility Score: inf
ROOT
ATOM      1  C   UNL A   1      34.254  22.077  26.702  1.00  0.00     0.242 C 
ATOM      2  O   UNL A   1      33.864  22.252  27.856  1.00  0.00    -0.273 OA
ATOM      3  N   UNL A   1      35.444  21.426  26.499  1.00  0.00    -0.354 N 
ATOM      4  H   UNL A   1      36.026  21.334  27.288  1.00  0.00     0.163 HD
ENDROOT
BRANCH   1   5
ATOM      5  C   UNL A   1      33.430  22.594  25.507  1.00  0.00     0.171 C 
BRANCH   5   6
ATOM      6  C   UNL A   1      33.903  24.020  25.097  1.00  0.00     0.038 C 
BRANCH   6   7
ATOM      7  C   UNL A   1      34.574  24.351  23.737  1.00  0.00    -0.015 C 
ATOM      8  C   UNL A   1      34.917  23.197  22.786  1.00  0.00     0.007 C 
ATOM      9  C   UNL A   1      33.598  25.256  22.956  1.00  0.00     0.007 C 
ENDBRANCH   6   7
ENDBRANCH   5   6
BRANCH   5  10
ATOM     10  N   UNL A   1      32.022  22.382  25.813  1.00  0.00    -0.343 N 
ATOM     11  C   UNL A   1      30.986  23.261  25.971  1.00  0.00     0.243 C 
ATOM     12  H   UNL A   1      31.771  21.437  25.926  1.00  0.00     0.164 HD
ATOM     13  O   UNL A   1      29.917  22.740  26.315  1.00  0.00    -0.273 OA
BRANCH  11  14
ATOM     14  C   UNL A   1      31.103  24.795  25.739  1.00  0.00     0.175 C 
BRANCH  14  15
ATOM     15  N   UNL A   1      29.789  25.315  25.301  1.00  0.00    -0.342 N 
ATOM     16  C   UNL A   1      29.410  26.263  24.403  1.00  0.00     0.240 C 
ATOM     17  H   UNL A   1      29.030  24.883  25.753  1.00  0.00     0.164 HD
ATOM     18  O   UNL A   1      28.197  26.329  24.161  1.00  0.00    -0.273 OA
BRANCH  16  19
ATOM     19  C   UNL A   1      30.376  27.142  23.592  1.00  0.00     0.216 C 
BRANCH  19  20
ATOM     20  N   UNL A   1      30.414  28.568  23.871  1.00  0.00    -0.342 N 
ATOM     21  C   UNL A   1      29.618  29.546  23.338  1.00  0.00     0.275 C 
ATOM     22  H   UNL A   1      31.092  28.866  24.520  1.00  0.00     0.164 HD
ATOM     23  O   UNL A   1      29.712  30.697  23.762  1.00  0.00    -0.268 OA
BRANCH  21  24
ATOM     24  C   UNL A   1      28.617  29.168  22.248  1.00  0.00     0.360 C 
BRANCH  24  25
ATOM     25  N   UNL A   1      27.271  29.612  22.630  1.00  0.00    -0.350 N 
ATOM     26  H   UNL A   1      26.797  28.865  23.136  1.00  0.00     0.344 HD
ATOM     27  H   UNL A   1      26.739  29.846  21.792  1.00  0.00     0.344 HD
ATOM     28  H   UNL A   1      27.343  30.436  23.227  1.00  0.00     0.344 HD
ENDBRANCH  24  25
ENDBRANCH  21  24
ENDBRANCH  19  20
ENDBRANCH  16  19
ENDBRANCH  14  15
BRANCH  14  29
ATOM     29  C   UNL A   1      31.615  25.662  26.905  1.00  0.00     0.070 C 
BRANCH  29  30
ATOM     30  C   UNL A   1      32.215  27.047  26.730  1.00  0.00    -0.045 A 
ATOM     31  C   UNL A   1      31.500  28.123  27.286  1.00  0.00     0.004 A 
ATOM     32  C   UNL A   1      33.320  27.358  25.928  1.00  0.00     0.004 A 
ATOM     33  C   UNL A   1      31.847  29.448  27.011  1.00  0.00     0.000 A 
ATOM     34  C   UNL A   1      33.654  28.683  25.630  1.00  0.00     0.000 A 
ATOM     35  C   UNL A   1      32.912  29.729  26.163  1.00  0.00     0.000 A 
ENDBRANCH  29  30
ENDBRANCH  14  29
ENDBRANCH  11  14
ENDBRANCH   5  10
ENDBRANCH   1   5
BRANCH   3  36
ATOM     36  C   UNL A   1      35.949  20.854  25.267  1.00  0.00     0.116 C 
BRANCH  36  37
ATOM     37  C   UNL A   1      37.403  21.168  24.940  1.00  0.00     0.023 C 
BRANCH  37  38
ATOM     38  C   UNL A   1      38.372  20.019  25.168  1.00  0.00     0.023 C 
BRANCH  38  39
ATOM     39  C   UNL A   1      39.608  20.378  25.956  1.00  0.00     0.116 C 
BRANCH  39  40
ATOM     40  N   UNL A   1      40.508  19.250  26.086  1.00  0.00    -0.352 N 
ATOM     41  C   UNL A   1      41.878  19.309  26.151  1.00  0.00     0.251 C 
ATOM     42  H   UNL A   1      40.097  18.357  26.131  1.00  0.00     0.163 HD
ATOM     43  O   UNL A   1      42.554  18.296  26.001  1.00  0.00    -0.269 OA
BRANCH  41  44
ATOM     44  C   UNL A   1      42.506  20.626  26.375  1.00  0.00     0.039 A 
ATOM     45  C   UNL A   1      42.929  21.379  25.282  1.00  0.00     0.014 A 
ATOM     46  C   UNL A   1      42.592  21.143  27.675  1.00  0.00     0.014 A 
ATOM     47  C   UNL A   1      43.419  22.668  25.491  1.00  0.00     0.010 A 
ATOM     48  C   UNL A   1      42.976  22.463  27.865  1.00  0.00     0.010 A 
ATOM     49  C   UNL A   1      43.427  23.227  26.781  1.00  0.00    -0.014 A 
BRANCH  49  50
ATOM     50  C   UNL A   1      43.966  24.587  27.026  1.00  0.00     0.031 A 
ATOM     51  C   UNL A   1      43.035  25.679  27.485  1.00  0.00     0.074 A 
ATOM     52  C   UNL A   1      45.268  24.848  26.799  1.00  0.00     0.049 A 
ATOM     53  N   UNL A   1      43.293  26.939  27.722  1.00  0.00    -0.248 NA
ATOM     54  C   UNL A   1      41.620  25.315  27.675  1.00  0.00     0.031 C 
ATOM     55  C   UNL A   1      46.253  23.883  26.306  1.00  0.00     0.029 A 
ATOM     56  N   UNL A   1      45.988  26.005  26.953  1.00  0.00    -0.354 N 
ATOM     57  C   UNL A   1      42.077  27.515  28.069  1.00  0.00     0.074 A 
ATOM     58  C   UNL A   1      41.069  26.487  27.950  1.00  0.00     0.031 C 
ATOM     59  C   UNL A   1      47.455  24.479  26.232  1.00  0.00     0.029 A 
ATOM     60  C   UNL A   1      47.320  25.876  26.634  1.00  0.00     0.049 A 
ATOM     61  H   UNL A   1      45.589  26.850  27.264  1.00  0.00     0.167 HD
ATOM     62  C   UNL A   1      41.827  28.779  28.483  1.00  0.00     0.037 A 
ATOM     63  C   UNL A   1      48.315  26.783  26.659  1.00  0.00     0.037 A 
ATOM     64  C   UNL A   1      42.843  29.785  28.633  1.00  0.00     0.049 A 
ATOM     65  C   UNL A   1      48.011  28.184  27.119  1.00  0.00     0.074 A 
ATOM     66  C   UNL A   1      42.709  31.077  29.107  1.00  0.00     0.029 A 
ATOM     67  N   UNL A   1      44.181  29.612  28.308  1.00  0.00    -0.354 N 
ATOM     68  N   UNL A   1      46.868  28.692  27.516  1.00  0.00    -0.248 NA
ATOM     69  C   UNL A   1      49.131  29.135  27.141  1.00  0.00     0.031 C 
ATOM     70  C   UNL A   1      43.956  31.705  29.017  1.00  0.00     0.029 A 
ATOM     71  C   UNL A   1      44.879  30.784  28.546  1.00  0.00     0.049 A 
ATOM     72  H   UNL A   1      44.575  28.780  27.960  1.00  0.00     0.167 HD
ATOM     73  C   UNL A   1      47.138  30.011  27.865  1.00  0.00     0.074 A 
ATOM     74  C   UNL A   1      48.555  30.217  27.644  1.00  0.00     0.031 C 
ATOM     75  C   UNL A   1      46.293  30.966  28.329  1.00  0.00     0.037 A 
BRANCH  62  76
ATOM     76  C   UNL A   1      40.402  29.144  28.804  1.00  0.00     0.058 A 
ATOM     77  C   UNL A   1      39.944  29.247  30.128  1.00  0.00     0.135 A 
ATOM     78  C   UNL A   1      39.491  29.431  27.774  1.00  0.00     0.135 A 
ATOM     79  F   UNL A   1      40.765  28.965  31.153  1.00  0.00    -0.206 F 
ATOM     80  C   UNL A   1      38.629  29.596  30.419  1.00  0.00     0.059 A 
ATOM     81  C   UNL A   1      38.181  29.812  28.042  1.00  0.00     0.059 A 
ATOM     82  F   UNL A   1      39.873  29.342  26.490  1.00  0.00    -0.206 F 
ATOM     83  C   UNL A   1      37.755  29.880  29.368  1.00  0.00     0.060 A 
BRANCH  83  84
ATOM     84  S   UNL A   1      36.057  30.346  29.764  1.00  0.00     0.124 S 
ATOM     85  O   UNL A   1      35.905  29.782  31.101  1.00  0.00    -0.237 OA
ATOM     86  O   UNL A   1      36.111  31.803  29.694  1.00  0.00    -0.237 OA
ATOM     87  O   UNL A   1      35.273  29.700  28.717  1.00  0.00    -0.744 OA
ENDBRANCH  83  84
ENDBRANCH  62  76
BRANCH  63  88
ATOM     88  C   UNL A   1      49.695  26.391  26.263  1.00  0.00     0.058 A 
ATOM     89  C   UNL A   1      50.187  26.676  24.981  1.00  0.00     0.135 A 
ATOM     90  C   UNL A   1      50.551  25.729  27.157  1.00  0.00     0.135 A 
ATOM     91  F   UNL A   1      49.407  27.304  24.087  1.00  0.00    -0.206 F 
ATOM     92  C   UNL A   1      51.468  26.299  24.589  1.00  0.00     0.059 A 
ATOM     93  C   UNL A   1      51.846  25.366  26.799  1.00  0.00     0.059 A 
ATOM     94  F   UNL A   1      50.137  25.449  28.403  1.00  0.00    -0.206 F 
ATOM     95  C   UNL A   1      52.291  25.645  25.508  1.00  0.00     0.060 A 
BRANCH  95  96
ATOM     96  S   UNL A   1      53.965  25.195  25.002  1.00  0.00     0.124 S 
ATOM     97  O   UNL A   1      53.869  23.743  24.926  1.00  0.00    -0.237 OA
ATOM     98  O   UNL A   1      54.097  25.895  23.728  1.00  0.00    -0.237 OA
ATOM     99  O   UNL A   1      54.794  25.718  26.085  1.00  0.00    -0.744 OA
ENDBRANCH  95  96
ENDBRANCH  63  88
BRANCH  75 100
ATOM    100  C   UNL A   1      46.880  32.309  28.668  1.00  0.00     0.058 A 
ATOM    101  C   UNL A   1      46.852  33.379  27.761  1.00  0.00     0.135 A 
ATOM    102  C   UNL A   1      47.425  32.540  29.941  1.00  0.00     0.135 A 
ATOM    103  F   UNL A   1      46.347  33.209  26.529  1.00  0.00    -0.206 F 
ATOM    104  C   UNL A   1      47.367  34.626  28.096  1.00  0.00     0.059 A 
ATOM    105  C   UNL A   1      47.917  33.788  30.309  1.00  0.00     0.059 A 
ATOM    106  F   UNL A   1      47.465  31.553  30.850  1.00  0.00    -0.206 F 
ATOM    107  C   UNL A   1      47.895  34.822  29.374  1.00  0.00     0.060 A 
BRANCH 107 108
ATOM    108  S   UNL A   1      48.528  36.456  29.808  1.00  0.00     0.124 S 
ATOM    109  O   UNL A   1      47.412  37.315  29.424  1.00  0.00    -0.237 OA
ATOM    110  O   UNL A   1      48.765  36.326  31.243  1.00  0.00    -0.237 OA
ATOM    111  O   UNL A   1      49.730  36.585  28.990  1.00  0.00    -0.744 OA
ENDBRANCH 107 108
ENDBRANCH  75 100
ENDBRANCH  49  50
ENDBRANCH  41  44
ENDBRANCH  39  40
ENDBRANCH  38  39
ENDBRANCH  37  38
ENDBRANCH  36  37
ENDBRANCH   3  36
TORSDOF 25
ENDMDL
MODEL 2
REMARK VINA RESULT:     -10.6      5.884     10.403
REMARK SMILES CC(C)C[C@H](NC(=O)[C@H](Cc1ccccc1)NC(=O)CNC(=O)C[NH3+])C(=O)NCCCCNC(=O)c1ccc(-c2c3nc(c(-c4c(F)cc(S(=O)(=O)[O-])cc4F)c4ccc([nH]4)c(-c4c(F)cc(S(=O)(=O)[O-])cc4F)c4nc(c(-c5c(F)cc(S(=O)(=O)[O-])cc5F)c5ccc2[nH]5)C=C4)C=C3)cc1
REMARK SMILES IDX 26 1 27 2 28 3 5 5 4 6 2 7 1 8 3 9 6 10 7 11 8 13 9 14 17 15
REMARK SMILES IDX 18 16 19 18 20 19 21 20 22 21 23 23 24 24 25 25 10 29 11 30
REMARK SMILES IDX 12 31 16 32 13 33 15 34 14 35 29 36 30 37 31 38 32 39 33 40
REMARK SMILES IDX 34 41 35 43 36 44 37 45 101 46 38 47 100 48 39 49 40 50
REMARK SMILES IDX 41 51 94 52 42 53 99 54 93 55 95 56 43 57 98 58 92 59 91 60
REMARK SMILES IDX 44 62 78 63 57 64 77 65 58 66 61 67 76 68 96 69 59 70 60 71
REMARK SMILES IDX 75 73 97 74 62 75 45 76 46 77 55 78 47 79 48 80 54 81 56 82
REMARK SMILES IDX 49 83 50 84 51 85 52 86 53 87 79 88 80 89 89 90 81 91 82 92
REMARK SMILES IDX 88 93 90 94 83 95 84 96 85 97 86 98 87 99 63 100 64 101
REMARK SMILES IDX 73 102 65 103 66 104 72 105 74 106 67 107 68 108 69 109
REMARK SMILES IDX 70 110 71 111
REMARK H PARENT 28 4 6 12 17 17 21 22 25 26 25 27 25 28 33 42 95 61 61 72
REMARK Flexibility Score: inf
ROOT
ATOM      1  C   UNL A   1      36.169  23.025  23.611  1.00  0.00     0.242 C 
ATOM      2  O   UNL A   1      36.415  22.972  22.406  1.00  0.00    -0.273 OA
ATOM      3  N   UNL A   1      37.204  23.228  24.487  1.00  0.00    -0.354 N 
ATOM      4  H   UNL A   1      38.110  23.095  24.124  1.00  0.00     0.163 HD
ENDROOT
BRANCH   1   5
ATOM      5  C   UNL A   1      34.728  22.850  24.126  1.00  0.00     0.171 C 
BRANCH   5   6
ATOM      6  C   UNL A   1      34.431  21.349  24.412  1.00  0.00     0.038 C 
BRANCH   6   7
ATOM      7  C   UNL A   1      33.000  20.754  24.513  1.00  0.00    -0.015 C 
ATOM      8  C   UNL A   1      32.353  20.175  23.248  1.00  0.00     0.007 C 
ATOM      9  C   UNL A   1      33.063  19.585  25.518  1.00  0.00     0.007 C 
ENDBRANCH   6   7
ENDBRANCH   5   6
BRANCH   5  10
ATOM     10  N   UNL A   1      33.844  23.583  23.230  1.00  0.00    -0.343 N 
ATOM     11  C   UNL A   1      33.448  24.892  23.216  1.00  0.00     0.243 C 
ATOM     12  H   UNL A   1      33.463  23.038  22.504  1.00  0.00     0.164 HD
ATOM     13  O   UNL A   1      32.610  25.167  22.348  1.00  0.00    -0.273 OA
BRANCH  11  14
ATOM     14  C   UNL A   1      33.993  25.976  24.190  1.00  0.00     0.175 C 
BRANCH  14  15
ATOM     15  N   UNL A   1      34.023  27.279  23.490  1.00  0.00    -0.342 N 
ATOM     16  C   UNL A   1      33.087  28.235  23.252  1.00  0.00     0.240 C 
ATOM     17  H   UNL A   1      34.907  27.501  23.120  1.00  0.00     0.164 HD
ATOM     18  O   UNL A   1      33.504  29.296  22.769  1.00  0.00    -0.273 OA
BRANCH  16  19
ATOM     19  C   UNL A   1      31.608  28.138  23.658  1.00  0.00     0.216 C 
BRANCH  19  20
ATOM     20  N   UNL A   1      30.937  29.340  24.124  1.00  0.00    -0.342 N 
ATOM     21  C   UNL A   1      29.973  30.065  23.477  1.00  0.00     0.275 C 
ATOM     22  H   UNL A   1      31.207  29.672  25.011  1.00  0.00     0.164 HD
ATOM     23  O   UNL A   1      29.431  31.003  24.060  1.00  0.00    -0.268 OA
BRANCH  21  24
ATOM     24  C   UNL A   1      29.583  29.667  22.055  1.00  0.00     0.360 C 
BRANCH  24  25
ATOM     25  N   UNL A   1      29.468  30.864  21.214  1.00  0.00    -0.350 N 
ATOM     26  H   UNL A   1      29.032  31.615  21.748  1.00  0.00     0.344 HD
ATOM     27  H   UNL A   1      28.896  30.652  20.397  1.00  0.00     0.344 HD
ATOM     28  H   UNL A   1      30.397  31.157  20.912  1.00  0.00     0.344 HD
ENDBRANCH  24  25
ENDBRANCH  21  24
ENDBRANCH  19  20
ENDBRANCH  16  19
ENDBRANCH  14  15
BRANCH  14  29
ATOM     29  C   UNL A   1      33.274  26.155  25.541  1.00  0.00     0.070 C 
BRANCH  29  30
ATOM     30  C   UNL A   1      32.312  25.137  26.130  1.00  0.00    -0.045 A 
ATOM     31  C   UNL A   1      32.883  24.019  26.764  1.00  0.00     0.004 A 
ATOM     32  C   UNL A   1      30.924  25.133  25.952  1.00  0.00     0.004 A 
ATOM     33  C   UNL A   1      32.105  22.927  27.157  1.00  0.00     0.000 A 
ATOM     34  C   UNL A   1      30.145  24.030  26.319  1.00  0.00     0.000 A 
ATOM     35  C   UNL A   1      30.736  22.923  26.913  1.00  0.00     0.000 A 
ENDBRANCH  29  30
ENDBRANCH  14  29
ENDBRANCH  11  14
ENDBRANCH   5  10
ENDBRANCH   1   5
BRANCH   3  36
ATOM     36  C   UNL A   1      37.128  23.614  25.882  1.00  0.00     0.116 C 
BRANCH  36  37
ATOM     37  C   UNL A   1      38.450  24.000  26.533  1.00  0.00     0.023 C 
BRANCH  37  38
ATOM     38  C   UNL A   1      39.472  22.879  26.618  1.00  0.00     0.023 C 
BRANCH  38  39
ATOM     39  C   UNL A   1      40.841  23.302  27.094  1.00  0.00     0.116 C 
BRANCH  39  40
ATOM     40  N   UNL A   1      41.637  23.854  26.017  1.00  0.00    -0.352 N 
ATOM     41  C   UNL A   1      42.041  25.160  25.894  1.00  0.00     0.251 C 
ATOM     42  H   UNL A   1      41.914  23.232  25.306  1.00  0.00     0.163 HD
ATOM     43  O   UNL A   1      42.486  25.579  24.829  1.00  0.00    -0.269 OA
BRANCH  41  44
ATOM     44  C   UNL A   1      41.895  26.046  27.067  1.00  0.00     0.039 A 
ATOM     45  C   UNL A   1      42.404  27.341  27.014  1.00  0.00     0.014 A 
ATOM     46  C   UNL A   1      41.171  25.607  28.184  1.00  0.00     0.014 A 
ATOM     47  C   UNL A   1      42.167  28.210  28.079  1.00  0.00     0.010 A 
ATOM     48  C   UNL A   1      40.844  26.508  29.187  1.00  0.00     0.010 A 
ATOM     49  C   UNL A   1      41.368  27.806  29.164  1.00  0.00    -0.014 A 
BRANCH  49  50
ATOM     50  C   UNL A   1      41.124  28.708  30.316  1.00  0.00     0.031 A 
ATOM     51  C   UNL A   1      41.988  28.588  31.545  1.00  0.00     0.074 A 
ATOM     52  C   UNL A   1      40.112  29.596  30.276  1.00  0.00     0.049 A 
ATOM     53  N   UNL A   1      41.921  29.251  32.670  1.00  0.00    -0.248 NA
ATOM     54  C   UNL A   1      43.050  27.566  31.518  1.00  0.00     0.031 C 
ATOM     55  C   UNL A   1      39.178  29.768  29.161  1.00  0.00     0.029 A 
ATOM     56  N   UNL A   1      39.697  30.523  31.199  1.00  0.00    -0.354 N 
ATOM     57  C   UNL A   1      42.914  28.717  33.482  1.00  0.00     0.074 A 
ATOM     58  C   UNL A   1      43.526  27.633  32.751  1.00  0.00     0.031 C 
ATOM     59  C   UNL A   1      38.324  30.764  29.450  1.00  0.00     0.029 A 
ATOM     60  C   UNL A   1      38.622  31.274  30.785  1.00  0.00     0.049 A 
ATOM     61  H   UNL A   1      40.130  30.639  32.075  1.00  0.00     0.167 HD
ATOM     62  C   UNL A   1      43.302  29.116  34.716  1.00  0.00     0.037 A 
ATOM     63  C   UNL A   1      37.953  32.260  31.414  1.00  0.00     0.037 A 
ATOM     64  C   UNL A   1      42.710  30.219  35.422  1.00  0.00     0.049 A 
ATOM     65  C   UNL A   1      38.402  32.683  32.788  1.00  0.00     0.074 A 
ATOM     66  C   UNL A   1      43.070  30.749  36.647  1.00  0.00     0.029 A 
ATOM     67  N   UNL A   1      41.629  30.961  34.966  1.00  0.00    -0.354 N 
ATOM     68  N   UNL A   1      39.392  32.216  33.512  1.00  0.00    -0.248 NA
ATOM     69  C   UNL A   1      37.649  33.769  33.429  1.00  0.00     0.031 C 
ATOM     70  C   UNL A   1      42.173  31.776  36.958  1.00  0.00     0.029 A 
ATOM     71  C   UNL A   1      41.293  31.927  35.898  1.00  0.00     0.049 A 
ATOM     72  H   UNL A   1      41.170  30.822  34.106  1.00  0.00     0.167 HD
ATOM     73  C   UNL A   1      39.400  32.974  34.678  1.00  0.00     0.074 A 
ATOM     74  C   UNL A   1      38.325  33.936  34.556  1.00  0.00     0.031 C 
ATOM     75  C   UNL A   1      40.224  32.884  35.754  1.00  0.00     0.037 A 
BRANCH  62  76
ATOM     76  C   UNL A   1      44.421  28.357  35.379  1.00  0.00     0.058 A 
ATOM     77  C   UNL A   1      44.200  27.137  36.038  1.00  0.00     0.135 A 
ATOM     78  C   UNL A   1      45.739  28.839  35.323  1.00  0.00     0.135 A 
ATOM     79  F   UNL A   1      42.958  26.637  36.140  1.00  0.00    -0.206 F 
ATOM     80  C   UNL A   1      45.240  26.435  36.640  1.00  0.00     0.059 A 
ATOM     81  C   UNL A   1      46.799  28.139  35.890  1.00  0.00     0.059 A 
ATOM     82  F   UNL A   1      46.007  30.004  34.712  1.00  0.00    -0.206 F 
ATOM     83  C   UNL A   1      46.537  26.943  36.557  1.00  0.00     0.060 A 
BRANCH  83  84
ATOM     84  S   UNL A   1      47.876  26.011  37.329  1.00  0.00     0.124 S 
ATOM     85  O   UNL A   1      47.575  24.652  36.892  1.00  0.00    -0.237 OA
ATOM     86  O   UNL A   1      49.062  26.620  36.733  1.00  0.00    -0.237 OA
ATOM     87  O   UNL A   1      47.693  26.268  38.754  1.00  0.00    -0.744 OA
ENDBRANCH  83  84
ENDBRANCH  62  76
BRANCH  63  88
ATOM     88  C   UNL A   1      36.807  32.932  30.744  1.00  0.00     0.058 A 
ATOM     89  C   UNL A   1      37.016  33.967  29.820  1.00  0.00     0.135 A 
ATOM     90  C   UNL A   1      35.482  32.552  31.008  1.00  0.00     0.135 A 
ATOM     91  F   UNL A   1      38.264  34.370  29.535  1.00  0.00    -0.206 F 
ATOM     92  C   UNL A   1      35.955  34.618  29.199  1.00  0.00     0.059 A 
ATOM     93  C   UNL A   1      34.404  33.169  30.379  1.00  0.00     0.059 A 
ATOM     94  F   UNL A   1      35.226  31.555  31.869  1.00  0.00    -0.206 F 
ATOM     95  C   UNL A   1      34.650  34.210  29.485  1.00  0.00     0.060 A 
BRANCH  95  96
ATOM     96  S   UNL A   1      33.282  35.036  28.645  1.00  0.00     0.124 S 
ATOM     97  O   UNL A   1      32.661  33.925  27.934  1.00  0.00    -0.237 OA
ATOM     98  O   UNL A   1      32.523  35.583  29.765  1.00  0.00    -0.237 OA
ATOM     99  O   UNL A   1      33.953  36.027  27.808  1.00  0.00    -0.744 OA
ENDBRANCH  95  96
ENDBRANCH  63  88
BRANCH  75 100
ATOM    100  C   UNL A   1      40.023  33.875  36.867  1.00  0.00     0.058 A 
ATOM    101  C   UNL A   1      40.602  35.153  36.833  1.00  0.00     0.135 A 
ATOM    102  C   UNL A   1      39.192  33.558  37.954  1.00  0.00     0.135 A 
ATOM    103  F   UNL A   1      41.409  35.503  35.820  1.00  0.00    -0.206 F 
ATOM    104  C   UNL A   1      40.383  36.074  37.852  1.00  0.00     0.059 A 
ATOM    105  C   UNL A   1      38.934  34.476  38.966  1.00  0.00     0.059 A 
ATOM    106  F   UNL A   1      38.603  32.354  38.027  1.00  0.00    -0.206 F 
ATOM    107  C   UNL A   1      39.545  35.727  38.913  1.00  0.00     0.060 A 
BRANCH 107 108
ATOM    108  S   UNL A   1      39.242  36.946  40.210  1.00  0.00     0.124 S 
ATOM    109  O   UNL A   1      40.598  37.235  40.664  1.00  0.00    -0.237 OA
ATOM    110  O   UNL A   1      38.575  38.019  39.478  1.00  0.00    -0.237 OA
ATOM    111  O   UNL A   1      38.400  36.228  41.162  1.00  0.00    -0.744 OA
ENDBRANCH 107 108
ENDBRANCH  75 100
ENDBRANCH  49  50
ENDBRANCH  41  44
ENDBRANCH  39  40
ENDBRANCH  38  39
ENDBRANCH  37  38
ENDBRANCH  36  37
ENDBRANCH   3  36
TORSDOF 25
ENDMDL
MODEL 3
REMARK VINA RESULT:     -10.6      5.955     10.542
REMARK SMILES CC(C)C[C@H](NC(=O)[C@H](Cc1ccccc1)NC(=O)CNC(=O)C[NH3+])C(=O)NCCCCNC(=O)c1ccc(-c2c3nc(c(-c4c(F)cc(S(=O)(=O)[O-])cc4F)c4ccc([nH]4)c(-c4c(F)cc(S(=O)(=O)[O-])cc4F)c4nc(c(-c5c(F)cc(S(=O)(=O)[O-])cc5F)c5ccc2[nH]5)C=C4)C=C3)cc1
REMARK SMILES IDX 26 1 27 2 28 3 5 5 4 6 2 7 1 8 3 9 6 10 7 11 8 13 9 14 17 15
REMARK SMILES IDX 18 16 19 18 20 19 21 20 22 21 23 23 24 24 25 25 10 29 11 30
REMARK SMILES IDX 12 31 16 32 13 33 15 34 14 35 29 36 30 37 31 38 32 39 33 40
REMARK SMILES IDX 34 41 35 43 36 44 37 45 101 46 38 47 100 48 39 49 40 50
REMARK SMILES IDX 41 51 94 52 42 53 99 54 93 55 95 56 43 57 98 58 92 59 91 60
REMARK SMILES IDX 44 62 78 63 57 64 77 65 58 66 61 67 76 68 96 69 59 70 60 71
REMARK SMILES IDX 75 73 97 74 62 75 45 76 46 77 55 78 47 79 48 80 54 81 56 82
REMARK SMILES IDX 49 83 50 84 51 85 52 86 53 87 79 88 80 89 89 90 81 91 82 92
REMARK SMILES IDX 88 93 90 94 83 95 84 96 85 97 86 98 87 99 63 100 64 101
REMARK SMILES IDX 73 102 65 103 66 104 72 105 74 106 67 107 68 108 69 109
REMARK SMILES IDX 70 110 71 111
REMARK H PARENT 28 4 6 12 17 17 21 22 25 26 25 27 25 28 33 42 95 61 61 72
REMARK Flexibility Score: inf
ROOT
ATOM      1  C   UNL A   1      35.770  23.353  23.604  1.00  0.00     0.242 C 
ATOM      2  O   UNL A   1      36.147  22.945  22.506  1.00  0.00    -0.273 OA
ATOM      3  N   UNL A   1      36.584  23.166  24.692  1.00  0.00    -0.354 N 
ATOM      4  H   UNL A   1      37.318  22.521  24.577  1.00  0.00     0.163 HD
ENDROOT
BRANCH   1   5
ATOM      5  C   UNL A   1      34.403  24.046  23.758  1.00  0.00     0.171 C 
BRANCH   5   6
ATOM      6  C   UNL A   1      33.375  23.080  24.417  1.00  0.00     0.038 C 
BRANCH   6   7
ATOM      7  C   UNL A   1      32.167  23.553  25.270  1.00  0.00    -0.015 C 
ATOM      8  C   UNL A   1      31.077  22.535  25.630  1.00  0.00     0.007 C 
ATOM      9  C   UNL A   1      32.728  24.054  26.617  1.00  0.00     0.007 C 
ENDBRANCH   6   7
ENDBRANCH   5   6
BRANCH   5  10
ATOM     10  N   UNL A   1      34.069  24.659  22.480  1.00  0.00    -0.343 N 
ATOM     11  C   UNL A   1      33.283  25.733  22.167  1.00  0.00     0.243 C 
ATOM     12  H   UNL A   1      34.485  24.223  21.701  1.00  0.00     0.164 HD
ATOM     13  O   UNL A   1      33.148  25.936  20.953  1.00  0.00    -0.273 OA
BRANCH  11  14
ATOM     14  C   UNL A   1      32.604  26.652  23.223  1.00  0.00     0.175 C 
BRANCH  14  15
ATOM     15  N   UNL A   1      33.611  27.049  24.232  1.00  0.00    -0.342 N 
ATOM     16  C   UNL A   1      33.526  27.525  25.502  1.00  0.00     0.240 C 
ATOM     17  H   UNL A   1      34.538  26.945  23.917  1.00  0.00     0.164 HD
ATOM     18  O   UNL A   1      34.593  27.597  26.128  1.00  0.00    -0.273 OA
BRANCH  16  19
ATOM     19  C   UNL A   1      32.214  27.842  26.236  1.00  0.00     0.216 C 
BRANCH  19  20
ATOM     20  N   UNL A   1      31.609  29.149  26.038  1.00  0.00    -0.342 N 
ATOM     21  C   UNL A   1      32.014  30.347  26.563  1.00  0.00     0.275 C 
ATOM     22  H   UNL A   1      30.814  29.177  25.458  1.00  0.00     0.164 HD
ATOM     23  O   UNL A   1      31.451  31.382  26.209  1.00  0.00    -0.268 OA
BRANCH  21  24
ATOM     24  C   UNL A   1      33.177  30.361  27.554  1.00  0.00     0.360 C 
BRANCH  24  25
ATOM     25  N   UNL A   1      34.421  30.715  26.860  1.00  0.00    -0.350 N 
ATOM     26  H   UNL A   1      34.333  30.493  25.869  1.00  0.00     0.344 HD
ATOM     27  H   UNL A   1      35.196  30.186  27.260  1.00  0.00     0.344 HD
ATOM     28  H   UNL A   1      34.599  31.713  26.970  1.00  0.00     0.344 HD
ENDBRANCH  24  25
ENDBRANCH  21  24
ENDBRANCH  19  20
ENDBRANCH  16  19
ENDBRANCH  14  15
BRANCH  14  29
ATOM     29  C   UNL A   1      31.882  27.916  22.720  1.00  0.00     0.070 C 
BRANCH  29  30
ATOM     30  C   UNL A   1      30.407  28.198  22.953  1.00  0.00    -0.045 A 
ATOM     31  C   UNL A   1      29.664  27.193  23.599  1.00  0.00     0.004 A 
ATOM     32  C   UNL A   1      29.697  29.288  22.436  1.00  0.00     0.004 A 
ATOM     33  C   UNL A   1      28.270  27.256  23.680  1.00  0.00     0.000 A 
ATOM     34  C   UNL A   1      28.300  29.341  22.492  1.00  0.00     0.000 A 
ATOM     35  C   UNL A   1      27.586  28.321  23.105  1.00  0.00     0.000 A 
ENDBRANCH  29  30
ENDBRANCH  14  29
ENDBRANCH  11  14
ENDBRANCH   5  10
ENDBRANCH   1   5
BRANCH   3  36
ATOM     36  C   UNL A   1      36.496  23.803  25.991  1.00  0.00     0.116 C 
BRANCH  36  37
ATOM     37  C   UNL A   1      37.825  24.092  26.677  1.00  0.00     0.023 C 
BRANCH  37  38
ATOM     38  C   UNL A   1      38.918  23.070  26.408  1.00  0.00     0.023 C 
BRANCH  38  39
ATOM     39  C   UNL A   1      40.248  23.380  27.050  1.00  0.00     0.116 C 
BRANCH  39  40
ATOM     40  N   UNL A   1      41.219  23.841  26.078  1.00  0.00    -0.352 N 
ATOM     41  C   UNL A   1      41.804  25.082  26.041  1.00  0.00     0.251 C 
ATOM     42  H   UNL A   1      41.484  23.202  25.377  1.00  0.00     0.163 HD
ATOM     43  O   UNL A   1      42.409  25.459  25.042  1.00  0.00    -0.269 OA
BRANCH  41  44
ATOM     44  C   UNL A   1      41.655  25.955  27.224  1.00  0.00     0.039 A 
ATOM     45  C   UNL A   1      42.577  26.977  27.441  1.00  0.00     0.014 A 
ATOM     46  C   UNL A   1      40.544  25.804  28.064  1.00  0.00     0.014 A 
ATOM     47  C   UNL A   1      42.371  27.867  28.494  1.00  0.00     0.010 A 
ATOM     48  C   UNL A   1      40.286  26.757  29.039  1.00  0.00     0.010 A 
ATOM     49  C   UNL A   1      41.214  27.776  29.288  1.00  0.00    -0.014 A 
BRANCH  49  50
ATOM     50  C   UNL A   1      40.988  28.700  30.427  1.00  0.00     0.031 A 
ATOM     51  C   UNL A   1      41.850  28.579  31.657  1.00  0.00     0.074 A 
ATOM     52  C   UNL A   1      39.995  29.608  30.374  1.00  0.00     0.049 A 
ATOM     53  N   UNL A   1      41.798  29.261  32.773  1.00  0.00    -0.248 NA
ATOM     54  C   UNL A   1      42.892  27.536  31.645  1.00  0.00     0.031 C 
ATOM     55  C   UNL A   1      39.064  29.783  29.257  1.00  0.00     0.029 A 
ATOM     56  N   UNL A   1      39.600  30.556  31.284  1.00  0.00    -0.354 N 
ATOM     57  C   UNL A   1      42.780  28.718  33.593  1.00  0.00     0.074 A 
ATOM     58  C   UNL A   1      43.370  27.611  32.877  1.00  0.00     0.031 C 
ATOM     59  C   UNL A   1      38.231  30.800  29.532  1.00  0.00     0.029 A 
ATOM     60  C   UNL A   1      38.540  31.323  30.859  1.00  0.00     0.049 A 
ATOM     61  H   UNL A   1      40.035  30.676  32.158  1.00  0.00     0.167 HD
ATOM     62  C   UNL A   1      43.177  29.127  34.820  1.00  0.00     0.037 A 
ATOM     63  C   UNL A   1      37.892  32.331  31.473  1.00  0.00     0.037 A 
ATOM     64  C   UNL A   1      42.608  30.253  35.510  1.00  0.00     0.049 A 
ATOM     65  C   UNL A   1      38.350  32.765  32.841  1.00  0.00     0.074 A 
ATOM     66  C   UNL A   1      42.980  30.793  36.727  1.00  0.00     0.029 A 
ATOM     67  N   UNL A   1      41.543  31.009  35.043  1.00  0.00    -0.354 N 
ATOM     68  N   UNL A   1      39.331  32.289  33.571  1.00  0.00    -0.248 NA
ATOM     69  C   UNL A   1      37.620  33.876  33.466  1.00  0.00     0.031 C 
ATOM     70  C   UNL A   1      42.104  31.842  37.023  1.00  0.00     0.029 A 
ATOM     71  C   UNL A   1      41.226  31.996  35.962  1.00  0.00     0.049 A 
ATOM     72  H   UNL A   1      41.081  30.867  34.186  1.00  0.00     0.167 HD
ATOM     73  C   UNL A   1      39.355  33.063  34.726  1.00  0.00     0.074 A 
ATOM     74  C   UNL A   1      38.299  34.045  34.591  1.00  0.00     0.031 C 
ATOM     75  C   UNL A   1      40.177  32.972  35.803  1.00  0.00     0.037 A 
BRANCH  62  76
ATOM     76  C   UNL A   1      44.280  28.355  35.494  1.00  0.00     0.058 A 
ATOM     77  C   UNL A   1      44.012  27.288  36.367  1.00  0.00     0.135 A 
ATOM     78  C   UNL A   1      45.626  28.664  35.235  1.00  0.00     0.135 A 
ATOM     79  F   UNL A   1      42.745  26.961  36.667  1.00  0.00    -0.206 F 
ATOM     80  C   UNL A   1      45.036  26.572  36.978  1.00  0.00     0.059 A 
ATOM     81  C   UNL A   1      46.666  27.941  35.810  1.00  0.00     0.059 A 
ATOM     82  F   UNL A   1      45.940  29.678  34.414  1.00  0.00    -0.206 F 
ATOM     83  C   UNL A   1      46.361  26.904  36.690  1.00  0.00     0.060 A 
BRANCH  83  84
ATOM     84  S   UNL A   1      47.677  25.954  37.480  1.00  0.00     0.124 S 
ATOM     85  O   UNL A   1      46.965  24.742  37.874  1.00  0.00    -0.237 OA
ATOM     86  O   UNL A   1      48.640  25.797  36.395  1.00  0.00    -0.237 OA
ATOM     87  O   UNL A   1      48.108  26.814  38.577  1.00  0.00    -0.744 OA
ENDBRANCH  83  84
ENDBRANCH  62  76
BRANCH  63  88
ATOM     88  C   UNL A   1      36.760  33.017  30.794  1.00  0.00     0.058 A 
ATOM     89  C   UNL A   1      35.429  32.678  31.085  1.00  0.00     0.135 A 
ATOM     90  C   UNL A   1      36.981  34.026  29.845  1.00  0.00     0.135 A 
ATOM     91  F   UNL A   1      35.164  31.716  31.983  1.00  0.00    -0.206 F 
ATOM     92  C   UNL A   1      34.360  33.296  30.445  1.00  0.00     0.059 A 
ATOM     93  C   UNL A   1      35.928  34.680  29.210  1.00  0.00     0.059 A 
ATOM     94  F   UNL A   1      38.234  34.403  29.542  1.00  0.00    -0.206 F 
ATOM     95  C   UNL A   1      34.621  34.298  29.508  1.00  0.00     0.060 A 
BRANCH  95  96
ATOM     96  S   UNL A   1      33.225  35.121  28.711  1.00  0.00     0.124 S 
ATOM     97  O   UNL A   1      33.898  36.157  27.937  1.00  0.00    -0.237 OA
ATOM     98  O   UNL A   1      32.628  34.033  27.943  1.00  0.00    -0.237 OA
ATOM     99  O   UNL A   1      32.427  35.593  29.839  1.00  0.00    -0.744 OA
ENDBRANCH  95  96
ENDBRANCH  63  88
BRANCH  75 100
ATOM    100  C   UNL A   1      39.998  33.983  36.902  1.00  0.00     0.058 A 
ATOM    101  C   UNL A   1      40.668  35.216  36.889  1.00  0.00     0.135 A 
ATOM    102  C   UNL A   1      39.097  33.735  37.951  1.00  0.00     0.135 A 
ATOM    103  F   UNL A   1      41.544  35.500  35.913  1.00  0.00    -0.206 F 
ATOM    104  C   UNL A   1      40.469  36.158  37.893  1.00  0.00     0.059 A 
ATOM    105  C   UNL A   1      38.859  34.676  38.946  1.00  0.00     0.059 A 
ATOM    106  F   UNL A   1      38.421  32.576  38.002  1.00  0.00    -0.206 F 
ATOM    107  C   UNL A   1      39.561  35.880  38.916  1.00  0.00     0.060 A 
BRANCH 107 108
ATOM    108  S   UNL A   1      39.286  37.127  40.192  1.00  0.00     0.124 S 
ATOM    109  O   UNL A   1      38.604  36.349  41.221  1.00  0.00    -0.237 OA
ATOM    110  O   UNL A   1      40.647  37.548  40.513  1.00  0.00    -0.237 OA
ATOM    111  O   UNL A   1      38.469  38.131  39.519  1.00  0.00    -0.744 OA
ENDBRANCH 107 108
ENDBRANCH  75 100
ENDBRANCH  49  50
ENDBRANCH  41  44
ENDBRANCH  39  40
ENDBRANCH  38  39
ENDBRANCH  37  38
ENDBRANCH  36  37
ENDBRANCH   3  36
TORSDOF 25
ENDMDL
