MODEL 1
REMARK VINA RESULT:     -12.4      0.000      0.000
REMARK SMILES Cn1cc([C@@H]2CC(NCCCCNC(=O)c3ccc(-c4c5nc(c(-c6c(F)cc(S(=O)(=O)[O-])cc6F)c6ccc([nH]6)c(-c6c(F)cc(S(=O)(=O)[O-])cc6F)c6nc(c(-c7c(F)cc(S(=O)(=O)[O-])cc7F)c7ccc4[nH]7)C=C6)C=C5)cc3)=[NH+]c3c2sc(C(=O)[O-])c3-c2ccc(Cl)cc2)cn1
REMARK SMILES IDX 12 1 11 2 10 3 9 4 8 5 5 6 6 7 84 8 7 9 83 10 85 11 82 12
REMARK SMILES IDX 90 13 86 14 4 17 1 18 2 19 3 20 99 21 98 22 91 23 92 24
REMARK SMILES IDX 97 25 93 26 96 27 94 28 95 29 87 30 88 31 89 32 13 33 14 34
REMARK SMILES IDX 15 36 16 37 17 38 81 39 18 40 80 41 19 42 20 43 21 44 74 45
REMARK SMILES IDX 22 46 79 47 73 48 75 49 23 50 78 51 72 52 71 53 24 55 58 56
REMARK SMILES IDX 37 57 57 58 38 59 41 60 56 61 76 62 39 63 40 64 55 66 77 67
REMARK SMILES IDX 42 68 25 69 26 70 35 71 27 72 28 73 34 74 36 75 29 76 30 77
REMARK SMILES IDX 31 78 32 79 33 80 59 81 60 82 69 83 61 84 62 85 68 86 70 87
REMARK SMILES IDX 63 88 64 89 65 90 66 91 67 92 43 93 44 94 53 95 45 96 46 97
REMARK SMILES IDX 52 98 54 99 47 100 48 101 49 102 50 103 51 104
REMARK H PARENT 8 15 82 16 13 35 75 54 41 65
REMARK Flexibility Score: inf
ROOT
ATOM      1  C   UNL A   1      41.398  22.524  27.518  1.00  0.00     0.116 C 
ENDROOT
BRANCH   1   2
ATOM      2  C   UNL A   1      39.941  22.557  27.081  1.00  0.00     0.025 C 
BRANCH   2   3
ATOM      3  C   UNL A   1      39.264  23.929  27.205  1.00  0.00     0.048 C 
BRANCH   3   4
ATOM      4  C   UNL A   1      37.827  24.023  26.681  1.00  0.00     0.233 C 
BRANCH   4   5
ATOM      5  N   UNL A   1      37.401  22.774  26.070  1.00  0.00    -0.278 N 
ATOM      6  C   UNL A   1      34.655  21.036  23.996  1.00  0.00     0.079 C 
ATOM      7  C   UNL A   1      36.001  21.259  24.708  1.00  0.00     0.142 C 
ATOM      8  C   UNL A   1      33.875  22.304  23.942  1.00  0.00     0.061 A 
ATOM      9  C   UNL A   1      36.215  22.625  25.372  1.00  0.00     0.248 C 
ATOM     10  C   UNL A   1      34.235  23.472  24.545  1.00  0.00     0.147 A 
ATOM     11  S   UNL A   1      32.401  22.470  23.111  1.00  0.00    -0.133 S 
ATOM     12  N   UNL A   1      35.393  23.632  25.302  1.00  0.00    -0.243 N 
ATOM     13  C   UNL A   1      33.315  24.547  24.337  1.00  0.00     0.049 A 
ATOM     14  C   UNL A   1      32.221  24.125  23.582  1.00  0.00     0.062 A 
ATOM     15  H   UNL A   1      37.989  21.990  26.157  1.00  0.00     0.304 HD
ATOM     16  H   UNL A   1      35.584  24.479  25.766  1.00  0.00     0.312 HD
BRANCH   6  17
ATOM     17  C   UNL A   1      33.848  19.927  24.616  1.00  0.00    -0.001 A 
ATOM     18  C   UNL A   1      32.712  16.572  25.277  1.00  0.00     0.173 C 
ATOM     19  N   UNL A   1      33.001  17.981  25.183  1.00  0.00    -0.276 N 
ATOM     20  C   UNL A   1      33.766  18.599  24.240  1.00  0.00     0.112 A 
ATOM     21  N   UNL A   1      32.527  18.817  26.122  1.00  0.00    -0.182 NA
ATOM     22  C   UNL A   1      33.052  19.998  25.786  1.00  0.00     0.139 A 
ENDBRANCH   6  17
BRANCH  13  23
ATOM     23  C   UNL A   1      33.511  25.914  24.809  1.00  0.00    -0.012 A 
ATOM     24  C   UNL A   1      33.970  26.923  23.954  1.00  0.00     0.010 A 
ATOM     25  C   UNL A   1      33.213  26.225  26.144  1.00  0.00     0.010 A 
ATOM     26  C   UNL A   1      34.189  28.212  24.446  1.00  0.00     0.021 A 
ATOM     27  C   UNL A   1      33.418  27.517  26.632  1.00  0.00     0.021 A 
ATOM     28  C   UNL A   1      33.920  28.500  25.785  1.00  0.00     0.041 A 
ATOM     29  Cl  UNL A   1      34.219  30.081  26.393  1.00  0.00    -0.084 Cl
ENDBRANCH  13  23
BRANCH  14  30
ATOM     30  C   UNL A   1      31.026  24.795  23.120  1.00  0.00     0.082 C 
ATOM     31  O   UNL A   1      29.877  24.685  23.544  1.00  0.00    -0.544 OA
ATOM     32  O   UNL A   1      31.245  25.645  22.096  1.00  0.00    -0.544 OA
ENDBRANCH  14  30
ENDBRANCH   4   5
ENDBRANCH   3   4
ENDBRANCH   2   3
ENDBRANCH   1   2
BRANCH   1  33
ATOM     33  N   UNL A   1      42.343  22.459  26.401  1.00  0.00    -0.352 N 
ATOM     34  C   UNL A   1      42.751  23.504  25.588  1.00  0.00     0.251 C 
ATOM     35  H   UNL A   1      42.732  21.575  26.208  1.00  0.00     0.163 HD
ATOM     36  O   UNL A   1      43.197  23.293  24.465  1.00  0.00    -0.269 OA
BRANCH  34  37
ATOM     37  C   UNL A   1      42.651  24.880  26.112  1.00  0.00     0.039 A 
ATOM     38  C   UNL A   1      41.732  25.807  25.614  1.00  0.00     0.014 A 
ATOM     39  C   UNL A   1      43.490  25.211  27.171  1.00  0.00     0.014 A 
ATOM     40  C   UNL A   1      41.617  27.042  26.254  1.00  0.00     0.010 A 
ATOM     41  C   UNL A   1      43.246  26.339  27.907  1.00  0.00     0.010 A 
ATOM     42  C   UNL A   1      42.365  27.292  27.418  1.00  0.00    -0.014 A 
BRANCH  42  43
ATOM     43  C   UNL A   1      42.136  28.484  28.234  1.00  0.00     0.031 A 
ATOM     44  C   UNL A   1      43.217  29.498  28.100  1.00  0.00     0.074 A 
ATOM     45  C   UNL A   1      40.956  28.744  28.846  1.00  0.00     0.049 A 
ATOM     46  N   UNL A   1      44.112  29.819  28.975  1.00  0.00    -0.248 NA
ATOM     47  C   UNL A   1      43.461  30.085  26.767  1.00  0.00     0.031 C 
ATOM     48  C   UNL A   1      39.711  27.963  28.780  1.00  0.00     0.029 A 
ATOM     49  N   UNL A   1      40.575  29.823  29.585  1.00  0.00    -0.354 N 
ATOM     50  C   UNL A   1      44.839  30.857  28.399  1.00  0.00     0.074 A 
ATOM     51  C   UNL A   1      44.567  30.800  26.988  1.00  0.00     0.031 C 
ATOM     52  C   UNL A   1      38.676  28.703  29.236  1.00  0.00     0.029 A 
ATOM     53  C   UNL A   1      39.199  29.932  29.799  1.00  0.00     0.049 A 
ATOM     54  H   UNL A   1      41.220  30.476  29.942  1.00  0.00     0.167 HD
ATOM     55  C   UNL A   1      45.342  31.861  29.170  1.00  0.00     0.037 A 
ATOM     56  C   UNL A   1      38.535  30.957  30.398  1.00  0.00     0.037 A 
ATOM     57  C   UNL A   1      45.351  31.477  30.563  1.00  0.00     0.049 A 
ATOM     58  C   UNL A   1      39.536  31.697  31.203  1.00  0.00     0.074 A 
ATOM     59  C   UNL A   1      45.928  30.459  31.293  1.00  0.00     0.029 A 
ATOM     60  N   UNL A   1      44.337  31.978  31.341  1.00  0.00    -0.354 N 
ATOM     61  N   UNL A   1      40.151  31.192  32.237  1.00  0.00    -0.248 NA
ATOM     62  C   UNL A   1      40.196  32.830  30.577  1.00  0.00     0.031 C 
ATOM     63  C   UNL A   1      44.949  30.101  32.268  1.00  0.00     0.029 A 
ATOM     64  C   UNL A   1      43.865  30.973  32.144  1.00  0.00     0.049 A 
ATOM     65  H   UNL A   1      44.005  32.905  31.326  1.00  0.00     0.167 HD
ATOM     66  C   UNL A   1      41.460  31.637  32.122  1.00  0.00     0.074 A 
ATOM     67  C   UNL A   1      41.401  32.719  31.139  1.00  0.00     0.031 C 
ATOM     68  C   UNL A   1      42.496  30.894  32.613  1.00  0.00     0.037 A 
BRANCH  55  69
ATOM     69  C   UNL A   1      45.399  33.316  28.743  1.00  0.00     0.058 A 
ATOM     70  C   UNL A   1      46.607  34.029  28.893  1.00  0.00     0.135 A 
ATOM     71  C   UNL A   1      44.261  34.109  28.468  1.00  0.00     0.135 A 
ATOM     72  F   UNL A   1      47.750  33.383  29.174  1.00  0.00    -0.206 F 
ATOM     73  C   UNL A   1      46.666  35.423  28.844  1.00  0.00     0.059 A 
ATOM     74  C   UNL A   1      44.308  35.494  28.359  1.00  0.00     0.059 A 
ATOM     75  F   UNL A   1      43.027  33.600  28.388  1.00  0.00    -0.206 F 
ATOM     76  C   UNL A   1      45.506  36.146  28.584  1.00  0.00     0.060 A 
BRANCH  76  77
ATOM     77  S   UNL A   1      45.560  37.946  28.587  1.00  0.00     0.124 S 
ATOM     78  O   UNL A   1      46.990  38.195  28.460  1.00  0.00    -0.237 OA
ATOM     79  O   UNL A   1      44.744  38.271  27.422  1.00  0.00    -0.237 OA
ATOM     80  O   UNL A   1      44.968  38.296  29.876  1.00  0.00    -0.744 OA
ENDBRANCH  76  77
ENDBRANCH  55  69
BRANCH  56  81
ATOM     81  C   UNL A   1      37.197  31.527  30.073  1.00  0.00     0.058 A 
ATOM     82  C   UNL A   1      36.341  32.029  31.073  1.00  0.00     0.135 A 
ATOM     83  C   UNL A   1      36.856  31.861  28.747  1.00  0.00     0.135 A 
ATOM     84  F   UNL A   1      36.604  31.788  32.367  1.00  0.00    -0.206 F 
ATOM     85  C   UNL A   1      35.238  32.844  30.779  1.00  0.00     0.059 A 
ATOM     86  C   UNL A   1      35.761  32.668  28.430  1.00  0.00     0.059 A 
ATOM     87  F   UNL A   1      37.638  31.486  27.723  1.00  0.00    -0.206 F 
ATOM     88  C   UNL A   1      34.966  33.173  29.452  1.00  0.00     0.060 A 
BRANCH  88  89
ATOM     89  S   UNL A   1      33.635  34.343  29.073  1.00  0.00     0.124 S 
ATOM     90  O   UNL A   1      34.359  35.419  28.406  1.00  0.00    -0.237 OA
ATOM     91  O   UNL A   1      32.754  33.546  28.225  1.00  0.00    -0.237 OA
ATOM     92  O   UNL A   1      33.094  34.678  30.388  1.00  0.00    -0.744 OA
ENDBRANCH  88  89
ENDBRANCH  56  81
BRANCH  68  93
ATOM     93  C   UNL A   1      42.179  29.788  33.591  1.00  0.00     0.058 A 
ATOM     94  C   UNL A   1      41.829  28.469  33.249  1.00  0.00     0.135 A 
ATOM     95  C   UNL A   1      42.374  30.061  34.954  1.00  0.00     0.135 A 
ATOM     96  F   UNL A   1      41.712  28.096  31.966  1.00  0.00    -0.206 F 
ATOM     97  C   UNL A   1      41.646  27.480  34.220  1.00  0.00     0.059 A 
ATOM     98  C   UNL A   1      42.230  29.084  35.935  1.00  0.00     0.059 A 
ATOM     99  F   UNL A   1      42.762  31.286  35.345  1.00  0.00    -0.206 F 
ATOM    100  C   UNL A   1      41.852  27.798  35.563  1.00  0.00     0.060 A 
BRANCH 100 101
ATOM    101  S   UNL A   1      41.677  26.511  36.819  1.00  0.00     0.124 S 
ATOM    102  O   UNL A   1      40.403  26.858  37.440  1.00  0.00    -0.237 OA
ATOM    103  O   UNL A   1      41.681  25.287  36.023  1.00  0.00    -0.237 OA
ATOM    104  O   UNL A   1      42.854  26.698  37.664  1.00  0.00    -0.744 OA
ENDBRANCH 100 101
ENDBRANCH  68  93
ENDBRANCH  42  43
ENDBRANCH  34  37
ENDBRANCH   1  33
TORSDOF 16
ENDMDL
MODEL 2
REMARK VINA RESULT:     -11.8      3.411      9.343
REMARK SMILES Cn1cc([C@@H]2CC(NCCCCNC(=O)c3ccc(-c4c5nc(c(-c6c(F)cc(S(=O)(=O)[O-])cc6F)c6ccc([nH]6)c(-c6c(F)cc(S(=O)(=O)[O-])cc6F)c6nc(c(-c7c(F)cc(S(=O)(=O)[O-])cc7F)c7ccc4[nH]7)C=C6)C=C5)cc3)=[NH+]c3c2sc(C(=O)[O-])c3-c2ccc(Cl)cc2)cn1
REMARK SMILES IDX 12 1 11 2 10 3 9 4 8 5 5 6 6 7 84 8 7 9 83 10 85 11 82 12
REMARK SMILES IDX 90 13 86 14 4 17 1 18 2 19 3 20 99 21 98 22 91 23 92 24
REMARK SMILES IDX 97 25 93 26 96 27 94 28 95 29 87 30 88 31 89 32 13 33 14 34
REMARK SMILES IDX 15 36 16 37 17 38 81 39 18 40 80 41 19 42 20 43 21 44 74 45
REMARK SMILES IDX 22 46 79 47 73 48 75 49 23 50 78 51 72 52 71 53 24 55 58 56
REMARK SMILES IDX 37 57 57 58 38 59 41 60 56 61 76 62 39 63 40 64 55 66 77 67
REMARK SMILES IDX 42 68 25 69 26 70 35 71 27 72 28 73 34 74 36 75 29 76 30 77
REMARK SMILES IDX 31 78 32 79 33 80 59 81 60 82 69 83 61 84 62 85 68 86 70 87
REMARK SMILES IDX 63 88 64 89 65 90 66 91 67 92 43 93 44 94 53 95 45 96 46 97
REMARK SMILES IDX 52 98 54 99 47 100 48 101 49 102 50 103 51 104
REMARK H PARENT 8 15 82 16 13 35 75 54 41 65
REMARK Flexibility Score: inf
ROOT
ATOM      1  C   UNL A   1      35.619  32.659  28.471  1.00  0.00     0.116 C 
ENDROOT
BRANCH   1   2
ATOM      2  C   UNL A   1      34.927  31.521  27.735  1.00  0.00     0.025 C 
BRANCH   2   3
ATOM      3  C   UNL A   1      35.722  30.209  27.685  1.00  0.00     0.048 C 
BRANCH   3   4
ATOM      4  C   UNL A   1      34.994  28.999  27.090  1.00  0.00     0.233 C 
BRANCH   4   5
ATOM      5  N   UNL A   1      33.654  29.350  26.647  1.00  0.00    -0.278 N 
ATOM      6  C   UNL A   1      30.492  28.107  24.827  1.00  0.00     0.079 C 
ATOM      7  C   UNL A   1      31.409  29.008  25.672  1.00  0.00     0.142 C 
ATOM      8  C   UNL A   1      31.132  26.782  24.592  1.00  0.00     0.061 A 
ATOM      9  C   UNL A   1      32.825  28.488  25.950  1.00  0.00     0.248 C 
ATOM     10  C   UNL A   1      32.401  26.449  24.960  1.00  0.00     0.147 A 
ATOM     11  S   UNL A   1      30.356  25.483  23.816  1.00  0.00    -0.133 S 
ATOM     12  N   UNL A   1      33.276  27.316  25.609  1.00  0.00    -0.243 N 
ATOM     13  C   UNL A   1      32.776  25.110  24.624  1.00  0.00     0.049 A 
ATOM     14  C   UNL A   1      31.745  24.460  23.947  1.00  0.00     0.062 A 
ATOM     15  H   UNL A   1      33.318  30.252  26.854  1.00  0.00     0.304 HD
ATOM     16  H   UNL A   1      34.203  27.050  25.805  1.00  0.00     0.312 HD
BRANCH   6  17
ATOM     17  C   UNL A   1      30.082  28.749  23.529  1.00  0.00    -0.001 A 
ATOM     18  C   UNL A   1      28.013  30.525  21.174  1.00  0.00     0.173 C 
ATOM     19  N   UNL A   1      29.006  29.809  21.934  1.00  0.00    -0.276 N 
ATOM     20  C   UNL A   1      28.835  29.207  23.144  1.00  0.00     0.112 A 
ATOM     21  N   UNL A   1      30.264  29.732  21.469  1.00  0.00    -0.182 NA
ATOM     22  C   UNL A   1      30.922  29.099  22.443  1.00  0.00     0.139 A 
ENDBRANCH   6  17
BRANCH  13  23
ATOM     23  C   UNL A   1      34.048  24.488  24.978  1.00  0.00    -0.012 A 
ATOM     24  C   UNL A   1      34.273  23.963  26.257  1.00  0.00     0.010 A 
ATOM     25  C   UNL A   1      35.058  24.397  24.009  1.00  0.00     0.010 A 
ATOM     26  C   UNL A   1      35.516  23.412  26.579  1.00  0.00     0.021 A 
ATOM     27  C   UNL A   1      36.295  23.834  24.327  1.00  0.00     0.021 A 
ATOM     28  C   UNL A   1      36.524  23.358  25.615  1.00  0.00     0.041 A 
ATOM     29  Cl  UNL A   1      38.062  22.706  26.025  1.00  0.00    -0.084 Cl
ENDBRANCH  13  23
BRANCH  14  30
ATOM     30  C   UNL A   1      31.619  23.136  23.380  1.00  0.00     0.082 C 
ATOM     31  O   UNL A   1      32.471  22.253  23.309  1.00  0.00    -0.544 OA
ATOM     32  O   UNL A   1      30.393  22.875  22.884  1.00  0.00    -0.544 OA
ENDBRANCH  14  30
ENDBRANCH   4   5
ENDBRANCH   3   4
ENDBRANCH   2   3
ENDBRANCH   1   2
BRANCH   1  33
ATOM     33  N   UNL A   1      35.009  32.977  29.764  1.00  0.00    -0.352 N 
ATOM     34  C   UNL A   1      35.175  32.294  30.959  1.00  0.00     0.251 C 
ATOM     35  H   UNL A   1      34.416  33.763  29.787  1.00  0.00     0.163 HD
ATOM     36  O   UNL A   1      34.337  32.371  31.850  1.00  0.00    -0.269 OA
BRANCH  34  37
ATOM     37  C   UNL A   1      36.395  31.484  31.138  1.00  0.00     0.039 A 
ATOM     38  C   UNL A   1      36.370  30.087  31.165  1.00  0.00     0.014 A 
ATOM     39  C   UNL A   1      37.599  32.173  31.237  1.00  0.00     0.014 A 
ATOM     40  C   UNL A   1      37.583  29.398  31.209  1.00  0.00     0.010 A 
ATOM     41  C   UNL A   1      38.782  31.503  31.091  1.00  0.00     0.010 A 
ATOM     42  C   UNL A   1      38.790  30.116  31.149  1.00  0.00    -0.014 A 
BRANCH  42  43
ATOM     43  C   UNL A   1      40.077  29.440  30.992  1.00  0.00     0.031 A 
ATOM     44  C   UNL A   1      40.819  29.296  32.274  1.00  0.00     0.074 A 
ATOM     45  C   UNL A   1      40.439  28.795  29.857  1.00  0.00     0.049 A 
ATOM     46  N   UNL A   1      41.887  29.923  32.643  1.00  0.00    -0.248 NA
ATOM     47  C   UNL A   1      40.194  28.513  33.358  1.00  0.00     0.031 C 
ATOM     48  C   UNL A   1      39.644  28.600  28.635  1.00  0.00     0.029 A 
ATOM     49  N   UNL A   1      41.565  28.081  29.580  1.00  0.00    -0.354 N 
ATOM     50  C   UNL A   1      42.223  29.387  33.884  1.00  0.00     0.074 A 
ATOM     51  C   UNL A   1      41.038  28.733  34.369  1.00  0.00     0.031 C 
ATOM     52  C   UNL A   1      40.203  27.637  27.868  1.00  0.00     0.029 A 
ATOM     53  C   UNL A   1      41.485  27.278  28.440  1.00  0.00     0.049 A 
ATOM     54  H   UNL A   1      42.374  28.127  30.140  1.00  0.00     0.167 HD
ATOM     55  C   UNL A   1      43.528  29.257  34.250  1.00  0.00     0.037 A 
ATOM     56  C   UNL A   1      42.408  26.383  27.993  1.00  0.00     0.037 A 
ATOM     57  C   UNL A   1      44.377  30.066  33.408  1.00  0.00     0.049 A 
ATOM     58  C   UNL A   1      43.694  26.746  28.634  1.00  0.00     0.074 A 
ATOM     59  C   UNL A   1      44.466  31.411  33.111  1.00  0.00     0.029 A 
ATOM     60  N   UNL A   1      45.048  29.410  32.405  1.00  0.00    -0.354 N 
ATOM     61  N   UNL A   1      44.331  27.861  28.402  1.00  0.00    -0.248 NA
ATOM     62  C   UNL A   1      44.032  26.083  29.883  1.00  0.00     0.031 C 
ATOM     63  C   UNL A   1      44.786  31.464  31.722  1.00  0.00     0.029 A 
ATOM     64  C   UNL A   1      44.964  30.158  31.261  1.00  0.00     0.049 A 
ATOM     65  H   UNL A   1      45.512  28.546  32.495  1.00  0.00     0.167 HD
ATOM     66  C   UNL A   1      44.801  28.265  29.642  1.00  0.00     0.074 A 
ATOM     67  C   UNL A   1      44.672  27.083  30.494  1.00  0.00     0.031 C 
ATOM     68  C   UNL A   1      44.971  29.591  29.927  1.00  0.00     0.037 A 
BRANCH  55  69
ATOM     69  C   UNL A   1      44.076  28.086  35.045  1.00  0.00     0.058 A 
ATOM     70  C   UNL A   1      44.907  28.340  36.157  1.00  0.00     0.135 A 
ATOM     71  C   UNL A   1      44.058  26.744  34.600  1.00  0.00     0.135 A 
ATOM     72  F   UNL A   1      45.017  29.581  36.656  1.00  0.00    -0.206 F 
ATOM     73  C   UNL A   1      45.709  27.354  36.734  1.00  0.00     0.059 A 
ATOM     74  C   UNL A   1      44.806  25.736  35.196  1.00  0.00     0.059 A 
ATOM     75  F   UNL A   1      43.395  26.354  33.506  1.00  0.00    -0.206 F 
ATOM     76  C   UNL A   1      45.657  26.055  36.239  1.00  0.00     0.060 A 
BRANCH  76  77
ATOM     77  S   UNL A   1      46.738  24.793  36.931  1.00  0.00     0.124 S 
ATOM     78  O   UNL A   1      46.282  24.745  38.314  1.00  0.00    -0.237 OA
ATOM     79  O   UNL A   1      46.413  23.635  36.106  1.00  0.00    -0.237 OA
ATOM     80  O   UNL A   1      48.074  25.347  36.724  1.00  0.00    -0.744 OA
ENDBRANCH  76  77
ENDBRANCH  55  69
BRANCH  56  81
ATOM     81  C   UNL A   1      42.195  25.068  27.327  1.00  0.00     0.058 A 
ATOM     82  C   UNL A   1      43.125  24.542  26.409  1.00  0.00     0.135 A 
ATOM     83  C   UNL A   1      41.220  24.166  27.799  1.00  0.00     0.135 A 
ATOM     84  F   UNL A   1      44.108  25.318  25.927  1.00  0.00    -0.206 F 
ATOM     85  C   UNL A   1      43.113  23.196  26.014  1.00  0.00     0.059 A 
ATOM     86  C   UNL A   1      41.187  22.823  27.419  1.00  0.00     0.059 A 
ATOM     87  F   UNL A   1      40.324  24.548  28.723  1.00  0.00    -0.206 F 
ATOM     88  C   UNL A   1      42.148  22.338  26.540  1.00  0.00     0.060 A 
BRANCH  88  89
ATOM     89  S   UNL A   1      42.214  20.569  26.153  1.00  0.00     0.124 S 
ATOM     90  O   UNL A   1      43.335  20.504  25.222  1.00  0.00    -0.237 OA
ATOM     91  O   UNL A   1      42.440  19.973  27.466  1.00  0.00    -0.237 OA
ATOM     92  O   UNL A   1      40.903  20.302  25.567  1.00  0.00    -0.744 OA
ENDBRANCH  88  89
ENDBRANCH  56  81
BRANCH  68  93
ATOM     93  C   UNL A   1      44.998  30.568  28.776  1.00  0.00     0.058 A 
ATOM     94  C   UNL A   1      43.868  31.130  28.154  1.00  0.00     0.135 A 
ATOM     95  C   UNL A   1      46.252  31.058  28.379  1.00  0.00     0.135 A 
ATOM     96  F   UNL A   1      42.628  30.789  28.535  1.00  0.00    -0.206 F 
ATOM     97  C   UNL A   1      43.984  32.104  27.158  1.00  0.00     0.059 A 
ATOM     98  C   UNL A   1      46.390  32.050  27.413  1.00  0.00     0.059 A 
ATOM     99  F   UNL A   1      47.369  30.604  28.971  1.00  0.00    -0.206 F 
ATOM    100  C   UNL A   1      45.252  32.560  26.795  1.00  0.00     0.060 A 
BRANCH 100 101
ATOM    101  S   UNL A   1      45.407  33.862  25.552  1.00  0.00     0.124 S 
ATOM    102  O   UNL A   1      44.663  33.304  24.428  1.00  0.00    -0.237 OA
ATOM    103  O   UNL A   1      44.792  35.009  26.214  1.00  0.00    -0.237 OA
ATOM    104  O   UNL A   1      46.850  33.971  25.351  1.00  0.00    -0.744 OA
ENDBRANCH 100 101
ENDBRANCH  68  93
ENDBRANCH  42  43
ENDBRANCH  34  37
ENDBRANCH   1  33
TORSDOF 16
ENDMDL
MODEL 3
REMARK VINA RESULT:     -11.7      3.164      8.256
REMARK SMILES Cn1cc([C@@H]2CC(NCCCCNC(=O)c3ccc(-c4c5nc(c(-c6c(F)cc(S(=O)(=O)[O-])cc6F)c6ccc([nH]6)c(-c6c(F)cc(S(=O)(=O)[O-])cc6F)c6nc(c(-c7c(F)cc(S(=O)(=O)[O-])cc7F)c7ccc4[nH]7)C=C6)C=C5)cc3)=[NH+]c3c2sc(C(=O)[O-])c3-c2ccc(Cl)cc2)cn1
REMARK SMILES IDX 12 1 11 2 10 3 9 4 8 5 5 6 6 7 84 8 7 9 83 10 85 11 82 12
REMARK SMILES IDX 90 13 86 14 4 17 1 18 2 19 3 20 99 21 98 22 91 23 92 24
REMARK SMILES IDX 97 25 93 26 96 27 94 28 95 29 87 30 88 31 89 32 13 33 14 34
REMARK SMILES IDX 15 36 16 37 17 38 81 39 18 40 80 41 19 42 20 43 21 44 74 45
REMARK SMILES IDX 22 46 79 47 73 48 75 49 23 50 78 51 72 52 71 53 24 55 58 56
REMARK SMILES IDX 37 57 57 58 38 59 41 60 56 61 76 62 39 63 40 64 55 66 77 67
REMARK SMILES IDX 42 68 25 69 26 70 35 71 27 72 28 73 34 74 36 75 29 76 30 77
REMARK SMILES IDX 31 78 32 79 33 80 59 81 60 82 69 83 61 84 62 85 68 86 70 87
REMARK SMILES IDX 63 88 64 89 65 90 66 91 67 92 43 93 44 94 53 95 45 96 46 97
REMARK SMILES IDX 52 98 54 99 47 100 48 101 49 102 50 103 51 104
REMARK H PARENT 8 15 82 16 13 35 75 54 41 65
REMARK Flexibility Score: inf
ROOT
ATOM      1  C   UNL A   1      32.716  32.443  27.363  1.00  0.00     0.116 C 
ENDROOT
BRANCH   1   2
ATOM      2  C   UNL A   1      31.565  31.827  26.583  1.00  0.00     0.025 C 
BRANCH   2   3
ATOM      3  C   UNL A   1      31.724  30.330  26.277  1.00  0.00     0.048 C 
BRANCH   3   4
ATOM      4  C   UNL A   1      31.692  29.386  27.484  1.00  0.00     0.233 C 
BRANCH   4   5
ATOM      5  N   UNL A   1      32.804  28.450  27.454  1.00  0.00    -0.278 N 
ATOM      6  C   UNL A   1      34.733  25.888  25.314  1.00  0.00     0.079 C 
ATOM      7  C   UNL A   1      34.399  26.828  26.485  1.00  0.00     0.142 C 
ATOM      8  C   UNL A   1      33.807  26.127  24.171  1.00  0.00     0.061 A 
ATOM      9  C   UNL A   1      33.122  27.670  26.356  1.00  0.00     0.248 C 
ATOM     10  C   UNL A   1      32.735  26.967  24.194  1.00  0.00     0.147 A 
ATOM     11  S   UNL A   1      33.963  25.369  22.657  1.00  0.00    -0.133 S 
ATOM     12  N   UNL A   1      32.358  27.718  25.304  1.00  0.00    -0.243 N 
ATOM     13  C   UNL A   1      32.008  27.022  22.963  1.00  0.00     0.049 A 
ATOM     14  C   UNL A   1      32.558  26.154  22.022  1.00  0.00     0.062 A 
ATOM     15  H   UNL A   1      33.362  28.365  28.261  1.00  0.00     0.304 HD
ATOM     16  H   UNL A   1      31.542  28.268  25.292  1.00  0.00     0.312 HD
BRANCH   6  17
ATOM     17  C   UNL A   1      34.735  24.438  25.717  1.00  0.00    -0.001 A 
ATOM     18  C   UNL A   1      33.486  21.314  27.006  1.00  0.00     0.173 C 
ATOM     19  N   UNL A   1      34.194  22.439  26.448  1.00  0.00    -0.276 N 
ATOM     20  C   UNL A   1      33.800  23.743  26.462  1.00  0.00     0.112 A 
ATOM     21  N   UNL A   1      35.350  22.233  25.795  1.00  0.00    -0.182 NA
ATOM     22  C   UNL A   1      35.673  23.446  25.339  1.00  0.00     0.139 A 
ENDBRANCH   6  17
BRANCH  13  23
ATOM     23  C   UNL A   1      30.872  27.902  22.706  1.00  0.00    -0.012 A 
ATOM     24  C   UNL A   1      31.022  29.104  22.005  1.00  0.00     0.010 A 
ATOM     25  C   UNL A   1      29.598  27.521  23.155  1.00  0.00     0.010 A 
ATOM     26  C   UNL A   1      29.923  29.945  21.812  1.00  0.00     0.021 A 
ATOM     27  C   UNL A   1      28.497  28.354  22.950  1.00  0.00     0.021 A 
ATOM     28  C   UNL A   1      28.668  29.570  22.294  1.00  0.00     0.041 A 
ATOM     29  Cl  UNL A   1      27.323  30.622  22.080  1.00  0.00    -0.084 Cl
ENDBRANCH  13  23
BRANCH  14  30
ATOM     30  C   UNL A   1      32.199  25.820  20.661  1.00  0.00     0.082 C 
ATOM     31  O   UNL A   1      31.103  25.919  20.115  1.00  0.00    -0.544 OA
ATOM     32  O   UNL A   1      33.231  25.349  19.931  1.00  0.00    -0.544 OA
ENDBRANCH  14  30
ENDBRANCH   4   5
ENDBRANCH   3   4
ENDBRANCH   2   3
ENDBRANCH   1   2
BRANCH   1  33
ATOM     33  N   UNL A   1      32.473  33.830  27.768  1.00  0.00    -0.352 N 
ATOM     34  C   UNL A   1      33.115  34.533  28.775  1.00  0.00     0.251 C 
ATOM     35  H   UNL A   1      31.778  34.316  27.268  1.00  0.00     0.163 HD
ATOM     36  O   UNL A   1      32.584  35.504  29.303  1.00  0.00    -0.269 OA
BRANCH  34  37
ATOM     37  C   UNL A   1      34.462  34.094  29.186  1.00  0.00     0.039 A 
ATOM     38  C   UNL A   1      34.687  33.351  30.348  1.00  0.00     0.014 A 
ATOM     39  C   UNL A   1      35.515  34.414  28.335  1.00  0.00     0.014 A 
ATOM     40  C   UNL A   1      35.972  32.867  30.593  1.00  0.00     0.010 A 
ATOM     41  C   UNL A   1      36.722  33.787  28.478  1.00  0.00     0.010 A 
ATOM     42  C   UNL A   1      36.984  33.072  29.638  1.00  0.00    -0.014 A 
BRANCH  42  43
ATOM     43  C   UNL A   1      38.288  32.420  29.751  1.00  0.00     0.031 A 
ATOM     44  C   UNL A   1      38.261  30.988  29.346  1.00  0.00     0.074 A 
ATOM     45  C   UNL A   1      39.439  33.103  29.959  1.00  0.00     0.049 A 
ATOM     46  N   UNL A   1      38.360  29.950  30.108  1.00  0.00    -0.248 NA
ATOM     47  C   UNL A   1      37.878  30.663  27.958  1.00  0.00     0.031 C 
ATOM     48  C   UNL A   1      39.622  34.560  30.053  1.00  0.00     0.029 A 
ATOM     49  N   UNL A   1      40.722  32.651  30.030  1.00  0.00    -0.354 N 
ATOM     50  C   UNL A   1      38.348  28.855  29.249  1.00  0.00     0.074 A 
ATOM     51  C   UNL A   1      37.806  29.331  28.005  1.00  0.00     0.031 C 
ATOM     52  C   UNL A   1      40.931  34.871  29.925  1.00  0.00     0.029 A 
ATOM     53  C   UNL A   1      41.701  33.643  29.929  1.00  0.00     0.049 A 
ATOM     54  H   UNL A   1      40.943  31.698  30.146  1.00  0.00     0.167 HD
ATOM     55  C   UNL A   1      39.079  27.742  29.535  1.00  0.00     0.037 A 
ATOM     56  C   UNL A   1      43.048  33.469  29.857  1.00  0.00     0.037 A 
ATOM     57  C   UNL A   1      39.476  27.737  30.924  1.00  0.00     0.049 A 
ATOM     58  C   UNL A   1      43.329  32.111  30.381  1.00  0.00     0.074 A 
ATOM     59  C   UNL A   1      38.810  27.763  32.132  1.00  0.00     0.029 A 
ATOM     60  N   UNL A   1      40.767  28.120  31.192  1.00  0.00    -0.354 N 
ATOM     61  N   UNL A   1      43.122  31.756  31.620  1.00  0.00    -0.248 NA
ATOM     62  C   UNL A   1      43.395  31.022  29.422  1.00  0.00     0.031 C 
ATOM     63  C   UNL A   1      39.606  28.592  32.977  1.00  0.00     0.029 A 
ATOM     64  C   UNL A   1      40.758  28.957  32.277  1.00  0.00     0.049 A 
ATOM     65  H   UNL A   1      41.565  27.840  30.689  1.00  0.00     0.167 HD
ATOM     66  C   UNL A   1      42.595  30.475  31.536  1.00  0.00     0.074 A 
ATOM     67  C   UNL A   1      42.880  30.042  30.168  1.00  0.00     0.031 C 
ATOM     68  C   UNL A   1      41.728  30.013  32.487  1.00  0.00     0.037 A 
BRANCH  55  69
ATOM     69  C   UNL A   1      39.805  26.909  28.495  1.00  0.00     0.058 A 
ATOM     70  C   UNL A   1      39.625  25.510  28.489  1.00  0.00     0.135 A 
ATOM     71  C   UNL A   1      40.876  27.383  27.703  1.00  0.00     0.135 A 
ATOM     72  F   UNL A   1      38.650  24.944  29.218  1.00  0.00    -0.206 F 
ATOM     73  C   UNL A   1      40.483  24.646  27.806  1.00  0.00     0.059 A 
ATOM     74  C   UNL A   1      41.708  26.544  26.971  1.00  0.00     0.059 A 
ATOM     75  F   UNL A   1      41.238  28.670  27.671  1.00  0.00    -0.206 F 
ATOM     76  C   UNL A   1      41.529  25.176  27.056  1.00  0.00     0.060 A 
BRANCH  76  77
ATOM     77  S   UNL A   1      42.682  24.068  26.229  1.00  0.00     0.124 S 
ATOM     78  O   UNL A   1      43.710  23.903  27.249  1.00  0.00    -0.237 OA
ATOM     79  O   UNL A   1      41.843  22.904  25.967  1.00  0.00    -0.237 OA
ATOM     80  O   UNL A   1      43.082  24.824  25.045  1.00  0.00    -0.744 OA
ENDBRANCH  76  77
ENDBRANCH  55  69
BRANCH  56  81
ATOM     81  C   UNL A   1      44.055  34.245  29.080  1.00  0.00     0.058 A 
ATOM     82  C   UNL A   1      45.364  34.452  29.558  1.00  0.00     0.135 A 
ATOM     83  C   UNL A   1      43.843  34.548  27.720  1.00  0.00     0.135 A 
ATOM     84  F   UNL A   1      45.667  34.162  30.833  1.00  0.00    -0.206 F 
ATOM     85  C   UNL A   1      46.406  34.894  28.731  1.00  0.00     0.059 A 
ATOM     86  C   UNL A   1      44.864  34.991  26.877  1.00  0.00     0.059 A 
ATOM     87  F   UNL A   1      42.649  34.329  27.148  1.00  0.00    -0.206 F 
ATOM     88  C   UNL A   1      46.149  35.145  27.384  1.00  0.00     0.060 A 
BRANCH  88  89
ATOM     89  S   UNL A   1      47.517  35.571  26.274  1.00  0.00     0.124 S 
ATOM     90  O   UNL A   1      47.137  36.907  25.826  1.00  0.00    -0.237 OA
ATOM     91  O   UNL A   1      48.672  35.501  27.163  1.00  0.00    -0.237 OA
ATOM     92  O   UNL A   1      47.458  34.532  25.249  1.00  0.00    -0.744 OA
ENDBRANCH  88  89
ENDBRANCH  56  81
BRANCH  68  93
ATOM     93  C   UNL A   1      41.645  30.758  33.797  1.00  0.00     0.058 A 
ATOM     94  C   UNL A   1      40.765  31.819  34.080  1.00  0.00     0.135 A 
ATOM     95  C   UNL A   1      42.416  30.270  34.864  1.00  0.00     0.135 A 
ATOM     96  F   UNL A   1      39.925  32.288  33.146  1.00  0.00    -0.206 F 
ATOM     97  C   UNL A   1      40.685  32.390  35.354  1.00  0.00     0.059 A 
ATOM     98  C   UNL A   1      42.329  30.801  36.146  1.00  0.00     0.059 A 
ATOM     99  F   UNL A   1      43.237  29.224  34.675  1.00  0.00    -0.206 F 
ATOM    100  C   UNL A   1      41.472  31.871  36.383  1.00  0.00     0.060 A 
BRANCH 100 101
ATOM    101  S   UNL A   1      41.331  32.564  38.046  1.00  0.00     0.124 S 
ATOM    102  O   UNL A   1      39.905  32.425  38.317  1.00  0.00    -0.237 OA
ATOM    103  O   UNL A   1      42.212  31.699  38.826  1.00  0.00    -0.237 OA
ATOM    104  O   UNL A   1      41.804  33.937  37.885  1.00  0.00    -0.744 OA
ENDBRANCH 100 101
ENDBRANCH  68  93
ENDBRANCH  42  43
ENDBRANCH  34  37
ENDBRANCH   1  33
TORSDOF 16
ENDMDL
