MODEL 1
REMARK VINA RESULT:     -11.4      0.000      0.000
REMARK SMILES C[C@H]1C[C@H]1CN(C)c1cccc(F)c1C(=O)NCCCCNC(=O)c1ccc(-c2c3nc(c(-c4c(F)cc(S(=O)(=O)[O-])cc4F)c4ccc([nH]4)c(-c4c(F)cc(S(=O)(=O)[O-])cc4F)c4nc(c(-c5c(F)cc(S(=O)(=O)[O-])cc5F)c5ccc2[nH]5)C=C4)C=C3)cc1
REMARK SMILES IDX 19 1 18 2 17 3 15 4 16 5 14 7 8 8 9 9 10 10 12 11 11 12
REMARK SMILES IDX 13 13 6 14 7 15 5 16 4 17 1 18 2 19 3 20 20 21 21 22 22 23
REMARK SMILES IDX 23 24 24 26 25 27 26 28 90 29 27 30 89 31 28 32 29 33 30 34
REMARK SMILES IDX 83 35 31 36 88 37 82 38 84 39 32 40 87 41 81 42 80 43 33 45
REMARK SMILES IDX 67 46 46 47 66 48 47 49 50 50 65 51 85 52 48 53 49 54 64 56
REMARK SMILES IDX 86 57 51 58 34 59 35 60 44 61 36 62 37 63 43 64 45 65 38 66
REMARK SMILES IDX 39 67 40 68 41 69 42 70 68 71 69 72 78 73 70 74 71 75 77 76
REMARK SMILES IDX 79 77 72 78 73 79 74 80 75 81 76 82 52 83 53 84 62 85 54 86
REMARK SMILES IDX 55 87 61 88 63 89 56 90 57 91 58 92 59 93 60 94
REMARK H PARENT 17 6 22 25 84 44 50 55
REMARK Flexibility Score: inf
ROOT
ATOM      1  C   UNL A   1      37.530  21.769  25.242  1.00  0.00     0.023 C 
ENDROOT
BRANCH   1   2
ATOM      2  C   UNL A   1      36.213  21.011  25.377  1.00  0.00     0.116 C 
BRANCH   2   3
ATOM      3  N   UNL A   1      35.381  21.363  26.521  1.00  0.00    -0.352 N 
ATOM      4  C   UNL A   1      33.997  21.485  26.590  1.00  0.00     0.256 C 
ATOM      5  O   UNL A   1      33.457  21.548  27.692  1.00  0.00    -0.269 OA
ATOM      6  H   UNL A   1      35.864  21.539  27.360  1.00  0.00     0.163 HD
BRANCH   4   7
ATOM      7  C   UNL A   1      33.193  21.583  25.345  1.00  0.00     0.098 A 
ATOM      8  C   UNL A   1      32.714  22.804  24.823  1.00  0.00     0.052 A 
ATOM      9  C   UNL A   1      32.206  22.789  23.507  1.00  0.00     0.027 A 
ATOM     10  C   UNL A   1      32.048  21.610  22.781  1.00  0.00     0.005 A 
ATOM     11  C   UNL A   1      32.905  20.394  24.659  1.00  0.00     0.138 A 
ATOM     12  C   UNL A   1      32.353  20.400  23.382  1.00  0.00     0.040 A 
ATOM     13  F   UNL A   1      33.180  19.200  25.207  1.00  0.00    -0.206 F 
BRANCH   8  14
ATOM     14  N   UNL A   1      32.577  24.006  25.514  1.00  0.00    -0.374 N 
ATOM     15  C   UNL A   1      31.449  24.242  26.397  1.00  0.00     0.143 C 
BRANCH  14  16
ATOM     16  C   UNL A   1      33.289  25.158  24.945  1.00  0.00     0.120 C 
BRANCH  16  17
ATOM     17  C   UNL A   1      32.403  26.378  24.981  1.00  0.00     0.011 C 
ATOM     18  C   UNL A   1      33.956  27.918  26.523  1.00  0.00     0.008 C 
ATOM     19  C   UNL A   1      32.712  27.665  25.740  1.00  0.00    -0.009 C 
ATOM     20  C   UNL A   1      32.795  27.635  24.238  1.00  0.00     0.009 C 
ENDBRANCH  16  17
ENDBRANCH  14  16
ENDBRANCH   8  14
ENDBRANCH   4   7
ENDBRANCH   2   3
ENDBRANCH   1   2
BRANCH   1  21
ATOM     21  C   UNL A   1      37.462  23.291  25.179  1.00  0.00     0.023 C 
BRANCH  21  22
ATOM     22  C   UNL A   1      38.278  24.064  26.212  1.00  0.00     0.116 C 
BRANCH  22  23
ATOM     23  N   UNL A   1      39.705  23.777  26.186  1.00  0.00    -0.352 N 
ATOM     24  C   UNL A   1      40.761  24.422  26.794  1.00  0.00     0.251 C 
ATOM     25  H   UNL A   1      39.957  22.993  25.646  1.00  0.00     0.163 HD
ATOM     26  O   UNL A   1      41.904  24.031  26.590  1.00  0.00    -0.269 OA
BRANCH  24  27
ATOM     27  C   UNL A   1      40.533  25.614  27.647  1.00  0.00     0.039 A 
ATOM     28  C   UNL A   1      39.567  25.537  28.655  1.00  0.00     0.014 A 
ATOM     29  C   UNL A   1      41.266  26.789  27.479  1.00  0.00     0.014 A 
ATOM     30  C   UNL A   1      39.422  26.590  29.564  1.00  0.00     0.010 A 
ATOM     31  C   UNL A   1      41.174  27.808  28.428  1.00  0.00     0.010 A 
ATOM     32  C   UNL A   1      40.270  27.707  29.496  1.00  0.00    -0.014 A 
BRANCH  32  33
ATOM     33  C   UNL A   1      40.272  28.742  30.566  1.00  0.00     0.031 A 
ATOM     34  C   UNL A   1      41.210  28.635  31.737  1.00  0.00     0.074 A 
ATOM     35  C   UNL A   1      39.366  29.741  30.522  1.00  0.00     0.049 A 
ATOM     36  N   UNL A   1      41.283  29.386  32.804  1.00  0.00    -0.248 NA
ATOM     37  C   UNL A   1      42.177  27.526  31.717  1.00  0.00     0.031 C 
ATOM     38  C   UNL A   1      38.370  29.931  29.464  1.00  0.00     0.029 A 
ATOM     39  N   UNL A   1      39.124  30.778  31.389  1.00  0.00    -0.354 N 
ATOM     40  C   UNL A   1      42.293  28.840  33.586  1.00  0.00     0.074 A 
ATOM     41  C   UNL A   1      42.776  27.667  32.892  1.00  0.00     0.031 C 
ATOM     42  C   UNL A   1      37.645  31.029  29.731  1.00  0.00     0.029 A 
ATOM     43  C   UNL A   1      38.089  31.598  31.000  1.00  0.00     0.049 A 
ATOM     44  H   UNL A   1      39.643  30.922  32.214  1.00  0.00     0.167 HD
ATOM     45  C   UNL A   1      42.786  29.289  34.766  1.00  0.00     0.037 A 
ATOM     46  C   UNL A   1      37.549  32.677  31.598  1.00  0.00     0.037 A 
ATOM     47  C   UNL A   1      42.324  30.475  35.439  1.00  0.00     0.049 A 
ATOM     48  C   UNL A   1      38.103  33.146  32.914  1.00  0.00     0.074 A 
ATOM     49  C   UNL A   1      42.810  31.044  36.604  1.00  0.00     0.029 A 
ATOM     50  N   UNL A   1      41.275  31.274  35.012  1.00  0.00    -0.354 N 
ATOM     51  N   UNL A   1      39.093  32.644  33.613  1.00  0.00    -0.248 NA
ATOM     52  C   UNL A   1      37.467  34.319  33.529  1.00  0.00     0.031 C 
ATOM     53  C   UNL A   1      42.030  32.165  36.902  1.00  0.00     0.029 A 
ATOM     54  C   UNL A   1      41.083  32.318  35.903  1.00  0.00     0.049 A 
ATOM     55  H   UNL A   1      40.745  31.123  34.196  1.00  0.00     0.167 HD
ATOM     56  C   UNL A   1      39.206  33.447  34.741  1.00  0.00     0.074 A 
ATOM     57  C   UNL A   1      38.195  34.477  34.627  1.00  0.00     0.031 C 
ATOM     58  C   UNL A   1      40.070  33.336  35.779  1.00  0.00     0.037 A 
BRANCH  45  59
ATOM     59  C   UNL A   1      43.902  28.511  35.404  1.00  0.00     0.058 A 
ATOM     60  C   UNL A   1      43.630  27.530  36.369  1.00  0.00     0.135 A 
ATOM     61  C   UNL A   1      45.247  28.794  35.117  1.00  0.00     0.135 A 
ATOM     62  F   UNL A   1      42.362  27.217  36.678  1.00  0.00    -0.206 F 
ATOM     63  C   UNL A   1      44.653  26.867  37.041  1.00  0.00     0.059 A 
ATOM     64  C   UNL A   1      46.286  28.128  35.759  1.00  0.00     0.059 A 
ATOM     65  F   UNL A   1      45.560  29.710  34.187  1.00  0.00    -0.206 F 
ATOM     66  C   UNL A   1      45.978  27.176  36.732  1.00  0.00     0.060 A 
BRANCH  66  67
ATOM     67  S   UNL A   1      47.296  26.295  37.597  1.00  0.00     0.124 S 
ATOM     68  O   UNL A   1      48.138  25.855  36.490  1.00  0.00    -0.237 OA
ATOM     69  O   UNL A   1      47.856  27.341  38.448  1.00  0.00    -0.237 OA
ATOM     70  O   UNL A   1      46.585  25.237  38.308  1.00  0.00    -0.744 OA
ENDBRANCH  66  67
ENDBRANCH  45  59
BRANCH  46  71
ATOM     71  C   UNL A   1      36.424  33.397  30.943  1.00  0.00     0.058 A 
ATOM     72  C   UNL A   1      36.637  34.235  29.837  1.00  0.00     0.135 A 
ATOM     73  C   UNL A   1      35.116  33.285  31.438  1.00  0.00     0.135 A 
ATOM     74  F   UNL A   1      37.871  34.381  29.330  1.00  0.00    -0.206 F 
ATOM     75  C   UNL A   1      35.598  34.957  29.261  1.00  0.00     0.059 A 
ATOM     76  C   UNL A   1      34.056  33.981  30.864  1.00  0.00     0.059 A 
ATOM     77  F   UNL A   1      34.862  32.485  32.485  1.00  0.00    -0.206 F 
ATOM     78  C   UNL A   1      34.311  34.828  29.788  1.00  0.00     0.060 A 
BRANCH  78  79
ATOM     79  S   UNL A   1      32.977  35.787  29.037  1.00  0.00     0.124 S 
ATOM     80  O   UNL A   1      32.337  34.783  28.192  1.00  0.00    -0.237 OA
ATOM     81  O   UNL A   1      32.211  36.215  30.204  1.00  0.00    -0.237 OA
ATOM     82  O   UNL A   1      33.682  36.849  28.328  1.00  0.00    -0.744 OA
ENDBRANCH  78  79
ENDBRANCH  46  71
BRANCH  58  83
ATOM     83  C   UNL A   1      39.972  34.351  36.883  1.00  0.00     0.058 A 
ATOM     84  C   UNL A   1      39.088  34.156  37.956  1.00  0.00     0.135 A 
ATOM     85  C   UNL A   1      40.681  35.560  36.825  1.00  0.00     0.135 A 
ATOM     86  F   UNL A   1      38.385  33.017  38.056  1.00  0.00    -0.206 F 
ATOM     87  C   UNL A   1      38.892  35.137  38.922  1.00  0.00     0.059 A 
ATOM     88  C   UNL A   1      40.517  36.547  37.794  1.00  0.00     0.059 A 
ATOM     89  F   UNL A   1      41.548  35.786  35.826  1.00  0.00    -0.206 F 
ATOM     90  C   UNL A   1      39.603  36.334  38.826  1.00  0.00     0.060 A 
BRANCH  90  91
ATOM     91  S   UNL A   1      39.326  37.604  40.080  1.00  0.00     0.124 S 
ATOM     92  O   UNL A   1      39.017  36.798  41.257  1.00  0.00    -0.237 OA
ATOM     93  O   UNL A   1      40.609  38.298  40.106  1.00  0.00    -0.237 OA
ATOM     94  O   UNL A   1      38.214  38.377  39.538  1.00  0.00    -0.744 OA
ENDBRANCH  90  91
ENDBRANCH  58  83
ENDBRANCH  32  33
ENDBRANCH  24  27
ENDBRANCH  22  23
ENDBRANCH  21  22
ENDBRANCH   1  21
TORSDOF 17
ENDMDL
MODEL 2
REMARK VINA RESULT:     -11.3      4.798     10.447
REMARK SMILES C[C@H]1C[C@H]1CN(C)c1cccc(F)c1C(=O)NCCCCNC(=O)c1ccc(-c2c3nc(c(-c4c(F)cc(S(=O)(=O)[O-])cc4F)c4ccc([nH]4)c(-c4c(F)cc(S(=O)(=O)[O-])cc4F)c4nc(c(-c5c(F)cc(S(=O)(=O)[O-])cc5F)c5ccc2[nH]5)C=C4)C=C3)cc1
REMARK SMILES IDX 19 1 18 2 17 3 15 4 16 5 14 7 8 8 9 9 10 10 12 11 11 12
REMARK SMILES IDX 13 13 6 14 7 15 5 16 4 17 1 18 2 19 3 20 20 21 21 22 22 23
REMARK SMILES IDX 23 24 24 26 25 27 26 28 90 29 27 30 89 31 28 32 29 33 30 34
REMARK SMILES IDX 83 35 31 36 88 37 82 38 84 39 32 40 87 41 81 42 80 43 33 45
REMARK SMILES IDX 67 46 46 47 66 48 47 49 50 50 65 51 85 52 48 53 49 54 64 56
REMARK SMILES IDX 86 57 51 58 34 59 35 60 44 61 36 62 37 63 43 64 45 65 38 66
REMARK SMILES IDX 39 67 40 68 41 69 42 70 68 71 69 72 78 73 70 74 71 75 77 76
REMARK SMILES IDX 79 77 72 78 73 79 74 80 75 81 76 82 52 83 53 84 62 85 54 86
REMARK SMILES IDX 55 87 61 88 63 89 56 90 57 91 58 92 59 93 60 94
REMARK H PARENT 17 6 22 25 84 44 50 55
REMARK Flexibility Score: inf
ROOT
ATOM      1  C   UNL A   1      33.042  27.996  24.728  1.00  0.00     0.023 C 
ENDROOT
BRANCH   1   2
ATOM      2  C   UNL A   1      33.823  26.697  24.566  1.00  0.00     0.116 C 
BRANCH   2   3
ATOM      3  N   UNL A   1      33.556  25.930  23.354  1.00  0.00    -0.352 N 
ATOM      4  C   UNL A   1      32.625  24.918  23.147  1.00  0.00     0.256 C 
ATOM      5  O   UNL A   1      32.377  24.560  21.999  1.00  0.00    -0.269 OA
ATOM      6  H   UNL A   1      34.112  26.161  22.575  1.00  0.00     0.163 HD
BRANCH   4   7
ATOM      7  C   UNL A   1      31.976  24.252  24.306  1.00  0.00     0.098 A 
ATOM      8  C   UNL A   1      32.383  22.997  24.808  1.00  0.00     0.052 A 
ATOM      9  C   UNL A   1      31.873  22.608  26.064  1.00  0.00     0.027 A 
ATOM     10  C   UNL A   1      30.905  23.350  26.740  1.00  0.00     0.005 A 
ATOM     11  C   UNL A   1      30.910  24.917  24.927  1.00  0.00     0.138 A 
ATOM     12  C   UNL A   1      30.385  24.485  26.141  1.00  0.00     0.040 A 
ATOM     13  F   UNL A   1      30.373  26.019  24.379  1.00  0.00    -0.206 F 
BRANCH   8  14
ATOM     14  N   UNL A   1      33.144  22.041  24.139  1.00  0.00    -0.374 N 
ATOM     15  C   UNL A   1      32.522  21.057  23.271  1.00  0.00     0.143 C 
BRANCH  14  16
ATOM     16  C   UNL A   1      34.461  21.747  24.720  1.00  0.00     0.120 C 
BRANCH  16  17
ATOM     17  C   UNL A   1      35.396  22.907  24.485  1.00  0.00     0.011 C 
ATOM     18  C   UNL A   1      37.698  21.627  24.958  1.00  0.00     0.008 C 
ATOM     19  C   UNL A   1      36.914  22.849  24.617  1.00  0.00    -0.009 C 
ATOM     20  C   UNL A   1      36.278  22.946  23.258  1.00  0.00     0.009 C 
ENDBRANCH  16  17
ENDBRANCH  14  16
ENDBRANCH   8  14
ENDBRANCH   4   7
ENDBRANCH   2   3
ENDBRANCH   1   2
BRANCH   1  21
ATOM     21  C   UNL A   1      32.356  28.241  26.068  1.00  0.00     0.023 C 
BRANCH  21  22
ATOM     22  C   UNL A   1      33.259  28.541  27.263  1.00  0.00     0.116 C 
BRANCH  22  23
ATOM     23  N   UNL A   1      33.311  29.947  27.637  1.00  0.00    -0.352 N 
ATOM     24  C   UNL A   1      34.351  30.706  28.131  1.00  0.00     0.251 C 
ATOM     25  H   UNL A   1      32.465  30.436  27.516  1.00  0.00     0.163 HD
ATOM     26  O   UNL A   1      34.154  31.878  28.429  1.00  0.00    -0.269 OA
BRANCH  24  27
ATOM     27  C   UNL A   1      35.689  30.104  28.356  1.00  0.00     0.039 A 
ATOM     28  C   UNL A   1      36.601  30.093  27.297  1.00  0.00     0.014 A 
ATOM     29  C   UNL A   1      36.056  29.573  29.593  1.00  0.00     0.014 A 
ATOM     30  C   UNL A   1      37.914  29.661  27.512  1.00  0.00     0.010 A 
ATOM     31  C   UNL A   1      37.383  29.211  29.828  1.00  0.00     0.010 A 
ATOM     32  C   UNL A   1      38.333  29.278  28.797  1.00  0.00    -0.014 A 
BRANCH  32  33
ATOM     33  C   UNL A   1      39.767  29.009  29.094  1.00  0.00     0.031 A 
ATOM     34  C   UNL A   1      40.646  30.084  29.672  1.00  0.00     0.074 A 
ATOM     35  C   UNL A   1      40.297  27.813  28.764  1.00  0.00     0.049 A 
ATOM     36  N   UNL A   1      41.932  30.058  29.903  1.00  0.00    -0.248 NA
ATOM     37  C   UNL A   1      40.000  31.361  30.015  1.00  0.00     0.031 C 
ATOM     38  C   UNL A   1      39.562  26.702  28.155  1.00  0.00     0.029 A 
ATOM     39  N   UNL A   1      41.578  27.332  28.883  1.00  0.00    -0.354 N 
ATOM     40  C   UNL A   1      42.254  31.313  30.407  1.00  0.00     0.074 A 
ATOM     41  C   UNL A   1      41.035  32.091  30.409  1.00  0.00     0.031 C 
ATOM     42  C   UNL A   1      40.395  25.665  27.977  1.00  0.00     0.029 A 
ATOM     43  C   UNL A   1      41.733  26.046  28.416  1.00  0.00     0.049 A 
ATOM     44  H   UNL A   1      42.317  27.858  29.267  1.00  0.00     0.167 HD
ATOM     45  C   UNL A   1      43.452  31.765  30.848  1.00  0.00     0.037 A 
ATOM     46  C   UNL A   1      42.828  25.265  28.337  1.00  0.00     0.037 A 
ATOM     47  C   UNL A   1      44.657  30.977  30.874  1.00  0.00     0.049 A 
ATOM     48  C   UNL A   1      44.149  25.796  28.819  1.00  0.00     0.074 A 
ATOM     49  C   UNL A   1      45.902  31.330  31.367  1.00  0.00     0.029 A 
ATOM     50  N   UNL A   1      44.771  29.682  30.392  1.00  0.00    -0.354 N 
ATOM     51  N   UNL A   1      44.422  26.968  29.340  1.00  0.00    -0.248 NA
ATOM     52  C   UNL A   1      45.313  24.907  28.696  1.00  0.00     0.031 C 
ATOM     53  C   UNL A   1      46.779  30.263  31.147  1.00  0.00     0.029 A 
ATOM     54  C   UNL A   1      46.071  29.231  30.553  1.00  0.00     0.049 A 
ATOM     55  H   UNL A   1      44.037  29.161  29.994  1.00  0.00     0.167 HD
ATOM     56  C   UNL A   1      45.783  26.952  29.619  1.00  0.00     0.074 A 
ATOM     57  C   UNL A   1      46.277  25.650  29.223  1.00  0.00     0.031 C 
ATOM     58  C   UNL A   1      46.552  27.932  30.152  1.00  0.00     0.037 A 
BRANCH  45  59
ATOM     59  C   UNL A   1      43.526  33.174  31.364  1.00  0.00     0.058 A 
ATOM     60  C   UNL A   1      43.964  34.218  30.535  1.00  0.00     0.135 A 
ATOM     61  C   UNL A   1      43.239  33.477  32.705  1.00  0.00     0.135 A 
ATOM     62  F   UNL A   1      44.247  33.984  29.244  1.00  0.00    -0.206 F 
ATOM     63  C   UNL A   1      44.131  35.511  31.021  1.00  0.00     0.059 A 
ATOM     64  C   UNL A   1      43.377  34.768  33.207  1.00  0.00     0.059 A 
ATOM     65  F   UNL A   1      42.797  32.519  33.534  1.00  0.00    -0.206 F 
ATOM     66  C   UNL A   1      43.838  35.776  32.360  1.00  0.00     0.060 A 
BRANCH  66  67
ATOM     67  S   UNL A   1      44.041  37.462  32.972  1.00  0.00     0.124 S 
ATOM     68  O   UNL A   1      42.994  37.541  33.985  1.00  0.00    -0.237 OA
ATOM     69  O   UNL A   1      45.412  37.444  33.473  1.00  0.00    -0.237 OA
ATOM     70  O   UNL A   1      43.830  38.282  31.782  1.00  0.00    -0.744 OA
ENDBRANCH  66  67
ENDBRANCH  45  59
BRANCH  46  71
ATOM     71  C   UNL A   1      42.713  23.887  27.790  1.00  0.00     0.058 A 
ATOM     72  C   UNL A   1      42.694  23.648  26.407  1.00  0.00     0.135 A 
ATOM     73  C   UNL A   1      42.582  22.784  28.647  1.00  0.00     0.135 A 
ATOM     74  F   UNL A   1      42.808  24.671  25.545  1.00  0.00    -0.206 F 
ATOM     75  C   UNL A   1      42.524  22.368  25.893  1.00  0.00     0.059 A 
ATOM     76  C   UNL A   1      42.433  21.490  28.156  1.00  0.00     0.059 A 
ATOM     77  F   UNL A   1      42.609  22.962  29.976  1.00  0.00    -0.206 F 
ATOM     78  C   UNL A   1      42.387  21.295  26.776  1.00  0.00     0.060 A 
BRANCH  78  79
ATOM     79  S   UNL A   1      42.150  19.642  26.089  1.00  0.00     0.124 S 
ATOM     80  O   UNL A   1      43.061  19.668  24.949  1.00  0.00    -0.237 OA
ATOM     81  O   UNL A   1      42.550  18.786  27.201  1.00  0.00    -0.237 OA
ATOM     82  O   UNL A   1      40.729  19.614  25.758  1.00  0.00    -0.744 OA
ENDBRANCH  78  79
ENDBRANCH  46  71
BRANCH  58  83
ATOM     83  C   UNL A   1      48.015  27.646  30.347  1.00  0.00     0.058 A 
ATOM     84  C   UNL A   1      48.933  27.884  29.312  1.00  0.00     0.135 A 
ATOM     85  C   UNL A   1      48.488  27.046  31.523  1.00  0.00     0.135 A 
ATOM     86  F   UNL A   1      48.529  28.455  28.166  1.00  0.00    -0.206 F 
ATOM     87  C   UNL A   1      50.268  27.513  29.427  1.00  0.00     0.059 A 
ATOM     88  C   UNL A   1      49.826  26.686  31.669  1.00  0.00     0.059 A 
ATOM     89  F   UNL A   1      47.651  26.811  32.545  1.00  0.00    -0.206 F 
ATOM     90  C   UNL A   1      50.703  26.905  30.606  1.00  0.00     0.060 A 
BRANCH  90  91
ATOM     91  S   UNL A   1      52.436  26.415  30.734  1.00  0.00     0.124 S 
ATOM     92  O   UNL A   1      52.801  26.240  29.332  1.00  0.00    -0.237 OA
ATOM     93  O   UNL A   1      53.033  27.564  31.406  1.00  0.00    -0.237 OA
ATOM     94  O   UNL A   1      52.384  25.191  31.527  1.00  0.00    -0.744 OA
ENDBRANCH  90  91
ENDBRANCH  58  83
ENDBRANCH  32  33
ENDBRANCH  24  27
ENDBRANCH  22  23
ENDBRANCH  21  22
ENDBRANCH   1  21
TORSDOF 17
ENDMDL
MODEL 3
REMARK VINA RESULT:     -11.0      6.833     12.312
REMARK SMILES C[C@H]1C[C@H]1CN(C)c1cccc(F)c1C(=O)NCCCCNC(=O)c1ccc(-c2c3nc(c(-c4c(F)cc(S(=O)(=O)[O-])cc4F)c4ccc([nH]4)c(-c4c(F)cc(S(=O)(=O)[O-])cc4F)c4nc(c(-c5c(F)cc(S(=O)(=O)[O-])cc5F)c5ccc2[nH]5)C=C4)C=C3)cc1
REMARK SMILES IDX 19 1 18 2 17 3 15 4 16 5 14 7 8 8 9 9 10 10 12 11 11 12
REMARK SMILES IDX 13 13 6 14 7 15 5 16 4 17 1 18 2 19 3 20 20 21 21 22 22 23
REMARK SMILES IDX 23 24 24 26 25 27 26 28 90 29 27 30 89 31 28 32 29 33 30 34
REMARK SMILES IDX 83 35 31 36 88 37 82 38 84 39 32 40 87 41 81 42 80 43 33 45
REMARK SMILES IDX 67 46 46 47 66 48 47 49 50 50 65 51 85 52 48 53 49 54 64 56
REMARK SMILES IDX 86 57 51 58 34 59 35 60 44 61 36 62 37 63 43 64 45 65 38 66
REMARK SMILES IDX 39 67 40 68 41 69 42 70 68 71 69 72 78 73 70 74 71 75 77 76
REMARK SMILES IDX 79 77 72 78 73 79 74 80 75 81 76 82 52 83 53 84 62 85 54 86
REMARK SMILES IDX 55 87 61 88 63 89 56 90 57 91 58 92 59 93 60 94
REMARK H PARENT 17 6 22 25 84 44 50 55
REMARK Flexibility Score: inf
ROOT
ATOM      1  C   UNL A   1      33.887  30.596  27.806  1.00  0.00     0.023 C 
ENDROOT
BRANCH   1   2
ATOM      2  C   UNL A   1      33.409  29.560  26.794  1.00  0.00     0.116 C 
BRANCH   2   3
ATOM      3  N   UNL A   1      32.191  28.836  27.138  1.00  0.00    -0.352 N 
ATOM      4  C   UNL A   1      31.665  27.685  26.560  1.00  0.00     0.256 C 
ATOM      5  O   UNL A   1      30.765  27.083  27.141  1.00  0.00    -0.269 OA
ATOM      6  H   UNL A   1      31.669  29.214  27.882  1.00  0.00     0.163 HD
BRANCH   4   7
ATOM      7  C   UNL A   1      32.159  27.220  25.239  1.00  0.00     0.098 A 
ATOM      8  C   UNL A   1      31.526  27.539  24.018  1.00  0.00     0.052 A 
ATOM      9  C   UNL A   1      32.240  27.271  22.831  1.00  0.00     0.027 A 
ATOM     10  C   UNL A   1      33.462  26.599  22.830  1.00  0.00     0.005 A 
ATOM     11  C   UNL A   1      33.317  26.430  25.216  1.00  0.00     0.138 A 
ATOM     12  C   UNL A   1      33.977  26.132  24.028  1.00  0.00     0.040 A 
ATOM     13  F   UNL A   1      33.847  25.953  26.353  1.00  0.00    -0.206 F 
BRANCH   8  14
ATOM     14  N   UNL A   1      30.216  27.981  23.851  1.00  0.00    -0.374 N 
ATOM     15  C   UNL A   1      29.097  27.057  23.906  1.00  0.00     0.143 C 
BRANCH  14  16
ATOM     16  C   UNL A   1      30.053  29.254  23.135  1.00  0.00     0.120 C 
BRANCH  16  17
ATOM     17  C   UNL A   1      28.727  29.273  22.417  1.00  0.00     0.011 C 
ATOM     18  C   UNL A   1      27.628  31.333  23.726  1.00  0.00     0.008 C 
ATOM     19  C   UNL A   1      27.584  30.239  22.712  1.00  0.00    -0.009 C 
ATOM     20  C   UNL A   1      28.392  30.387  21.452  1.00  0.00     0.009 C 
ENDBRANCH  16  17
ENDBRANCH  14  16
ENDBRANCH   8  14
ENDBRANCH   4   7
ENDBRANCH   2   3
ENDBRANCH   1   2
BRANCH   1  21
ATOM     21  C   UNL A   1      35.030  31.513  27.386  1.00  0.00     0.023 C 
BRANCH  21  22
ATOM     22  C   UNL A   1      36.098  31.814  28.435  1.00  0.00     0.116 C 
BRANCH  22  23
ATOM     23  N   UNL A   1      35.775  31.340  29.772  1.00  0.00    -0.352 N 
ATOM     24  C   UNL A   1      36.425  30.436  30.585  1.00  0.00     0.251 C 
ATOM     25  H   UNL A   1      34.957  31.729  30.160  1.00  0.00     0.163 HD
ATOM     26  O   UNL A   1      35.939  30.143  31.671  1.00  0.00    -0.269 OA
BRANCH  24  27
ATOM     27  C   UNL A   1      37.676  29.776  30.137  1.00  0.00     0.039 A 
ATOM     28  C   UNL A   1      37.960  29.745  28.769  1.00  0.00     0.014 A 
ATOM     29  C   UNL A   1      38.572  29.208  31.044  1.00  0.00     0.014 A 
ATOM     30  C   UNL A   1      39.192  29.255  28.323  1.00  0.00     0.010 A 
ATOM     31  C   UNL A   1      39.829  28.788  30.607  1.00  0.00     0.010 A 
ATOM     32  C   UNL A   1      40.163  28.832  29.245  1.00  0.00    -0.014 A 
BRANCH  32  33
ATOM     33  C   UNL A   1      41.547  28.499  28.812  1.00  0.00     0.031 A 
ATOM     34  C   UNL A   1      42.604  29.567  28.728  1.00  0.00     0.074 A 
ATOM     35  C   UNL A   1      41.830  27.241  28.414  1.00  0.00     0.049 A 
ATOM     36  N   UNL A   1      43.829  29.477  28.281  1.00  0.00    -0.248 NA
ATOM     37  C   UNL A   1      42.228  30.914  29.186  1.00  0.00     0.031 C 
ATOM     38  C   UNL A   1      40.882  26.125  28.403  1.00  0.00     0.029 A 
ATOM     39  N   UNL A   1      42.992  26.689  27.932  1.00  0.00    -0.354 N 
ATOM     40  C   UNL A   1      44.369  30.753  28.393  1.00  0.00     0.074 A 
ATOM     41  C   UNL A   1      43.324  31.609  28.909  1.00  0.00     0.031 C 
ATOM     42  C   UNL A   1      41.504  25.020  27.963  1.00  0.00     0.029 A 
ATOM     43  C   UNL A   1      42.882  25.354  27.617  1.00  0.00     0.049 A 
ATOM     44  H   UNL A   1      43.826  27.201  27.821  1.00  0.00     0.167 HD
ATOM     45  C   UNL A   1      45.627  31.166  28.110  1.00  0.00     0.037 A 
ATOM     46  C   UNL A   1      43.781  24.495  27.096  1.00  0.00     0.037 A 
ATOM     47  C   UNL A   1      46.674  30.305  27.625  1.00  0.00     0.049 A 
ATOM     48  C   UNL A   1      45.166  24.983  26.776  1.00  0.00     0.074 A 
ATOM     49  C   UNL A   1      47.999  30.622  27.375  1.00  0.00     0.029 A 
ATOM     50  N   UNL A   1      46.521  28.961  27.318  1.00  0.00    -0.354 N 
ATOM     51  N   UNL A   1      45.672  26.182  26.937  1.00  0.00    -0.248 NA
ATOM     52  C   UNL A   1      46.101  24.008  26.198  1.00  0.00     0.031 C 
ATOM     53  C   UNL A   1      48.637  29.480  26.880  1.00  0.00     0.029 A 
ATOM     54  C   UNL A   1      47.720  28.442  26.859  1.00  0.00     0.049 A 
ATOM     55  H   UNL A   1      45.684  28.452  27.413  1.00  0.00     0.167 HD
ATOM     56  C   UNL A   1      46.986  26.102  26.493  1.00  0.00     0.074 A 
ATOM     57  C   UNL A   1      47.204  24.735  26.069  1.00  0.00     0.031 C 
ATOM     58  C   UNL A   1      47.924  27.078  26.438  1.00  0.00     0.037 A 
BRANCH  45  59
ATOM     59  C   UNL A   1      45.960  32.614  28.336  1.00  0.00     0.058 A 
ATOM     60  C   UNL A   1      45.783  33.558  27.313  1.00  0.00     0.135 A 
ATOM     61  C   UNL A   1      46.531  33.053  29.541  1.00  0.00     0.135 A 
ATOM     62  F   UNL A   1      45.237  33.193  26.142  1.00  0.00    -0.206 F 
ATOM     63  C   UNL A   1      46.175  34.883  27.470  1.00  0.00     0.059 A 
ATOM     64  C   UNL A   1      46.910  34.379  29.730  1.00  0.00     0.059 A 
ATOM     65  F   UNL A   1      46.704  32.194  30.558  1.00  0.00    -0.206 F 
ATOM     66  C   UNL A   1      46.741  35.283  28.681  1.00  0.00     0.060 A 
BRANCH  66  67
ATOM     67  S   UNL A   1      47.228  37.011  28.880  1.00  0.00     0.124 S 
ATOM     68  O   UNL A   1      46.343  37.451  29.952  1.00  0.00    -0.237 OA
ATOM     69  O   UNL A   1      48.641  36.894  29.227  1.00  0.00    -0.237 OA
ATOM     70  O   UNL A   1      46.962  37.590  27.566  1.00  0.00    -0.744 OA
ENDBRANCH  66  67
ENDBRANCH  45  59
BRANCH  46  71
ATOM     71  C   UNL A   1      43.396  23.078  26.861  1.00  0.00     0.058 A 
ATOM     72  C   UNL A   1      43.238  22.176  27.924  1.00  0.00     0.135 A 
ATOM     73  C   UNL A   1      43.213  22.592  25.558  1.00  0.00     0.135 A 
ATOM     74  F   UNL A   1      43.409  22.590  29.190  1.00  0.00    -0.206 F 
ATOM     75  C   UNL A   1      42.939  20.836  27.704  1.00  0.00     0.059 A 
ATOM     76  C   UNL A   1      42.891  21.260  25.313  1.00  0.00     0.059 A 
ATOM     77  F   UNL A   1      43.340  23.420  24.510  1.00  0.00    -0.206 F 
ATOM     78  C   UNL A   1      42.775  20.386  26.392  1.00  0.00     0.060 A 
BRANCH  78  79
ATOM     79  S   UNL A   1      42.404  18.639  26.125  1.00  0.00     0.124 S 
ATOM     80  O   UNL A   1      43.340  18.304  25.056  1.00  0.00    -0.237 OA
ATOM     81  O   UNL A   1      42.698  18.058  27.431  1.00  0.00    -0.237 OA
ATOM     82  O   UNL A   1      40.995  18.647  25.747  1.00  0.00    -0.744 OA
ENDBRANCH  78  79
ENDBRANCH  46  71
BRANCH  58  83
ATOM     83  C   UNL A   1      49.282  26.715  25.904  1.00  0.00     0.058 A 
ATOM     84  C   UNL A   1      50.260  26.172  26.751  1.00  0.00     0.135 A 
ATOM     85  C   UNL A   1      49.641  26.997  24.578  1.00  0.00     0.135 A 
ATOM     86  F   UNL A   1      49.967  25.887  28.030  1.00  0.00    -0.206 F 
ATOM     87  C   UNL A   1      51.559  25.944  26.308  1.00  0.00     0.059 A 
ATOM     88  C   UNL A   1      50.929  26.755  24.106  1.00  0.00     0.059 A 
ATOM     89  F   UNL A   1      48.736  27.503  23.727  1.00  0.00    -0.206 F 
ATOM     90  C   UNL A   1      51.886  26.249  24.986  1.00  0.00     0.060 A 
BRANCH  90  91
ATOM     91  S   UNL A   1      53.579  25.961  24.430  1.00  0.00     0.124 S 
ATOM     92  O   UNL A   1      53.809  24.589  24.871  1.00  0.00    -0.237 OA
ATOM     93  O   UNL A   1      53.468  26.153  22.987  1.00  0.00    -0.237 OA
ATOM     94  O   UNL A   1      54.345  26.985  25.133  1.00  0.00    -0.744 OA
ENDBRANCH  90  91
ENDBRANCH  58  83
ENDBRANCH  32  33
ENDBRANCH  24  27
ENDBRANCH  22  23
ENDBRANCH  21  22
ENDBRANCH   1  21
TORSDOF 17
ENDMDL
