MODEL 1
REMARK VINA RESULT:     -10.4      0.000      0.000
REMARK SMILES O=C(/C=C\N1[C@@H]2CC[C@H]1C[C@H](O)C2)NCCCCNC(=O)c1ccc(-c2c3nc(c(-c4c(F)cc(S(=O)(=O)[O-])cc4F)c4ccc([nH]4)c(-c4c(F)cc(S(=O)(=O)[O-])cc4F)c4nc(c(-c5c(F)cc(S(=O)(=O)[O-])cc5F)c5ccc2[nH]5)C=C4)C=C3)cc1
REMARK SMILES IDX 17 1 16 2 15 3 14 4 1 5 2 6 3 8 4 9 5 10 6 11 9 12 7 13
REMARK SMILES IDX 13 14 8 15 10 16 11 17 12 18 18 20 19 21 20 22 21 24 22 25
REMARK SMILES IDX 23 26 87 27 24 28 86 29 25 30 26 31 27 32 80 33 28 34 85 35
REMARK SMILES IDX 79 36 81 37 29 38 84 39 78 40 77 41 30 43 64 44 43 45 63 46
REMARK SMILES IDX 44 47 47 48 62 49 82 50 45 51 46 52 61 54 83 55 48 56 31 57
REMARK SMILES IDX 32 58 41 59 33 60 34 61 40 62 42 63 35 64 36 65 37 66 38 67
REMARK SMILES IDX 39 68 65 69 66 70 75 71 67 72 68 73 74 74 76 75 69 76 70 77
REMARK SMILES IDX 71 78 72 79 73 80 49 81 50 82 59 83 51 84 52 85 58 86 60 87
REMARK SMILES IDX 53 88 54 89 55 90 56 91 57 92
REMARK H PARENT 14 7 12 19 19 23 81 42 47 53
REMARK Flexibility Score: inf
ROOT
ATOM      1  C   UNL A   1      34.916  33.719  28.025  1.00  0.00     0.023 C 
ENDROOT
BRANCH   1   2
ATOM      2  C   UNL A   1      34.372  35.161  28.063  1.00  0.00     0.023 C 
BRANCH   2   3
ATOM      3  C   UNL A   1      33.378  35.592  29.158  1.00  0.00     0.116 C 
BRANCH   3   4
ATOM      4  N   UNL A   1      33.927  35.927  30.462  1.00  0.00    -0.353 N 
ATOM      5  O   UNL A   1      32.001  36.582  31.524  1.00  0.00    -0.270 OA
ATOM      6  C   UNL A   1      33.215  36.376  31.537  1.00  0.00     0.245 C 
ATOM      7  H   UNL A   1      34.899  35.819  30.581  1.00  0.00     0.163 HD
BRANCH   6   8
ATOM      8  C   UNL A   1      33.960  36.452  32.832  1.00  0.00     0.088 C 
ATOM      9  C   UNL A   1      34.877  35.656  33.407  1.00  0.00     0.087 C 
BRANCH   9  10
ATOM     10  N   UNL A   1      35.545  34.515  33.020  1.00  0.00    -0.371 N 
ATOM     11  C   UNL A   1      36.525  34.392  31.925  1.00  0.00     0.084 C 
ATOM     12  C   UNL A   1      35.437  33.175  33.573  1.00  0.00     0.084 C 
ATOM     13  C   UNL A   1      36.279  32.966  31.360  1.00  0.00     0.027 C 
ATOM     14  C   UNL A   1      37.917  34.472  32.587  1.00  0.00     0.056 C 
ATOM     15  C   UNL A   1      35.259  32.343  32.306  1.00  0.00     0.027 C 
ATOM     16  C   UNL A   1      36.790  32.840  34.233  1.00  0.00     0.056 C 
ATOM     17  C   UNL A   1      37.899  33.875  34.005  1.00  0.00     0.118 C 
BRANCH  17  18
ATOM     18  O   UNL A   1      37.723  34.927  34.974  1.00  0.00    -0.393 OA
ATOM     19  H   UNL A   1      36.799  35.222  34.968  1.00  0.00     0.210 HD
ENDBRANCH  17  18
ENDBRANCH   9  10
ENDBRANCH   6   8
ENDBRANCH   3   4
ENDBRANCH   2   3
ENDBRANCH   1   2
BRANCH   1  20
ATOM     20  C   UNL A   1      34.006  32.559  28.456  1.00  0.00     0.116 C 
BRANCH  20  21
ATOM     21  N   UNL A   1      33.785  31.508  27.494  1.00  0.00    -0.352 N 
ATOM     22  C   UNL A   1      34.467  30.319  27.322  1.00  0.00     0.251 C 
ATOM     23  H   UNL A   1      33.041  31.660  26.868  1.00  0.00     0.163 HD
ATOM     24  O   UNL A   1      34.036  29.520  26.489  1.00  0.00    -0.269 OA
BRANCH  22  25
ATOM     25  C   UNL A   1      35.733  29.983  28.047  1.00  0.00     0.039 A 
ATOM     26  C   UNL A   1      36.924  30.076  27.315  1.00  0.00     0.014 A 
ATOM     27  C   UNL A   1      35.797  29.512  29.363  1.00  0.00     0.014 A 
ATOM     28  C   UNL A   1      38.158  29.755  27.899  1.00  0.00     0.010 A 
ATOM     29  C   UNL A   1      37.044  29.230  29.964  1.00  0.00     0.010 A 
ATOM     30  C   UNL A   1      38.244  29.352  29.242  1.00  0.00    -0.014 A 
BRANCH  30  31
ATOM     31  C   UNL A   1      39.586  29.097  29.862  1.00  0.00     0.031 A 
ATOM     32  C   UNL A   1      40.092  29.913  31.028  1.00  0.00     0.074 A 
ATOM     33  C   UNL A   1      40.365  28.100  29.387  1.00  0.00     0.049 A 
ATOM     34  N   UNL A   1      41.211  29.791  31.700  1.00  0.00    -0.248 NA
ATOM     35  C   UNL A   1      39.233  31.010  31.496  1.00  0.00     0.031 C 
ATOM     36  C   UNL A   1      40.027  27.235  28.256  1.00  0.00     0.029 A 
ATOM     37  N   UNL A   1      41.597  27.639  29.795  1.00  0.00    -0.354 N 
ATOM     38  C   UNL A   1      41.192  30.788  32.671  1.00  0.00     0.074 A 
ATOM     39  C   UNL A   1      39.968  31.536  32.466  1.00  0.00     0.031 C 
ATOM     40  C   UNL A   1      41.010  26.340  28.075  1.00  0.00     0.029 A 
ATOM     41  C   UNL A   1      42.072  26.584  29.049  1.00  0.00     0.049 A 
ATOM     42  H   UNL A   1      42.093  28.030  30.551  1.00  0.00     0.167 HD
ATOM     43  C   UNL A   1      42.094  31.047  33.653  1.00  0.00     0.037 A 
ATOM     44  C   UNL A   1      43.227  25.890  29.125  1.00  0.00     0.037 A 
ATOM     45  C   UNL A   1      43.315  30.305  33.867  1.00  0.00     0.049 A 
ATOM     46  C   UNL A   1      44.231  26.219  30.199  1.00  0.00     0.074 A 
ATOM     47  C   UNL A   1      44.263  30.480  34.862  1.00  0.00     0.029 A 
ATOM     48  N   UNL A   1      43.764  29.258  33.076  1.00  0.00    -0.354 N 
ATOM     49  N   UNL A   1      44.164  27.131  31.138  1.00  0.00    -0.248 NA
ATOM     50  C   UNL A   1      45.466  25.420  30.228  1.00  0.00     0.031 C 
ATOM     51  C   UNL A   1      45.311  29.580  34.639  1.00  0.00     0.029 A 
ATOM     52  C   UNL A   1      44.988  28.798  33.543  1.00  0.00     0.049 A 
ATOM     53  H   UNL A   1      43.284  28.892  32.298  1.00  0.00     0.167 HD
ATOM     54  C   UNL A   1      45.331  26.996  31.885  1.00  0.00     0.074 A 
ATOM     55  C   UNL A   1      46.081  25.907  31.297  1.00  0.00     0.031 C 
ATOM     56  C   UNL A   1      45.739  27.712  32.962  1.00  0.00     0.037 A 
BRANCH  43  57
ATOM     57  C   UNL A   1      41.804  32.196  34.586  1.00  0.00     0.058 A 
ATOM     58  C   UNL A   1      42.284  33.492  34.333  1.00  0.00     0.135 A 
ATOM     59  C   UNL A   1      40.990  32.014  35.718  1.00  0.00     0.135 A 
ATOM     60  F   UNL A   1      43.069  33.726  33.271  1.00  0.00    -0.206 F 
ATOM     61  C   UNL A   1      41.999  34.554  35.186  1.00  0.00     0.059 A 
ATOM     62  C   UNL A   1      40.666  33.069  36.567  1.00  0.00     0.059 A 
ATOM     63  F   UNL A   1      40.492  30.800  36.004  1.00  0.00    -0.206 F 
ATOM     64  C   UNL A   1      41.191  34.333  36.302  1.00  0.00     0.060 A 
BRANCH  64  65
ATOM     65  S   UNL A   1      40.841  35.721  37.403  1.00  0.00     0.124 S 
ATOM     66  O   UNL A   1      39.860  36.470  36.621  1.00  0.00    -0.237 OA
ATOM     67  O   UNL A   1      40.326  35.054  38.593  1.00  0.00    -0.237 OA
ATOM     68  O   UNL A   1      42.139  36.367  37.561  1.00  0.00    -0.744 OA
ENDBRANCH  64  65
ENDBRANCH  43  57
BRANCH  44  69
ATOM     69  C   UNL A   1      43.503  24.804  28.143  1.00  0.00     0.058 A 
ATOM     70  C   UNL A   1      43.076  23.488  28.369  1.00  0.00     0.135 A 
ATOM     71  C   UNL A   1      44.200  25.068  26.952  1.00  0.00     0.135 A 
ATOM     72  F   UNL A   1      42.418  23.180  29.499  1.00  0.00    -0.206 F 
ATOM     73  C   UNL A   1      43.337  22.468  27.459  1.00  0.00     0.059 A 
ATOM     74  C   UNL A   1      44.446  24.073  26.012  1.00  0.00     0.059 A 
ATOM     75  F   UNL A   1      44.623  26.312  26.681  1.00  0.00    -0.206 F 
ATOM     76  C   UNL A   1      44.019  22.772  26.279  1.00  0.00     0.060 A 
BRANCH  76  77
ATOM     77  S   UNL A   1      44.303  21.456  25.077  1.00  0.00     0.124 S 
ATOM     78  O   UNL A   1      43.193  20.554  25.359  1.00  0.00    -0.237 OA
ATOM     79  O   UNL A   1      44.235  22.179  23.811  1.00  0.00    -0.237 OA
ATOM     80  O   UNL A   1      45.628  20.957  25.433  1.00  0.00    -0.744 OA
ENDBRANCH  76  77
ENDBRANCH  44  69
BRANCH  56  81
ATOM     81  C   UNL A   1      47.047  27.328  33.607  1.00  0.00     0.058 A 
ATOM     82  C   UNL A   1      47.119  26.356  34.618  1.00  0.00     0.135 A 
ATOM     83  C   UNL A   1      48.252  27.908  33.175  1.00  0.00     0.135 A 
ATOM     84  F   UNL A   1      45.999  25.773  35.076  1.00  0.00    -0.206 F 
ATOM     85  C   UNL A   1      48.334  25.990  35.192  1.00  0.00     0.059 A 
ATOM     86  C   UNL A   1      49.480  27.536  33.715  1.00  0.00     0.059 A 
ATOM     87  F   UNL A   1      48.246  28.837  32.207  1.00  0.00    -0.206 F 
ATOM     88  C   UNL A   1      49.510  26.584  34.732  1.00  0.00     0.060 A 
BRANCH  88  89
ATOM     89  S   UNL A   1      51.081  26.074  35.463  1.00  0.00     0.124 S 
ATOM     90  O   UNL A   1      50.736  24.772  36.026  1.00  0.00    -0.237 OA
ATOM     91  O   UNL A   1      51.969  26.048  34.306  1.00  0.00    -0.237 OA
ATOM     92  O   UNL A   1      51.361  27.125  36.438  1.00  0.00    -0.744 OA
ENDBRANCH  88  89
ENDBRANCH  56  81
ENDBRANCH  30  31
ENDBRANCH  22  25
ENDBRANCH  20  21
ENDBRANCH   1  20
TORSDOF 16
ENDMDL
MODEL 2
REMARK VINA RESULT:     -10.3      4.401     12.284
REMARK SMILES O=C(/C=C\N1[C@@H]2CC[C@H]1C[C@H](O)C2)NCCCCNC(=O)c1ccc(-c2c3nc(c(-c4c(F)cc(S(=O)(=O)[O-])cc4F)c4ccc([nH]4)c(-c4c(F)cc(S(=O)(=O)[O-])cc4F)c4nc(c(-c5c(F)cc(S(=O)(=O)[O-])cc5F)c5ccc2[nH]5)C=C4)C=C3)cc1
REMARK SMILES IDX 17 1 16 2 15 3 14 4 1 5 2 6 3 8 4 9 5 10 6 11 9 12 7 13
REMARK SMILES IDX 13 14 8 15 10 16 11 17 12 18 18 20 19 21 20 22 21 24 22 25
REMARK SMILES IDX 23 26 87 27 24 28 86 29 25 30 26 31 27 32 80 33 28 34 85 35
REMARK SMILES IDX 79 36 81 37 29 38 84 39 78 40 77 41 30 43 64 44 43 45 63 46
REMARK SMILES IDX 44 47 47 48 62 49 82 50 45 51 46 52 61 54 83 55 48 56 31 57
REMARK SMILES IDX 32 58 41 59 33 60 34 61 40 62 42 63 35 64 36 65 37 66 38 67
REMARK SMILES IDX 39 68 65 69 66 70 75 71 67 72 68 73 74 74 76 75 69 76 70 77
REMARK SMILES IDX 71 78 72 79 73 80 49 81 50 82 59 83 51 84 52 85 58 86 60 87
REMARK SMILES IDX 53 88 54 89 55 90 56 91 57 92
REMARK H PARENT 14 7 12 19 19 23 81 42 47 53
REMARK Flexibility Score: inf
ROOT
ATOM      1  C   UNL A   1      40.853  20.805  27.434  1.00  0.00     0.023 C 
ENDROOT
BRANCH   1   2
ATOM      2  C   UNL A   1      41.830  19.612  27.437  1.00  0.00     0.023 C 
BRANCH   2   3
ATOM      3  C   UNL A   1      42.494  19.142  26.130  1.00  0.00     0.116 C 
BRANCH   3   4
ATOM      4  N   UNL A   1      43.676  19.863  25.687  1.00  0.00    -0.353 N 
ATOM      5  O   UNL A   1      45.115  18.095  25.417  1.00  0.00    -0.270 OA
ATOM      6  C   UNL A   1      44.876  19.301  25.354  1.00  0.00     0.245 C 
ATOM      7  H   UNL A   1      43.605  20.843  25.619  1.00  0.00     0.163 HD
BRANCH   6   8
ATOM      8  C   UNL A   1      45.877  20.218  24.726  1.00  0.00     0.088 C 
ATOM      9  C   UNL A   1      46.063  21.547  24.784  1.00  0.00     0.087 C 
BRANCH   9  10
ATOM     10  N   UNL A   1      45.473  22.575  25.487  1.00  0.00    -0.371 N 
ATOM     11  C   UNL A   1      45.861  23.074  26.820  1.00  0.00     0.084 C 
ATOM     12  C   UNL A   1      44.334  23.393  25.102  1.00  0.00     0.084 C 
ATOM     13  C   UNL A   1      44.514  23.490  27.471  1.00  0.00     0.027 C 
ATOM     14  C   UNL A   1      46.742  24.316  26.571  1.00  0.00     0.056 C 
ATOM     15  C   UNL A   1      43.478  23.325  26.365  1.00  0.00     0.027 C 
ATOM     16  C   UNL A   1      44.850  24.831  24.897  1.00  0.00     0.056 C 
ATOM     17  C   UNL A   1      46.315  25.060  25.294  1.00  0.00     0.118 C 
BRANCH  17  18
ATOM     18  O   UNL A   1      47.138  24.642  24.188  1.00  0.00    -0.393 OA
ATOM     19  H   UNL A   1      48.070  24.646  24.458  1.00  0.00     0.210 HD
ENDBRANCH  17  18
ENDBRANCH   9  10
ENDBRANCH   6   8
ENDBRANCH   3   4
ENDBRANCH   2   3
ENDBRANCH   1   2
BRANCH   1  20
ATOM     20  C   UNL A   1      40.486  21.473  26.101  1.00  0.00     0.116 C 
BRANCH  20  21
ATOM     21  N   UNL A   1      39.103  21.836  25.910  1.00  0.00    -0.352 N 
ATOM     22  C   UNL A   1      38.479  23.051  26.110  1.00  0.00     0.251 C 
ATOM     23  H   UNL A   1      38.519  21.111  25.591  1.00  0.00     0.163 HD
ATOM     24  O   UNL A   1      37.295  23.155  25.784  1.00  0.00    -0.269 OA
BRANCH  22  25
ATOM     25  C   UNL A   1      39.147  24.224  26.759  1.00  0.00     0.039 A 
ATOM     26  C   UNL A   1      39.927  25.044  25.933  1.00  0.00     0.014 A 
ATOM     27  C   UNL A   1      39.108  24.506  28.129  1.00  0.00     0.014 A 
ATOM     28  C   UNL A   1      40.614  26.150  26.454  1.00  0.00     0.010 A 
ATOM     29  C   UNL A   1      39.764  25.645  28.646  1.00  0.00     0.010 A 
ATOM     30  C   UNL A   1      40.523  26.488  27.814  1.00  0.00    -0.014 A 
BRANCH  30  31
ATOM     31  C   UNL A   1      41.200  27.725  28.324  1.00  0.00     0.031 A 
ATOM     32  C   UNL A   1      42.702  27.885  28.281  1.00  0.00     0.074 A 
ATOM     33  C   UNL A   1      40.458  28.741  28.818  1.00  0.00     0.049 A 
ATOM     34  N   UNL A   1      43.436  28.908  28.647  1.00  0.00    -0.248 NA
ATOM     35  C   UNL A   1      43.478  26.747  27.769  1.00  0.00     0.031 C 
ATOM     36  C   UNL A   1      39.000  28.733  28.942  1.00  0.00     0.029 A 
ATOM     37  N   UNL A   1      40.822  29.978  29.301  1.00  0.00    -0.354 N 
ATOM     38  C   UNL A   1      44.758  28.544  28.405  1.00  0.00     0.074 A 
ATOM     39  C   UNL A   1      44.723  27.183  27.907  1.00  0.00     0.031 C 
ATOM     40  C   UNL A   1      38.593  29.910  29.445  1.00  0.00     0.029 A 
ATOM     41  C   UNL A   1      39.759  30.748  29.717  1.00  0.00     0.049 A 
ATOM     42  H   UNL A   1      41.757  30.283  29.346  1.00  0.00     0.167 HD
ATOM     43  C   UNL A   1      45.892  29.274  28.562  1.00  0.00     0.037 A 
ATOM     44  C   UNL A   1      39.714  31.982  30.261  1.00  0.00     0.037 A 
ATOM     45  C   UNL A   1      45.935  30.632  29.054  1.00  0.00     0.049 A 
ATOM     46  C   UNL A   1      40.988  32.761  30.462  1.00  0.00     0.074 A 
ATOM     47  C   UNL A   1      47.040  31.455  29.208  1.00  0.00     0.029 A 
ATOM     48  N   UNL A   1      44.837  31.365  29.480  1.00  0.00    -0.354 N 
ATOM     49  N   UNL A   1      42.219  32.414  30.174  1.00  0.00    -0.248 NA
ATOM     50  C   UNL A   1      40.867  34.102  31.054  1.00  0.00     0.031 C 
ATOM     51  C   UNL A   1      46.618  32.660  29.780  1.00  0.00     0.029 A 
ATOM     52  C   UNL A   1      45.242  32.616  29.924  1.00  0.00     0.049 A 
ATOM     53  H   UNL A   1      43.907  31.044  29.470  1.00  0.00     0.167 HD
ATOM     54  C   UNL A   1      43.013  33.503  30.525  1.00  0.00     0.074 A 
ATOM     55  C   UNL A   1      42.123  34.524  31.032  1.00  0.00     0.031 C 
ATOM     56  C   UNL A   1      44.359  33.639  30.430  1.00  0.00     0.037 A 
BRANCH  43  57
ATOM     57  C   UNL A   1      47.202  28.621  28.202  1.00  0.00     0.058 A 
ATOM     58  C   UNL A   1      47.938  27.876  29.139  1.00  0.00     0.135 A 
ATOM     59  C   UNL A   1      47.703  28.692  26.890  1.00  0.00     0.135 A 
ATOM     60  F   UNL A   1      47.512  27.776  30.407  1.00  0.00    -0.206 F 
ATOM     61  C   UNL A   1      49.138  27.258  28.798  1.00  0.00     0.059 A 
ATOM     62  C   UNL A   1      48.885  28.055  26.520  1.00  0.00     0.059 A 
ATOM     63  F   UNL A   1      47.037  29.380  25.949  1.00  0.00    -0.206 F 
ATOM     64  C   UNL A   1      49.605  27.355  27.487  1.00  0.00     0.060 A 
BRANCH  64  65
ATOM     65  S   UNL A   1      51.169  26.556  27.066  1.00  0.00     0.124 S 
ATOM     66  O   UNL A   1      51.160  26.652  25.609  1.00  0.00    -0.237 OA
ATOM     67  O   UNL A   1      52.144  27.398  27.750  1.00  0.00    -0.237 OA
ATOM     68  O   UNL A   1      51.019  25.209  27.605  1.00  0.00    -0.744 OA
ENDBRANCH  64  65
ENDBRANCH  43  57
BRANCH  44  69
ATOM     69  C   UNL A   1      38.403  32.566  30.662  1.00  0.00     0.058 A 
ATOM     70  C   UNL A   1      37.620  33.297  29.757  1.00  0.00     0.135 A 
ATOM     71  C   UNL A   1      37.907  32.398  31.966  1.00  0.00     0.135 A 
ATOM     72  F   UNL A   1      38.056  33.498  28.503  1.00  0.00    -0.206 F 
ATOM     73  C   UNL A   1      36.398  33.850  30.128  1.00  0.00     0.059 A 
ATOM     74  C   UNL A   1      36.675  32.915  32.353  1.00  0.00     0.059 A 
ATOM     75  F   UNL A   1      38.612  31.699  32.869  1.00  0.00    -0.206 F 
ATOM     76  C   UNL A   1      35.932  33.648  31.429  1.00  0.00     0.060 A 
BRANCH  76  77
ATOM     77  S   UNL A   1      34.319  34.320  31.887  1.00  0.00     0.124 S 
ATOM     78  O   UNL A   1      33.680  34.465  30.584  1.00  0.00    -0.237 OA
ATOM     79  O   UNL A   1      33.785  33.271  32.748  1.00  0.00    -0.237 OA
ATOM     80  O   UNL A   1      34.657  35.568  32.567  1.00  0.00    -0.744 OA
ENDBRANCH  76  77
ENDBRANCH  44  69
BRANCH  56  81
ATOM     81  C   UNL A   1      44.965  34.954  30.854  1.00  0.00     0.058 A 
ATOM     82  C   UNL A   1      45.103  36.029  29.962  1.00  0.00     0.135 A 
ATOM     83  C   UNL A   1      45.369  35.156  32.185  1.00  0.00     0.135 A 
ATOM     84  F   UNL A   1      44.741  35.892  28.677  1.00  0.00    -0.206 F 
ATOM     85  C   UNL A   1      45.642  37.248  30.368  1.00  0.00     0.059 A 
ATOM     86  C   UNL A   1      45.883  36.375  32.619  1.00  0.00     0.059 A 
ATOM     87  F   UNL A   1      45.253  34.165  33.084  1.00  0.00    -0.206 F 
ATOM     88  C   UNL A   1      46.026  37.412  31.700  1.00  0.00     0.060 A 
BRANCH  88  89
ATOM     89  S   UNL A   1      46.691  39.009  32.219  1.00  0.00     0.124 S 
ATOM     90  O   UNL A   1      45.777  39.938  31.560  1.00  0.00    -0.237 OA
ATOM     91  O   UNL A   1      46.580  38.936  33.672  1.00  0.00    -0.237 OA
ATOM     92  O   UNL A   1      48.055  38.996  31.698  1.00  0.00    -0.744 OA
ENDBRANCH  88  89
ENDBRANCH  56  81
ENDBRANCH  30  31
ENDBRANCH  22  25
ENDBRANCH  20  21
ENDBRANCH   1  20
TORSDOF 16
ENDMDL
MODEL 3
REMARK VINA RESULT:     -10.2      2.330      3.083
REMARK SMILES O=C(/C=C\N1[C@@H]2CC[C@H]1C[C@H](O)C2)NCCCCNC(=O)c1ccc(-c2c3nc(c(-c4c(F)cc(S(=O)(=O)[O-])cc4F)c4ccc([nH]4)c(-c4c(F)cc(S(=O)(=O)[O-])cc4F)c4nc(c(-c5c(F)cc(S(=O)(=O)[O-])cc5F)c5ccc2[nH]5)C=C4)C=C3)cc1
REMARK SMILES IDX 17 1 16 2 15 3 14 4 1 5 2 6 3 8 4 9 5 10 6 11 9 12 7 13
REMARK SMILES IDX 13 14 8 15 10 16 11 17 12 18 18 20 19 21 20 22 21 24 22 25
REMARK SMILES IDX 23 26 87 27 24 28 86 29 25 30 26 31 27 32 80 33 28 34 85 35
REMARK SMILES IDX 79 36 81 37 29 38 84 39 78 40 77 41 30 43 64 44 43 45 63 46
REMARK SMILES IDX 44 47 47 48 62 49 82 50 45 51 46 52 61 54 83 55 48 56 31 57
REMARK SMILES IDX 32 58 41 59 33 60 34 61 40 62 42 63 35 64 36 65 37 66 38 67
REMARK SMILES IDX 39 68 65 69 66 70 75 71 67 72 68 73 74 74 76 75 69 76 70 77
REMARK SMILES IDX 71 78 72 79 73 80 49 81 50 82 59 83 51 84 52 85 58 86 60 87
REMARK SMILES IDX 53 88 54 89 55 90 56 91 57 92
REMARK H PARENT 14 7 12 19 19 23 81 42 47 53
REMARK Flexibility Score: inf
ROOT
ATOM      1  C   UNL A   1      34.268  34.091  28.509  1.00  0.00     0.023 C 
ENDROOT
BRANCH   1   2
ATOM      2  C   UNL A   1      33.121  35.008  28.976  1.00  0.00     0.023 C 
BRANCH   2   3
ATOM      3  C   UNL A   1      33.339  36.007  30.128  1.00  0.00     0.116 C 
BRANCH   3   4
ATOM      4  N   UNL A   1      33.971  35.504  31.335  1.00  0.00    -0.353 N 
ATOM      5  O   UNL A   1      34.044  37.445  32.559  1.00  0.00    -0.270 OA
ATOM      6  C   UNL A   1      34.262  36.238  32.450  1.00  0.00     0.245 C 
ATOM      7  H   UNL A   1      34.211  34.549  31.352  1.00  0.00     0.163 HD
BRANCH   6   8
ATOM      8  C   UNL A   1      34.718  35.462  33.645  1.00  0.00     0.088 C 
ATOM      9  C   UNL A   1      35.706  34.572  33.835  1.00  0.00     0.087 C 
BRANCH   9  10
ATOM     10  N   UNL A   1      36.725  34.078  33.051  1.00  0.00    -0.371 N 
ATOM     11  C   UNL A   1      38.151  34.447  33.115  1.00  0.00     0.084 C 
ATOM     12  C   UNL A   1      36.643  33.103  31.975  1.00  0.00     0.084 C 
ATOM     13  C   UNL A   1      38.625  34.370  31.638  1.00  0.00     0.027 C 
ATOM     14  C   UNL A   1      38.838  33.351  33.956  1.00  0.00     0.056 C 
ATOM     15  C   UNL A   1      37.433  33.806  30.875  1.00  0.00     0.027 C 
ATOM     16  C   UNL A   1      37.399  31.842  32.439  1.00  0.00     0.056 C 
ATOM     17  C   UNL A   1      38.150  31.987  33.770  1.00  0.00     0.118 C 
BRANCH  17  18
ATOM     18  O   UNL A   1      37.203  31.770  34.833  1.00  0.00    -0.393 OA
ATOM     19  H   UNL A   1      36.478  32.410  34.757  1.00  0.00     0.210 HD
ENDBRANCH  17  18
ENDBRANCH   9  10
ENDBRANCH   6   8
ENDBRANCH   3   4
ENDBRANCH   2   3
ENDBRANCH   1   2
BRANCH   1  20
ATOM     20  C   UNL A   1      34.386  32.675  29.093  1.00  0.00     0.116 C 
BRANCH  20  21
ATOM     21  N   UNL A   1      33.848  31.594  28.305  1.00  0.00    -0.352 N 
ATOM     22  C   UNL A   1      34.397  30.361  28.018  1.00  0.00     0.251 C 
ATOM     23  H   UNL A   1      32.961  31.761  27.913  1.00  0.00     0.163 HD
ATOM     24  O   UNL A   1      33.707  29.550  27.397  1.00  0.00    -0.269 OA
BRANCH  22  25
ATOM     25  C   UNL A   1      35.804  29.983  28.364  1.00  0.00     0.039 A 
ATOM     26  C   UNL A   1      36.754  30.073  27.338  1.00  0.00     0.014 A 
ATOM     27  C   UNL A   1      36.212  29.480  29.604  1.00  0.00     0.014 A 
ATOM     28  C   UNL A   1      38.092  29.716  27.558  1.00  0.00     0.010 A 
ATOM     29  C   UNL A   1      37.568  29.161  29.838  1.00  0.00     0.010 A 
ATOM     30  C   UNL A   1      38.530  29.279  28.819  1.00  0.00    -0.014 A 
BRANCH  30  31
ATOM     31  C   UNL A   1      39.984  28.985  29.045  1.00  0.00     0.031 A 
ATOM     32  C   UNL A   1      40.913  30.001  29.666  1.00  0.00     0.074 A 
ATOM     33  C   UNL A   1      40.483  27.775  28.709  1.00  0.00     0.049 A 
ATOM     34  N   UNL A   1      42.185  29.886  29.962  1.00  0.00    -0.248 NA
ATOM     35  C   UNL A   1      40.343  31.316  29.987  1.00  0.00     0.031 C 
ATOM     36  C   UNL A   1      39.718  26.694  28.086  1.00  0.00     0.029 A 
ATOM     37  N   UNL A   1      41.747  27.245  28.848  1.00  0.00    -0.354 N 
ATOM     38  C   UNL A   1      42.569  31.107  30.510  1.00  0.00     0.074 A 
ATOM     39  C   UNL A   1      41.401  31.964  30.456  1.00  0.00     0.031 C 
ATOM     40  C   UNL A   1      40.518  25.629  27.916  1.00  0.00     0.029 A 
ATOM     41  C   UNL A   1      41.864  25.955  28.381  1.00  0.00     0.049 A 
ATOM     42  H   UNL A   1      42.498  27.745  29.244  1.00  0.00     0.167 HD
ATOM     43  C   UNL A   1      43.769  31.477  31.027  1.00  0.00     0.037 A 
ATOM     44  C   UNL A   1      42.926  25.124  28.323  1.00  0.00     0.037 A 
ATOM     45  C   UNL A   1      44.936  30.629  31.087  1.00  0.00     0.049 A 
ATOM     46  C   UNL A   1      44.258  25.569  28.867  1.00  0.00     0.074 A 
ATOM     47  C   UNL A   1      46.179  30.915  31.628  1.00  0.00     0.029 A 
ATOM     48  N   UNL A   1      45.015  29.337  30.586  1.00  0.00    -0.354 N 
ATOM     49  N   UNL A   1      44.579  26.709  29.429  1.00  0.00    -0.248 NA
ATOM     50  C   UNL A   1      45.371  24.612  28.777  1.00  0.00     0.031 C 
ATOM     51  C   UNL A   1      47.024  29.822  31.403  1.00  0.00     0.029 A 
ATOM     52  C   UNL A   1      46.291  28.827  30.779  1.00  0.00     0.049 A 
ATOM     53  H   UNL A   1      44.273  28.853  30.157  1.00  0.00     0.167 HD
ATOM     54  C   UNL A   1      45.921  26.595  29.782  1.00  0.00     0.074 A 
ATOM     55  C   UNL A   1      46.347  25.270  29.385  1.00  0.00     0.031 C 
ATOM     56  C   UNL A   1      46.722  27.508  30.385  1.00  0.00     0.037 A 
BRANCH  43  57
ATOM     57  C   UNL A   1      43.895  32.878  31.573  1.00  0.00     0.058 A 
ATOM     58  C   UNL A   1      44.307  33.951  30.764  1.00  0.00     0.135 A 
ATOM     59  C   UNL A   1      43.548  33.162  32.905  1.00  0.00     0.135 A 
ATOM     60  F   UNL A   1      44.655  33.739  29.486  1.00  0.00    -0.206 F 
ATOM     61  C   UNL A   1      44.405  35.245  31.266  1.00  0.00     0.059 A 
ATOM     62  C   UNL A   1      43.608  34.455  33.419  1.00  0.00     0.059 A 
ATOM     63  F   UNL A   1      43.137  32.179  33.721  1.00  0.00    -0.206 F 
ATOM     64  C   UNL A   1      44.056  35.488  32.596  1.00  0.00     0.060 A 
BRANCH  64  65
ATOM     65  S   UNL A   1      44.199  37.171  33.232  1.00  0.00     0.124 S 
ATOM     66  O   UNL A   1      44.254  37.945  31.994  1.00  0.00    -0.237 OA
ATOM     67  O   UNL A   1      42.977  37.315  34.015  1.00  0.00    -0.237 OA
ATOM     68  O   UNL A   1      45.437  37.140  34.004  1.00  0.00    -0.744 OA
ENDBRANCH  64  65
ENDBRANCH  43  57
BRANCH  44  69
ATOM     69  C   UNL A   1      42.773  23.772  27.717  1.00  0.00     0.058 A 
ATOM     70  C   UNL A   1      42.904  23.570  26.335  1.00  0.00     0.135 A 
ATOM     71  C   UNL A   1      42.495  22.650  28.515  1.00  0.00     0.135 A 
ATOM     72  F   UNL A   1      43.156  24.612  25.526  1.00  0.00    -0.206 F 
ATOM     73  C   UNL A   1      42.756  22.311  25.763  1.00  0.00     0.059 A 
ATOM     74  C   UNL A   1      42.371  21.376  27.971  1.00  0.00     0.059 A 
ATOM     75  F   UNL A   1      42.368  22.785  29.845  1.00  0.00    -0.206 F 
ATOM     76  C   UNL A   1      42.494  21.218  26.591  1.00  0.00     0.060 A 
BRANCH  76  77
ATOM     77  S   UNL A   1      42.359  19.577  25.848  1.00  0.00     0.124 S 
ATOM     78  O   UNL A   1      40.951  19.538  25.474  1.00  0.00    -0.237 OA
ATOM     79  O   UNL A   1      43.312  19.663  24.746  1.00  0.00    -0.237 OA
ATOM     80  O   UNL A   1      42.750  18.684  26.935  1.00  0.00    -0.744 OA
ENDBRANCH  76  77
ENDBRANCH  44  69
BRANCH  56  81
ATOM     81  C   UNL A   1      48.144  27.106  30.687  1.00  0.00     0.058 A 
ATOM     82  C   UNL A   1      49.200  27.392  29.807  1.00  0.00     0.135 A 
ATOM     83  C   UNL A   1      48.461  26.466  31.898  1.00  0.00     0.135 A 
ATOM     84  F   UNL A   1      48.956  27.995  28.633  1.00  0.00    -0.206 F 
ATOM     85  C   UNL A   1      50.513  27.037  30.105  1.00  0.00     0.059 A 
ATOM     86  C   UNL A   1      49.771  26.129  32.229  1.00  0.00     0.059 A 
ATOM     87  F   UNL A   1      47.494  26.174  32.782  1.00  0.00    -0.206 F 
ATOM     88  C   UNL A   1      50.790  26.409  31.321  1.00  0.00     0.060 A 
BRANCH  88  89
ATOM     89  S   UNL A   1      52.502  25.986  31.707  1.00  0.00     0.124 S 
ATOM     90  O   UNL A   1      53.147  26.147  30.408  1.00  0.00    -0.237 OA
ATOM     91  O   UNL A   1      52.850  26.984  32.714  1.00  0.00    -0.237 OA
ATOM     92  O   UNL A   1      52.413  24.614  32.198  1.00  0.00    -0.744 OA
ENDBRANCH  88  89
ENDBRANCH  56  81
ENDBRANCH  30  31
ENDBRANCH  22  25
ENDBRANCH  20  21
ENDBRANCH   1  20
TORSDOF 16
ENDMDL
