MODEL 1
REMARK VINA RESULT:     -13.3      0.000      0.000
REMARK SMILES Nn1c(S[C@@H](C(=O)NCCCCNC(=O)c2ccc(-c3c4nc(c(-c5c(F)cc(S(=O)(=O)[O-])cc5F)c5ccc([nH]5)c(-c5c(F)cc(S(=O)(=O)[O-])cc5F)c5nc(c(-c6c(F)cc(S(=O)(=O)[O-])cc6F)c6ccc3[nH]6)C=C5)C=C4)cc2)c2ccccc2)nc2ccc(Br)cc2c1=O
REMARK SMILES IDX 10 1 9 2 8 3 6 4 7 5 5 7 4 8 3 9 2 10 96 11 88 12 95 13
REMARK SMILES IDX 97 14 89 15 94 16 90 17 92 18 91 19 93 20 1 21 82 24 83 25
REMARK SMILES IDX 87 26 84 27 86 28 85 29 11 30 12 31 13 32 14 33 15 35 16 36
REMARK SMILES IDX 17 37 81 38 18 39 80 40 19 41 20 42 21 43 74 44 22 45 79 46
REMARK SMILES IDX 73 47 75 48 23 49 78 50 72 51 71 52 24 54 58 55 37 56 57 57
REMARK SMILES IDX 38 58 41 59 56 60 76 61 39 62 40 63 55 65 77 66 42 67 25 68
REMARK SMILES IDX 26 69 35 70 27 71 28 72 34 73 36 74 29 75 30 76 31 77 32 78
REMARK SMILES IDX 33 79 59 80 60 81 69 82 61 83 62 84 68 85 70 86 63 87 64 88
REMARK SMILES IDX 65 89 66 90 67 91 43 92 44 93 53 94 45 95 46 96 52 97 54 98
REMARK SMILES IDX 47 99 48 100 49 101 50 102 51 103
REMARK H PARENT 8 6 1 22 1 23 13 34 75 53 41 64
REMARK Flexibility Score: inf
ROOT
ATOM      1  C   UNL A   1      37.789  22.957  25.798  1.00  0.00     0.023 C 
ENDROOT
BRANCH   1   2
ATOM      2  C   UNL A   1      36.716  21.989  25.290  1.00  0.00     0.116 C 
BRANCH   2   3
ATOM      3  N   UNL A   1      35.592  21.846  26.198  1.00  0.00    -0.355 N 
ATOM      4  C   UNL A   1      34.407  21.162  26.085  1.00  0.00     0.238 C 
ATOM      5  O   UNL A   1      33.753  21.122  27.133  1.00  0.00    -0.273 OA
ATOM      6  H   UNL A   1      35.699  22.327  27.050  1.00  0.00     0.163 HD
BRANCH   4   7
ATOM      7  C   UNL A   1      34.005  20.427  24.768  1.00  0.00     0.174 C 
BRANCH   7   8
ATOM      8  S   UNL A   1      32.702  21.337  23.892  1.00  0.00    -0.068 SA
BRANCH   8   9
ATOM      9  C   UNL A   1      32.379  22.907  24.587  1.00  0.00     0.191 A 
ATOM     10  N   UNL A   1      31.481  23.186  25.613  1.00  0.00    -0.202 N 
ATOM     11  C   UNL A   1      31.242  24.492  26.055  1.00  0.00     0.280 A 
ATOM     12  N   UNL A   1      33.096  23.834  24.029  1.00  0.00    -0.222 NA
ATOM     13  C   UNL A   1      32.066  25.542  25.444  1.00  0.00     0.069 A 
ATOM     14  O   UNL A   1      30.391  24.787  26.894  1.00  0.00    -0.267 OA
ATOM     15  C   UNL A   1      32.973  25.156  24.461  1.00  0.00     0.079 A 
ATOM     16  C   UNL A   1      31.940  26.879  25.837  1.00  0.00     0.031 A 
ATOM     17  C   UNL A   1      33.782  26.130  23.874  1.00  0.00     0.030 A 
ATOM     18  C   UNL A   1      32.747  27.837  25.232  1.00  0.00     0.018 A 
ATOM     19  C   UNL A   1      33.673  27.470  24.257  1.00  0.00     0.018 A 
ATOM     20  Br  UNL A   1      32.581  29.653  25.730  1.00  0.00    -0.051 Br
BRANCH  10  21
ATOM     21  N   UNL A   1      30.724  22.197  26.254  1.00  0.00    -0.334 N 
ATOM     22  H   UNL A   1      31.129  21.323  26.458  1.00  0.00     0.178 HD
ATOM     23  H   UNL A   1      29.789  22.375  26.503  1.00  0.00     0.178 HD
ENDBRANCH  10  21
ENDBRANCH   8   9
ENDBRANCH   7   8
BRANCH   7  24
ATOM     24  C   UNL A   1      33.843  18.894  24.800  1.00  0.00    -0.025 A 
ATOM     25  C   UNL A   1      32.616  18.274  25.124  1.00  0.00     0.005 A 
ATOM     26  C   UNL A   1      34.905  18.042  24.448  1.00  0.00     0.005 A 
ATOM     27  C   UNL A   1      32.492  16.885  25.200  1.00  0.00     0.000 A 
ATOM     28  C   UNL A   1      34.782  16.650  24.522  1.00  0.00     0.000 A 
ATOM     29  C   UNL A   1      33.580  16.072  24.914  1.00  0.00     0.000 A 
ENDBRANCH   7  24
ENDBRANCH   4   7
ENDBRANCH   2   3
ENDBRANCH   1   2
BRANCH   1  30
ATOM     30  C   UNL A   1      39.024  22.311  26.429  1.00  0.00     0.023 C 
BRANCH  30  31
ATOM     31  C   UNL A   1      40.059  23.275  26.990  1.00  0.00     0.116 C 
BRANCH  31  32
ATOM     32  N   UNL A   1      40.634  24.161  25.990  1.00  0.00    -0.352 N 
ATOM     33  C   UNL A   1      41.063  25.462  26.133  1.00  0.00     0.251 C 
ATOM     34  H   UNL A   1      40.731  23.779  25.088  1.00  0.00     0.163 HD
ATOM     35  O   UNL A   1      41.452  26.095  25.157  1.00  0.00    -0.269 OA
BRANCH  33  36
ATOM     36  C   UNL A   1      40.999  26.105  27.463  1.00  0.00     0.039 A 
ATOM     37  C   UNL A   1      39.830  26.047  28.224  1.00  0.00     0.014 A 
ATOM     38  C   UNL A   1      42.099  26.840  27.916  1.00  0.00     0.014 A 
ATOM     39  C   UNL A   1      39.697  26.868  29.339  1.00  0.00     0.010 A 
ATOM     40  C   UNL A   1      41.989  27.604  29.082  1.00  0.00     0.010 A 
ATOM     41  C   UNL A   1      40.766  27.674  29.766  1.00  0.00    -0.014 A 
BRANCH  41  42
ATOM     42  C   UNL A   1      40.563  28.614  30.900  1.00  0.00     0.031 A 
ATOM     43  C   UNL A   1      41.486  28.588  32.091  1.00  0.00     0.074 A 
ATOM     44  C   UNL A   1      39.594  29.546  30.820  1.00  0.00     0.049 A 
ATOM     45  N   UNL A   1      41.478  29.349  33.157  1.00  0.00    -0.248 NA
ATOM     46  C   UNL A   1      42.555  27.576  32.090  1.00  0.00     0.031 C 
ATOM     47  C   UNL A   1      38.651  29.688  29.708  1.00  0.00     0.029 A 
ATOM     48  N   UNL A   1      39.262  30.571  31.670  1.00  0.00    -0.354 N 
ATOM     49  C   UNL A   1      42.524  28.901  33.955  1.00  0.00     0.074 A 
ATOM     50  C   UNL A   1      43.131  27.783  33.267  1.00  0.00     0.031 C 
ATOM     51  C   UNL A   1      37.888  30.772  29.916  1.00  0.00     0.029 A 
ATOM     52  C   UNL A   1      38.247  31.369  31.198  1.00  0.00     0.049 A 
ATOM     53  H   UNL A   1      39.708  30.719  32.535  1.00  0.00     0.167 HD
ATOM     54  C   UNL A   1      42.950  29.385  35.147  1.00  0.00     0.037 A 
ATOM     55  C   UNL A   1      37.667  32.457  31.738  1.00  0.00     0.037 A 
ATOM     56  C   UNL A   1      42.363  30.515  35.820  1.00  0.00     0.049 A 
ATOM     57  C   UNL A   1      38.133  32.954  33.075  1.00  0.00     0.074 A 
ATOM     58  C   UNL A   1      42.729  31.084  37.028  1.00  0.00     0.029 A 
ATOM     59  N   UNL A   1      41.295  31.257  35.338  1.00  0.00    -0.354 N 
ATOM     60  N   UNL A   1      39.107  32.500  33.826  1.00  0.00    -0.248 NA
ATOM     61  C   UNL A   1      37.413  34.099  33.646  1.00  0.00     0.031 C 
ATOM     62  C   UNL A   1      41.864  32.151  37.291  1.00  0.00     0.029 A 
ATOM     63  C   UNL A   1      40.980  32.269  36.230  1.00  0.00     0.049 A 
ATOM     64  H   UNL A   1      40.829  31.088  34.487  1.00  0.00     0.167 HD
ATOM     65  C   UNL A   1      39.118  33.304  34.959  1.00  0.00     0.074 A 
ATOM     66  C   UNL A   1      38.068  34.287  34.785  1.00  0.00     0.031 C 
ATOM     67  C   UNL A   1      39.923  33.231  36.047  1.00  0.00     0.037 A 
BRANCH  54  68
ATOM     68  C   UNL A   1      44.106  28.690  35.811  1.00  0.00     0.058 A 
ATOM     69  C   UNL A   1      45.432  29.090  35.583  1.00  0.00     0.135 A 
ATOM     70  C   UNL A   1      43.883  27.645  36.723  1.00  0.00     0.135 A 
ATOM     71  F   UNL A   1      45.700  30.071  34.708  1.00  0.00    -0.206 F 
ATOM     72  C   UNL A   1      46.499  28.465  36.221  1.00  0.00     0.059 A 
ATOM     73  C   UNL A   1      44.934  27.019  37.387  1.00  0.00     0.059 A 
ATOM     74  F   UNL A   1      42.634  27.224  36.975  1.00  0.00    -0.206 F 
ATOM     75  C   UNL A   1      46.239  27.429  37.121  1.00  0.00     0.060 A 
BRANCH  75  76
ATOM     76  S   UNL A   1      47.634  26.632  37.945  1.00  0.00     0.124 S 
ATOM     77  O   UNL A   1      47.241  25.227  37.889  1.00  0.00    -0.237 OA
ATOM     78  O   UNL A   1      48.758  27.009  37.092  1.00  0.00    -0.237 OA
ATOM     79  O   UNL A   1      47.632  27.232  39.275  1.00  0.00    -0.744 OA
ENDBRANCH  75  76
ENDBRANCH  54  68
BRANCH  55  80
ATOM     80  C   UNL A   1      36.579  33.147  31.000  1.00  0.00     0.058 A 
ATOM     81  C   UNL A   1      35.238  32.974  31.371  1.00  0.00     0.135 A 
ATOM     82  C   UNL A   1      36.861  34.025  29.943  1.00  0.00     0.135 A 
ATOM     83  F   UNL A   1      34.921  32.138  32.371  1.00  0.00    -0.206 F 
ATOM     84  C   UNL A   1      34.212  33.654  30.723  1.00  0.00     0.059 A 
ATOM     85  C   UNL A   1      35.855  34.733  29.294  1.00  0.00     0.059 A 
ATOM     86  F   UNL A   1      38.131  34.232  29.562  1.00  0.00    -0.206 F 
ATOM     87  C   UNL A   1      34.532  34.537  29.690  1.00  0.00     0.060 A 
BRANCH  87  88
ATOM     88  S   UNL A   1      33.202  35.476  28.908  1.00  0.00     0.124 S 
ATOM     89  O   UNL A   1      33.952  36.429  28.098  1.00  0.00    -0.237 OA
ATOM     90  O   UNL A   1      32.483  34.440  28.175  1.00  0.00    -0.237 OA
ATOM     91  O   UNL A   1      32.481  36.042  30.045  1.00  0.00    -0.744 OA
ENDBRANCH  87  88
ENDBRANCH  55  80
BRANCH  67  92
ATOM     92  C   UNL A   1      39.699  34.238  37.137  1.00  0.00     0.058 A 
ATOM     93  C   UNL A   1      38.927  33.927  38.267  1.00  0.00     0.135 A 
ATOM     94  C   UNL A   1      40.304  35.503  37.079  1.00  0.00     0.135 A 
ATOM     95  F   UNL A   1      38.322  32.733  38.363  1.00  0.00    -0.206 F 
ATOM     96  C   UNL A   1      38.752  34.842  39.298  1.00  0.00     0.059 A 
ATOM     97  C   UNL A   1      40.157  36.427  38.109  1.00  0.00     0.059 A 
ATOM     98  F   UNL A   1      41.058  35.845  36.022  1.00  0.00    -0.206 F 
ATOM     99  C   UNL A   1      39.371  36.090  39.211  1.00  0.00     0.060 A 
BRANCH  99 100
ATOM    100  S   UNL A   1      39.167  37.255  40.575  1.00  0.00     0.124 S 
ATOM    101  O   UNL A   1      40.537  37.708  40.783  1.00  0.00    -0.237 OA
ATOM    102  O   UNL A   1      38.251  38.241  40.011  1.00  0.00    -0.237 OA
ATOM    103  O   UNL A   1      38.608  36.432  41.644  1.00  0.00    -0.744 OA
ENDBRANCH  99 100
ENDBRANCH  67  92
ENDBRANCH  41  42
ENDBRANCH  33  36
ENDBRANCH  31  32
ENDBRANCH  30  31
ENDBRANCH   1  30
TORSDOF 18
ENDMDL
MODEL 2
REMARK VINA RESULT:     -13.1      6.688     12.362
REMARK SMILES Nn1c(S[C@@H](C(=O)NCCCCNC(=O)c2ccc(-c3c4nc(c(-c5c(F)cc(S(=O)(=O)[O-])cc5F)c5ccc([nH]5)c(-c5c(F)cc(S(=O)(=O)[O-])cc5F)c5nc(c(-c6c(F)cc(S(=O)(=O)[O-])cc6F)c6ccc3[nH]6)C=C5)C=C4)cc2)c2ccccc2)nc2ccc(Br)cc2c1=O
REMARK SMILES IDX 10 1 9 2 8 3 6 4 7 5 5 7 4 8 3 9 2 10 96 11 88 12 95 13
REMARK SMILES IDX 97 14 89 15 94 16 90 17 92 18 91 19 93 20 1 21 82 24 83 25
REMARK SMILES IDX 87 26 84 27 86 28 85 29 11 30 12 31 13 32 14 33 15 35 16 36
REMARK SMILES IDX 17 37 81 38 18 39 80 40 19 41 20 42 21 43 74 44 22 45 79 46
REMARK SMILES IDX 73 47 75 48 23 49 78 50 72 51 71 52 24 54 58 55 37 56 57 57
REMARK SMILES IDX 38 58 41 59 56 60 76 61 39 62 40 63 55 65 77 66 42 67 25 68
REMARK SMILES IDX 26 69 35 70 27 71 28 72 34 73 36 74 29 75 30 76 31 77 32 78
REMARK SMILES IDX 33 79 59 80 60 81 69 82 61 83 62 84 68 85 70 86 63 87 64 88
REMARK SMILES IDX 65 89 66 90 67 91 43 92 44 93 53 94 45 95 46 96 52 97 54 98
REMARK SMILES IDX 47 99 48 100 49 101 50 102 51 103
REMARK H PARENT 8 6 1 22 1 23 13 34 75 53 41 64
REMARK Flexibility Score: inf
ROOT
ATOM      1  C   UNL A   1      32.425  29.733  27.304  1.00  0.00     0.023 C 
ENDROOT
BRANCH   1   2
ATOM      2  C   UNL A   1      32.083  28.491  26.476  1.00  0.00     0.116 C 
BRANCH   2   3
ATOM      3  N   UNL A   1      32.502  28.590  25.089  1.00  0.00    -0.355 N 
ATOM      4  C   UNL A   1      31.788  28.728  23.925  1.00  0.00     0.238 C 
ATOM      5  O   UNL A   1      32.490  28.953  22.932  1.00  0.00    -0.273 OA
ATOM      6  H   UNL A   1      33.477  28.550  24.959  1.00  0.00     0.163 HD
BRANCH   4   7
ATOM      7  C   UNL A   1      30.227  28.702  23.911  1.00  0.00     0.174 C 
BRANCH   7   8
ATOM      8  S   UNL A   1      29.612  27.038  23.529  1.00  0.00    -0.068 SA
BRANCH   8   9
ATOM      9  C   UNL A   1      30.886  25.848  23.416  1.00  0.00     0.191 A 
ATOM     10  N   UNL A   1      31.726  25.639  22.325  1.00  0.00    -0.202 N 
ATOM     11  C   UNL A   1      32.674  24.610  22.306  1.00  0.00     0.280 A 
ATOM     12  N   UNL A   1      30.980  25.143  24.502  1.00  0.00    -0.222 NA
ATOM     13  C   UNL A   1      32.801  23.825  23.539  1.00  0.00     0.069 A 
ATOM     14  O   UNL A   1      33.368  24.337  21.327  1.00  0.00    -0.267 OA
ATOM     15  C   UNL A   1      31.950  24.143  24.594  1.00  0.00     0.079 A 
ATOM     16  C   UNL A   1      33.744  22.797  23.647  1.00  0.00     0.031 A 
ATOM     17  C   UNL A   1      32.060  23.426  25.786  1.00  0.00     0.030 A 
ATOM     18  C   UNL A   1      33.831  22.084  24.839  1.00  0.00     0.018 A 
ATOM     19  C   UNL A   1      32.999  22.397  25.912  1.00  0.00     0.018 A 
ATOM     20  Br  UNL A   1      35.080  20.676  25.001  1.00  0.00    -0.051 Br
BRANCH  10  21
ATOM     21  N   UNL A   1      31.665  26.411  21.158  1.00  0.00    -0.334 N 
ATOM     22  H   UNL A   1      32.465  26.513  20.593  1.00  0.00     0.178 HD
ATOM     23  H   UNL A   1      30.822  26.850  20.900  1.00  0.00     0.178 HD
ENDBRANCH  10  21
ENDBRANCH   8   9
ENDBRANCH   7   8
BRANCH   7  24
ATOM     24  C   UNL A   1      29.476  29.864  23.231  1.00  0.00    -0.025 A 
ATOM     25  C   UNL A   1      29.381  31.144  23.819  1.00  0.00     0.005 A 
ATOM     26  C   UNL A   1      28.898  29.712  21.958  1.00  0.00     0.005 A 
ATOM     27  C   UNL A   1      28.655  32.177  23.220  1.00  0.00     0.000 A 
ATOM     28  C   UNL A   1      28.172  30.745  21.355  1.00  0.00     0.000 A 
ATOM     29  C   UNL A   1      28.036  31.972  21.994  1.00  0.00     0.000 A 
ENDBRANCH   7  24
ENDBRANCH   4   7
ENDBRANCH   2   3
ENDBRANCH   1   2
BRANCH   1  30
ATOM     30  C   UNL A   1      33.776  30.384  27.003  1.00  0.00     0.023 C 
BRANCH  30  31
ATOM     31  C   UNL A   1      34.946  29.898  27.846  1.00  0.00     0.116 C 
BRANCH  31  32
ATOM     32  N   UNL A   1      35.164  30.685  29.050  1.00  0.00    -0.352 N 
ATOM     33  C   UNL A   1      36.308  30.805  29.807  1.00  0.00     0.251 C 
ATOM     34  H   UNL A   1      34.390  31.202  29.366  1.00  0.00     0.163 HD
ATOM     35  O   UNL A   1      36.295  31.455  30.848  1.00  0.00    -0.269 OA
BRANCH  33  36
ATOM     36  C   UNL A   1      37.537  30.099  29.383  1.00  0.00     0.039 A 
ATOM     37  C   UNL A   1      38.420  29.579  30.330  1.00  0.00     0.014 A 
ATOM     38  C   UNL A   1      37.842  30.027  28.020  1.00  0.00     0.014 A 
ATOM     39  C   UNL A   1      39.684  29.158  29.930  1.00  0.00     0.010 A 
ATOM     40  C   UNL A   1      39.084  29.530  27.614  1.00  0.00     0.010 A 
ATOM     41  C   UNL A   1      40.039  29.151  28.571  1.00  0.00    -0.014 A 
BRANCH  41  42
ATOM     42  C   UNL A   1      41.428  28.790  28.181  1.00  0.00     0.031 A 
ATOM     43  C   UNL A   1      42.536  29.808  28.268  1.00  0.00     0.074 A 
ATOM     44  C   UNL A   1      41.706  27.521  27.826  1.00  0.00     0.049 A 
ATOM     45  N   UNL A   1      43.809  29.665  27.998  1.00  0.00    -0.248 NA
ATOM     46  C   UNL A   1      42.170  31.162  28.713  1.00  0.00     0.031 C 
ATOM     47  C   UNL A   1      40.724  26.440  27.726  1.00  0.00     0.029 A 
ATOM     48  N   UNL A   1      42.898  26.917  27.515  1.00  0.00    -0.354 N 
ATOM     49  C   UNL A   1      44.391  30.907  28.224  1.00  0.00     0.074 A 
ATOM     50  C   UNL A   1      43.329  31.803  28.628  1.00  0.00     0.031 C 
ATOM     51  C   UNL A   1      41.360  25.294  27.438  1.00  0.00     0.029 A 
ATOM     52  C   UNL A   1      42.785  25.569  27.276  1.00  0.00     0.049 A 
ATOM     53  H   UNL A   1      43.753  27.404  27.468  1.00  0.00     0.167 HD
ATOM     54  C   UNL A   1      45.693  31.267  28.118  1.00  0.00     0.037 A 
ATOM     55  C   UNL A   1      43.721  24.654  26.958  1.00  0.00     0.037 A 
ATOM     56  C   UNL A   1      46.755  30.369  27.742  1.00  0.00     0.049 A 
ATOM     57  C   UNL A   1      45.151  25.084  26.814  1.00  0.00     0.074 A 
ATOM     58  C   UNL A   1      48.106  30.640  27.614  1.00  0.00     0.029 A 
ATOM     59  N   UNL A   1      46.587  29.025  27.446  1.00  0.00    -0.354 N 
ATOM     60  N   UNL A   1      45.676  26.270  27.007  1.00  0.00    -0.248 NA
ATOM     61  C   UNL A   1      46.113  24.058  26.393  1.00  0.00     0.031 C 
ATOM     62  C   UNL A   1      48.752  29.467  27.212  1.00  0.00     0.029 A 
ATOM     63  C   UNL A   1      47.808  28.457  27.123  1.00  0.00     0.049 A 
ATOM     64  H   UNL A   1      45.727  28.546  27.463  1.00  0.00     0.167 HD
ATOM     65  C   UNL A   1      47.031  26.133  26.732  1.00  0.00     0.074 A 
ATOM     66  C   UNL A   1      47.249  24.744  26.382  1.00  0.00     0.031 C 
ATOM     67  C   UNL A   1      48.006  27.075  26.764  1.00  0.00     0.037 A 
BRANCH  54  68
ATOM     68  C   UNL A   1      46.048  32.700  28.406  1.00  0.00     0.058 A 
ATOM     69  C   UNL A   1      46.441  33.115  29.687  1.00  0.00     0.135 A 
ATOM     70  C   UNL A   1      46.041  33.657  27.378  1.00  0.00     0.135 A 
ATOM     71  F   UNL A   1      46.447  32.244  30.708  1.00  0.00    -0.206 F 
ATOM     72  C   UNL A   1      46.798  34.435  29.945  1.00  0.00     0.059 A 
ATOM     73  C   UNL A   1      46.413  34.978  27.609  1.00  0.00     0.059 A 
ATOM     74  F   UNL A   1      45.671  33.311  26.135  1.00  0.00    -0.206 F 
ATOM     75  C   UNL A   1      46.780  35.361  28.898  1.00  0.00     0.060 A 
BRANCH  75  76
ATOM     76  S   UNL A   1      47.250  37.068  29.249  1.00  0.00     0.124 S 
ATOM     77  O   UNL A   1      45.965  37.653  29.620  1.00  0.00    -0.237 OA
ATOM     78  O   UNL A   1      48.212  36.911  30.335  1.00  0.00    -0.237 OA
ATOM     79  O   UNL A   1      47.809  37.533  27.983  1.00  0.00    -0.744 OA
ENDBRANCH  75  76
ENDBRANCH  54  68
BRANCH  55  80
ATOM     80  C   UNL A   1      43.321  23.238  26.760  1.00  0.00     0.058 A 
ATOM     81  C   UNL A   1      43.249  22.686  25.473  1.00  0.00     0.135 A 
ATOM     82  C   UNL A   1      43.050  22.400  27.851  1.00  0.00     0.135 A 
ATOM     83  F   UNL A   1      43.493  23.453  24.400  1.00  0.00    -0.206 F 
ATOM     84  C   UNL A   1      42.927  21.348  25.274  1.00  0.00     0.059 A 
ATOM     85  C   UNL A   1      42.747  21.053  27.679  1.00  0.00     0.059 A 
ATOM     86  F   UNL A   1      43.119  22.881  29.102  1.00  0.00    -0.206 F 
ATOM     87  C   UNL A   1      42.685  20.537  26.385  1.00  0.00     0.060 A 
BRANCH  87  88
ATOM     88  S   UNL A   1      42.347  18.783  26.122  1.00  0.00     0.124 S 
ATOM     89  O   UNL A   1      43.284  18.461  25.052  1.00  0.00    -0.237 OA
ATOM     90  O   UNL A   1      42.649  18.212  27.430  1.00  0.00    -0.237 OA
ATOM     91  O   UNL A   1      40.934  18.768  25.751  1.00  0.00    -0.744 OA
ENDBRANCH  87  88
ENDBRANCH  55  80
BRANCH  67  92
ATOM     92  C   UNL A   1      49.396  26.638  26.406  1.00  0.00     0.058 A 
ATOM     93  C   UNL A   1      50.231  26.023  27.351  1.00  0.00     0.135 A 
ATOM     94  C   UNL A   1      49.877  26.784  25.095  1.00  0.00     0.135 A 
ATOM     95  F   UNL A   1      49.818  25.868  28.618  1.00  0.00    -0.206 F 
ATOM     96  C   UNL A   1      51.504  25.578  27.011  1.00  0.00     0.059 A 
ATOM     97  C   UNL A   1      51.141  26.330  24.730  1.00  0.00     0.059 A 
ATOM     98  F   UNL A   1      49.113  27.360  24.154  1.00  0.00    -0.206 F 
ATOM     99  C   UNL A   1      51.950  25.736  25.698  1.00  0.00     0.060 A 
BRANCH  99 100
ATOM    100  S   UNL A   1      53.590  25.119  25.261  1.00  0.00     0.124 S 
ATOM    101  O   UNL A   1      53.401  23.678  25.372  1.00  0.00    -0.237 OA
ATOM    102  O   UNL A   1      53.768  25.634  23.907  1.00  0.00    -0.237 OA
ATOM    103  O   UNL A   1      54.458  25.719  26.271  1.00  0.00    -0.744 OA
ENDBRANCH  99 100
ENDBRANCH  67  92
ENDBRANCH  41  42
ENDBRANCH  33  36
ENDBRANCH  31  32
ENDBRANCH  30  31
ENDBRANCH   1  30
TORSDOF 18
ENDMDL
MODEL 3
REMARK VINA RESULT:     -12.9      6.090      8.279
REMARK SMILES Nn1c(S[C@@H](C(=O)NCCCCNC(=O)c2ccc(-c3c4nc(c(-c5c(F)cc(S(=O)(=O)[O-])cc5F)c5ccc([nH]5)c(-c5c(F)cc(S(=O)(=O)[O-])cc5F)c5nc(c(-c6c(F)cc(S(=O)(=O)[O-])cc6F)c6ccc3[nH]6)C=C5)C=C4)cc2)c2ccccc2)nc2ccc(Br)cc2c1=O
REMARK SMILES IDX 10 1 9 2 8 3 6 4 7 5 5 7 4 8 3 9 2 10 96 11 88 12 95 13
REMARK SMILES IDX 97 14 89 15 94 16 90 17 92 18 91 19 93 20 1 21 82 24 83 25
REMARK SMILES IDX 87 26 84 27 86 28 85 29 11 30 12 31 13 32 14 33 15 35 16 36
REMARK SMILES IDX 17 37 81 38 18 39 80 40 19 41 20 42 21 43 74 44 22 45 79 46
REMARK SMILES IDX 73 47 75 48 23 49 78 50 72 51 71 52 24 54 58 55 37 56 57 57
REMARK SMILES IDX 38 58 41 59 56 60 76 61 39 62 40 63 55 65 77 66 42 67 25 68
REMARK SMILES IDX 26 69 35 70 27 71 28 72 34 73 36 74 29 75 30 76 31 77 32 78
REMARK SMILES IDX 33 79 59 80 60 81 69 82 61 83 62 84 68 85 70 86 63 87 64 88
REMARK SMILES IDX 65 89 66 90 67 91 43 92 44 93 53 94 45 95 46 96 52 97 54 98
REMARK SMILES IDX 47 99 48 100 49 101 50 102 51 103
REMARK H PARENT 8 6 1 22 1 23 13 34 75 53 41 64
REMARK Flexibility Score: inf
ROOT
ATOM      1  C   UNL A   1      37.549  22.176  24.900  1.00  0.00     0.023 C 
ENDROOT
BRANCH   1   2
ATOM      2  C   UNL A   1      36.043  22.186  24.621  1.00  0.00     0.116 C 
BRANCH   2   3
ATOM      3  N   UNL A   1      35.236  21.904  25.795  1.00  0.00    -0.355 N 
ATOM      4  C   UNL A   1      34.173  21.059  25.993  1.00  0.00     0.238 C 
ATOM      5  O   UNL A   1      33.837  20.949  27.177  1.00  0.00    -0.273 OA
ATOM      6  H   UNL A   1      35.500  22.413  26.596  1.00  0.00     0.163 HD
BRANCH   4   7
ATOM      7  C   UNL A   1      33.539  20.249  24.819  1.00  0.00     0.174 C 
BRANCH   7   8
ATOM      8  S   UNL A   1      31.977  21.002  24.283  1.00  0.00    -0.068 SA
BRANCH   8   9
ATOM      9  C   UNL A   1      31.791  22.651  24.830  1.00  0.00     0.191 A 
ATOM     10  N   UNL A   1      30.847  23.117  25.742  1.00  0.00    -0.202 N 
ATOM     11  C   UNL A   1      30.734  24.473  26.065  1.00  0.00     0.280 A 
ATOM     12  N   UNL A   1      32.663  23.440  24.279  1.00  0.00    -0.222 NA
ATOM     13  C   UNL A   1      31.731  25.366  25.463  1.00  0.00     0.069 A 
ATOM     14  O   UNL A   1      29.855  24.933  26.793  1.00  0.00    -0.267 OA
ATOM     15  C   UNL A   1      32.667  24.798  24.603  1.00  0.00     0.079 A 
ATOM     16  C   UNL A   1      31.738  26.736  25.746  1.00  0.00     0.031 A 
ATOM     17  C   UNL A   1      33.639  25.619  24.029  1.00  0.00     0.030 A 
ATOM     18  C   UNL A   1      32.707  27.542  25.156  1.00  0.00     0.018 A 
ATOM     19  C   UNL A   1      33.662  26.990  24.303  1.00  0.00     0.018 A 
ATOM     20  Br  UNL A   1      32.723  29.399  25.505  1.00  0.00    -0.051 Br
BRANCH  10  21
ATOM     21  N   UNL A   1      29.921  22.278  26.375  1.00  0.00    -0.334 N 
ATOM     22  H   UNL A   1      29.460  22.581  27.190  1.00  0.00     0.178 HD
ATOM     23  H   UNL A   1      29.730  21.386  26.005  1.00  0.00     0.178 HD
ENDBRANCH  10  21
ENDBRANCH   8   9
ENDBRANCH   7   8
BRANCH   7  24
ATOM     24  C   UNL A   1      33.543  18.709  24.899  1.00  0.00    -0.025 A 
ATOM     25  C   UNL A   1      32.551  17.989  25.600  1.00  0.00     0.005 A 
ATOM     26  C   UNL A   1      34.514  17.948  24.223  1.00  0.00     0.005 A 
ATOM     27  C   UNL A   1      32.592  16.597  25.710  1.00  0.00     0.000 A 
ATOM     28  C   UNL A   1      34.556  16.553  24.331  1.00  0.00     0.000 A 
ATOM     29  C   UNL A   1      33.605  15.879  25.088  1.00  0.00     0.000 A 
ENDBRANCH   7  24
ENDBRANCH   4   7
ENDBRANCH   2   3
ENDBRANCH   1   2
BRANCH   1  30
ATOM     30  C   UNL A   1      38.144  20.824  25.295  1.00  0.00     0.023 C 
BRANCH  30  31
ATOM     31  C   UNL A   1      39.401  20.880  26.151  1.00  0.00     0.116 C 
BRANCH  31  32
ATOM     32  N   UNL A   1      40.228  19.686  26.052  1.00  0.00    -0.352 N 
ATOM     33  C   UNL A   1      41.598  19.575  26.132  1.00  0.00     0.251 C 
ATOM     34  H   UNL A   1      39.742  18.843  25.908  1.00  0.00     0.163 HD
ATOM     35  O   UNL A   1      42.143  18.492  25.946  1.00  0.00    -0.269 OA
BRANCH  33  36
ATOM     36  C   UNL A   1      42.410  20.785  26.392  1.00  0.00     0.039 A 
ATOM     37  C   UNL A   1      42.762  21.137  27.696  1.00  0.00     0.014 A 
ATOM     38  C   UNL A   1      42.753  21.614  25.320  1.00  0.00     0.014 A 
ATOM     39  C   UNL A   1      43.290  22.399  27.945  1.00  0.00     0.010 A 
ATOM     40  C   UNL A   1      43.357  22.851  25.568  1.00  0.00     0.010 A 
ATOM     41  C   UNL A   1      43.571  23.279  26.887  1.00  0.00    -0.014 A 
BRANCH  41  42
ATOM     42  C   UNL A   1      44.042  24.657  27.189  1.00  0.00     0.031 A 
ATOM     43  C   UNL A   1      45.478  25.046  26.948  1.00  0.00     0.074 A 
ATOM     44  C   UNL A   1      43.156  25.582  27.606  1.00  0.00     0.049 A 
ATOM     45  N   UNL A   1      46.059  26.206  27.126  1.00  0.00    -0.248 NA
ATOM     46  C   UNL A   1      46.381  23.999  26.442  1.00  0.00     0.031 C 
ATOM     47  C   UNL A   1      41.734  25.333  27.856  1.00  0.00     0.029 A 
ATOM     48  N   UNL A   1      43.309  26.921  27.863  1.00  0.00    -0.354 N 
ATOM     49  C   UNL A   1      47.391  26.026  26.773  1.00  0.00     0.074 A 
ATOM     50  C   UNL A   1      47.542  24.638  26.393  1.00  0.00     0.031 C 
ATOM     51  C   UNL A   1      41.135  26.492  28.170  1.00  0.00     0.029 A 
ATOM     52  C   UNL A   1      42.137  27.553  28.200  1.00  0.00     0.049 A 
ATOM     53  H   UNL A   1      44.177  27.383  27.810  1.00  0.00     0.167 HD
ATOM     54  C   UNL A   1      48.394  26.936  26.751  1.00  0.00     0.037 A 
ATOM     55  C   UNL A   1      41.894  28.842  28.505  1.00  0.00     0.037 A 
ATOM     56  C   UNL A   1      48.238  28.324  27.102  1.00  0.00     0.049 A 
ATOM     57  C   UNL A   1      43.028  29.824  28.508  1.00  0.00     0.074 A 
ATOM     58  C   UNL A   1      49.195  29.325  27.105  1.00  0.00     0.029 A 
ATOM     59  N   UNL A   1      47.046  28.911  27.501  1.00  0.00    -0.354 N 
ATOM     60  N   UNL A   1      44.286  29.628  28.195  1.00  0.00    -0.248 NA
ATOM     61  C   UNL A   1      42.715  31.199  28.920  1.00  0.00     0.031 C 
ATOM     62  C   UNL A   1      48.588  30.510  27.534  1.00  0.00     0.029 A 
ATOM     63  C   UNL A   1      47.246  30.256  27.765  1.00  0.00     0.049 A 
ATOM     64  H   UNL A   1      46.185  28.440  27.584  1.00  0.00     0.167 HD
ATOM     65  C   UNL A   1      44.915  30.854  28.371  1.00  0.00     0.074 A 
ATOM     66  C   UNL A   1      43.896  31.791  28.796  1.00  0.00     0.031 C 
ATOM     67  C   UNL A   1      46.222  31.172  28.200  1.00  0.00     0.037 A 
BRANCH  54  68
ATOM     68  C   UNL A   1      49.761  26.461  26.341  1.00  0.00     0.058 A 
ATOM     69  C   UNL A   1      50.228  26.617  25.027  1.00  0.00     0.135 A 
ATOM     70  C   UNL A   1      50.630  25.888  27.283  1.00  0.00     0.135 A 
ATOM     71  F   UNL A   1      49.430  27.143  24.084  1.00  0.00    -0.206 F 
ATOM     72  C   UNL A   1      51.504  26.205  24.656  1.00  0.00     0.059 A 
ATOM     73  C   UNL A   1      51.917  25.486  26.938  1.00  0.00     0.059 A 
ATOM     74  F   UNL A   1      50.231  25.715  28.553  1.00  0.00    -0.206 F 
ATOM     75  C   UNL A   1      52.342  25.638  25.619  1.00  0.00     0.060 A 
BRANCH  75  76
ATOM     76  S   UNL A   1      53.995  25.112  25.123  1.00  0.00     0.124 S 
ATOM     77  O   UNL A   1      54.785  25.497  26.289  1.00  0.00    -0.237 OA
ATOM     78  O   UNL A   1      53.821  23.676  24.923  1.00  0.00    -0.237 OA
ATOM     79  O   UNL A   1      54.248  25.884  23.911  1.00  0.00    -0.744 OA
ENDBRANCH  75  76
ENDBRANCH  54  68
BRANCH  55  80
ATOM     80  C   UNL A   1      40.508  29.267  28.829  1.00  0.00     0.058 A 
ATOM     81  C   UNL A   1      39.557  29.446  27.815  1.00  0.00     0.135 A 
ATOM     82  C   UNL A   1      40.099  29.456  30.158  1.00  0.00     0.135 A 
ATOM     83  F   UNL A   1      39.906  29.283  26.531  1.00  0.00    -0.206 F 
ATOM     84  C   UNL A   1      38.242  29.793  28.108  1.00  0.00     0.059 A 
ATOM     85  C   UNL A   1      38.785  29.782  30.476  1.00  0.00     0.059 A 
ATOM     86  F   UNL A   1      40.972  29.283  31.161  1.00  0.00    -0.206 F 
ATOM     87  C   UNL A   1      37.864  29.952  29.443  1.00  0.00     0.060 A 
BRANCH  87  88
ATOM     88  S   UNL A   1      36.137  30.323  29.817  1.00  0.00     0.124 S 
ATOM     89  O   UNL A   1      35.965  29.657  31.103  1.00  0.00    -0.237 OA
ATOM     90  O   UNL A   1      36.134  31.782  29.847  1.00  0.00    -0.237 OA
ATOM     91  O   UNL A   1      35.417  29.726  28.695  1.00  0.00    -0.744 OA
ENDBRANCH  87  88
ENDBRANCH  55  80
BRANCH  67  92
ATOM     92  C   UNL A   1      46.626  32.590  28.477  1.00  0.00     0.058 A 
ATOM     93  C   UNL A   1      47.092  32.981  29.742  1.00  0.00     0.135 A 
ATOM     94  C   UNL A   1      46.600  33.555  27.457  1.00  0.00     0.135 A 
ATOM     95  F   UNL A   1      47.128  32.096  30.750  1.00  0.00    -0.206 F 
ATOM     96  C   UNL A   1      47.507  34.284  29.990  1.00  0.00     0.059 A 
ATOM     97  C   UNL A   1      47.028  34.860  27.679  1.00  0.00     0.059 A 
ATOM     98  F   UNL A   1      46.169  33.228  26.228  1.00  0.00    -0.206 F 
ATOM     99  C   UNL A   1      47.472  35.217  28.951  1.00  0.00     0.060 A 
BRANCH  99 100
ATOM    100  S   UNL A   1      48.050  36.896  29.278  1.00  0.00     0.124 S 
ATOM    101  O   UNL A   1      48.845  37.170  28.087  1.00  0.00    -0.237 OA
ATOM    102  O   UNL A   1      46.800  37.642  29.391  1.00  0.00    -0.237 OA
ATOM    103  O   UNL A   1      48.804  36.760  30.520  1.00  0.00    -0.744 OA
ENDBRANCH  99 100
ENDBRANCH  67  92
ENDBRANCH  41  42
ENDBRANCH  33  36
ENDBRANCH  31  32
ENDBRANCH  30  31
ENDBRANCH   1  30
TORSDOF 18
ENDMDL
