MODEL 1
REMARK VINA RESULT:     -12.0      0.000      0.000
REMARK SMILES C[C@]12C[C@@H](O)[C@@H]3[C@@H](CCC4=CC(=O)CC[C@]43C)[C@H]1CC[C@]2(O)C(=O)COC(=O)CCC(=O)NCCCCNC(=O)c1ccc(-c2c3nc(c(-c4c(F)cc(S(=O)(=O)[O-])cc4F)c4ccc([nH]4)c(-c4c(F)cc(S(=O)(=O)[O-])cc4F)c4nc(c(-c5c(F)cc(S(=O)(=O)[O-])cc5F)c5ccc2[nH]5)C=C4)C=C3)cc1
REMARK SMILES IDX 31 1 32 2 33 3 30 5 29 6 27 7 28 8 26 9 25 10 23 11 24 12
REMARK SMILES IDX 21 13 17 14 16 15 15 16 10 17 6 18 14 19 11 20 9 21 7 22
REMARK SMILES IDX 4 23 12 24 8 25 18 26 3 27 13 28 2 29 19 30 1 31 20 32 5 33
REMARK SMILES IDX 22 35 34 37 35 38 36 39 37 40 38 41 39 42 40 44 41 45 42 46
REMARK SMILES IDX 106 47 43 48 105 49 44 50 45 51 46 52 99 53 47 54 104 55
REMARK SMILES IDX 98 56 100 57 48 58 103 59 97 60 96 61 49 63 83 64 62 65
REMARK SMILES IDX 82 66 63 67 66 68 81 69 101 70 64 71 65 72 80 74 102 75
REMARK SMILES IDX 67 76 50 77 51 78 60 79 52 80 53 81 59 82 61 83 54 84 55 85
REMARK SMILES IDX 56 86 57 87 58 88 84 89 85 90 94 91 86 92 87 93 93 94 95 95
REMARK SMILES IDX 88 96 89 97 90 98 91 99 92 100 68 101 69 102 78 103 70 104
REMARK SMILES IDX 71 105 77 106 79 107 72 108 73 109 74 110 75 111 76 112
REMARK H PARENT 33 4 5 34 22 36 38 43 100 62 66 73
REMARK Flexibility Score: inf
ROOT
ATOM      1  C   UNL A   1      35.465  33.405  28.665  1.00  0.00     0.220 C 
ATOM      2  O   UNL A   1      35.114  33.934  27.606  1.00  0.00    -0.275 OA
ATOM      3  N   UNL A   1      36.347  34.088  29.439  1.00  0.00    -0.356 N 
ATOM      4  H   UNL A   1      36.741  34.863  28.978  1.00  0.00     0.163 HD
ENDROOT
BRANCH   1   5
ATOM      5  C   UNL A   1      34.895  32.057  29.042  1.00  0.00     0.111 C 
BRANCH   5   6
ATOM      6  C   UNL A   1      35.166  30.958  28.032  1.00  0.00     0.132 C 
BRANCH   6   7
ATOM      7  C   UNL A   1      33.913  30.620  27.270  1.00  0.00     0.306 C 
ATOM      8  O   UNL A   1      32.889  31.293  27.295  1.00  0.00    -0.252 OA
BRANCH   7   9
ATOM      9  O   UNL A   1      34.032  29.421  26.649  1.00  0.00    -0.458 OA
BRANCH   9  10
ATOM     10  C   UNL A   1      33.711  29.307  25.263  1.00  0.00     0.311 C 
BRANCH  10  11
ATOM     11  C   UNL A   1      32.294  28.771  24.904  1.00  0.00     0.202 C 
ATOM     12  O   UNL A   1      31.398  29.592  24.705  1.00  0.00    -0.293 OA
BRANCH  11  13
ATOM     13  C   UNL A   1      31.938  27.285  25.078  1.00  0.00     0.132 C 
ATOM     14  C   UNL A   1      32.456  21.077  22.832  1.00  0.00     0.016 C 
ATOM     15  C   UNL A   1      32.469  21.885  24.165  1.00  0.00    -0.005 C 
ATOM     16  C   UNL A   1      32.021  20.891  25.273  1.00  0.00     0.020 C 
ATOM     17  C   UNL A   1      33.863  22.290  24.651  1.00  0.00    -0.060 C 
ATOM     18  C   UNL A   1      31.527  23.148  24.005  1.00  0.00     0.031 C 
ATOM     19  C   UNL A   1      33.155  19.908  25.672  1.00  0.00     0.081 C 
ATOM     20  C   UNL A   1      34.901  21.441  24.571  1.00  0.00     0.047 C 
ATOM     21  C   UNL A   1      33.937  23.267  25.793  1.00  0.00     0.032 C 
ATOM     22  C   UNL A   1      31.484  24.009  25.283  1.00  0.00    -0.000 C 
ATOM     23  C   UNL A   1      31.707  24.079  22.742  1.00  0.00     0.119 C 
ATOM     24  C   UNL A   1      34.448  20.049  24.855  1.00  0.00     0.155 C 
ATOM     25  C   UNL A   1      32.915  24.354  25.676  1.00  0.00     0.009 C 
ATOM     26  C   UNL A   1      30.553  25.229  25.021  1.00  0.00     0.002 C 
ATOM     27  C   UNL A   1      31.926  25.599  22.953  1.00  0.00     0.042 C 
ATOM     28  O   UNL A   1      35.184  19.103  24.593  1.00  0.00    -0.295 OA
ATOM     29  C   UNL A   1      31.133  26.315  24.064  1.00  0.00     0.009 C 
ATOM     30  C   UNL A   1      30.134  26.021  26.249  1.00  0.00     0.008 C 
ATOM     31  C   UNL A   1      29.908  26.973  23.378  1.00  0.00     0.015 C 
ATOM     32  C   UNL A   1      31.134  27.156  26.407  1.00  0.00     0.044 C 
BRANCH  23  33
ATOM     33  O   UNL A   1      32.752  23.669  21.869  1.00  0.00    -0.393 OA
ATOM     34  H   UNL A   1      32.653  24.118  21.014  1.00  0.00     0.210 HD
ENDBRANCH  23  33
BRANCH  13  35
ATOM     35  O   UNL A   1      33.254  26.841  25.410  1.00  0.00    -0.381 OA
ATOM     36  H   UNL A   1      33.542  27.269  26.232  1.00  0.00     0.212 HD
ENDBRANCH  13  35
ENDBRANCH  11  13
ENDBRANCH  10  11
ENDBRANCH   9  10
ENDBRANCH   7   9
ENDBRANCH   6   7
ENDBRANCH   5   6
ENDBRANCH   1   5
BRANCH   3  37
ATOM     37  C   UNL A   1      36.841  33.927  30.799  1.00  0.00     0.116 C 
BRANCH  37  38
ATOM     38  C   UNL A   1      35.786  34.211  31.879  1.00  0.00     0.023 C 
BRANCH  38  39
ATOM     39  C   UNL A   1      35.885  33.331  33.143  1.00  0.00     0.023 C 
BRANCH  39  40
ATOM     40  C   UNL A   1      36.799  32.112  33.073  1.00  0.00     0.116 C 
BRANCH  40  41
ATOM     41  N   UNL A   1      36.295  30.982  32.315  1.00  0.00    -0.352 N 
ATOM     42  C   UNL A   1      36.968  30.064  31.529  1.00  0.00     0.251 C 
ATOM     43  H   UNL A   1      35.322  30.848  32.369  1.00  0.00     0.163 HD
ATOM     44  O   UNL A   1      36.407  29.027  31.176  1.00  0.00    -0.269 OA
BRANCH  42  45
ATOM     45  C   UNL A   1      38.291  30.382  30.962  1.00  0.00     0.039 A 
ATOM     46  C   UNL A   1      39.372  30.129  31.805  1.00  0.00     0.014 A 
ATOM     47  C   UNL A   1      38.501  30.751  29.633  1.00  0.00     0.014 A 
ATOM     48  C   UNL A   1      40.648  30.043  31.272  1.00  0.00     0.010 A 
ATOM     49  C   UNL A   1      39.764  30.586  29.077  1.00  0.00     0.010 A 
ATOM     50  C   UNL A   1      40.827  30.165  29.887  1.00  0.00    -0.014 A 
BRANCH  50  51
ATOM     51  C   UNL A   1      42.097  29.713  29.286  1.00  0.00     0.031 A 
ATOM     52  C   UNL A   1      43.243  30.658  29.140  1.00  0.00     0.074 A 
ATOM     53  C   UNL A   1      42.170  28.440  28.846  1.00  0.00     0.049 A 
ATOM     54  N   UNL A   1      44.438  30.422  28.674  1.00  0.00    -0.248 NA
ATOM     55  C   UNL A   1      43.013  32.053  29.546  1.00  0.00     0.031 C 
ATOM     56  C   UNL A   1      41.068  27.470  28.876  1.00  0.00     0.029 A 
ATOM     57  N   UNL A   1      43.209  27.734  28.299  1.00  0.00    -0.354 N 
ATOM     58  C   UNL A   1      45.105  31.637  28.727  1.00  0.00     0.074 A 
ATOM     59  C   UNL A   1      44.165  32.620  29.218  1.00  0.00     0.031 C 
ATOM     60  C   UNL A   1      41.502  26.290  28.407  1.00  0.00     0.029 A 
ATOM     61  C   UNL A   1      42.897  26.426  28.008  1.00  0.00     0.049 A 
ATOM     62  H   UNL A   1      44.096  28.127  28.128  1.00  0.00     0.167 HD
ATOM     63  C   UNL A   1      46.395  31.893  28.415  1.00  0.00     0.037 A 
ATOM     64  C   UNL A   1      43.655  25.448  27.478  1.00  0.00     0.037 A 
ATOM     65  C   UNL A   1      47.313  30.888  27.947  1.00  0.00     0.049 A 
ATOM     66  C   UNL A   1      45.091  25.758  27.160  1.00  0.00     0.074 A 
ATOM     67  C   UNL A   1      48.661  31.018  27.669  1.00  0.00     0.029 A 
ATOM     68  N   UNL A   1      46.973  29.568  27.679  1.00  0.00    -0.354 N 
ATOM     69  N   UNL A   1      45.740  26.890  27.310  1.00  0.00    -0.248 NA
ATOM     70  C   UNL A   1      45.904  24.665  26.613  1.00  0.00     0.031 C 
ATOM     71  C   UNL A   1      49.124  29.792  27.180  1.00  0.00     0.029 A 
ATOM     72  C   UNL A   1      48.079  28.881  27.210  1.00  0.00     0.049 A 
ATOM     73  H   UNL A   1      46.077  29.179  27.805  1.00  0.00     0.167 HD
ATOM     74  C   UNL A   1      47.041  26.641  26.894  1.00  0.00     0.074 A 
ATOM     75  C   UNL A   1      47.092  25.244  26.506  1.00  0.00     0.031 C 
ATOM     76  C   UNL A   1      48.098  27.487  26.835  1.00  0.00     0.037 A 
BRANCH  63  77
ATOM     77  C   UNL A   1      46.885  33.305  28.567  1.00  0.00     0.058 A 
ATOM     78  C   UNL A   1      47.442  33.769  29.770  1.00  0.00     0.135 A 
ATOM     79  C   UNL A   1      46.830  34.196  27.484  1.00  0.00     0.135 A 
ATOM     80  F   UNL A   1      47.499  32.966  30.845  1.00  0.00    -0.206 F 
ATOM     81  C   UNL A   1      47.908  35.073  29.899  1.00  0.00     0.059 A 
ATOM     82  C   UNL A   1      47.317  35.496  27.581  1.00  0.00     0.059 A 
ATOM     83  F   UNL A   1      46.299  33.807  26.314  1.00  0.00    -0.206 F 
ATOM     84  C   UNL A   1      47.844  35.928  28.798  1.00  0.00     0.060 A 
BRANCH  84  85
ATOM     85  S   UNL A   1      48.473  37.610  28.978  1.00  0.00     0.124 S 
ATOM     86  O   UNL A   1      47.338  38.396  28.502  1.00  0.00    -0.237 OA
ATOM     87  O   UNL A   1      48.742  37.690  30.409  1.00  0.00    -0.237 OA
ATOM     88  O   UNL A   1      49.651  37.627  28.117  1.00  0.00    -0.744 OA
ENDBRANCH  84  85
ENDBRANCH  63  77
BRANCH  64  89
ATOM     89  C   UNL A   1      43.076  24.100  27.231  1.00  0.00     0.058 A 
ATOM     90  C   UNL A   1      42.679  23.701  25.947  1.00  0.00     0.135 A 
ATOM     91  C   UNL A   1      42.920  23.176  28.277  1.00  0.00     0.135 A 
ATOM     92  F   UNL A   1      42.807  24.544  24.912  1.00  0.00    -0.206 F 
ATOM     93  C   UNL A   1      42.125  22.445  25.711  1.00  0.00     0.059 A 
ATOM     94  C   UNL A   1      42.396  21.906  28.062  1.00  0.00     0.059 A 
ATOM     95  F   UNL A   1      43.306  23.497  29.521  1.00  0.00    -0.206 F 
ATOM     96  C   UNL A   1      41.988  21.554  26.777  1.00  0.00     0.060 A 
BRANCH  96  97
ATOM     97  S   UNL A   1      41.298  19.916  26.457  1.00  0.00     0.124 S 
ATOM     98  O   UNL A   1      41.566  19.234  27.717  1.00  0.00    -0.237 OA
ATOM     99  O   UNL A   1      39.897  20.222  26.181  1.00  0.00    -0.237 OA
ATOM    100  O   UNL A   1      42.067  19.447  25.308  1.00  0.00    -0.744 OA
ENDBRANCH  96  97
ENDBRANCH  64  89
BRANCH  76 101
ATOM    101  C   UNL A   1      49.405  26.920  26.355  1.00  0.00     0.058 A 
ATOM    102  C   UNL A   1      49.820  27.054  25.023  1.00  0.00     0.135 A 
ATOM    103  C   UNL A   1      50.277  26.291  27.260  1.00  0.00     0.135 A 
ATOM    104  F   UNL A   1      49.019  27.641  24.120  1.00  0.00    -0.206 F 
ATOM    105  C   UNL A   1      51.050  26.564  24.595  1.00  0.00     0.059 A 
ATOM    106  C   UNL A   1      51.523  25.822  26.860  1.00  0.00     0.059 A 
ATOM    107  F   UNL A   1      49.929  26.148  28.548  1.00  0.00    -0.206 F 
ATOM    108  C   UNL A   1      51.895  25.955  25.524  1.00  0.00     0.060 A 
BRANCH 108 109
ATOM    109  S   UNL A   1      53.505  25.363  24.964  1.00  0.00     0.124 S 
ATOM    110  O   UNL A   1      53.507  23.994  25.467  1.00  0.00    -0.237 OA
ATOM    111  O   UNL A   1      53.403  25.508  23.515  1.00  0.00    -0.237 OA
ATOM    112  O   UNL A   1      54.446  26.272  25.613  1.00  0.00    -0.744 OA
ENDBRANCH 108 109
ENDBRANCH  76 101
ENDBRANCH  50  51
ENDBRANCH  42  45
ENDBRANCH  40  41
ENDBRANCH  39  40
ENDBRANCH  38  39
ENDBRANCH  37  38
ENDBRANCH   3  37
TORSDOF 22
ENDMDL
MODEL 2
REMARK VINA RESULT:     -11.9      5.562     11.818
REMARK SMILES C[C@]12C[C@@H](O)[C@@H]3[C@@H](CCC4=CC(=O)CC[C@]43C)[C@H]1CC[C@]2(O)C(=O)COC(=O)CCC(=O)NCCCCNC(=O)c1ccc(-c2c3nc(c(-c4c(F)cc(S(=O)(=O)[O-])cc4F)c4ccc([nH]4)c(-c4c(F)cc(S(=O)(=O)[O-])cc4F)c4nc(c(-c5c(F)cc(S(=O)(=O)[O-])cc5F)c5ccc2[nH]5)C=C4)C=C3)cc1
REMARK SMILES IDX 31 1 32 2 33 3 30 5 29 6 27 7 28 8 26 9 25 10 23 11 24 12
REMARK SMILES IDX 21 13 17 14 16 15 15 16 10 17 6 18 14 19 11 20 9 21 7 22
REMARK SMILES IDX 4 23 12 24 8 25 18 26 3 27 13 28 2 29 19 30 1 31 20 32 5 33
REMARK SMILES IDX 22 35 34 37 35 38 36 39 37 40 38 41 39 42 40 44 41 45 42 46
REMARK SMILES IDX 106 47 43 48 105 49 44 50 45 51 46 52 99 53 47 54 104 55
REMARK SMILES IDX 98 56 100 57 48 58 103 59 97 60 96 61 49 63 83 64 62 65
REMARK SMILES IDX 82 66 63 67 66 68 81 69 101 70 64 71 65 72 80 74 102 75
REMARK SMILES IDX 67 76 50 77 51 78 60 79 52 80 53 81 59 82 61 83 54 84 55 85
REMARK SMILES IDX 56 86 57 87 58 88 84 89 85 90 94 91 86 92 87 93 93 94 95 95
REMARK SMILES IDX 88 96 89 97 90 98 91 99 92 100 68 101 69 102 78 103 70 104
REMARK SMILES IDX 71 105 77 106 79 107 72 108 73 109 74 110 75 111 76 112
REMARK H PARENT 33 4 5 34 22 36 38 43 100 62 66 73
REMARK Flexibility Score: inf
ROOT
ATOM      1  C   UNL A   1      40.134  22.866  27.319  1.00  0.00     0.220 C 
ATOM      2  O   UNL A   1      39.225  23.697  27.405  1.00  0.00    -0.275 OA
ATOM      3  N   UNL A   1      41.233  23.063  28.092  1.00  0.00    -0.356 N 
ATOM      4  H   UNL A   1      41.249  23.952  28.513  1.00  0.00     0.163 HD
ENDROOT
BRANCH   1   5
ATOM      5  C   UNL A   1      39.973  21.688  26.386  1.00  0.00     0.111 C 
BRANCH   5   6
ATOM      6  C   UNL A   1      38.627  21.622  25.688  1.00  0.00     0.132 C 
BRANCH   6   7
ATOM      7  C   UNL A   1      38.323  20.212  25.257  1.00  0.00     0.306 C 
ATOM      8  O   UNL A   1      39.132  19.292  25.292  1.00  0.00    -0.252 OA
BRANCH   7   9
ATOM      9  O   UNL A   1      37.080  20.126  24.725  1.00  0.00    -0.458 OA
BRANCH   9  10
ATOM     10  C   UNL A   1      36.100  21.111  25.052  1.00  0.00     0.311 C 
BRANCH  10  11
ATOM     11  C   UNL A   1      34.605  20.694  24.929  1.00  0.00     0.202 C 
ATOM     12  O   UNL A   1      34.351  19.570  24.494  1.00  0.00    -0.293 OA
BRANCH  11  13
ATOM     13  C   UNL A   1      33.476  21.731  25.058  1.00  0.00     0.132 C 
ATOM     14  C   UNL A   1      31.682  28.104  25.186  1.00  0.00     0.016 C 
ATOM     15  C   UNL A   1      31.216  26.728  24.620  1.00  0.00    -0.005 C 
ATOM     16  C   UNL A   1      29.677  26.840  24.436  1.00  0.00     0.020 C 
ATOM     17  C   UNL A   1      31.683  26.436  23.192  1.00  0.00    -0.060 C 
ATOM     18  C   UNL A   1      31.670  25.585  25.618  1.00  0.00     0.031 C 
ATOM     19  C   UNL A   1      29.295  27.667  23.179  1.00  0.00     0.081 C 
ATOM     20  C   UNL A   1      31.677  27.392  22.248  1.00  0.00     0.047 C 
ATOM     21  C   UNL A   1      31.474  25.040  22.671  1.00  0.00     0.032 C 
ATOM     22  C   UNL A   1      31.250  24.185  25.131  1.00  0.00    -0.000 C 
ATOM     23  C   UNL A   1      33.172  25.551  26.106  1.00  0.00     0.119 C 
ATOM     24  C   UNL A   1      30.485  28.273  22.420  1.00  0.00     0.155 C 
ATOM     25  C   UNL A   1      31.763  24.000  23.708  1.00  0.00     0.009 C 
ATOM     26  C   UNL A   1      31.757  23.135  26.163  1.00  0.00     0.002 C 
ATOM     27  C   UNL A   1      33.993  24.249  25.924  1.00  0.00     0.042 C 
ATOM     28  O   UNL A   1      30.426  29.342  21.821  1.00  0.00    -0.295 OA
ATOM     29  C   UNL A   1      33.297  22.895  26.167  1.00  0.00     0.009 C 
ATOM     30  C   UNL A   1      31.177  21.736  26.026  1.00  0.00     0.008 C 
ATOM     31  C   UNL A   1      33.655  22.468  27.614  1.00  0.00     0.015 C 
ATOM     32  C   UNL A   1      32.134  20.943  25.150  1.00  0.00     0.044 C 
BRANCH  23  33
ATOM     33  O   UNL A   1      33.981  26.582  25.553  1.00  0.00    -0.393 OA
ATOM     34  H   UNL A   1      34.916  26.343  25.646  1.00  0.00     0.210 HD
ENDBRANCH  23  33
BRANCH  13  35
ATOM     35  O   UNL A   1      33.528  22.195  23.708  1.00  0.00    -0.381 OA
ATOM     36  H   UNL A   1      33.241  21.486  23.111  1.00  0.00     0.212 HD
ENDBRANCH  13  35
ENDBRANCH  11  13
ENDBRANCH  10  11
ENDBRANCH   9  10
ENDBRANCH   7   9
ENDBRANCH   6   7
ENDBRANCH   5   6
ENDBRANCH   1   5
BRANCH   3  37
ATOM     37  C   UNL A   1      42.392  22.252  28.434  1.00  0.00     0.116 C 
BRANCH  37  38
ATOM     38  C   UNL A   1      43.426  22.983  29.304  1.00  0.00     0.023 C 
BRANCH  38  39
ATOM     39  C   UNL A   1      43.483  24.513  29.111  1.00  0.00     0.023 C 
BRANCH  39  40
ATOM     40  C   UNL A   1      44.236  25.034  27.892  1.00  0.00     0.116 C 
BRANCH  40  41
ATOM     41  N   UNL A   1      43.537  24.939  26.624  1.00  0.00    -0.352 N 
ATOM     42  C   UNL A   1      42.715  25.852  25.990  1.00  0.00     0.251 C 
ATOM     43  H   UNL A   1      43.668  24.092  26.140  1.00  0.00     0.163 HD
ATOM     44  O   UNL A   1      42.422  25.697  24.804  1.00  0.00    -0.269 OA
BRANCH  42  45
ATOM     45  C   UNL A   1      42.042  26.920  26.751  1.00  0.00     0.039 A 
ATOM     46  C   UNL A   1      40.954  26.504  27.518  1.00  0.00     0.014 A 
ATOM     47  C   UNL A   1      42.522  28.225  26.853  1.00  0.00     0.014 A 
ATOM     48  C   UNL A   1      40.482  27.322  28.531  1.00  0.00     0.010 A 
ATOM     49  C   UNL A   1      42.108  29.017  27.918  1.00  0.00     0.010 A 
ATOM     50  C   UNL A   1      41.133  28.534  28.800  1.00  0.00    -0.014 A 
BRANCH  50  51
ATOM     51  C   UNL A   1      40.877  29.216  30.084  1.00  0.00     0.031 A 
ATOM     52  C   UNL A   1      41.702  28.896  31.286  1.00  0.00     0.074 A 
ATOM     53  C   UNL A   1      39.860  30.100  30.140  1.00  0.00     0.049 A 
ATOM     54  N   UNL A   1      41.642  29.423  32.478  1.00  0.00    -0.248 NA
ATOM     55  C   UNL A   1      42.707  27.832  31.142  1.00  0.00     0.031 C 
ATOM     56  C   UNL A   1      38.949  30.412  29.030  1.00  0.00     0.029 A 
ATOM     57  N   UNL A   1      39.420  30.905  31.157  1.00  0.00    -0.354 N 
ATOM     58  C   UNL A   1      42.598  28.756  33.229  1.00  0.00     0.074 A 
ATOM     59  C   UNL A   1      43.185  27.747  32.375  1.00  0.00     0.031 C 
ATOM     60  C   UNL A   1      38.090  31.367  29.416  1.00  0.00     0.029 A 
ATOM     61  C   UNL A   1      38.359  31.708  30.808  1.00  0.00     0.049 A 
ATOM     62  H   UNL A   1      39.826  30.908  32.055  1.00  0.00     0.167 HD
ATOM     63  C   UNL A   1      42.963  28.990  34.510  1.00  0.00     0.037 A 
ATOM     64  C   UNL A   1      37.681  32.618  31.533  1.00  0.00     0.037 A 
ATOM     65  C   UNL A   1      42.373  30.016  35.329  1.00  0.00     0.049 A 
ATOM     66  C   UNL A   1      38.123  32.869  32.947  1.00  0.00     0.074 A 
ATOM     67  C   UNL A   1      42.713  30.389  36.615  1.00  0.00     0.029 A 
ATOM     68  N   UNL A   1      41.312  30.825  34.942  1.00  0.00    -0.354 N 
ATOM     69  N   UNL A   1      39.099  32.299  33.616  1.00  0.00    -0.248 NA
ATOM     70  C   UNL A   1      37.388  33.889  33.704  1.00  0.00     0.031 C 
ATOM     71  C   UNL A   1      41.823  31.387  37.028  1.00  0.00     0.029 A 
ATOM     72  C   UNL A   1      40.966  31.676  35.976  1.00  0.00     0.049 A 
ATOM     73  H   UNL A   1      40.872  30.797  34.062  1.00  0.00     0.167 HD
ATOM     74  C   UNL A   1      39.107  32.904  34.866  1.00  0.00     0.074 A 
ATOM     75  C   UNL A   1      38.052  33.898  34.852  1.00  0.00     0.031 C 
ATOM     76  C   UNL A   1      39.910  32.660  35.931  1.00  0.00     0.037 A 
BRANCH  63  77
ATOM     77  C   UNL A   1      44.041  28.125  35.098  1.00  0.00     0.058 A 
ATOM     78  C   UNL A   1      43.749  26.905  35.730  1.00  0.00     0.135 A 
ATOM     79  C   UNL A   1      45.389  28.504  34.997  1.00  0.00     0.135 A 
ATOM     80  F   UNL A   1      42.475  26.505  35.874  1.00  0.00    -0.206 F 
ATOM     81  C   UNL A   1      44.753  26.102  36.259  1.00  0.00     0.059 A 
ATOM     82  C   UNL A   1      46.412  27.702  35.493  1.00  0.00     0.059 A 
ATOM     83  F   UNL A   1      45.723  29.664  34.412  1.00  0.00    -0.206 F 
ATOM     84  C   UNL A   1      46.082  26.507  36.133  1.00  0.00     0.060 A 
BRANCH  84  85
ATOM     85  S   UNL A   1      47.374  25.442  36.806  1.00  0.00     0.124 S 
ATOM     86  O   UNL A   1      48.384  25.510  35.753  1.00  0.00    -0.237 OA
ATOM     87  O   UNL A   1      47.714  26.117  38.054  1.00  0.00    -0.237 OA
ATOM     88  O   UNL A   1      46.709  24.151  36.954  1.00  0.00    -0.744 OA
ENDBRANCH  84  85
ENDBRANCH  63  77
BRANCH  64  89
ATOM     89  C   UNL A   1      36.536  33.354  30.932  1.00  0.00     0.058 A 
ATOM     90  C   UNL A   1      35.217  33.109  31.339  1.00  0.00     0.135 A 
ATOM     91  C   UNL A   1      36.741  34.330  29.943  1.00  0.00     0.135 A 
ATOM     92  F   UNL A   1      34.966  32.188  32.281  1.00  0.00    -0.206 F 
ATOM     93  C   UNL A   1      34.140  33.786  30.772  1.00  0.00     0.059 A 
ATOM     94  C   UNL A   1      35.685  35.040  29.382  1.00  0.00     0.059 A 
ATOM     95  F   UNL A   1      37.986  34.621  29.534  1.00  0.00    -0.206 F 
ATOM     96  C   UNL A   1      34.385  34.750  29.794  1.00  0.00     0.060 A 
BRANCH  96  97
ATOM     97  S   UNL A   1      32.985  35.646  29.087  1.00  0.00     0.124 S 
ATOM     98  O   UNL A   1      32.224  35.992  30.282  1.00  0.00    -0.237 OA
ATOM     99  O   UNL A   1      33.644  36.756  28.405  1.00  0.00    -0.237 OA
ATOM    100  O   UNL A   1      32.366  34.659  28.207  1.00  0.00    -0.744 OA
ENDBRANCH  96  97
ENDBRANCH  64  89
BRANCH  76 101
ATOM    101  C   UNL A   1      39.694  33.498  37.159  1.00  0.00     0.058 A 
ATOM    102  C   UNL A   1      40.341  34.729  37.333  1.00  0.00     0.135 A 
ATOM    103  C   UNL A   1      38.779  33.088  38.143  1.00  0.00     0.135 A 
ATOM    104  F   UNL A   1      41.230  35.160  36.424  1.00  0.00    -0.206 F 
ATOM    105  C   UNL A   1      40.105  35.520  38.452  1.00  0.00     0.059 A 
ATOM    106  C   UNL A   1      38.504  33.877  39.254  1.00  0.00     0.059 A 
ATOM    107  F   UNL A   1      38.127  31.921  38.018  1.00  0.00    -0.206 F 
ATOM    108  C   UNL A   1      39.180  35.086  39.404  1.00  0.00     0.060 A 
BRANCH 108 109
ATOM    109  S   UNL A   1      38.851  36.143  40.829  1.00  0.00     0.124 S 
ATOM    110  O   UNL A   1      37.700  35.477  41.430  1.00  0.00    -0.237 OA
ATOM    111  O   UNL A   1      40.100  36.053  41.579  1.00  0.00    -0.237 OA
ATOM    112  O   UNL A   1      38.580  37.447  40.230  1.00  0.00    -0.744 OA
ENDBRANCH 108 109
ENDBRANCH  76 101
ENDBRANCH  50  51
ENDBRANCH  42  45
ENDBRANCH  40  41
ENDBRANCH  39  40
ENDBRANCH  38  39
ENDBRANCH  37  38
ENDBRANCH   3  37
TORSDOF 22
ENDMDL
MODEL 3
REMARK VINA RESULT:     -11.2      1.147      7.865
REMARK SMILES C[C@]12C[C@@H](O)[C@@H]3[C@@H](CCC4=CC(=O)CC[C@]43C)[C@H]1CC[C@]2(O)C(=O)COC(=O)CCC(=O)NCCCCNC(=O)c1ccc(-c2c3nc(c(-c4c(F)cc(S(=O)(=O)[O-])cc4F)c4ccc([nH]4)c(-c4c(F)cc(S(=O)(=O)[O-])cc4F)c4nc(c(-c5c(F)cc(S(=O)(=O)[O-])cc5F)c5ccc2[nH]5)C=C4)C=C3)cc1
REMARK SMILES IDX 31 1 32 2 33 3 30 5 29 6 27 7 28 8 26 9 25 10 23 11 24 12
REMARK SMILES IDX 21 13 17 14 16 15 15 16 10 17 6 18 14 19 11 20 9 21 7 22
REMARK SMILES IDX 4 23 12 24 8 25 18 26 3 27 13 28 2 29 19 30 1 31 20 32 5 33
REMARK SMILES IDX 22 35 34 37 35 38 36 39 37 40 38 41 39 42 40 44 41 45 42 46
REMARK SMILES IDX 106 47 43 48 105 49 44 50 45 51 46 52 99 53 47 54 104 55
REMARK SMILES IDX 98 56 100 57 48 58 103 59 97 60 96 61 49 63 83 64 62 65
REMARK SMILES IDX 82 66 63 67 66 68 81 69 101 70 64 71 65 72 80 74 102 75
REMARK SMILES IDX 67 76 50 77 51 78 60 79 52 80 53 81 59 82 61 83 54 84 55 85
REMARK SMILES IDX 56 86 57 87 58 88 84 89 85 90 94 91 86 92 87 93 93 94 95 95
REMARK SMILES IDX 88 96 89 97 90 98 91 99 92 100 68 101 69 102 78 103 70 104
REMARK SMILES IDX 71 105 77 106 79 107 72 108 73 109 74 110 75 111 76 112
REMARK H PARENT 33 4 5 34 22 36 38 43 100 62 66 73
REMARK Flexibility Score: inf
ROOT
ATOM      1  C   UNL A   1      35.153  34.051  29.341  1.00  0.00     0.220 C 
ATOM      2  O   UNL A   1      34.728  34.917  28.570  1.00  0.00    -0.275 OA
ATOM      3  N   UNL A   1      36.172  34.400  30.169  1.00  0.00    -0.356 N 
ATOM      4  H   UNL A   1      36.572  35.268  29.937  1.00  0.00     0.163 HD
ENDROOT
BRANCH   1   5
ATOM      5  C   UNL A   1      34.521  32.678  29.330  1.00  0.00     0.111 C 
BRANCH   5   6
ATOM      6  C   UNL A   1      34.635  31.947  28.007  1.00  0.00     0.132 C 
BRANCH   6   7
ATOM      7  C   UNL A   1      33.270  31.673  27.434  1.00  0.00     0.306 C 
ATOM      8  O   UNL A   1      32.418  32.533  27.244  1.00  0.00    -0.252 OA
BRANCH   7   9
ATOM      9  O   UNL A   1      33.074  30.343  27.264  1.00  0.00    -0.458 OA
BRANCH   9  10
ATOM     10  C   UNL A   1      31.875  29.877  26.646  1.00  0.00     0.311 C 
BRANCH  10  11
ATOM     11  C   UNL A   1      31.471  28.396  26.905  1.00  0.00     0.202 C 
ATOM     12  O   UNL A   1      31.191  28.066  28.058  1.00  0.00    -0.293 OA
BRANCH  11  13
ATOM     13  C   UNL A   1      31.696  27.311  25.838  1.00  0.00     0.132 C 
ATOM     14  C   UNL A   1      34.847  21.778  24.019  1.00  0.00     0.016 C 
ATOM     15  C   UNL A   1      33.437  22.441  23.961  1.00  0.00    -0.005 C 
ATOM     16  C   UNL A   1      32.718  21.810  22.736  1.00  0.00     0.020 C 
ATOM     17  C   UNL A   1      32.503  22.053  25.109  1.00  0.00    -0.060 C 
ATOM     18  C   UNL A   1      33.615  24.013  23.872  1.00  0.00     0.031 C 
ATOM     19  C   UNL A   1      32.207  20.375  23.032  1.00  0.00     0.081 C 
ATOM     20  C   UNL A   1      32.442  20.788  25.560  1.00  0.00     0.047 C 
ATOM     21  C   UNL A   1      31.222  22.830  25.248  1.00  0.00     0.032 C 
ATOM     22  C   UNL A   1      32.264  24.751  23.813  1.00  0.00    -0.000 C 
ATOM     23  C   UNL A   1      34.570  24.731  24.904  1.00  0.00     0.119 C 
ATOM     24  C   UNL A   1      32.574  19.833  24.422  1.00  0.00     0.155 C 
ATOM     25  C   UNL A   1      31.417  24.292  24.994  1.00  0.00     0.009 C 
ATOM     26  C   UNL A   1      32.543  26.280  23.748  1.00  0.00     0.002 C 
ATOM     27  C   UNL A   1      34.017  25.911  25.745  1.00  0.00     0.042 C 
ATOM     28  O   UNL A   1      32.790  18.646  24.644  1.00  0.00    -0.295 OA
ATOM     29  C   UNL A   1      33.066  26.919  25.071  1.00  0.00     0.009 C 
ATOM     30  C   UNL A   1      31.359  27.156  23.371  1.00  0.00     0.008 C 
ATOM     31  C   UNL A   1      33.934  28.129  24.643  1.00  0.00     0.015 C 
ATOM     32  C   UNL A   1      30.705  27.601  24.671  1.00  0.00     0.044 C 
BRANCH  23  33
ATOM     33  O   UNL A   1      35.168  23.850  25.847  1.00  0.00    -0.393 OA
ATOM     34  H   UNL A   1      36.075  23.648  25.569  1.00  0.00     0.210 HD
ENDBRANCH  23  33
BRANCH  13  35
ATOM     35  O   UNL A   1      31.091  26.241  26.565  1.00  0.00    -0.381 OA
ATOM     36  H   UNL A   1      31.141  26.427  27.516  1.00  0.00     0.212 HD
ENDBRANCH  13  35
ENDBRANCH  11  13
ENDBRANCH  10  11
ENDBRANCH   9  10
ENDBRANCH   7   9
ENDBRANCH   6   7
ENDBRANCH   5   6
ENDBRANCH   1   5
BRANCH   3  37
ATOM     37  C   UNL A   1      36.802  33.773  31.321  1.00  0.00     0.116 C 
BRANCH  37  38
ATOM     38  C   UNL A   1      35.842  33.525  32.495  1.00  0.00     0.023 C 
BRANCH  38  39
ATOM     39  C   UNL A   1      36.498  32.960  33.772  1.00  0.00     0.023 C 
BRANCH  39  40
ATOM     40  C   UNL A   1      37.197  31.610  33.657  1.00  0.00     0.116 C 
BRANCH  40  41
ATOM     41  N   UNL A   1      36.626  30.676  32.704  1.00  0.00    -0.352 N 
ATOM     42  C   UNL A   1      37.242  29.885  31.752  1.00  0.00     0.251 C 
ATOM     43  H   UNL A   1      35.645  30.595  32.741  1.00  0.00     0.163 HD
ATOM     44  O   UNL A   1      36.617  28.970  31.215  1.00  0.00    -0.269 OA
BRANCH  42  45
ATOM     45  C   UNL A   1      38.583  30.222  31.242  1.00  0.00     0.039 A 
ATOM     46  C   UNL A   1      39.638  29.901  32.096  1.00  0.00     0.014 A 
ATOM     47  C   UNL A   1      38.834  30.674  29.947  1.00  0.00     0.014 A 
ATOM     48  C   UNL A   1      40.926  29.833  31.593  1.00  0.00     0.010 A 
ATOM     49  C   UNL A   1      40.110  30.530  29.416  1.00  0.00     0.010 A 
ATOM     50  C   UNL A   1      41.145  30.044  30.224  1.00  0.00    -0.014 A 
BRANCH  50  51
ATOM     51  C   UNL A   1      42.426  29.615  29.629  1.00  0.00     0.031 A 
ATOM     52  C   UNL A   1      42.570  28.247  29.050  1.00  0.00     0.074 A 
ATOM     53  C   UNL A   1      43.459  30.481  29.660  1.00  0.00     0.049 A 
ATOM     54  N   UNL A   1      43.603  27.719  28.454  1.00  0.00    -0.248 NA
ATOM     55  C   UNL A   1      41.414  27.345  29.174  1.00  0.00     0.031 C 
ATOM     56  C   UNL A   1      43.429  31.811  30.282  1.00  0.00     0.029 A 
ATOM     57  N   UNL A   1      44.730  30.387  29.156  1.00  0.00    -0.354 N 
ATOM     58  C   UNL A   1      43.228  26.423  28.134  1.00  0.00     0.074 A 
ATOM     59  C   UNL A   1      41.892  26.225  28.650  1.00  0.00     0.031 C 
ATOM     60  C   UNL A   1      44.608  32.420  30.086  1.00  0.00     0.029 A 
ATOM     61  C   UNL A   1      45.492  31.514  29.363  1.00  0.00     0.049 A 
ATOM     62  H   UNL A   1      45.066  29.587  28.691  1.00  0.00     0.167 HD
ATOM     63  C   UNL A   1      43.935  25.497  27.448  1.00  0.00     0.037 A 
ATOM     64  C   UNL A   1      46.762  31.782  29.005  1.00  0.00     0.037 A 
ATOM     65  C   UNL A   1      45.257  25.731  26.929  1.00  0.00     0.049 A 
ATOM     66  C   UNL A   1      47.514  30.741  28.226  1.00  0.00     0.074 A 
ATOM     67  C   UNL A   1      46.038  24.892  26.157  1.00  0.00     0.029 A 
ATOM     68  N   UNL A   1      45.995  26.889  27.138  1.00  0.00    -0.354 N 
ATOM     69  N   UNL A   1      47.110  29.552  27.841  1.00  0.00    -0.248 NA
ATOM     70  C   UNL A   1      48.885  31.072  27.821  1.00  0.00     0.031 C 
ATOM     71  C   UNL A   1      47.270  25.518  25.946  1.00  0.00     0.029 A 
ATOM     72  C   UNL A   1      47.236  26.773  26.535  1.00  0.00     0.049 A 
ATOM     73  H   UNL A   1      45.683  27.675  27.641  1.00  0.00     0.167 HD
ATOM     74  C   UNL A   1      48.170  29.001  27.132  1.00  0.00     0.074 A 
ATOM     75  C   UNL A   1      49.225  29.996  27.125  1.00  0.00     0.031 C 
ATOM     76  C   UNL A   1      48.266  27.784  26.543  1.00  0.00     0.037 A 
BRANCH  63  77
ATOM     77  C   UNL A   1      43.296  24.156  27.222  1.00  0.00     0.058 A 
ATOM     78  C   UNL A   1      42.750  23.796  25.979  1.00  0.00     0.135 A 
ATOM     79  C   UNL A   1      43.263  23.203  28.253  1.00  0.00     0.135 A 
ATOM     80  F   UNL A   1      42.735  24.677  24.965  1.00  0.00    -0.206 F 
ATOM     81  C   UNL A   1      42.174  22.548  25.773  1.00  0.00     0.059 A 
ATOM     82  C   UNL A   1      42.719  21.937  28.060  1.00  0.00     0.059 A 
ATOM     83  F   UNL A   1      43.763  23.499  29.463  1.00  0.00    -0.206 F 
ATOM     84  C   UNL A   1      42.166  21.623  26.819  1.00  0.00     0.060 A 
BRANCH  84  85
ATOM     85  S   UNL A   1      41.435  20.000  26.527  1.00  0.00     0.124 S 
ATOM     86  O   UNL A   1      41.816  19.287  27.743  1.00  0.00    -0.237 OA
ATOM     87  O   UNL A   1      40.017  20.317  26.397  1.00  0.00    -0.237 OA
ATOM     88  O   UNL A   1      42.089  19.546  25.304  1.00  0.00    -0.744 OA
ENDBRANCH  84  85
ENDBRANCH  63  77
BRANCH  64  89
ATOM     89  C   UNL A   1      47.384  33.083  29.369  1.00  0.00     0.058 A 
ATOM     90  C   UNL A   1      47.241  34.215  28.553  1.00  0.00     0.135 A 
ATOM     91  C   UNL A   1      48.127  33.225  30.553  1.00  0.00     0.135 A 
ATOM     92  F   UNL A   1      46.540  34.135  27.413  1.00  0.00    -0.206 F 
ATOM     93  C   UNL A   1      47.831  35.433  28.883  1.00  0.00     0.059 A 
ATOM     94  C   UNL A   1      48.703  34.437  30.917  1.00  0.00     0.059 A 
ATOM     95  F   UNL A   1      48.276  32.180  31.382  1.00  0.00    -0.206 F 
ATOM     96  C   UNL A   1      48.560  35.533  30.068  1.00  0.00     0.060 A 
BRANCH  96  97
ATOM     97  S   UNL A   1      49.296  37.124  30.504  1.00  0.00     0.124 S 
ATOM     98  O   UNL A   1      50.252  36.734  31.533  1.00  0.00    -0.237 OA
ATOM     99  O   UNL A   1      49.867  37.556  29.231  1.00  0.00    -0.237 OA
ATOM    100  O   UNL A   1      48.153  37.906  30.966  1.00  0.00    -0.744 OA
ENDBRANCH  96  97
ENDBRANCH  64  89
BRANCH  76 101
ATOM    101  C   UNL A   1      49.546  27.470  25.822  1.00  0.00     0.058 A 
ATOM    102  C   UNL A   1      50.698  27.064  26.510  1.00  0.00     0.135 A 
ATOM    103  C   UNL A   1      49.596  27.517  24.419  1.00  0.00     0.135 A 
ATOM    104  F   UNL A   1      50.701  27.010  27.851  1.00  0.00    -0.206 F 
ATOM    105  C   UNL A   1      51.867  26.734  25.833  1.00  0.00     0.059 A 
ATOM    106  C   UNL A   1      50.745  27.162  23.720  1.00  0.00     0.059 A 
ATOM    107  F   UNL A   1      48.517  27.890  23.714  1.00  0.00    -0.206 F 
ATOM    108  C   UNL A   1      51.878  26.781  24.438  1.00  0.00     0.060 A 
BRANCH 108 109
ATOM    109  S   UNL A   1      53.388  26.309  23.572  1.00  0.00     0.124 S 
ATOM    110  O   UNL A   1      52.878  25.990  22.242  1.00  0.00    -0.237 OA
ATOM    111  O   UNL A   1      54.195  27.521  23.668  1.00  0.00    -0.237 OA
ATOM    112  O   UNL A   1      53.882  25.172  24.344  1.00  0.00    -0.744 OA
ENDBRANCH 108 109
ENDBRANCH  76 101
ENDBRANCH  50  51
ENDBRANCH  42  45
ENDBRANCH  40  41
ENDBRANCH  39  40
ENDBRANCH  38  39
ENDBRANCH  37  38
ENDBRANCH   3  37
TORSDOF 22
ENDMDL
