MODEL 1
REMARK VINA RESULT:     -13.5      0.000      0.000
REMARK SMILES Cc1ccccc1-c1nc(CC(=O)NCCCCNC(=O)c2ccc(-c3c4nc(c(-c5c(F)cc(S(=O)(=O)[O-])cc5F)c5ccc([nH]5)c(-c5c(F)cc(S(=O)(=O)[O-])cc5F)c5nc(c(-c6c(F)cc(S(=O)(=O)[O-])cc6F)c6ccc3[nH]6)C=C5)C=C4)cc2)cs1
REMARK SMILES IDX 17 1 16 2 15 3 14 4 12 5 13 6 11 8 10 9 8 10 9 11 89 12
REMARK SMILES IDX 88 13 7 14 1 15 2 16 3 17 4 18 6 19 5 20 18 21 19 22 20 23
REMARK SMILES IDX 21 25 22 26 23 27 87 28 24 29 86 30 25 31 26 32 27 33 80 34
REMARK SMILES IDX 28 35 85 36 79 37 81 38 29 39 84 40 78 41 77 42 30 44 64 45
REMARK SMILES IDX 43 46 63 47 44 48 47 49 62 50 82 51 45 52 46 53 61 55 83 56
REMARK SMILES IDX 48 57 31 58 32 59 41 60 33 61 34 62 40 63 42 64 35 65 36 66
REMARK SMILES IDX 37 67 38 68 39 69 65 70 66 71 75 72 67 73 68 74 74 75 76 76
REMARK SMILES IDX 69 77 70 78 71 79 72 80 73 81 49 82 50 83 59 84 51 85 52 86
REMARK SMILES IDX 58 87 60 88 53 89 54 90 55 91 56 92 57 93
REMARK H PARENT 14 7 19 24 81 43 47 54
REMARK Flexibility Score: inf
ROOT
ATOM      1  C   UNL A   1      32.801  29.991  26.833  1.00  0.00     0.023 C 
ENDROOT
BRANCH   1   2
ATOM      2  C   UNL A   1      31.836  28.866  27.216  1.00  0.00     0.023 C 
BRANCH   2   3
ATOM      3  C   UNL A   1      31.856  27.631  26.303  1.00  0.00     0.116 C 
BRANCH   3   4
ATOM      4  N   UNL A   1      31.074  26.519  26.830  1.00  0.00    -0.356 N 
ATOM      5  C   UNL A   1      30.223  25.671  26.181  1.00  0.00     0.226 C 
ATOM      6  O   UNL A   1      29.598  24.838  26.844  1.00  0.00    -0.275 OA
ATOM      7  H   UNL A   1      31.173  26.356  27.796  1.00  0.00     0.163 HD
BRANCH   5   8
ATOM      8  C   UNL A   1      30.067  25.739  24.675  1.00  0.00     0.157 C 
BRANCH   8   9
ATOM      9  C   UNL A   1      31.221  25.118  23.968  1.00  0.00     0.061 A 
ATOM     10  C   UNL A   1      33.148  24.017  23.986  1.00  0.00     0.123 A 
ATOM     11  N   UNL A   1      32.113  24.370  24.718  1.00  0.00    -0.241 NA
ATOM     12  S   UNL A   1      33.033  24.430  22.318  1.00  0.00    -0.122 S 
ATOM     13  C   UNL A   1      31.543  25.220  22.627  1.00  0.00     0.091 A 
BRANCH  10  14
ATOM     14  C   UNL A   1      34.332  23.332  24.510  1.00  0.00     0.013 A 
ATOM     15  C   UNL A   1      33.263  21.031  24.168  1.00  0.00     0.045 C 
ATOM     16  C   UNL A   1      34.393  21.927  24.602  1.00  0.00    -0.041 A 
ATOM     17  C   UNL A   1      35.521  21.327  25.193  1.00  0.00     0.004 A 
ATOM     18  C   UNL A   1      36.572  22.105  25.680  1.00  0.00     0.000 A 
ATOM     19  C   UNL A   1      35.400  24.100  25.012  1.00  0.00     0.011 A 
ATOM     20  C   UNL A   1      36.511  23.490  25.592  1.00  0.00     0.001 A 
ENDBRANCH  10  14
ENDBRANCH   8   9
ENDBRANCH   5   8
ENDBRANCH   3   4
ENDBRANCH   2   3
ENDBRANCH   1   2
BRANCH   1  21
ATOM     21  C   UNL A   1      34.203  29.796  27.392  1.00  0.00     0.116 C 
BRANCH  21  22
ATOM     22  N   UNL A   1      34.759  30.982  28.023  1.00  0.00    -0.352 N 
ATOM     23  C   UNL A   1      35.949  31.076  28.735  1.00  0.00     0.251 C 
ATOM     24  H   UNL A   1      34.233  31.810  27.937  1.00  0.00     0.163 HD
ATOM     25  O   UNL A   1      36.259  32.065  29.356  1.00  0.00    -0.269 OA
BRANCH  23  26
ATOM     26  C   UNL A   1      36.876  29.925  28.620  1.00  0.00     0.039 A 
ATOM     27  C   UNL A   1      37.023  29.103  29.741  1.00  0.00     0.014 A 
ATOM     28  C   UNL A   1      37.763  29.848  27.549  1.00  0.00     0.014 A 
ATOM     29  C   UNL A   1      38.168  28.320  29.869  1.00  0.00     0.010 A 
ATOM     30  C   UNL A   1      38.936  29.134  27.715  1.00  0.00     0.010 A 
ATOM     31  C   UNL A   1      39.163  28.409  28.895  1.00  0.00    -0.014 A 
BRANCH  31  32
ATOM     32  C   UNL A   1      40.508  27.856  29.062  1.00  0.00     0.031 A 
ATOM     33  C   UNL A   1      40.795  26.451  28.687  1.00  0.00     0.074 A 
ATOM     34  C   UNL A   1      41.519  28.655  29.467  1.00  0.00     0.049 A 
ATOM     35  N   UNL A   1      41.864  25.803  29.009  1.00  0.00    -0.248 NA
ATOM     36  C   UNL A   1      39.842  25.643  27.937  1.00  0.00     0.031 C 
ATOM     37  C   UNL A   1      42.951  28.392  29.359  1.00  0.00     0.029 A 
ATOM     38  N   UNL A   1      41.434  29.786  30.283  1.00  0.00    -0.354 N 
ATOM     39  C   UNL A   1      41.867  24.610  28.317  1.00  0.00     0.074 A 
ATOM     40  C   UNL A   1      40.563  24.545  27.697  1.00  0.00     0.031 C 
ATOM     41  C   UNL A   1      43.597  29.138  30.266  1.00  0.00     0.029 A 
ATOM     42  C   UNL A   1      42.594  29.791  31.087  1.00  0.00     0.049 A 
ATOM     43  H   UNL A   1      40.707  30.451  30.295  1.00  0.00     0.167 HD
ATOM     44  C   UNL A   1      43.012  23.866  28.262  1.00  0.00     0.037 A 
ATOM     45  C   UNL A   1      42.496  29.670  32.445  1.00  0.00     0.037 A 
ATOM     46  C   UNL A   1      44.040  24.397  29.158  1.00  0.00     0.049 A 
ATOM     47  C   UNL A   1      43.116  28.411  33.017  1.00  0.00     0.074 A 
ATOM     48  C   UNL A   1      45.155  25.205  28.997  1.00  0.00     0.029 A 
ATOM     49  N   UNL A   1      43.826  24.318  30.524  1.00  0.00    -0.354 N 
ATOM     50  N   UNL A   1      43.702  27.485  32.308  1.00  0.00    -0.248 NA
ATOM     51  C   UNL A   1      43.057  28.063  34.440  1.00  0.00     0.031 C 
ATOM     52  C   UNL A   1      45.570  25.656  30.284  1.00  0.00     0.029 A 
ATOM     53  C   UNL A   1      44.710  25.119  31.223  1.00  0.00     0.049 A 
ATOM     54  H   UNL A   1      43.131  23.762  30.944  1.00  0.00     0.167 HD
ATOM     55  C   UNL A   1      44.020  26.429  33.120  1.00  0.00     0.074 A 
ATOM     56  C   UNL A   1      43.625  26.846  34.451  1.00  0.00     0.031 C 
ATOM     57  C   UNL A   1      44.541  25.258  32.657  1.00  0.00     0.037 A 
BRANCH  44  58
ATOM     58  C   UNL A   1      43.273  22.798  27.216  1.00  0.00     0.058 A 
ATOM     59  C   UNL A   1      42.558  21.579  27.241  1.00  0.00     0.135 A 
ATOM     60  C   UNL A   1      44.259  22.873  26.214  1.00  0.00     0.135 A 
ATOM     61  F   UNL A   1      41.515  21.394  28.062  1.00  0.00    -0.206 F 
ATOM     62  C   UNL A   1      42.886  20.486  26.434  1.00  0.00     0.059 A 
ATOM     63  C   UNL A   1      44.651  21.775  25.440  1.00  0.00     0.059 A 
ATOM     64  F   UNL A   1      44.847  24.033  25.901  1.00  0.00    -0.206 F 
ATOM     65  C   UNL A   1      43.965  20.576  25.568  1.00  0.00     0.060 A 
BRANCH  65  66
ATOM     66  S   UNL A   1      44.454  19.122  24.621  1.00  0.00     0.124 S 
ATOM     67  O   UNL A   1      43.387  18.176  24.936  1.00  0.00    -0.237 OA
ATOM     68  O   UNL A   1      44.464  19.638  23.257  1.00  0.00    -0.237 OA
ATOM     69  O   UNL A   1      45.762  18.782  25.172  1.00  0.00    -0.744 OA
ENDBRANCH  65  66
ENDBRANCH  44  58
BRANCH  45  70
ATOM     70  C   UNL A   1      41.310  30.383  32.995  1.00  0.00     0.058 A 
ATOM     71  C   UNL A   1      40.162  29.616  33.274  1.00  0.00     0.135 A 
ATOM     72  C   UNL A   1      41.430  31.629  33.624  1.00  0.00     0.135 A 
ATOM     73  F   UNL A   1      39.993  28.420  32.685  1.00  0.00    -0.206 F 
ATOM     74  C   UNL A   1      39.261  29.985  34.265  1.00  0.00     0.059 A 
ATOM     75  C   UNL A   1      40.527  32.028  34.610  1.00  0.00     0.059 A 
ATOM     76  F   UNL A   1      42.499  32.404  33.393  1.00  0.00    -0.206 F 
ATOM     77  C   UNL A   1      39.493  31.162  34.972  1.00  0.00     0.060 A 
BRANCH  77  78
ATOM     78  S   UNL A   1      38.543  31.432  36.487  1.00  0.00     0.124 S 
ATOM     79  O   UNL A   1      39.517  32.108  37.339  1.00  0.00    -0.237 OA
ATOM     80  O   UNL A   1      37.445  32.264  35.999  1.00  0.00    -0.237 OA
ATOM     81  O   UNL A   1      38.176  30.083  36.896  1.00  0.00    -0.744 OA
ENDBRANCH  77  78
ENDBRANCH  45  70
BRANCH  57  82
ATOM     82  C   UNL A   1      44.926  24.142  33.572  1.00  0.00     0.058 A 
ATOM     83  C   UNL A   1      46.266  23.918  33.925  1.00  0.00     0.135 A 
ATOM     84  C   UNL A   1      43.983  23.194  34.010  1.00  0.00     0.135 A 
ATOM     85  F   UNL A   1      47.227  24.765  33.522  1.00  0.00    -0.206 F 
ATOM     86  C   UNL A   1      46.652  22.817  34.686  1.00  0.00     0.059 A 
ATOM     87  C   UNL A   1      44.349  22.069  34.743  1.00  0.00     0.059 A 
ATOM     88  F   UNL A   1      42.675  23.354  33.751  1.00  0.00    -0.206 F 
ATOM     89  C   UNL A   1      45.686  21.895  35.088  1.00  0.00     0.060 A 
BRANCH  89  90
ATOM     90  S   UNL A   1      46.182  20.440  36.033  1.00  0.00     0.124 S 
ATOM     91  O   UNL A   1      47.633  20.427  35.871  1.00  0.00    -0.237 OA
ATOM     92  O   UNL A   1      45.699  20.783  37.367  1.00  0.00    -0.237 OA
ATOM     93  O   UNL A   1      45.475  19.353  35.363  1.00  0.00    -0.744 OA
ENDBRANCH  89  90
ENDBRANCH  57  82
ENDBRANCH  31  32
ENDBRANCH  23  26
ENDBRANCH  21  22
ENDBRANCH   1  21
TORSDOF 16
ENDMDL
MODEL 2
REMARK VINA RESULT:     -13.5      1.405      1.833
REMARK SMILES Cc1ccccc1-c1nc(CC(=O)NCCCCNC(=O)c2ccc(-c3c4nc(c(-c5c(F)cc(S(=O)(=O)[O-])cc5F)c5ccc([nH]5)c(-c5c(F)cc(S(=O)(=O)[O-])cc5F)c5nc(c(-c6c(F)cc(S(=O)(=O)[O-])cc6F)c6ccc3[nH]6)C=C5)C=C4)cc2)cs1
REMARK SMILES IDX 17 1 16 2 15 3 14 4 12 5 13 6 11 8 10 9 8 10 9 11 89 12
REMARK SMILES IDX 88 13 7 14 1 15 2 16 3 17 4 18 6 19 5 20 18 21 19 22 20 23
REMARK SMILES IDX 21 25 22 26 23 27 87 28 24 29 86 30 25 31 26 32 27 33 80 34
REMARK SMILES IDX 28 35 85 36 79 37 81 38 29 39 84 40 78 41 77 42 30 44 64 45
REMARK SMILES IDX 43 46 63 47 44 48 47 49 62 50 82 51 45 52 46 53 61 55 83 56
REMARK SMILES IDX 48 57 31 58 32 59 41 60 33 61 34 62 40 63 42 64 35 65 36 66
REMARK SMILES IDX 37 67 38 68 39 69 65 70 66 71 75 72 67 73 68 74 74 75 76 76
REMARK SMILES IDX 69 77 70 78 71 79 72 80 73 81 49 82 50 83 59 84 51 85 52 86
REMARK SMILES IDX 58 87 60 88 53 89 54 90 55 91 56 92 57 93
REMARK H PARENT 14 7 19 24 81 43 47 54
REMARK Flexibility Score: inf
ROOT
ATOM      1  C   UNL A   1      32.814  29.618  27.047  1.00  0.00     0.023 C 
ENDROOT
BRANCH   1   2
ATOM      2  C   UNL A   1      32.791  29.373  25.536  1.00  0.00     0.023 C 
BRANCH   2   3
ATOM      3  C   UNL A   1      31.470  29.703  24.826  1.00  0.00     0.116 C 
BRANCH   3   4
ATOM      4  N   UNL A   1      31.368  29.103  23.502  1.00  0.00    -0.356 N 
ATOM      5  C   UNL A   1      30.746  27.951  23.115  1.00  0.00     0.226 C 
ATOM      6  O   UNL A   1      30.851  27.588  21.940  1.00  0.00    -0.275 OA
ATOM      7  H   UNL A   1      31.813  29.603  22.779  1.00  0.00     0.163 HD
BRANCH   5   8
ATOM      8  C   UNL A   1      29.926  27.149  24.105  1.00  0.00     0.157 C 
BRANCH   8   9
ATOM      9  C   UNL A   1      30.719  26.050  24.722  1.00  0.00     0.061 A 
ATOM     10  C   UNL A   1      32.572  24.836  24.872  1.00  0.00     0.123 A 
ATOM     11  N   UNL A   1      32.052  25.934  24.364  1.00  0.00    -0.241 NA
ATOM     12  S   UNL A   1      31.534  23.965  25.934  1.00  0.00    -0.122 S 
ATOM     13  C   UNL A   1      30.277  25.084  25.607  1.00  0.00     0.091 A 
BRANCH  10  14
ATOM     14  C   UNL A   1      33.923  24.352  24.576  1.00  0.00     0.013 A 
ATOM     15  C   UNL A   1      33.158  23.289  22.377  1.00  0.00     0.045 C 
ATOM     16  C   UNL A   1      34.207  23.621  23.405  1.00  0.00    -0.041 A 
ATOM     17  C   UNL A   1      35.503  23.109  23.216  1.00  0.00     0.004 A 
ATOM     18  C   UNL A   1      36.503  23.321  24.165  1.00  0.00     0.000 A 
ATOM     19  C   UNL A   1      34.943  24.552  25.526  1.00  0.00     0.011 A 
ATOM     20  C   UNL A   1      36.223  24.040  25.321  1.00  0.00     0.001 A 
ENDBRANCH  10  14
ENDBRANCH   8   9
ENDBRANCH   5   8
ENDBRANCH   3   4
ENDBRANCH   2   3
ENDBRANCH   1   2
BRANCH   1  21
ATOM     21  C   UNL A   1      34.199  29.465  27.659  1.00  0.00     0.116 C 
BRANCH  21  22
ATOM     22  N   UNL A   1      34.764  30.706  28.163  1.00  0.00    -0.352 N 
ATOM     23  C   UNL A   1      35.989  30.877  28.796  1.00  0.00     0.251 C 
ATOM     24  H   UNL A   1      34.216  31.515  28.044  1.00  0.00     0.163 HD
ATOM     25  O   UNL A   1      36.312  31.917  29.319  1.00  0.00    -0.269 OA
BRANCH  23  26
ATOM     26  C   UNL A   1      36.933  29.736  28.717  1.00  0.00     0.039 A 
ATOM     27  C   UNL A   1      37.106  28.964  29.870  1.00  0.00     0.014 A 
ATOM     28  C   UNL A   1      37.808  29.628  27.640  1.00  0.00     0.014 A 
ATOM     29  C   UNL A   1      38.265  28.205  30.017  1.00  0.00     0.010 A 
ATOM     30  C   UNL A   1      38.995  28.940  27.821  1.00  0.00     0.010 A 
ATOM     31  C   UNL A   1      39.247  28.268  29.028  1.00  0.00    -0.014 A 
BRANCH  31  32
ATOM     32  C   UNL A   1      40.603  27.743  29.201  1.00  0.00     0.031 A 
ATOM     33  C   UNL A   1      40.940  26.371  28.754  1.00  0.00     0.074 A 
ATOM     34  C   UNL A   1      41.578  28.545  29.681  1.00  0.00     0.049 A 
ATOM     35  N   UNL A   1      42.018  25.735  29.068  1.00  0.00    -0.248 NA
ATOM     36  C   UNL A   1      40.032  25.583  27.931  1.00  0.00     0.031 C 
ATOM     37  C   UNL A   1      43.019  28.328  29.600  1.00  0.00     0.029 A 
ATOM     38  N   UNL A   1      41.438  29.623  30.558  1.00  0.00    -0.354 N 
ATOM     39  C   UNL A   1      42.075  24.586  28.309  1.00  0.00     0.074 A 
ATOM     40  C   UNL A   1      40.791  24.521  27.649  1.00  0.00     0.031 C 
ATOM     41  C   UNL A   1      43.619  29.037  30.566  1.00  0.00     0.029 A 
ATOM     42  C   UNL A   1      42.575  29.612  31.395  1.00  0.00     0.049 A 
ATOM     43  H   UNL A   1      40.692  30.266  30.588  1.00  0.00     0.167 HD
ATOM     44  C   UNL A   1      43.242  23.878  28.243  1.00  0.00     0.037 A 
ATOM     45  C   UNL A   1      42.444  29.410  32.740  1.00  0.00     0.037 A 
ATOM     46  C   UNL A   1      44.229  24.384  29.198  1.00  0.00     0.049 A 
ATOM     47  C   UNL A   1      43.084  28.136  33.255  1.00  0.00     0.074 A 
ATOM     48  C   UNL A   1      45.324  25.229  29.116  1.00  0.00     0.029 A 
ATOM     49  N   UNL A   1      43.981  24.218  30.550  1.00  0.00    -0.354 N 
ATOM     50  N   UNL A   1      43.716  27.270  32.511  1.00  0.00    -0.248 NA
ATOM     51  C   UNL A   1      42.996  27.704  34.653  1.00  0.00     0.031 C 
ATOM     52  C   UNL A   1      45.691  25.615  30.439  1.00  0.00     0.029 A 
ATOM     53  C   UNL A   1      44.821  25.000  31.320  1.00  0.00     0.049 A 
ATOM     54  H   UNL A   1      43.291  23.619  30.917  1.00  0.00     0.167 HD
ATOM     55  C   UNL A   1      44.042  26.177  33.269  1.00  0.00     0.074 A 
ATOM     56  C   UNL A   1      43.600  26.504  34.610  1.00  0.00     0.031 C 
ATOM     57  C   UNL A   1      44.609  25.051  32.754  1.00  0.00     0.037 A 
BRANCH  44  58
ATOM     58  C   UNL A   1      43.562  22.880  27.146  1.00  0.00     0.058 A 
ATOM     59  C   UNL A   1      42.856  21.661  27.055  1.00  0.00     0.135 A 
ATOM     60  C   UNL A   1      44.597  23.024  26.201  1.00  0.00     0.135 A 
ATOM     61  F   UNL A   1      41.774  21.419  27.809  1.00  0.00    -0.206 F 
ATOM     62  C   UNL A   1      43.231  20.623  26.197  1.00  0.00     0.059 A 
ATOM     63  C   UNL A   1      45.035  21.980  25.379  1.00  0.00     0.059 A 
ATOM     64  F   UNL A   1      45.192  24.205  25.993  1.00  0.00    -0.206 F 
ATOM     65  C   UNL A   1      44.352  20.773  25.394  1.00  0.00     0.060 A 
BRANCH  65  66
ATOM     66  S   UNL A   1      44.897  19.385  24.381  1.00  0.00     0.124 S 
ATOM     67  O   UNL A   1      44.187  18.263  24.987  1.00  0.00    -0.237 OA
ATOM     68  O   UNL A   1      44.443  19.783  23.053  1.00  0.00    -0.237 OA
ATOM     69  O   UNL A   1      46.345  19.374  24.571  1.00  0.00    -0.744 OA
ENDBRANCH  65  66
ENDBRANCH  44  58
BRANCH  45  70
ATOM     70  C   UNL A   1      41.224  30.056  33.296  1.00  0.00     0.058 A 
ATOM     71  C   UNL A   1      41.283  31.439  33.559  1.00  0.00     0.135 A 
ATOM     72  C   UNL A   1      39.957  29.472  33.159  1.00  0.00     0.135 A 
ATOM     73  F   UNL A   1      42.473  32.043  33.713  1.00  0.00    -0.206 F 
ATOM     74  C   UNL A   1      40.148  32.239  33.513  1.00  0.00     0.059 A 
ATOM     75  C   UNL A   1      38.803  30.256  33.128  1.00  0.00     0.059 A 
ATOM     76  F   UNL A   1      39.839  28.160  32.912  1.00  0.00    -0.206 F 
ATOM     77  C   UNL A   1      38.923  31.643  33.230  1.00  0.00     0.060 A 
BRANCH  77  78
ATOM     78  S   UNL A   1      37.540  32.728  32.804  1.00  0.00     0.124 S 
ATOM     79  O   UNL A   1      37.498  33.630  33.950  1.00  0.00    -0.237 OA
ATOM     80  O   UNL A   1      38.005  33.318  31.551  1.00  0.00    -0.237 OA
ATOM     81  O   UNL A   1      36.417  31.806  32.686  1.00  0.00    -0.744 OA
ENDBRANCH  77  78
ENDBRANCH  45  70
BRANCH  57  82
ATOM     82  C   UNL A   1      45.002  23.893  33.613  1.00  0.00     0.058 A 
ATOM     83  C   UNL A   1      46.342  23.666  33.964  1.00  0.00     0.135 A 
ATOM     84  C   UNL A   1      44.068  22.914  33.996  1.00  0.00     0.135 A 
ATOM     85  F   UNL A   1      47.296  24.544  33.612  1.00  0.00    -0.206 F 
ATOM     86  C   UNL A   1      46.736  22.533  34.670  1.00  0.00     0.059 A 
ATOM     87  C   UNL A   1      44.442  21.756  34.673  1.00  0.00     0.059 A 
ATOM     88  F   UNL A   1      42.760  23.071  33.736  1.00  0.00    -0.206 F 
ATOM     89  C   UNL A   1      45.779  21.581  35.018  1.00  0.00     0.060 A 
BRANCH  89  90
ATOM     90  S   UNL A   1      46.285  20.085  35.890  1.00  0.00     0.124 S 
ATOM     91  O   UNL A   1      47.736  20.090  35.729  1.00  0.00    -0.237 OA
ATOM     92  O   UNL A   1      45.801  20.358  37.240  1.00  0.00    -0.237 OA
ATOM     93  O   UNL A   1      45.586  19.027  35.168  1.00  0.00    -0.744 OA
ENDBRANCH  89  90
ENDBRANCH  57  82
ENDBRANCH  31  32
ENDBRANCH  23  26
ENDBRANCH  21  22
ENDBRANCH   1  21
TORSDOF 16
ENDMDL
MODEL 3
REMARK VINA RESULT:     -13.4      1.183      1.989
REMARK SMILES Cc1ccccc1-c1nc(CC(=O)NCCCCNC(=O)c2ccc(-c3c4nc(c(-c5c(F)cc(S(=O)(=O)[O-])cc5F)c5ccc([nH]5)c(-c5c(F)cc(S(=O)(=O)[O-])cc5F)c5nc(c(-c6c(F)cc(S(=O)(=O)[O-])cc6F)c6ccc3[nH]6)C=C5)C=C4)cc2)cs1
REMARK SMILES IDX 17 1 16 2 15 3 14 4 12 5 13 6 11 8 10 9 8 10 9 11 89 12
REMARK SMILES IDX 88 13 7 14 1 15 2 16 3 17 4 18 6 19 5 20 18 21 19 22 20 23
REMARK SMILES IDX 21 25 22 26 23 27 87 28 24 29 86 30 25 31 26 32 27 33 80 34
REMARK SMILES IDX 28 35 85 36 79 37 81 38 29 39 84 40 78 41 77 42 30 44 64 45
REMARK SMILES IDX 43 46 63 47 44 48 47 49 62 50 82 51 45 52 46 53 61 55 83 56
REMARK SMILES IDX 48 57 31 58 32 59 41 60 33 61 34 62 40 63 42 64 35 65 36 66
REMARK SMILES IDX 37 67 38 68 39 69 65 70 66 71 75 72 67 73 68 74 74 75 76 76
REMARK SMILES IDX 69 77 70 78 71 79 72 80 73 81 49 82 50 83 59 84 51 85 52 86
REMARK SMILES IDX 58 87 60 88 53 89 54 90 55 91 56 92 57 93
REMARK H PARENT 14 7 19 24 81 43 47 54
REMARK Flexibility Score: inf
ROOT
ATOM      1  C   UNL A   1      32.803  29.542  27.212  1.00  0.00     0.023 C 
ENDROOT
BRANCH   1   2
ATOM      2  C   UNL A   1      32.646  29.668  25.694  1.00  0.00     0.023 C 
BRANCH   2   3
ATOM      3  C   UNL A   1      32.421  28.351  24.935  1.00  0.00     0.116 C 
BRANCH   3   4
ATOM      4  N   UNL A   1      31.449  27.479  25.581  1.00  0.00    -0.356 N 
ATOM      5  C   UNL A   1      31.607  26.215  26.074  1.00  0.00     0.226 C 
ATOM      6  O   UNL A   1      30.617  25.625  26.517  1.00  0.00    -0.275 OA
ATOM      7  H   UNL A   1      30.544  27.856  25.676  1.00  0.00     0.163 HD
BRANCH   5   8
ATOM      8  C   UNL A   1      32.974  25.563  26.095  1.00  0.00     0.157 C 
BRANCH   8   9
ATOM      9  C   UNL A   1      33.134  24.568  24.999  1.00  0.00     0.061 A 
ATOM     10  C   UNL A   1      33.352  22.477  24.287  1.00  0.00     0.123 A 
ATOM     11  N   UNL A   1      33.043  23.225  25.325  1.00  0.00    -0.241 NA
ATOM     12  S   UNL A   1      33.616  23.341  22.821  1.00  0.00    -0.122 S 
ATOM     13  C   UNL A   1      33.398  24.818  23.665  1.00  0.00     0.091 A 
BRANCH  10  14
ATOM     14  C   UNL A   1      33.481  21.019  24.333  1.00  0.00     0.013 A 
ATOM     15  C   UNL A   1      35.842  21.167  25.309  1.00  0.00     0.045 C 
ATOM     16  C   UNL A   1      34.650  20.393  24.810  1.00  0.00    -0.041 A 
ATOM     17  C   UNL A   1      34.751  18.992  24.752  1.00  0.00     0.004 A 
ATOM     18  C   UNL A   1      33.709  18.220  24.235  1.00  0.00     0.000 A 
ATOM     19  C   UNL A   1      32.442  20.225  23.810  1.00  0.00     0.011 A 
ATOM     20  C   UNL A   1      32.556  18.836  23.762  1.00  0.00     0.001 A 
ENDBRANCH  10  14
ENDBRANCH   8   9
ENDBRANCH   5   8
ENDBRANCH   3   4
ENDBRANCH   2   3
ENDBRANCH   1   2
BRANCH   1  21
ATOM     21  C   UNL A   1      34.254  29.439  27.658  1.00  0.00     0.116 C 
BRANCH  21  22
ATOM     22  N   UNL A   1      34.828  30.699  28.103  1.00  0.00    -0.352 N 
ATOM     23  C   UNL A   1      36.067  30.895  28.700  1.00  0.00     0.251 C 
ATOM     24  H   UNL A   1      34.276  31.502  27.966  1.00  0.00     0.163 HD
ATOM     25  O   UNL A   1      36.400  31.954  29.176  1.00  0.00    -0.269 OA
BRANCH  23  26
ATOM     26  C   UNL A   1      37.011  29.753  28.641  1.00  0.00     0.039 A 
ATOM     27  C   UNL A   1      37.175  28.994  29.804  1.00  0.00     0.014 A 
ATOM     28  C   UNL A   1      37.896  29.633  27.572  1.00  0.00     0.014 A 
ATOM     29  C   UNL A   1      38.333  28.237  29.968  1.00  0.00     0.010 A 
ATOM     30  C   UNL A   1      39.080  28.947  27.770  1.00  0.00     0.010 A 
ATOM     31  C   UNL A   1      39.323  28.288  28.986  1.00  0.00    -0.014 A 
BRANCH  31  32
ATOM     32  C   UNL A   1      40.677  27.766  29.176  1.00  0.00     0.031 A 
ATOM     33  C   UNL A   1      41.023  26.396  28.727  1.00  0.00     0.074 A 
ATOM     34  C   UNL A   1      41.644  28.567  29.673  1.00  0.00     0.049 A 
ATOM     35  N   UNL A   1      42.098  25.760  29.053  1.00  0.00    -0.248 NA
ATOM     36  C   UNL A   1      40.128  25.610  27.888  1.00  0.00     0.031 C 
ATOM     37  C   UNL A   1      43.087  28.352  29.611  1.00  0.00     0.029 A 
ATOM     38  N   UNL A   1      41.489  29.641  30.554  1.00  0.00    -0.354 N 
ATOM     39  C   UNL A   1      42.167  24.615  28.290  1.00  0.00     0.074 A 
ATOM     40  C   UNL A   1      40.893  24.551  27.611  1.00  0.00     0.031 C 
ATOM     41  C   UNL A   1      43.671  29.058  30.589  1.00  0.00     0.029 A 
ATOM     42  C   UNL A   1      42.615  29.628  31.406  1.00  0.00     0.049 A 
ATOM     43  H   UNL A   1      40.742  30.281  30.575  1.00  0.00     0.167 HD
ATOM     44  C   UNL A   1      43.338  23.910  28.237  1.00  0.00     0.037 A 
ATOM     45  C   UNL A   1      42.465  29.418  32.748  1.00  0.00     0.037 A 
ATOM     46  C   UNL A   1      44.310  24.413  29.208  1.00  0.00     0.049 A 
ATOM     47  C   UNL A   1      43.101  28.143  33.267  1.00  0.00     0.074 A 
ATOM     48  C   UNL A   1      45.404  25.261  29.146  1.00  0.00     0.029 A 
ATOM     49  N   UNL A   1      44.043  24.240  30.556  1.00  0.00    -0.354 N 
ATOM     50  N   UNL A   1      43.745  27.282  32.527  1.00  0.00    -0.248 NA
ATOM     51  C   UNL A   1      42.994  27.705  34.661  1.00  0.00     0.031 C 
ATOM     52  C   UNL A   1      45.752  25.641  30.475  1.00  0.00     0.029 A 
ATOM     53  C   UNL A   1      44.871  25.021  31.341  1.00  0.00     0.049 A 
ATOM     54  H   UNL A   1      43.349  23.638  30.910  1.00  0.00     0.167 HD
ATOM     55  C   UNL A   1      44.062  26.186  33.284  1.00  0.00     0.074 A 
ATOM     56  C   UNL A   1      43.600  26.507  34.620  1.00  0.00     0.031 C 
ATOM     57  C   UNL A   1      44.639  25.064  32.772  1.00  0.00     0.037 A 
BRANCH  44  58
ATOM     58  C   UNL A   1      43.675  22.918  27.139  1.00  0.00     0.058 A 
ATOM     59  C   UNL A   1      42.962  21.704  27.024  1.00  0.00     0.135 A 
ATOM     60  C   UNL A   1      44.731  23.061  26.218  1.00  0.00     0.135 A 
ATOM     61  F   UNL A   1      41.863  21.463  27.753  1.00  0.00    -0.206 F 
ATOM     62  C   UNL A   1      43.349  20.670  26.167  1.00  0.00     0.059 A 
ATOM     63  C   UNL A   1      45.179  22.020  25.398  1.00  0.00     0.059 A 
ATOM     64  F   UNL A   1      45.338  24.239  26.033  1.00  0.00    -0.206 F 
ATOM     65  C   UNL A   1      44.489  20.818  25.390  1.00  0.00     0.060 A 
BRANCH  65  66
ATOM     66  S   UNL A   1      45.046  19.434  24.379  1.00  0.00     0.124 S 
ATOM     67  O   UNL A   1      44.465  19.748  23.077  1.00  0.00    -0.237 OA
ATOM     68  O   UNL A   1      46.497  19.554  24.474  1.00  0.00    -0.237 OA
ATOM     69  O   UNL A   1      44.468  18.271  25.047  1.00  0.00    -0.744 OA
ENDBRANCH  65  66
ENDBRANCH  44  58
BRANCH  45  70
ATOM     70  C   UNL A   1      41.236  30.060  33.290  1.00  0.00     0.058 A 
ATOM     71  C   UNL A   1      41.271  31.451  33.510  1.00  0.00     0.135 A 
ATOM     72  C   UNL A   1      39.980  29.450  33.178  1.00  0.00     0.135 A 
ATOM     73  F   UNL A   1      42.451  32.081  33.639  1.00  0.00    -0.206 F 
ATOM     74  C   UNL A   1      40.122  32.229  33.445  1.00  0.00     0.059 A 
ATOM     75  C   UNL A   1      38.812  30.211  33.128  1.00  0.00     0.059 A 
ATOM     76  F   UNL A   1      39.884  28.128  32.972  1.00  0.00    -0.206 F 
ATOM     77  C   UNL A   1      38.906  31.603  33.186  1.00  0.00     0.060 A 
BRANCH  77  78
ATOM     78  S   UNL A   1      37.502  32.649  32.734  1.00  0.00     0.124 S 
ATOM     79  O   UNL A   1      37.304  33.432  33.949  1.00  0.00    -0.237 OA
ATOM     80  O   UNL A   1      38.040  33.382  31.590  1.00  0.00    -0.237 OA
ATOM     81  O   UNL A   1      36.454  31.684  32.427  1.00  0.00    -0.744 OA
ENDBRANCH  77  78
ENDBRANCH  45  70
BRANCH  57  82
ATOM     82  C   UNL A   1      45.022  23.903  33.631  1.00  0.00     0.058 A 
ATOM     83  C   UNL A   1      46.356  23.683  34.008  1.00  0.00     0.135 A 
ATOM     84  C   UNL A   1      44.087  22.914  33.988  1.00  0.00     0.135 A 
ATOM     85  F   UNL A   1      47.310  24.570  33.682  1.00  0.00    -0.206 F 
ATOM     86  C   UNL A   1      46.743  22.547  34.715  1.00  0.00     0.059 A 
ATOM     87  C   UNL A   1      44.455  21.755  34.664  1.00  0.00     0.059 A 
ATOM     88  F   UNL A   1      42.783  23.064  33.702  1.00  0.00    -0.206 F 
ATOM     89  C   UNL A   1      45.785  21.586  35.036  1.00  0.00     0.060 A 
BRANCH  89  90
ATOM     90  S   UNL A   1      46.284  20.087  35.908  1.00  0.00     0.124 S 
ATOM     91  O   UNL A   1      45.812  20.330  37.268  1.00  0.00    -0.237 OA
ATOM     92  O   UNL A   1      45.558  19.063  35.163  1.00  0.00    -0.237 OA
ATOM     93  O   UNL A   1      47.735  20.078  35.750  1.00  0.00    -0.744 OA
ENDBRANCH  89  90
ENDBRANCH  57  82
ENDBRANCH  31  32
ENDBRANCH  23  26
ENDBRANCH  21  22
ENDBRANCH   1  21
TORSDOF 16
ENDMDL
