MODEL 1
REMARK VINA RESULT:     -14.0      0.000      0.000
REMARK SMILES O=C1C[C@H](c2cn[nH]c2C(=O)NCCCCNC(=O)c2ccc(-c3c4nc(c(-c5c(F)cc(S(=O)(=O)[O-])cc5F)c5ccc([nH]5)c(-c5c(F)cc(S(=O)(=O)[O-])cc5F)c5nc(c(-c6c(F)cc(S(=O)(=O)[O-])cc6F)c6ccc3[nH]6)C=C5)C=C4)cc2)c2c(-c3cccs3)n[nH]c2N1
REMARK SMILES IDX 15 1 14 2 13 3 12 4 10 5 11 6 9 8 5 9 6 10 7 11 8 12 4 14
REMARK SMILES IDX 1 15 2 16 3 17 96 18 95 19 86 21 94 22 87 23 93 24 88 26
REMARK SMILES IDX 89 27 92 28 90 29 91 30 16 31 17 32 18 33 19 35 20 36 21 37
REMARK SMILES IDX 85 38 22 39 84 40 23 41 24 42 25 43 78 44 26 45 83 46 77 47
REMARK SMILES IDX 79 48 27 49 82 50 76 51 75 52 28 54 62 55 41 56 61 57 42 58
REMARK SMILES IDX 45 59 60 60 80 61 43 62 44 63 59 65 81 66 46 67 29 68 30 69
REMARK SMILES IDX 39 70 31 71 32 72 38 73 40 74 33 75 34 76 35 77 36 78 37 79
REMARK SMILES IDX 63 80 64 81 73 82 65 83 66 84 72 85 74 86 67 87 68 88 69 89
REMARK SMILES IDX 70 90 71 91 47 92 48 93 57 94 49 95 50 96 56 97 58 98 51 99
REMARK SMILES IDX 52 100 53 101 54 102 55 103
REMARK H PARENT 12 7 8 13 96 20 94 25 17 34 79 53 45 64
REMARK Flexibility Score: inf
ROOT
ATOM      1  C   UNL A   1      39.413  22.379  26.511  1.00  0.00     0.023 C 
ENDROOT
BRANCH   1   2
ATOM      2  C   UNL A   1      38.550  23.639  26.628  1.00  0.00     0.023 C 
BRANCH   2   3
ATOM      3  C   UNL A   1      37.193  23.819  25.495  1.00  0.00     0.116 C 
BRANCH   3   4
ATOM      4  N   UNL A   1      35.268  22.795  25.566  1.00  0.00    -0.351 N 
ATOM      5  C   UNL A   1      33.872  22.649  25.730  1.00  0.00     0.269 C 
ATOM      6  O   UNL A   1      33.441  21.497  25.632  1.00  0.00    -0.268 OA
ATOM      7  H   UNL A   1      35.533  21.871  25.354  1.00  0.00     0.163 HD
BRANCH   5   8
ATOM      8  C   UNL A   1      32.959  23.748  25.945  1.00  0.00     0.126 A 
ATOM      9  C   UNL A   1      32.860  24.999  25.360  1.00  0.00     0.011 A 
ATOM     10  C   UNL A   1      31.708  25.573  25.930  1.00  0.00     0.140 A 
ATOM     11  N   UNL A   1      31.139  24.777  26.837  1.00  0.00    -0.183 NA
ATOM     12  N   UNL A   1      31.899  23.666  26.804  1.00  0.00    -0.273 N 
ATOM     13  H   UNL A   1      31.709  22.869  27.350  1.00  0.00     0.190 HD
BRANCH   9  14
ATOM     14  C   UNL A   1      33.790  25.531  24.331  1.00  0.00     0.069 C 
ATOM     15  O   UNL A   1      33.402  23.337  21.227  1.00  0.00    -0.275 OA
ATOM     16  C   UNL A   1      33.121  24.210  22.057  1.00  0.00     0.226 C 
ATOM     17  C   UNL A   1      34.107  24.489  23.230  1.00  0.00     0.114 C 
ATOM     18  N   UNL A   1      31.985  24.952  21.844  1.00  0.00    -0.311 N 
ATOM     19  C   UNL A   1      31.904  26.161  22.463  1.00  0.00     0.132 A 
ATOM     20  H   UNL A   1      31.259  24.623  21.267  1.00  0.00     0.171 HD
ATOM     21  C   UNL A   1      33.063  26.636  23.704  1.00  0.00     0.031 A 
ATOM     22  N   UNL A   1      30.781  27.606  22.148  1.00  0.00    -0.262 N 
ATOM     23  C   UNL A   1      32.658  28.469  24.230  1.00  0.00     0.108 A 
ATOM     24  N   UNL A   1      31.282  29.037  23.275  1.00  0.00    -0.173 NA
ATOM     25  H   UNL A   1      30.043  27.624  21.496  1.00  0.00     0.192 HD
BRANCH  23  26
ATOM     26  C   UNL A   1      33.133  29.022  25.532  1.00  0.00     0.055 A 
ATOM     27  C   UNL A   1      34.335  28.691  26.114  1.00  0.00     0.022 A 
ATOM     28  S   UNL A   1      32.327  30.271  26.362  1.00  0.00    -0.142 S 
ATOM     29  C   UNL A   1      34.618  29.521  27.241  1.00  0.00     0.012 A 
ATOM     30  C   UNL A   1      33.579  30.381  27.525  1.00  0.00     0.065 A 
ENDBRANCH  23  26
ENDBRANCH   9  14
ENDBRANCH   5   8
ENDBRANCH   3   4
ENDBRANCH   2   3
ENDBRANCH   1   2
BRANCH   1  31
ATOM     31  C   UNL A   1      40.659  22.396  27.359  1.00  0.00     0.116 C 
BRANCH  31  32
ATOM     32  N   UNL A   1      41.853  22.227  26.538  1.00  0.00    -0.352 N 
ATOM     33  C   UNL A   1      42.403  23.203  25.737  1.00  0.00     0.251 C 
ATOM     34  H   UNL A   1      42.298  21.350  26.558  1.00  0.00     0.163 HD
ATOM     35  O   UNL A   1      43.026  22.923  24.722  1.00  0.00    -0.269 OA
BRANCH  33  36
ATOM     36  C   UNL A   1      42.289  24.584  26.233  1.00  0.00     0.039 A 
ATOM     37  C   UNL A   1      41.461  25.540  25.653  1.00  0.00     0.014 A 
ATOM     38  C   UNL A   1      43.009  24.862  27.397  1.00  0.00     0.014 A 
ATOM     39  C   UNL A   1      41.421  26.810  26.236  1.00  0.00     0.010 A 
ATOM     40  C   UNL A   1      42.781  26.024  28.079  1.00  0.00     0.010 A 
ATOM     41  C   UNL A   1      42.122  27.056  27.438  1.00  0.00    -0.014 A 
BRANCH  41  42
ATOM     42  C   UNL A   1      41.931  28.257  28.254  1.00  0.00     0.031 A 
ATOM     43  C   UNL A   1      43.071  29.181  27.998  1.00  0.00     0.074 A 
ATOM     44  C   UNL A   1      40.806  28.531  28.979  1.00  0.00     0.049 A 
ATOM     45  N   UNL A   1      44.131  29.255  28.733  1.00  0.00    -0.248 NA
ATOM     46  C   UNL A   1      43.271  29.801  26.668  1.00  0.00     0.031 C 
ATOM     47  C   UNL A   1      39.582  27.728  29.130  1.00  0.00     0.029 A 
ATOM     48  N   UNL A   1      40.495  29.638  29.746  1.00  0.00    -0.354 N 
ATOM     49  C   UNL A   1      44.904  30.256  28.164  1.00  0.00     0.074 A 
ATOM     50  C   UNL A   1      44.501  30.316  26.791  1.00  0.00     0.031 C 
ATOM     51  C   UNL A   1      38.597  28.461  29.712  1.00  0.00     0.029 A 
ATOM     52  C   UNL A   1      39.124  29.754  30.112  1.00  0.00     0.049 A 
ATOM     53  H   UNL A   1      41.172  30.298  30.019  1.00  0.00     0.167 HD
ATOM     54  C   UNL A   1      45.499  31.166  28.985  1.00  0.00     0.037 A 
ATOM     55  C   UNL A   1      38.512  30.813  30.746  1.00  0.00     0.037 A 
ATOM     56  C   UNL A   1      45.434  30.691  30.351  1.00  0.00     0.049 A 
ATOM     57  C   UNL A   1      39.598  31.567  31.436  1.00  0.00     0.074 A 
ATOM     58  C   UNL A   1      45.871  29.555  31.004  1.00  0.00     0.029 A 
ATOM     59  N   UNL A   1      44.418  31.217  31.110  1.00  0.00    -0.354 N 
ATOM     60  N   UNL A   1      40.264  31.061  32.441  1.00  0.00    -0.248 NA
ATOM     61  C   UNL A   1      40.314  32.539  30.622  1.00  0.00     0.031 C 
ATOM     62  C   UNL A   1      44.808  29.205  31.884  1.00  0.00     0.029 A 
ATOM     63  C   UNL A   1      43.858  30.225  31.868  1.00  0.00     0.049 A 
ATOM     64  H   UNL A   1      44.135  32.160  31.108  1.00  0.00     0.167 HD
ATOM     65  C   UNL A   1      41.592  31.236  32.079  1.00  0.00     0.074 A 
ATOM     66  C   UNL A   1      41.559  32.175  30.950  1.00  0.00     0.031 C 
ATOM     67  C   UNL A   1      42.552  30.345  32.474  1.00  0.00     0.037 A 
BRANCH  54  68
ATOM     68  C   UNL A   1      45.683  32.637  28.686  1.00  0.00     0.058 A 
ATOM     69  C   UNL A   1      46.961  33.199  28.900  1.00  0.00     0.135 A 
ATOM     70  C   UNL A   1      44.640  33.567  28.484  1.00  0.00     0.135 A 
ATOM     71  F   UNL A   1      48.028  32.412  29.108  1.00  0.00    -0.206 F 
ATOM     72  C   UNL A   1      47.174  34.572  28.979  1.00  0.00     0.059 A 
ATOM     73  C   UNL A   1      44.841  34.945  28.512  1.00  0.00     0.059 A 
ATOM     74  F   UNL A   1      43.366  33.197  28.322  1.00  0.00    -0.206 F 
ATOM     75  C   UNL A   1      46.107  35.439  28.781  1.00  0.00     0.060 A 
BRANCH  75  76
ATOM     76  S   UNL A   1      46.405  37.212  28.849  1.00  0.00     0.124 S 
ATOM     77  O   UNL A   1      46.995  37.466  27.540  1.00  0.00    -0.237 OA
ATOM     78  O   UNL A   1      45.056  37.728  29.055  1.00  0.00    -0.237 OA
ATOM     79  O   UNL A   1      47.306  37.358  29.989  1.00  0.00    -0.744 OA
ENDBRANCH  75  76
ENDBRANCH  54  68
BRANCH  55  80
ATOM     80  C   UNL A   1      37.147  31.431  30.556  1.00  0.00     0.058 A 
ATOM     81  C   UNL A   1      36.319  31.873  31.624  1.00  0.00     0.135 A 
ATOM     82  C   UNL A   1      36.765  31.895  29.287  1.00  0.00     0.135 A 
ATOM     83  F   UNL A   1      36.586  31.501  32.886  1.00  0.00    -0.206 F 
ATOM     84  C   UNL A   1      35.233  32.761  31.440  1.00  0.00     0.059 A 
ATOM     85  C   UNL A   1      35.698  32.779  29.083  1.00  0.00     0.059 A 
ATOM     86  F   UNL A   1      37.482  31.578  28.202  1.00  0.00    -0.206 F 
ATOM     87  C   UNL A   1      34.951  33.236  30.161  1.00  0.00     0.060 A 
BRANCH  87  88
ATOM     88  S   UNL A   1      33.714  34.543  29.896  1.00  0.00     0.124 S 
ATOM     89  O   UNL A   1      34.503  35.600  29.275  1.00  0.00    -0.237 OA
ATOM     90  O   UNL A   1      32.738  33.886  29.032  1.00  0.00    -0.237 OA
ATOM     91  O   UNL A   1      33.240  34.836  31.247  1.00  0.00    -0.744 OA
ENDBRANCH  87  88
ENDBRANCH  55  80
BRANCH  67  92
ATOM     92  C   UNL A   1      42.218  29.328  33.535  1.00  0.00     0.058 A 
ATOM     93  C   UNL A   1      41.641  28.063  33.314  1.00  0.00     0.135 A 
ATOM     94  C   UNL A   1      42.666  29.605  34.835  1.00  0.00     0.135 A 
ATOM     95  F   UNL A   1      41.305  27.665  32.079  1.00  0.00    -0.206 F 
ATOM     96  C   UNL A   1      41.455  27.149  34.356  1.00  0.00     0.059 A 
ATOM     97  C   UNL A   1      42.527  28.698  35.876  1.00  0.00     0.059 A 
ATOM     98  F   UNL A   1      43.302  30.758  35.094  1.00  0.00    -0.206 F 
ATOM     99  C   UNL A   1      41.890  27.485  35.639  1.00  0.00     0.060 A 
BRANCH  99 100
ATOM    100  S   UNL A   1      41.630  26.334  37.005  1.00  0.00     0.124 S 
ATOM    101  O   UNL A   1      40.369  26.807  37.564  1.00  0.00    -0.237 OA
ATOM    102  O   UNL A   1      41.580  25.042  36.327  1.00  0.00    -0.237 OA
ATOM    103  O   UNL A   1      42.803  26.540  37.853  1.00  0.00    -0.744 OA
ENDBRANCH  99 100
ENDBRANCH  67  92
ENDBRANCH  41  42
ENDBRANCH  33  36
ENDBRANCH  31  32
ENDBRANCH   1  31
TORSDOF 16
ENDMDL
MODEL 2
REMARK VINA RESULT:     -13.9      1.642      2.137
REMARK SMILES O=C1C[C@H](c2cn[nH]c2C(=O)NCCCCNC(=O)c2ccc(-c3c4nc(c(-c5c(F)cc(S(=O)(=O)[O-])cc5F)c5ccc([nH]5)c(-c5c(F)cc(S(=O)(=O)[O-])cc5F)c5nc(c(-c6c(F)cc(S(=O)(=O)[O-])cc6F)c6ccc3[nH]6)C=C5)C=C4)cc2)c2c(-c3cccs3)n[nH]c2N1
REMARK SMILES IDX 15 1 14 2 13 3 12 4 10 5 11 6 9 8 5 9 6 10 7 11 8 12 4 14
REMARK SMILES IDX 1 15 2 16 3 17 96 18 95 19 86 21 94 22 87 23 93 24 88 26
REMARK SMILES IDX 89 27 92 28 90 29 91 30 16 31 17 32 18 33 19 35 20 36 21 37
REMARK SMILES IDX 85 38 22 39 84 40 23 41 24 42 25 43 78 44 26 45 83 46 77 47
REMARK SMILES IDX 79 48 27 49 82 50 76 51 75 52 28 54 62 55 41 56 61 57 42 58
REMARK SMILES IDX 45 59 60 60 80 61 43 62 44 63 59 65 81 66 46 67 29 68 30 69
REMARK SMILES IDX 39 70 31 71 32 72 38 73 40 74 33 75 34 76 35 77 36 78 37 79
REMARK SMILES IDX 63 80 64 81 73 82 65 83 66 84 72 85 74 86 67 87 68 88 69 89
REMARK SMILES IDX 70 90 71 91 47 92 48 93 57 94 49 95 50 96 56 97 58 98 51 99
REMARK SMILES IDX 52 100 53 101 54 102 55 103
REMARK H PARENT 12 7 8 13 96 20 94 25 17 34 79 53 45 64
REMARK Flexibility Score: inf
ROOT
ATOM      1  C   UNL A   1      36.405  22.243  25.047  1.00  0.00     0.023 C 
ENDROOT
BRANCH   1   2
ATOM      2  C   UNL A   1      35.611  21.779  26.271  1.00  0.00     0.023 C 
BRANCH   2   3
ATOM      3  C   UNL A   1      34.615  22.984  27.115  1.00  0.00     0.116 C 
BRANCH   3   4
ATOM      4  N   UNL A   1      32.438  23.030  27.261  1.00  0.00    -0.351 N 
ATOM      5  C   UNL A   1      31.125  23.499  27.037  1.00  0.00     0.269 C 
ATOM      6  O   UNL A   1      30.230  22.880  27.620  1.00  0.00    -0.268 OA
ATOM      7  H   UNL A   1      32.267  22.245  27.830  1.00  0.00     0.163 HD
BRANCH   5   8
ATOM      8  C   UNL A   1      30.790  24.590  26.151  1.00  0.00     0.126 A 
ATOM      9  C   UNL A   1      31.520  25.250  25.177  1.00  0.00     0.011 A 
ATOM     10  C   UNL A   1      30.612  26.157  24.599  1.00  0.00     0.140 A 
ATOM     11  N   UNL A   1      29.412  26.117  25.183  1.00  0.00    -0.183 NA
ATOM     12  N   UNL A   1      29.539  25.138  26.099  1.00  0.00    -0.273 N 
ATOM     13  H   UNL A   1      28.798  24.845  26.678  1.00  0.00     0.190 HD
BRANCH   9  14
ATOM     14  C   UNL A   1      32.942  24.973  24.848  1.00  0.00     0.069 C 
ATOM     15  O   UNL A   1      32.961  22.332  22.088  1.00  0.00    -0.275 OA
ATOM     16  C   UNL A   1      32.840  23.448  22.605  1.00  0.00     0.226 C 
ATOM     17  C   UNL A   1      33.125  23.615  24.127  1.00  0.00     0.114 C 
ATOM     18  N   UNL A   1      32.544  24.506  21.782  1.00  0.00    -0.311 N 
ATOM     19  C   UNL A   1      32.843  25.754  22.236  1.00  0.00     0.132 A 
ATOM     20  H   UNL A   1      32.132  24.368  20.899  1.00  0.00     0.171 HD
ATOM     21  C   UNL A   1      33.322  26.031  23.909  1.00  0.00     0.031 A 
ATOM     22  N   UNL A   1      32.981  27.368  21.328  1.00  0.00    -0.262 N 
ATOM     23  C   UNL A   1      33.773  27.918  24.098  1.00  0.00     0.108 A 
ATOM     24  N   UNL A   1      33.566  28.705  22.527  1.00  0.00    -0.173 NA
ATOM     25  H   UNL A   1      32.782  27.505  20.373  1.00  0.00     0.192 HD
BRANCH  23  26
ATOM     26  C   UNL A   1      33.786  28.579  25.435  1.00  0.00     0.055 A 
ATOM     27  C   UNL A   1      34.667  28.257  26.442  1.00  0.00     0.022 A 
ATOM     28  S   UNL A   1      32.834  29.940  25.810  1.00  0.00    -0.142 S 
ATOM     29  C   UNL A   1      34.587  29.185  27.525  1.00  0.00     0.012 A 
ATOM     30  C   UNL A   1      33.585  30.114  27.339  1.00  0.00     0.065 A 
ENDBRANCH  23  26
ENDBRANCH   9  14
ENDBRANCH   5   8
ENDBRANCH   3   4
ENDBRANCH   2   3
ENDBRANCH   1   2
BRANCH   1  31
ATOM     31  C   UNL A   1      37.759  22.826  25.365  1.00  0.00     0.116 C 
BRANCH  31  32
ATOM     32  N   UNL A   1      38.499  21.962  26.278  1.00  0.00    -0.352 N 
ATOM     33  C   UNL A   1      39.686  22.297  26.891  1.00  0.00     0.251 C 
ATOM     34  H   UNL A   1      38.121  21.074  26.471  1.00  0.00     0.163 HD
ATOM     35  O   UNL A   1      40.511  21.447  27.198  1.00  0.00    -0.269 OA
BRANCH  33  36
ATOM     36  C   UNL A   1      39.849  23.715  27.249  1.00  0.00     0.039 A 
ATOM     37  C   UNL A   1      38.879  24.683  27.005  1.00  0.00     0.014 A 
ATOM     38  C   UNL A   1      41.021  24.026  27.942  1.00  0.00     0.014 A 
ATOM     39  C   UNL A   1      39.143  25.991  27.419  1.00  0.00     0.010 A 
ATOM     40  C   UNL A   1      41.158  25.248  28.537  1.00  0.00     0.010 A 
ATOM     41  C   UNL A   1      40.316  26.274  28.157  1.00  0.00    -0.014 A 
BRANCH  41  42
ATOM     42  C   UNL A   1      40.546  27.543  28.852  1.00  0.00     0.031 A 
ATOM     43  C   UNL A   1      41.648  28.262  28.153  1.00  0.00     0.074 A 
ATOM     44  C   UNL A   1      39.758  28.033  29.854  1.00  0.00     0.049 A 
ATOM     45  N   UNL A   1      42.888  28.224  28.512  1.00  0.00    -0.248 NA
ATOM     46  C   UNL A   1      41.483  28.755  26.767  1.00  0.00     0.031 C 
ATOM     47  C   UNL A   1      38.559  27.437  30.464  1.00  0.00     0.029 A 
ATOM     48  N   UNL A   1      39.849  29.223  30.551  1.00  0.00    -0.354 N 
ATOM     49  C   UNL A   1      43.554  29.054  27.624  1.00  0.00     0.074 A 
ATOM     50  C   UNL A   1      42.741  29.083  26.445  1.00  0.00     0.031 C 
ATOM     51  C   UNL A   1      37.911  28.349  31.237  1.00  0.00     0.029 A 
ATOM     52  C   UNL A   1      38.694  29.570  31.306  1.00  0.00     0.049 A 
ATOM     53  H   UNL A   1      40.654  29.789  30.525  1.00  0.00     0.167 HD
ATOM     54  C   UNL A   1      44.489  29.917  28.112  1.00  0.00     0.037 A 
ATOM     55  C   UNL A   1      38.454  30.750  31.977  1.00  0.00     0.037 A 
ATOM     56  C   UNL A   1      44.810  29.549  29.476  1.00  0.00     0.049 A 
ATOM     57  C   UNL A   1      39.788  31.375  32.208  1.00  0.00     0.074 A 
ATOM     58  C   UNL A   1      45.290  28.406  30.085  1.00  0.00     0.029 A 
ATOM     59  N   UNL A   1      44.164  30.274  30.448  1.00  0.00    -0.354 N 
ATOM     60  N   UNL A   1      40.675  30.842  33.007  1.00  0.00    -0.248 NA
ATOM     61  C   UNL A   1      40.318  32.170  31.109  1.00  0.00     0.031 C 
ATOM     62  C   UNL A   1      44.532  28.282  31.284  1.00  0.00     0.029 A 
ATOM     63  C   UNL A   1      43.761  29.432  31.449  1.00  0.00     0.049 A 
ATOM     64  H   UNL A   1      44.015  31.247  30.428  1.00  0.00     0.167 HD
ATOM     65  C   UNL A   1      41.827  30.788  32.235  1.00  0.00     0.074 A 
ATOM     66  C   UNL A   1      41.547  31.643  31.075  1.00  0.00     0.031 C 
ATOM     67  C   UNL A   1      42.745  29.790  32.411  1.00  0.00     0.037 A 
BRANCH  54  68
ATOM     68  C   UNL A   1      44.746  31.319  27.609  1.00  0.00     0.058 A 
ATOM     69  C   UNL A   1      45.973  31.570  26.954  1.00  0.00     0.135 A 
ATOM     70  C   UNL A   1      44.010  32.467  27.973  1.00  0.00     0.135 A 
ATOM     71  F   UNL A   1      46.761  30.556  26.565  1.00  0.00    -0.206 F 
ATOM     72  C   UNL A   1      46.462  32.856  26.744  1.00  0.00     0.059 A 
ATOM     73  C   UNL A   1      44.460  33.763  27.729  1.00  0.00     0.059 A 
ATOM     74  F   UNL A   1      42.856  32.400  28.646  1.00  0.00    -0.206 F 
ATOM     75  C   UNL A   1      45.696  33.948  27.132  1.00  0.00     0.060 A 
BRANCH  75  76
ATOM     76  S   UNL A   1      46.325  35.604  26.820  1.00  0.00     0.124 S 
ATOM     77  O   UNL A   1      47.178  35.823  27.982  1.00  0.00    -0.237 OA
ATOM     78  O   UNL A   1      47.013  35.421  25.546  1.00  0.00    -0.237 OA
ATOM     79  O   UNL A   1      45.115  36.418  26.759  1.00  0.00    -0.744 OA
ENDBRANCH  75  76
ENDBRANCH  54  68
BRANCH  55  80
ATOM     80  C   UNL A   1      37.188  31.555  32.150  1.00  0.00     0.058 A 
ATOM     81  C   UNL A   1      36.753  32.096  33.391  1.00  0.00     0.135 A 
ATOM     82  C   UNL A   1      36.539  32.083  31.022  1.00  0.00     0.135 A 
ATOM     83  F   UNL A   1      37.303  31.676  34.542  1.00  0.00    -0.206 F 
ATOM     84  C   UNL A   1      35.791  33.129  33.487  1.00  0.00     0.059 A 
ATOM     85  C   UNL A   1      35.590  33.109  31.093  1.00  0.00     0.059 A 
ATOM     86  F   UNL A   1      36.880  31.681  29.791  1.00  0.00    -0.206 F 
ATOM     87  C   UNL A   1      35.237  33.653  32.321  1.00  0.00     0.060 A 
BRANCH  87  88
ATOM     88  S   UNL A   1      34.166  35.123  32.369  1.00  0.00     0.124 S 
ATOM     89  O   UNL A   1      32.947  34.602  32.976  1.00  0.00    -0.237 OA
ATOM     90  O   UNL A   1      34.939  36.051  33.187  1.00  0.00    -0.237 OA
ATOM     91  O   UNL A   1      34.046  35.497  30.961  1.00  0.00    -0.744 OA
ENDBRANCH  87  88
ENDBRANCH  55  80
BRANCH  67  92
ATOM     92  C   UNL A   1      42.648  28.909  33.630  1.00  0.00     0.058 A 
ATOM     93  C   UNL A   1      41.776  27.816  33.792  1.00  0.00     0.135 A 
ATOM     94  C   UNL A   1      43.620  29.099  34.623  1.00  0.00     0.135 A 
ATOM     95  F   UNL A   1      40.904  27.482  32.830  1.00  0.00    -0.206 F 
ATOM     96  C   UNL A   1      41.826  26.998  34.926  1.00  0.00     0.059 A 
ATOM     97  C   UNL A   1      43.713  28.279  35.737  1.00  0.00     0.059 A 
ATOM     98  F   UNL A   1      44.537  30.071  34.487  1.00  0.00    -0.206 F 
ATOM     99  C   UNL A   1      42.792  27.249  35.901  1.00  0.00     0.060 A 
BRANCH  99 100
ATOM    100  S   UNL A   1      42.852  26.228  37.389  1.00  0.00     0.124 S 
ATOM    101  O   UNL A   1      41.468  26.274  37.845  1.00  0.00    -0.237 OA
ATOM    102  O   UNL A   1      43.310  24.941  36.872  1.00  0.00    -0.237 OA
ATOM    103  O   UNL A   1      43.812  26.926  38.242  1.00  0.00    -0.744 OA
ENDBRANCH  99 100
ENDBRANCH  67  92
ENDBRANCH  41  42
ENDBRANCH  33  36
ENDBRANCH  31  32
ENDBRANCH   1  31
TORSDOF 16
ENDMDL
MODEL 3
REMARK VINA RESULT:     -13.9      2.504      3.540
REMARK SMILES O=C1C[C@H](c2cn[nH]c2C(=O)NCCCCNC(=O)c2ccc(-c3c4nc(c(-c5c(F)cc(S(=O)(=O)[O-])cc5F)c5ccc([nH]5)c(-c5c(F)cc(S(=O)(=O)[O-])cc5F)c5nc(c(-c6c(F)cc(S(=O)(=O)[O-])cc6F)c6ccc3[nH]6)C=C5)C=C4)cc2)c2c(-c3cccs3)n[nH]c2N1
REMARK SMILES IDX 15 1 14 2 13 3 12 4 10 5 11 6 9 8 5 9 6 10 7 11 8 12 4 14
REMARK SMILES IDX 1 15 2 16 3 17 96 18 95 19 86 21 94 22 87 23 93 24 88 26
REMARK SMILES IDX 89 27 92 28 90 29 91 30 16 31 17 32 18 33 19 35 20 36 21 37
REMARK SMILES IDX 85 38 22 39 84 40 23 41 24 42 25 43 78 44 26 45 83 46 77 47
REMARK SMILES IDX 79 48 27 49 82 50 76 51 75 52 28 54 62 55 41 56 61 57 42 58
REMARK SMILES IDX 45 59 60 60 80 61 43 62 44 63 59 65 81 66 46 67 29 68 30 69
REMARK SMILES IDX 39 70 31 71 32 72 38 73 40 74 33 75 34 76 35 77 36 78 37 79
REMARK SMILES IDX 63 80 64 81 73 82 65 83 66 84 72 85 74 86 67 87 68 88 69 89
REMARK SMILES IDX 70 90 71 91 47 92 48 93 57 94 49 95 50 96 56 97 58 98 51 99
REMARK SMILES IDX 52 100 53 101 54 102 55 103
REMARK H PARENT 12 7 8 13 96 20 94 25 17 34 79 53 45 64
REMARK Flexibility Score: inf
ROOT
ATOM      1  C   UNL A   1      36.080  22.934  25.959  1.00  0.00     0.023 C 
ENDROOT
BRANCH   1   2
ATOM      2  C   UNL A   1      35.152  23.568  24.919  1.00  0.00     0.023 C 
BRANCH   2   3
ATOM      3  C   UNL A   1      34.387  25.119  25.330  1.00  0.00     0.116 C 
BRANCH   3   4
ATOM      4  N   UNL A   1      34.300  26.916  24.097  1.00  0.00    -0.351 N 
ATOM      5  C   UNL A   1      33.781  28.131  23.595  1.00  0.00     0.269 C 
ATOM      6  O   UNL A   1      34.424  28.646  22.677  1.00  0.00    -0.268 OA
ATOM      7  H   UNL A   1      35.125  26.827  23.569  1.00  0.00     0.163 HD
BRANCH   5   8
ATOM      8  C   UNL A   1      32.611  28.795  24.121  1.00  0.00     0.126 A 
ATOM      9  C   UNL A   1      31.295  28.833  23.693  1.00  0.00     0.011 A 
ATOM     10  C   UNL A   1      30.616  29.574  24.678  1.00  0.00     0.140 A 
ATOM     11  N   UNL A   1      31.434  30.014  25.636  1.00  0.00    -0.183 NA
ATOM     12  N   UNL A   1      32.631  29.503  25.290  1.00  0.00    -0.273 N 
ATOM     13  H   UNL A   1      33.445  29.628  25.830  1.00  0.00     0.190 HD
BRANCH   9  14
ATOM     14  C   UNL A   1      30.783  28.172  22.464  1.00  0.00     0.069 C 
ATOM     15  O   UNL A   1      31.599  24.453  22.765  1.00  0.00    -0.275 OA
ATOM     16  C   UNL A   1      31.004  25.516  22.973  1.00  0.00     0.226 C 
ATOM     17  C   UNL A   1      31.452  26.799  22.212  1.00  0.00     0.114 C 
ATOM     18  N   UNL A   1      29.911  25.486  23.804  1.00  0.00    -0.311 N 
ATOM     19  C   UNL A   1      29.011  26.500  23.691  1.00  0.00     0.132 A 
ATOM     20  H   UNL A   1      29.785  24.759  24.457  1.00  0.00     0.171 HD
ATOM     21  C   UNL A   1      29.363  27.935  22.730  1.00  0.00     0.031 A 
ATOM     22  N   UNL A   1      27.264  26.638  24.305  1.00  0.00    -0.262 N 
ATOM     23  C   UNL A   1      27.774  29.065  22.739  1.00  0.00     0.108 A 
ATOM     24  N   UNL A   1      26.518  28.261  23.690  1.00  0.00    -0.173 NA
ATOM     25  H   UNL A   1      26.801  25.972  24.862  1.00  0.00     0.192 HD
BRANCH  23  26
ATOM     26  C   UNL A   1      27.859  30.519  22.415  1.00  0.00     0.055 A 
ATOM     27  C   UNL A   1      27.939  31.513  23.362  1.00  0.00     0.022 A 
ATOM     28  S   UNL A   1      28.054  31.109  20.830  1.00  0.00    -0.142 S 
ATOM     29  C   UNL A   1      28.217  32.783  22.767  1.00  0.00     0.012 A 
ATOM     30  C   UNL A   1      28.241  32.716  21.391  1.00  0.00     0.065 A 
ENDBRANCH  23  26
ENDBRANCH   9  14
ENDBRANCH   5   8
ENDBRANCH   3   4
ENDBRANCH   2   3
ENDBRANCH   1   2
BRANCH   1  31
ATOM     31  C   UNL A   1      37.548  23.037  25.630  1.00  0.00     0.116 C 
BRANCH  31  32
ATOM     32  N   UNL A   1      38.333  22.120  26.449  1.00  0.00    -0.352 N 
ATOM     33  C   UNL A   1      39.631  22.340  26.854  1.00  0.00     0.251 C 
ATOM     34  H   UNL A   1      37.903  21.281  26.733  1.00  0.00     0.163 HD
ATOM     35  O   UNL A   1      40.404  21.413  27.060  1.00  0.00    -0.269 OA
BRANCH  33  36
ATOM     36  C   UNL A   1      39.993  23.740  27.127  1.00  0.00     0.039 A 
ATOM     37  C   UNL A   1      39.161  24.816  26.835  1.00  0.00     0.014 A 
ATOM     38  C   UNL A   1      41.208  23.925  27.790  1.00  0.00     0.014 A 
ATOM     39  C   UNL A   1      39.608  26.097  27.170  1.00  0.00     0.010 A 
ATOM     40  C   UNL A   1      41.521  25.148  28.311  1.00  0.00     0.010 A 
ATOM     41  C   UNL A   1      40.820  26.258  27.879  1.00  0.00    -0.014 A 
BRANCH  41  42
ATOM     42  C   UNL A   1      41.233  27.520  28.497  1.00  0.00     0.031 A 
ATOM     43  C   UNL A   1      42.456  28.002  27.796  1.00  0.00     0.074 A 
ATOM     44  C   UNL A   1      40.508  28.200  29.433  1.00  0.00     0.049 A 
ATOM     45  N   UNL A   1      43.663  27.792  28.204  1.00  0.00    -0.248 NA
ATOM     46  C   UNL A   1      42.411  28.414  26.374  1.00  0.00     0.031 C 
ATOM     47  C   UNL A   1      39.211  27.848  30.035  1.00  0.00     0.029 A 
ATOM     48  N   UNL A   1      40.771  29.407  30.052  1.00  0.00    -0.354 N 
ATOM     49  C   UNL A   1      44.479  28.440  27.289  1.00  0.00     0.074 A 
ATOM     50  C   UNL A   1      43.714  28.514  26.080  1.00  0.00     0.031 C 
ATOM     51  C   UNL A   1      38.699  28.906  30.720  1.00  0.00     0.029 A 
ATOM     52  C   UNL A   1      39.667  29.988  30.738  1.00  0.00     0.049 A 
ATOM     53  H   UNL A   1      41.657  29.834  30.020  1.00  0.00     0.167 HD
ATOM     54  C   UNL A   1      45.527  29.175  27.755  1.00  0.00     0.037 A 
ATOM     55  C   UNL A   1      39.603  31.236  31.319  1.00  0.00     0.037 A 
ATOM     56  C   UNL A   1      45.747  28.860  29.151  1.00  0.00     0.049 A 
ATOM     57  C   UNL A   1      41.014  31.654  31.559  1.00  0.00     0.074 A 
ATOM     58  C   UNL A   1      46.019  27.702  29.853  1.00  0.00     0.029 A 
ATOM     59  N   UNL A   1      45.201  29.746  30.048  1.00  0.00    -0.354 N 
ATOM     60  N   UNL A   1      41.780  31.046  32.426  1.00  0.00    -0.248 NA
ATOM     61  C   UNL A   1      41.695  32.274  30.431  1.00  0.00     0.031 C 
ATOM     62  C   UNL A   1      45.218  27.787  31.028  1.00  0.00     0.029 A 
ATOM     63  C   UNL A   1      44.639  29.053  31.085  1.00  0.00     0.049 A 
ATOM     64  H   UNL A   1      45.211  30.727  29.957  1.00  0.00     0.167 HD
ATOM     65  C   UNL A   1      42.929  30.753  31.705  1.00  0.00     0.074 A 
ATOM     66  C   UNL A   1      42.824  31.557  30.480  1.00  0.00     0.031 C 
ATOM     67  C   UNL A   1      43.668  29.637  31.981  1.00  0.00     0.037 A 
BRANCH  54  68
ATOM     68  C   UNL A   1      46.022  30.478  27.170  1.00  0.00     0.058 A 
ATOM     69  C   UNL A   1      47.417  30.652  27.030  1.00  0.00     0.135 A 
ATOM     70  C   UNL A   1      45.249  31.649  27.010  1.00  0.00     0.135 A 
ATOM     71  F   UNL A   1      48.253  29.610  27.166  1.00  0.00    -0.206 F 
ATOM     72  C   UNL A   1      48.002  31.898  26.822  1.00  0.00     0.059 A 
ATOM     73  C   UNL A   1      45.812  32.897  26.753  1.00  0.00     0.059 A 
ATOM     74  F   UNL A   1      43.921  31.662  27.164  1.00  0.00    -0.206 F 
ATOM     75  C   UNL A   1      47.190  33.015  26.681  1.00  0.00     0.060 A 
BRANCH  75  76
ATOM     76  S   UNL A   1      47.959  34.613  26.374  1.00  0.00     0.124 S 
ATOM     77  O   UNL A   1      46.827  35.403  25.903  1.00  0.00    -0.237 OA
ATOM     78  O   UNL A   1      48.468  34.952  27.699  1.00  0.00    -0.237 OA
ATOM     79  O   UNL A   1      48.980  34.309  25.376  1.00  0.00    -0.744 OA
ENDBRANCH  75  76
ENDBRANCH  54  68
BRANCH  55  80
ATOM     80  C   UNL A   1      38.479  32.243  31.389  1.00  0.00     0.058 A 
ATOM     81  C   UNL A   1      37.652  32.590  30.286  1.00  0.00     0.135 A 
ATOM     82  C   UNL A   1      37.989  32.652  32.640  1.00  0.00     0.135 A 
ATOM     83  F   UNL A   1      38.010  32.248  29.038  1.00  0.00    -0.206 F 
ATOM     84  C   UNL A   1      36.403  33.237  30.433  1.00  0.00     0.059 A 
ATOM     85  C   UNL A   1      36.754  33.287  32.810  1.00  0.00     0.059 A 
ATOM     86  F   UNL A   1      38.658  32.357  33.762  1.00  0.00    -0.206 F 
ATOM     87  C   UNL A   1      35.946  33.554  31.711  1.00  0.00     0.060 A 
BRANCH  87  88
ATOM     88  S   UNL A   1      34.260  34.183  31.977  1.00  0.00     0.124 S 
ATOM     89  O   UNL A   1      34.505  35.478  32.601  1.00  0.00    -0.237 OA
ATOM     90  O   UNL A   1      33.719  34.221  30.622  1.00  0.00    -0.237 OA
ATOM     91  O   UNL A   1      33.661  33.178  32.851  1.00  0.00    -0.744 OA
ENDBRANCH  87  88
ENDBRANCH  55  80
BRANCH  67  92
ATOM     92  C   UNL A   1      43.397  28.873  33.252  1.00  0.00     0.058 A 
ATOM     93  C   UNL A   1      43.815  29.245  34.544  1.00  0.00     0.135 A 
ATOM     94  C   UNL A   1      42.519  27.784  33.156  1.00  0.00     0.135 A 
ATOM     95  F   UNL A   1      44.546  30.351  34.740  1.00  0.00    -0.206 F 
ATOM     96  C   UNL A   1      43.432  28.519  35.677  1.00  0.00     0.059 A 
ATOM     97  C   UNL A   1      42.096  27.072  34.270  1.00  0.00     0.059 A 
ATOM     98  F   UNL A   1      42.016  27.430  31.963  1.00  0.00    -0.206 F 
ATOM     99  C   UNL A   1      42.582  27.422  35.525  1.00  0.00     0.060 A 
BRANCH  99 100
ATOM    100  S   UNL A   1      42.104  26.450  36.969  1.00  0.00     0.124 S 
ATOM    101  O   UNL A   1      40.819  27.043  37.322  1.00  0.00    -0.237 OA
ATOM    102  O   UNL A   1      42.052  25.092  36.434  1.00  0.00    -0.237 OA
ATOM    103  O   UNL A   1      43.186  26.697  37.919  1.00  0.00    -0.744 OA
ENDBRANCH  99 100
ENDBRANCH  67  92
ENDBRANCH  41  42
ENDBRANCH  33  36
ENDBRANCH  31  32
ENDBRANCH   1  31
TORSDOF 16
ENDMDL
