MODEL 1
REMARK VINA RESULT:     -11.0      0.000      0.000
REMARK SMILES O=C(CNS(=O)(=O)c1ccccc1)N[C@@H](CO)C(=O)NCCCCNC(=O)c1ccc(-c2c3nc(c(-c4c(F)cc(S(=O)(=O)[O-])cc4F)c4ccc([nH]4)c(-c4c(F)cc(S(=O)(=O)[O-])cc4F)c4nc(c(-c5c(F)cc(S(=O)(=O)[O-])cc5F)c5ccc2[nH]5)C=C4)C=C3)cc1
REMARK SMILES IDX 21 1 20 2 18 3 19 4 15 6 14 7 1 8 2 9 3 11 4 12 5 14 6 15
REMARK SMILES IDX 7 16 8 17 9 18 13 19 10 20 12 21 11 22 16 23 17 24 22 26
REMARK SMILES IDX 23 27 24 28 25 29 26 30 27 32 28 33 29 34 93 35 30 36 92 37
REMARK SMILES IDX 31 38 32 39 33 40 86 41 34 42 91 43 85 44 87 45 35 46 90 47
REMARK SMILES IDX 84 48 83 49 36 51 70 52 49 53 69 54 50 55 53 56 68 57 88 58
REMARK SMILES IDX 51 59 52 60 67 62 89 63 54 64 37 65 38 66 47 67 39 68 40 69
REMARK SMILES IDX 46 70 48 71 41 72 42 73 43 74 44 75 45 76 71 77 72 78 81 79
REMARK SMILES IDX 73 80 74 81 80 82 82 83 75 84 76 85 77 86 78 87 79 88 55 89
REMARK SMILES IDX 56 90 65 91 57 92 58 93 64 94 66 95 59 96 60 97 61 98 62 99
REMARK SMILES IDX 63 100
REMARK H PARENT 20 5 14 10 4 13 17 25 25 31 87 50 53 61
REMARK Flexibility Score: inf
ROOT
ATOM      1  C   UNL A   1      32.788  29.606  25.545  1.00  0.00     0.116 C 
ENDROOT
BRANCH   1   2
ATOM      2  N   UNL A   1      31.773  28.574  25.483  1.00  0.00    -0.354 N 
ATOM      3  C   UNL A   1      31.253  27.901  24.421  1.00  0.00     0.244 C 
ATOM      4  O   UNL A   1      30.592  26.886  24.667  1.00  0.00    -0.273 OA
ATOM      5  H   UNL A   1      31.397  28.316  26.356  1.00  0.00     0.163 HD
BRANCH   3   6
ATOM      6  C   UNL A   1      31.529  28.307  22.964  1.00  0.00     0.197 C 
BRANCH   6   7
ATOM      7  N   UNL A   1      31.490  27.177  22.033  1.00  0.00    -0.341 N 
ATOM      8  O   UNL A   1      33.764  26.995  21.846  1.00  0.00    -0.274 OA
ATOM      9  C   UNL A   1      32.642  26.554  21.610  1.00  0.00     0.235 C 
ATOM     10  H   UNL A   1      30.621  26.855  21.703  1.00  0.00     0.164 HD
BRANCH   9  11
ATOM     11  C   UNL A   1      32.425  25.307  20.765  1.00  0.00     0.198 C 
BRANCH  11  12
ATOM     12  N   UNL A   1      33.298  24.189  21.189  1.00  0.00    -0.202 NA
ATOM     13  H   UNL A   1      34.247  24.550  21.293  1.00  0.00     0.141 HD
BRANCH  12  14
ATOM     14  S   UNL A   1      32.852  23.447  22.650  1.00  0.00     0.241 S 
ATOM     15  O   UNL A   1      31.834  24.275  23.257  1.00  0.00    -0.207 OA
ATOM     16  O   UNL A   1      32.625  22.054  22.345  1.00  0.00    -0.207 OA
BRANCH  14  17
ATOM     17  C   UNL A   1      34.342  23.570  23.598  1.00  0.00     0.082 A 
ATOM     18  C   UNL A   1      35.540  23.076  23.072  1.00  0.00     0.022 A 
ATOM     19  C   UNL A   1      34.295  24.137  24.873  1.00  0.00     0.022 A 
ATOM     20  C   UNL A   1      36.698  23.125  23.849  1.00  0.00     0.001 A 
ATOM     21  C   UNL A   1      35.457  24.182  25.642  1.00  0.00     0.001 A 
ATOM     22  C   UNL A   1      36.653  23.671  25.133  1.00  0.00     0.000 A 
ENDBRANCH  14  17
ENDBRANCH  12  14
ENDBRANCH  11  12
ENDBRANCH   9  11
ENDBRANCH   6   7
BRANCH   6  23
ATOM     23  C   UNL A   1      30.685  29.518  22.533  1.00  0.00     0.191 C 
BRANCH  23  24
ATOM     24  O   UNL A   1      29.664  29.870  23.466  1.00  0.00    -0.394 OA
ATOM     25  H   UNL A   1      28.795  29.704  23.070  1.00  0.00     0.210 HD
ENDBRANCH  23  24
ENDBRANCH   6  23
ENDBRANCH   3   6
ENDBRANCH   1   2
BRANCH   1  26
ATOM     26  C   UNL A   1      33.279  29.844  26.969  1.00  0.00     0.023 C 
BRANCH  26  27
ATOM     27  C   UNL A   1      34.760  29.544  27.199  1.00  0.00     0.023 C 
BRANCH  27  28
ATOM     28  C   UNL A   1      35.550  30.643  27.904  1.00  0.00     0.116 C 
BRANCH  28  29
ATOM     29  N   UNL A   1      35.388  30.623  29.350  1.00  0.00    -0.352 N 
ATOM     30  C   UNL A   1      36.317  30.346  30.325  1.00  0.00     0.251 C 
ATOM     31  H   UNL A   1      34.484  30.837  29.676  1.00  0.00     0.163 HD
ATOM     32  O   UNL A   1      35.962  30.240  31.496  1.00  0.00    -0.269 OA
BRANCH  30  33
ATOM     33  C   UNL A   1      37.733  30.147  29.952  1.00  0.00     0.039 A 
ATOM     34  C   UNL A   1      38.671  29.904  30.958  1.00  0.00     0.014 A 
ATOM     35  C   UNL A   1      38.127  30.167  28.611  1.00  0.00     0.014 A 
ATOM     36  C   UNL A   1      39.990  29.601  30.612  1.00  0.00     0.010 A 
ATOM     37  C   UNL A   1      39.422  29.792  28.266  1.00  0.00     0.010 A 
ATOM     38  C   UNL A   1      40.366  29.501  29.262  1.00  0.00    -0.014 A 
BRANCH  38  39
ATOM     39  C   UNL A   1      41.736  29.079  28.871  1.00  0.00     0.031 A 
ATOM     40  C   UNL A   1      42.853  30.087  28.828  1.00  0.00     0.074 A 
ATOM     41  C   UNL A   1      41.957  27.809  28.481  1.00  0.00     0.049 A 
ATOM     42  N   UNL A   1      44.092  29.929  28.440  1.00  0.00    -0.248 NA
ATOM     43  C   UNL A   1      42.527  31.457  29.253  1.00  0.00     0.031 C 
ATOM     44  C   UNL A   1      40.943  26.751  28.423  1.00  0.00     0.029 A 
ATOM     45  N   UNL A   1      43.102  27.189  28.046  1.00  0.00    -0.354 N 
ATOM     46  C   UNL A   1      44.687  31.179  28.555  1.00  0.00     0.074 A 
ATOM     47  C   UNL A   1      43.660  32.096  29.000  1.00  0.00     0.031 C 
ATOM     48  C   UNL A   1      41.516  25.613  28.001  1.00  0.00     0.029 A 
ATOM     49  C   UNL A   1      42.927  25.864  27.722  1.00  0.00     0.049 A 
ATOM     50  H   UNL A   1      43.969  27.651  27.974  1.00  0.00     0.167 HD
ATOM     51  C   UNL A   1      45.977  31.528  28.334  1.00  0.00     0.037 A 
ATOM     52  C   UNL A   1      43.801  24.956  27.247  1.00  0.00     0.037 A 
ATOM     53  C   UNL A   1      47.002  30.606  27.919  1.00  0.00     0.049 A 
ATOM     54  C   UNL A   1      45.230  25.363  27.017  1.00  0.00     0.074 A 
ATOM     55  C   UNL A   1      48.352  30.846  27.733  1.00  0.00     0.029 A 
ATOM     56  N   UNL A   1      46.790  29.266  27.626  1.00  0.00    -0.354 N 
ATOM     57  N   UNL A   1      45.792  26.536  27.197  1.00  0.00    -0.248 NA
ATOM     58  C   UNL A   1      46.148  24.326  26.526  1.00  0.00     0.031 C 
ATOM     59  C   UNL A   1      48.949  29.662  27.288  1.00  0.00     0.029 A 
ATOM     60  C   UNL A   1      47.981  28.672  27.241  1.00  0.00     0.049 A 
ATOM     61  H   UNL A   1      45.923  28.805  27.683  1.00  0.00     0.167 HD
ATOM     62  C   UNL A   1      47.132  26.371  26.862  1.00  0.00     0.074 A 
ATOM     63  C   UNL A   1      47.299  24.984  26.483  1.00  0.00     0.031 C 
ATOM     64  C   UNL A   1      48.132  27.287  26.869  1.00  0.00     0.037 A 
BRANCH  51  65
ATOM     65  C   UNL A   1      46.353  32.969  28.545  1.00  0.00     0.058 A 
ATOM     66  C   UNL A   1      46.291  33.906  27.501  1.00  0.00     0.135 A 
ATOM     67  C   UNL A   1      46.754  33.426  29.810  1.00  0.00     0.135 A 
ATOM     68  F   UNL A   1      45.927  33.522  26.267  1.00  0.00    -0.206 F 
ATOM     69  C   UNL A   1      46.647  35.237  27.695  1.00  0.00     0.059 A 
ATOM     70  C   UNL A   1      47.089  34.758  30.034  1.00  0.00     0.059 A 
ATOM     71  F   UNL A   1      46.831  32.573  30.843  1.00  0.00    -0.206 F 
ATOM     72  C   UNL A   1      47.048  35.653  28.965  1.00  0.00     0.060 A 
BRANCH  72  73
ATOM     73  S   UNL A   1      47.512  37.382  29.199  1.00  0.00     0.124 S 
ATOM     74  O   UNL A   1      47.711  37.435  30.644  1.00  0.00    -0.237 OA
ATOM     75  O   UNL A   1      48.720  37.494  28.389  1.00  0.00    -0.237 OA
ATOM     76  O   UNL A   1      46.354  38.115  28.697  1.00  0.00    -0.744 OA
ENDBRANCH  72  73
ENDBRANCH  51  65
BRANCH  52  77
ATOM     77  C   UNL A   1      43.352  23.563  26.980  1.00  0.00     0.058 A 
ATOM     78  C   UNL A   1      43.091  23.130  25.672  1.00  0.00     0.135 A 
ATOM     79  C   UNL A   1      43.191  22.636  28.021  1.00  0.00     0.135 A 
ATOM     80  F   UNL A   1      43.225  23.982  24.644  1.00  0.00    -0.206 F 
ATOM     81  C   UNL A   1      42.675  21.830  25.404  1.00  0.00     0.059 A 
ATOM     82  C   UNL A   1      42.799  21.323  27.776  1.00  0.00     0.059 A 
ATOM     83  F   UNL A   1      43.443  22.997  29.289  1.00  0.00    -0.206 F 
ATOM     84  C   UNL A   1      42.534  20.933  26.464  1.00  0.00     0.060 A 
BRANCH  84  85
ATOM     85  S   UNL A   1      42.046  19.232  26.099  1.00  0.00     0.124 S 
ATOM     86  O   UNL A   1      40.620  19.386  25.837  1.00  0.00    -0.237 OA
ATOM     87  O   UNL A   1      42.877  18.916  24.942  1.00  0.00    -0.237 OA
ATOM     88  O   UNL A   1      42.390  18.515  27.323  1.00  0.00    -0.744 OA
ENDBRANCH  84  85
ENDBRANCH  52  77
BRANCH  64  89
ATOM     89  C   UNL A   1      49.504  26.814  26.479  1.00  0.00     0.058 A 
ATOM     90  C   UNL A   1      50.353  26.175  27.397  1.00  0.00     0.135 A 
ATOM     91  C   UNL A   1      49.955  26.956  25.156  1.00  0.00     0.135 A 
ATOM     92  F   UNL A   1      49.971  26.022  28.675  1.00  0.00    -0.206 F 
ATOM     93  C   UNL A   1      51.609  25.712  27.023  1.00  0.00     0.059 A 
ATOM     94  C   UNL A   1      51.198  26.476  24.754  1.00  0.00     0.059 A 
ATOM     95  F   UNL A   1      49.179  27.550  24.237  1.00  0.00    -0.206 F 
ATOM     96  C   UNL A   1      52.022  25.865  25.698  1.00  0.00     0.060 A 
BRANCH  96  97
ATOM     97  S   UNL A   1      53.641  25.226  25.216  1.00  0.00     0.124 S 
ATOM     98  O   UNL A   1      53.446  23.788  25.367  1.00  0.00    -0.237 OA
ATOM     99  O   UNL A   1      53.771  25.706  23.843  1.00  0.00    -0.237 OA
ATOM    100  O   UNL A   1      54.549  25.842  26.178  1.00  0.00    -0.744 OA
ENDBRANCH  96  97
ENDBRANCH  64  89
ENDBRANCH  38  39
ENDBRANCH  30  33
ENDBRANCH  28  29
ENDBRANCH  27  28
ENDBRANCH  26  27
ENDBRANCH   1  26
TORSDOF 21
ENDMDL
MODEL 2
REMARK VINA RESULT:     -11.0      6.106      8.225
REMARK SMILES O=C(CNS(=O)(=O)c1ccccc1)N[C@@H](CO)C(=O)NCCCCNC(=O)c1ccc(-c2c3nc(c(-c4c(F)cc(S(=O)(=O)[O-])cc4F)c4ccc([nH]4)c(-c4c(F)cc(S(=O)(=O)[O-])cc4F)c4nc(c(-c5c(F)cc(S(=O)(=O)[O-])cc5F)c5ccc2[nH]5)C=C4)C=C3)cc1
REMARK SMILES IDX 21 1 20 2 18 3 19 4 15 6 14 7 1 8 2 9 3 11 4 12 5 14 6 15
REMARK SMILES IDX 7 16 8 17 9 18 13 19 10 20 12 21 11 22 16 23 17 24 22 26
REMARK SMILES IDX 23 27 24 28 25 29 26 30 27 32 28 33 29 34 93 35 30 36 92 37
REMARK SMILES IDX 31 38 32 39 33 40 86 41 34 42 91 43 85 44 87 45 35 46 90 47
REMARK SMILES IDX 84 48 83 49 36 51 70 52 49 53 69 54 50 55 53 56 68 57 88 58
REMARK SMILES IDX 51 59 52 60 67 62 89 63 54 64 37 65 38 66 47 67 39 68 40 69
REMARK SMILES IDX 46 70 48 71 41 72 42 73 43 74 44 75 45 76 71 77 72 78 81 79
REMARK SMILES IDX 73 80 74 81 80 82 82 83 75 84 76 85 77 86 78 87 79 88 55 89
REMARK SMILES IDX 56 90 65 91 57 92 58 93 64 94 66 95 59 96 60 97 61 98 62 99
REMARK SMILES IDX 63 100
REMARK H PARENT 20 5 14 10 4 13 17 25 25 31 87 50 53 61
REMARK Flexibility Score: inf
ROOT
ATOM      1  C   UNL A   1      32.314  29.787  25.698  1.00  0.00     0.116 C 
ENDROOT
BRANCH   1   2
ATOM      2  N   UNL A   1      31.401  28.667  25.578  1.00  0.00    -0.354 N 
ATOM      3  C   UNL A   1      30.969  27.987  24.481  1.00  0.00     0.244 C 
ATOM      4  O   UNL A   1      30.401  26.907  24.676  1.00  0.00    -0.273 OA
ATOM      5  H   UNL A   1      31.033  28.345  26.432  1.00  0.00     0.163 HD
BRANCH   3   6
ATOM      6  C   UNL A   1      31.237  28.469  23.046  1.00  0.00     0.197 C 
BRANCH   6   7
ATOM      7  N   UNL A   1      31.323  27.373  22.076  1.00  0.00    -0.341 N 
ATOM      8  O   UNL A   1      33.603  27.208  22.165  1.00  0.00    -0.274 OA
ATOM      9  C   UNL A   1      32.523  26.771  21.776  1.00  0.00     0.235 C 
ATOM     10  H   UNL A   1      30.503  27.061  21.630  1.00  0.00     0.164 HD
BRANCH   9  11
ATOM     11  C   UNL A   1      32.422  25.556  20.867  1.00  0.00     0.198 C 
BRANCH  11  12
ATOM     12  N   UNL A   1      33.365  24.485  21.263  1.00  0.00    -0.202 NA
ATOM     13  H   UNL A   1      34.260  24.919  21.490  1.00  0.00     0.141 HD
BRANCH  12  14
ATOM     14  S   UNL A   1      32.874  23.556  22.596  1.00  0.00     0.241 S 
ATOM     15  O   UNL A   1      31.809  24.279  23.254  1.00  0.00    -0.207 OA
ATOM     16  O   UNL A   1      32.696  22.208  22.109  1.00  0.00    -0.207 OA
BRANCH  14  17
ATOM     17  C   UNL A   1      34.316  23.587  23.622  1.00  0.00     0.082 A 
ATOM     18  C   UNL A   1      34.305  24.322  24.811  1.00  0.00     0.022 A 
ATOM     19  C   UNL A   1      35.459  22.895  23.214  1.00  0.00     0.022 A 
ATOM     20  C   UNL A   1      35.463  24.388  25.584  1.00  0.00     0.001 A 
ATOM     21  C   UNL A   1      36.612  22.967  23.993  1.00  0.00     0.001 A 
ATOM     22  C   UNL A   1      36.616  23.717  25.171  1.00  0.00     0.000 A 
ENDBRANCH  14  17
ENDBRANCH  12  14
ENDBRANCH  11  12
ENDBRANCH   9  11
ENDBRANCH   6   7
BRANCH   6  23
ATOM     23  C   UNL A   1      30.293  29.611  22.635  1.00  0.00     0.191 C 
BRANCH  23  24
ATOM     24  O   UNL A   1      30.301  29.890  21.236  1.00  0.00    -0.394 OA
ATOM     25  H   UNL A   1      30.414  30.843  21.097  1.00  0.00     0.210 HD
ENDBRANCH  23  24
ENDBRANCH   6  23
ENDBRANCH   3   6
ENDBRANCH   1   2
BRANCH   1  26
ATOM     26  C   UNL A   1      32.144  30.527  27.021  1.00  0.00     0.023 C 
BRANCH  26  27
ATOM     27  C   UNL A   1      31.952  32.038  26.893  1.00  0.00     0.023 C 
BRANCH  27  28
ATOM     28  C   UNL A   1      33.134  32.889  27.348  1.00  0.00     0.116 C 
BRANCH  28  29
ATOM     29  N   UNL A   1      32.744  34.223  27.778  1.00  0.00    -0.352 N 
ATOM     30  C   UNL A   1      33.190  34.956  28.853  1.00  0.00     0.251 C 
ATOM     31  H   UNL A   1      32.064  34.664  27.220  1.00  0.00     0.163 HD
ATOM     32  O   UNL A   1      32.641  36.015  29.141  1.00  0.00    -0.269 OA
BRANCH  30  33
ATOM     33  C   UNL A   1      34.307  34.444  29.674  1.00  0.00     0.039 A 
ATOM     34  C   UNL A   1      34.019  33.753  30.854  1.00  0.00     0.014 A 
ATOM     35  C   UNL A   1      35.631  34.618  29.265  1.00  0.00     0.014 A 
ATOM     36  C   UNL A   1      35.058  33.166  31.580  1.00  0.00     0.010 A 
ATOM     37  C   UNL A   1      36.656  33.969  29.948  1.00  0.00     0.010 A 
ATOM     38  C   UNL A   1      36.380  33.233  31.110  1.00  0.00    -0.014 A 
BRANCH  38  39
ATOM     39  C   UNL A   1      37.486  32.529  31.810  1.00  0.00     0.031 A 
ATOM     40  C   UNL A   1      37.985  33.037  33.135  1.00  0.00     0.074 A 
ATOM     41  C   UNL A   1      38.089  31.480  31.218  1.00  0.00     0.049 A 
ATOM     42  N   UNL A   1      38.986  32.608  33.859  1.00  0.00    -0.248 NA
ATOM     43  C   UNL A   1      37.285  34.198  33.708  1.00  0.00     0.031 C 
ATOM     44  C   UNL A   1      37.734  30.928  29.907  1.00  0.00     0.029 A 
ATOM     45  N   UNL A   1      39.137  30.696  31.631  1.00  0.00    -0.354 N 
ATOM     46  C   UNL A   1      39.048  33.454  34.960  1.00  0.00     0.074 A 
ATOM     47  C   UNL A   1      38.016  34.452  34.783  1.00  0.00     0.031 C 
ATOM     48  C   UNL A   1      38.535  29.884  29.637  1.00  0.00     0.029 A 
ATOM     49  C   UNL A   1      39.483  29.714  30.734  1.00  0.00     0.049 A 
ATOM     50  H   UNL A   1      39.598  30.826  32.492  1.00  0.00     0.167 HD
ATOM     51  C   UNL A   1      39.872  33.390  36.034  1.00  0.00     0.037 A 
ATOM     52  C   UNL A   1      40.458  28.785  30.783  1.00  0.00     0.037 A 
ATOM     53  C   UNL A   1      40.877  32.376  36.220  1.00  0.00     0.049 A 
ATOM     54  C   UNL A   1      41.355  28.728  31.990  1.00  0.00     0.074 A 
ATOM     55  C   UNL A   1      41.717  32.186  37.303  1.00  0.00     0.029 A 
ATOM     56  N   UNL A   1      41.179  31.383  35.299  1.00  0.00    -0.354 N 
ATOM     57  N   UNL A   1      41.354  29.494  33.054  1.00  0.00    -0.248 NA
ATOM     58  C   UNL A   1      42.383  27.678  32.005  1.00  0.00     0.031 C 
ATOM     59  C   UNL A   1      42.554  31.101  37.020  1.00  0.00     0.029 A 
ATOM     60  C   UNL A   1      42.207  30.588  35.781  1.00  0.00     0.049 A 
ATOM     61  H   UNL A   1      40.730  31.260  34.432  1.00  0.00     0.167 HD
ATOM     62  C   UNL A   1      42.364  29.005  33.876  1.00  0.00     0.074 A 
ATOM     63  C   UNL A   1      42.945  27.870  33.191  1.00  0.00     0.031 C 
ATOM     64  C   UNL A   1      42.772  29.457  35.088  1.00  0.00     0.037 A 
BRANCH  51  65
ATOM     65  C   UNL A   1      39.712  34.444  37.095  1.00  0.00     0.058 A 
ATOM     66  C   UNL A   1      40.266  35.726  36.947  1.00  0.00     0.135 A 
ATOM     67  C   UNL A   1      38.976  34.180  38.261  1.00  0.00     0.135 A 
ATOM     68  F   UNL A   1      40.991  36.029  35.859  1.00  0.00    -0.206 F 
ATOM     69  C   UNL A   1      40.126  36.698  37.934  1.00  0.00     0.059 A 
ATOM     70  C   UNL A   1      38.799  35.145  39.248  1.00  0.00     0.059 A 
ATOM     71  F   UNL A   1      38.425  32.972  38.453  1.00  0.00    -0.206 F 
ATOM     72  C   UNL A   1      39.393  36.397  39.082  1.00  0.00     0.060 A 
BRANCH  72  73
ATOM     73  S   UNL A   1      39.224  37.666  40.354  1.00  0.00     0.124 S 
ATOM     74  O   UNL A   1      38.138  38.477  39.811  1.00  0.00    -0.237 OA
ATOM     75  O   UNL A   1      38.896  36.880  41.539  1.00  0.00    -0.237 OA
ATOM     76  O   UNL A   1      40.536  38.305  40.373  1.00  0.00    -0.744 OA
ENDBRANCH  72  73
ENDBRANCH  51  65
BRANCH  52  77
ATOM     77  C   UNL A   1      40.619  27.818  29.665  1.00  0.00     0.058 A 
ATOM     78  C   UNL A   1      41.661  27.960  28.737  1.00  0.00     0.135 A 
ATOM     79  C   UNL A   1      39.749  26.728  29.512  1.00  0.00     0.135 A 
ATOM     80  F   UNL A   1      42.514  28.990  28.839  1.00  0.00    -0.206 F 
ATOM     81  C   UNL A   1      41.829  27.061  27.688  1.00  0.00     0.059 A 
ATOM     82  C   UNL A   1      39.911  25.802  28.485  1.00  0.00     0.059 A 
ATOM     83  F   UNL A   1      38.746  26.539  30.384  1.00  0.00    -0.206 F 
ATOM     84  C   UNL A   1      40.950  25.984  27.572  1.00  0.00     0.060 A 
BRANCH  84  85
ATOM     85  S   UNL A   1      41.210  24.793  26.238  1.00  0.00     0.124 S 
ATOM     86  O   UNL A   1      41.377  25.674  25.088  1.00  0.00    -0.237 OA
ATOM     87  O   UNL A   1      42.410  24.091  26.684  1.00  0.00    -0.237 OA
ATOM     88  O   UNL A   1      39.986  23.999  26.255  1.00  0.00    -0.744 OA
ENDBRANCH  84  85
ENDBRANCH  52  77
BRANCH  64  89
ATOM     89  C   UNL A   1      43.884  28.707  35.766  1.00  0.00     0.058 A 
ATOM     90  C   UNL A   1      43.630  27.617  36.612  1.00  0.00     0.135 A 
ATOM     91  C   UNL A   1      45.224  29.052  35.524  1.00  0.00     0.135 A 
ATOM     92  F   UNL A   1      42.365  27.252  36.881  1.00  0.00    -0.206 F 
ATOM     93  C   UNL A   1      44.664  26.907  37.213  1.00  0.00     0.059 A 
ATOM     94  C   UNL A   1      46.275  28.339  36.094  1.00  0.00     0.059 A 
ATOM     95  F   UNL A   1      45.523  30.080  34.715  1.00  0.00    -0.206 F 
ATOM     96  C   UNL A   1      45.984  27.275  36.945  1.00  0.00     0.060 A 
BRANCH  96  97
ATOM     97  S   UNL A   1      47.319  26.323  37.701  1.00  0.00     0.124 S 
ATOM     98  O   UNL A   1      47.799  27.249  38.722  1.00  0.00    -0.237 OA
ATOM     99  O   UNL A   1      46.620  25.141  38.197  1.00  0.00    -0.237 OA
ATOM    100  O   UNL A   1      48.235  26.082  36.591  1.00  0.00    -0.744 OA
ENDBRANCH  96  97
ENDBRANCH  64  89
ENDBRANCH  38  39
ENDBRANCH  30  33
ENDBRANCH  28  29
ENDBRANCH  27  28
ENDBRANCH  26  27
ENDBRANCH   1  26
TORSDOF 21
ENDMDL
MODEL 3
REMARK VINA RESULT:     -10.8      6.129     10.781
REMARK SMILES O=C(CNS(=O)(=O)c1ccccc1)N[C@@H](CO)C(=O)NCCCCNC(=O)c1ccc(-c2c3nc(c(-c4c(F)cc(S(=O)(=O)[O-])cc4F)c4ccc([nH]4)c(-c4c(F)cc(S(=O)(=O)[O-])cc4F)c4nc(c(-c5c(F)cc(S(=O)(=O)[O-])cc5F)c5ccc2[nH]5)C=C4)C=C3)cc1
REMARK SMILES IDX 21 1 20 2 18 3 19 4 15 6 14 7 1 8 2 9 3 11 4 12 5 14 6 15
REMARK SMILES IDX 7 16 8 17 9 18 13 19 10 20 12 21 11 22 16 23 17 24 22 26
REMARK SMILES IDX 23 27 24 28 25 29 26 30 27 32 28 33 29 34 93 35 30 36 92 37
REMARK SMILES IDX 31 38 32 39 33 40 86 41 34 42 91 43 85 44 87 45 35 46 90 47
REMARK SMILES IDX 84 48 83 49 36 51 70 52 49 53 69 54 50 55 53 56 68 57 88 58
REMARK SMILES IDX 51 59 52 60 67 62 89 63 54 64 37 65 38 66 47 67 39 68 40 69
REMARK SMILES IDX 46 70 48 71 41 72 42 73 43 74 44 75 45 76 71 77 72 78 81 79
REMARK SMILES IDX 73 80 74 81 80 82 82 83 75 84 76 85 77 86 78 87 79 88 55 89
REMARK SMILES IDX 56 90 65 91 57 92 58 93 64 94 66 95 59 96 60 97 61 98 62 99
REMARK SMILES IDX 63 100
REMARK H PARENT 20 5 14 10 4 13 17 25 25 31 87 50 53 61
REMARK Flexibility Score: inf
ROOT
ATOM      1  C   UNL A   1      32.293  29.292  25.652  1.00  0.00     0.116 C 
ENDROOT
BRANCH   1   2
ATOM      2  N   UNL A   1      31.268  28.280  25.495  1.00  0.00    -0.354 N 
ATOM      3  C   UNL A   1      30.839  27.614  24.389  1.00  0.00     0.244 C 
ATOM      4  O   UNL A   1      30.137  26.613  24.572  1.00  0.00    -0.273 OA
ATOM      5  H   UNL A   1      30.805  28.033  26.329  1.00  0.00     0.163 HD
BRANCH   3   6
ATOM      6  C   UNL A   1      31.262  28.009  22.965  1.00  0.00     0.197 C 
BRANCH   6   7
ATOM      7  N   UNL A   1      31.413  26.859  22.068  1.00  0.00    -0.341 N 
ATOM      8  O   UNL A   1      33.686  27.047  21.886  1.00  0.00    -0.274 OA
ATOM      9  C   UNL A   1      32.653  26.421  21.663  1.00  0.00     0.235 C 
ATOM     10  H   UNL A   1      30.609  26.391  21.749  1.00  0.00     0.164 HD
BRANCH   9  11
ATOM     11  C   UNL A   1      32.646  25.131  20.857  1.00  0.00     0.198 C 
BRANCH  11  12
ATOM     12  N   UNL A   1      33.453  24.069  21.500  1.00  0.00    -0.202 NA
ATOM     13  H   UNL A   1      34.264  24.508  21.937  1.00  0.00     0.141 HD
BRANCH  12  14
ATOM     14  S   UNL A   1      32.637  23.169  22.686  1.00  0.00     0.241 S 
ATOM     15  O   UNL A   1      31.465  23.925  23.067  1.00  0.00    -0.207 OA
ATOM     16  O   UNL A   1      32.546  21.819  22.180  1.00  0.00    -0.207 OA
BRANCH  14  17
ATOM     17  C   UNL A   1      33.796  23.181  24.024  1.00  0.00     0.082 A 
ATOM     18  C   UNL A   1      33.647  22.274  25.078  1.00  0.00     0.022 A 
ATOM     19  C   UNL A   1      34.832  24.116  24.021  1.00  0.00     0.022 A 
ATOM     20  C   UNL A   1      34.530  22.328  26.155  1.00  0.00     0.001 A 
ATOM     21  C   UNL A   1      35.711  24.163  25.102  1.00  0.00     0.001 A 
ATOM     22  C   UNL A   1      35.555  23.275  26.169  1.00  0.00     0.000 A 
ENDBRANCH  14  17
ENDBRANCH  12  14
ENDBRANCH  11  12
ENDBRANCH   9  11
ENDBRANCH   6   7
BRANCH   6  23
ATOM     23  C   UNL A   1      30.397  29.148  22.402  1.00  0.00     0.191 C 
BRANCH  23  24
ATOM     24  O   UNL A   1      31.133  30.110  21.646  1.00  0.00    -0.394 OA
ATOM     25  H   UNL A   1      31.819  30.504  22.207  1.00  0.00     0.210 HD
ENDBRANCH  23  24
ENDBRANCH   6  23
ENDBRANCH   3   6
ENDBRANCH   1   2
BRANCH   1  26
ATOM     26  C   UNL A   1      32.143  30.065  26.959  1.00  0.00     0.023 C 
BRANCH  26  27
ATOM     27  C   UNL A   1      31.963  31.574  26.797  1.00  0.00     0.023 C 
BRANCH  27  28
ATOM     28  C   UNL A   1      33.083  32.433  27.378  1.00  0.00     0.116 C 
BRANCH  28  29
ATOM     29  N   UNL A   1      32.663  33.795  27.672  1.00  0.00    -0.352 N 
ATOM     30  C   UNL A   1      33.124  34.657  28.638  1.00  0.00     0.251 C 
ATOM     31  H   UNL A   1      31.947  34.149  27.097  1.00  0.00     0.163 HD
ATOM     32  O   UNL A   1      32.550  35.726  28.828  1.00  0.00    -0.269 OA
BRANCH  30  33
ATOM     33  C   UNL A   1      34.289  34.276  29.464  1.00  0.00     0.039 A 
ATOM     34  C   UNL A   1      34.072  33.662  30.700  1.00  0.00     0.014 A 
ATOM     35  C   UNL A   1      35.591  34.495  29.005  1.00  0.00     0.014 A 
ATOM     36  C   UNL A   1      35.161  33.195  31.439  1.00  0.00     0.010 A 
ATOM     37  C   UNL A   1      36.668  33.961  29.706  1.00  0.00     0.010 A 
ATOM     38  C   UNL A   1      36.465  33.302  30.928  1.00  0.00    -0.014 A 
BRANCH  38  39
ATOM     39  C   UNL A   1      37.628  32.720  31.647  1.00  0.00     0.031 A 
ATOM     40  C   UNL A   1      38.326  31.506  31.097  1.00  0.00     0.074 A 
ATOM     41  C   UNL A   1      38.005  33.238  32.833  1.00  0.00     0.049 A 
ATOM     42  N   UNL A   1      39.303  30.810  31.617  1.00  0.00    -0.248 NA
ATOM     43  C   UNL A   1      37.842  30.990  29.807  1.00  0.00     0.031 C 
ATOM     44  C   UNL A   1      37.371  34.379  33.500  1.00  0.00     0.029 A 
ATOM     45  N   UNL A   1      39.005  32.867  33.696  1.00  0.00    -0.354 N 
ATOM     46  C   UNL A   1      39.540  29.768  30.730  1.00  0.00     0.074 A 
ATOM     47  C   UNL A   1      38.569  29.892  29.665  1.00  0.00     0.031 C 
ATOM     48  C   UNL A   1      38.011  34.626  34.654  1.00  0.00     0.029 A 
ATOM     49  C   UNL A   1      39.075  33.643  34.830  1.00  0.00     0.049 A 
ATOM     50  H   UNL A   1      39.616  32.115  33.520  1.00  0.00     0.167 HD
ATOM     51  C   UNL A   1      40.495  28.808  30.784  1.00  0.00     0.037 A 
ATOM     52  C   UNL A   1      39.897  33.567  35.894  1.00  0.00     0.037 A 
ATOM     53  C   UNL A   1      41.478  28.707  31.831  1.00  0.00     0.049 A 
ATOM     54  C   UNL A   1      40.956  32.498  35.928  1.00  0.00     0.074 A 
ATOM     55  C   UNL A   1      42.527  27.812  31.942  1.00  0.00     0.029 A 
ATOM     56  N   UNL A   1      41.531  29.527  32.949  1.00  0.00    -0.354 N 
ATOM     57  N   UNL A   1      41.209  31.561  35.046  1.00  0.00    -0.248 NA
ATOM     58  C   UNL A   1      41.844  32.478  37.099  1.00  0.00     0.031 C 
ATOM     59  C   UNL A   1      43.192  28.066  33.147  1.00  0.00     0.029 A 
ATOM     60  C   UNL A   1      42.585  29.147  33.765  1.00  0.00     0.049 A 
ATOM     61  H   UNL A   1      40.913  30.270  33.135  1.00  0.00     0.167 HD
ATOM     62  C   UNL A   1      42.299  30.855  35.543  1.00  0.00     0.074 A 
ATOM     63  C   UNL A   1      42.665  31.481  36.796  1.00  0.00     0.031 C 
ATOM     64  C   UNL A   1      42.939  29.784  35.009  1.00  0.00     0.037 A 
BRANCH  51  65
ATOM     65  C   UNL A   1      40.526  27.796  29.672  1.00  0.00     0.058 A 
ATOM     66  C   UNL A   1      41.498  27.844  28.660  1.00  0.00     0.135 A 
ATOM     67  C   UNL A   1      39.589  26.751  29.630  1.00  0.00     0.135 A 
ATOM     68  F   UNL A   1      42.409  28.830  28.643  1.00  0.00    -0.206 F 
ATOM     69  C   UNL A   1      41.520  26.913  27.627  1.00  0.00     0.059 A 
ATOM     70  C   UNL A   1      39.609  25.792  28.621  1.00  0.00     0.059 A 
ATOM     71  F   UNL A   1      38.638  26.657  30.571  1.00  0.00    -0.206 F 
ATOM     72  C   UNL A   1      40.569  25.891  27.614  1.00  0.00     0.060 A 
BRANCH  72  73
ATOM     73  S   UNL A   1      40.609  24.694  26.264  1.00  0.00     0.124 S 
ATOM     74  O   UNL A   1      41.556  23.709  26.778  1.00  0.00    -0.237 OA
ATOM     75  O   UNL A   1      39.218  24.257  26.192  1.00  0.00    -0.237 OA
ATOM     76  O   UNL A   1      41.075  25.480  25.126  1.00  0.00    -0.744 OA
ENDBRANCH  72  73
ENDBRANCH  51  65
BRANCH  52  77
ATOM     77  C   UNL A   1      39.767  34.548  37.004  1.00  0.00     0.058 A 
ATOM     78  C   UNL A   1      40.483  35.754  36.984  1.00  0.00     0.135 A 
ATOM     79  C   UNL A   1      38.916  34.310  38.094  1.00  0.00     0.135 A 
ATOM     80  F   UNL A   1      41.314  36.024  35.966  1.00  0.00    -0.206 F 
ATOM     81  C   UNL A   1      40.369  36.686  38.011  1.00  0.00     0.059 A 
ATOM     82  C   UNL A   1      38.767  35.236  39.121  1.00  0.00     0.059 A 
ATOM     83  F   UNL A   1      38.197  33.178  38.151  1.00  0.00    -0.206 F 
ATOM     84  C   UNL A   1      39.506  36.418  39.075  1.00  0.00     0.060 A 
BRANCH  84  85
ATOM     85  S   UNL A   1      39.325  37.658  40.376  1.00  0.00     0.124 S 
ATOM     86  O   UNL A   1      38.145  38.387  39.924  1.00  0.00    -0.237 OA
ATOM     87  O   UNL A   1      39.148  36.831  41.566  1.00  0.00    -0.237 OA
ATOM     88  O   UNL A   1      40.584  38.393  40.316  1.00  0.00    -0.744 OA
ENDBRANCH  84  85
ENDBRANCH  52  77
BRANCH  64  89
ATOM     89  C   UNL A   1      44.116  29.236  35.764  1.00  0.00     0.058 A 
ATOM     90  C   UNL A   1      45.403  29.777  35.616  1.00  0.00     0.135 A 
ATOM     91  C   UNL A   1      43.946  28.190  36.685  1.00  0.00     0.135 A 
ATOM     92  F   UNL A   1      45.620  30.774  34.742  1.00  0.00    -0.206 F 
ATOM     93  C   UNL A   1      46.484  29.287  36.340  1.00  0.00     0.059 A 
ATOM     94  C   UNL A   1      45.009  27.702  37.439  1.00  0.00     0.059 A 
ATOM     95  F   UNL A   1      42.734  27.644  36.873  1.00  0.00    -0.206 F 
ATOM     96  C   UNL A   1      46.277  28.250  37.251  1.00  0.00     0.060 A 
BRANCH  96  97
ATOM     97  S   UNL A   1      47.681  27.646  38.212  1.00  0.00     0.124 S 
ATOM     98  O   UNL A   1      48.387  28.888  38.513  1.00  0.00    -0.237 OA
ATOM     99  O   UNL A   1      47.030  26.998  39.346  1.00  0.00    -0.237 OA
ATOM    100  O   UNL A   1      48.362  26.744  37.289  1.00  0.00    -0.744 OA
ENDBRANCH  96  97
ENDBRANCH  64  89
ENDBRANCH  38  39
ENDBRANCH  30  33
ENDBRANCH  28  29
ENDBRANCH  27  28
ENDBRANCH  26  27
ENDBRANCH   1  26
TORSDOF 21
ENDMDL
