MODEL 1
REMARK VINA RESULT:     -13.2      0.000      0.000
REMARK SMILES O=C(NCCCCNC(=O)c1ccc(-c2c3nc(c(-c4c(F)cc(S(=O)(=O)[O-])cc4F)c4ccc([nH]4)c(-c4c(F)cc(S(=O)(=O)[O-])cc4F)c4nc(c(-c5c(F)cc(S(=O)(=O)[O-])cc5F)c5ccc2[nH]5)C=C4)C=C3)cc1)C1=Cc2cc(Cl)c(Cl)cc2O[C@@H]1C(F)(F)F
REMARK SMILES IDX 6 1 5 2 4 3 3 4 1 5 2 6 77 8 78 9 88 10 79 11 87 12 80 13
REMARK SMILES IDX 86 14 81 15 85 16 82 17 83 18 84 19 89 20 90 21 91 22 92 23
REMARK SMILES IDX 7 24 8 25 9 26 10 28 11 29 12 30 76 31 13 32 75 33 14 34
REMARK SMILES IDX 15 35 16 36 69 37 17 38 74 39 68 40 70 41 18 42 73 43 67 44
REMARK SMILES IDX 66 45 19 47 53 48 32 49 52 50 33 51 36 52 51 53 71 54 34 55
REMARK SMILES IDX 35 56 50 58 72 59 37 60 20 61 21 62 30 63 22 64 23 65 29 66
REMARK SMILES IDX 31 67 24 68 25 69 26 70 27 71 28 72 54 73 55 74 64 75 56 76
REMARK SMILES IDX 57 77 63 78 65 79 58 80 59 81 60 82 61 83 62 84 38 85 39 86
REMARK SMILES IDX 48 87 40 88 41 89 47 90 49 91 42 92 43 93 44 94 45 95 46 96
REMARK H PARENT 3 7 8 27 70 46 36 57
REMARK Flexibility Score: inf
ROOT
ATOM      1  C   UNL A   1      37.563  22.942  25.717  1.00  0.00     0.023 C 
ENDROOT
BRANCH   1   2
ATOM      2  C   UNL A   1      36.672  23.426  24.573  1.00  0.00     0.023 C 
BRANCH   2   3
ATOM      3  C   UNL A   1      35.315  23.970  25.024  1.00  0.00     0.116 C 
BRANCH   3   4
ATOM      4  N   UNL A   1      34.811  23.360  26.257  1.00  0.00    -0.352 N 
ATOM      5  O   UNL A   1      34.098  21.656  27.584  1.00  0.00    -0.270 OA
ATOM      6  C   UNL A   1      34.248  22.119  26.462  1.00  0.00     0.251 C 
ATOM      7  H   UNL A   1      34.886  23.922  27.063  1.00  0.00     0.163 HD
BRANCH   6   8
ATOM      8  C   UNL A   1      33.911  21.321  25.267  1.00  0.00     0.067 C 
ATOM      9  C   UNL A   1      34.805  20.419  24.841  1.00  0.00     0.025 C 
ATOM     10  C   UNL A   1      32.476  21.300  24.834  1.00  0.00     0.314 C 
ATOM     11  C   UNL A   1      34.201  19.100  24.594  1.00  0.00     0.019 A 
ATOM     12  O   UNL A   1      31.921  19.962  24.890  1.00  0.00    -0.475 OA
ATOM     13  C   UNL A   1      35.048  17.989  24.645  1.00  0.00     0.034 A 
ATOM     14  C   UNL A   1      32.815  18.925  24.774  1.00  0.00     0.129 A 
ATOM     15  C   UNL A   1      34.531  16.732  24.975  1.00  0.00     0.060 A 
ATOM     16  C   UNL A   1      32.296  17.662  25.055  1.00  0.00     0.069 A 
ATOM     17  Cl  UNL A   1      35.665  15.452  25.224  1.00  0.00    -0.083 Cl
ATOM     18  C   UNL A   1      33.156  16.572  25.192  1.00  0.00     0.063 A 
ATOM     19  Cl  UNL A   1      32.474  15.078  25.723  1.00  0.00    -0.083 Cl
BRANCH  10  20
ATOM     20  C   UNL A   1      32.296  21.905  23.431  1.00  0.00     0.429 C 
ATOM     21  F   UNL A   1      31.941  20.955  22.530  1.00  0.00    -0.167 F 
ATOM     22  F   UNL A   1      31.328  22.851  23.404  1.00  0.00    -0.167 F 
ATOM     23  F   UNL A   1      33.432  22.482  22.969  1.00  0.00    -0.167 F 
ENDBRANCH  10  20
ENDBRANCH   6   8
ENDBRANCH   3   4
ENDBRANCH   2   3
ENDBRANCH   1   2
BRANCH   1  24
ATOM     24  C   UNL A   1      38.452  23.997  26.375  1.00  0.00     0.116 C 
BRANCH  24  25
ATOM     25  N   UNL A   1      39.876  23.845  26.112  1.00  0.00    -0.352 N 
ATOM     26  C   UNL A   1      40.919  24.612  26.588  1.00  0.00     0.251 C 
ATOM     27  H   UNL A   1      40.125  23.100  25.519  1.00  0.00     0.163 HD
ATOM     28  O   UNL A   1      42.070  24.389  26.222  1.00  0.00    -0.269 OA
BRANCH  26  29
ATOM     29  C   UNL A   1      40.631  25.744  27.497  1.00  0.00     0.039 A 
ATOM     30  C   UNL A   1      39.650  25.587  28.480  1.00  0.00     0.014 A 
ATOM     31  C   UNL A   1      41.381  26.921  27.432  1.00  0.00     0.014 A 
ATOM     32  C   UNL A   1      39.492  26.572  29.460  1.00  0.00     0.010 A 
ATOM     33  C   UNL A   1      41.277  27.860  28.454  1.00  0.00     0.010 A 
ATOM     34  C   UNL A   1      40.340  27.692  29.485  1.00  0.00    -0.014 A 
BRANCH  34  35
ATOM     35  C   UNL A   1      40.265  28.696  30.580  1.00  0.00     0.031 A 
ATOM     36  C   UNL A   1      41.155  28.558  31.785  1.00  0.00     0.074 A 
ATOM     37  C   UNL A   1      39.349  29.687  30.522  1.00  0.00     0.049 A 
ATOM     38  N   UNL A   1      41.170  29.262  32.887  1.00  0.00    -0.248 NA
ATOM     39  C   UNL A   1      42.137  27.460  31.762  1.00  0.00     0.031 C 
ATOM     40  C   UNL A   1      38.388  29.894  29.436  1.00  0.00     0.029 A 
ATOM     41  N   UNL A   1      39.069  30.701  31.405  1.00  0.00    -0.354 N 
ATOM     42  C   UNL A   1      42.149  28.688  33.690  1.00  0.00     0.074 A 
ATOM     43  C   UNL A   1      42.664  27.541  32.975  1.00  0.00     0.031 C 
ATOM     44  C   UNL A   1      37.640  30.976  29.707  1.00  0.00     0.029 A 
ATOM     45  C   UNL A   1      38.044  31.523  30.998  1.00  0.00     0.049 A 
ATOM     46  H   UNL A   1      39.556  30.827  32.251  1.00  0.00     0.167 HD
ATOM     47  C   UNL A   1      42.600  29.096  34.899  1.00  0.00     0.037 A 
ATOM     48  C   UNL A   1      37.490  32.595  31.600  1.00  0.00     0.037 A 
ATOM     49  C   UNL A   1      42.114  30.261  35.590  1.00  0.00     0.049 A 
ATOM     50  C   UNL A   1      38.037  33.049  32.928  1.00  0.00     0.074 A 
ATOM     51  C   UNL A   1      42.522  30.775  36.808  1.00  0.00     0.029 A 
ATOM     52  N   UNL A   1      41.121  31.104  35.112  1.00  0.00    -0.354 N 
ATOM     53  N   UNL A   1      38.988  32.512  33.655  1.00  0.00    -0.248 NA
ATOM     54  C   UNL A   1      37.445  34.261  33.513  1.00  0.00     0.031 C 
ATOM     55  C   UNL A   1      41.765  31.921  37.075  1.00  0.00     0.029 A 
ATOM     56  C   UNL A   1      40.911  32.139  36.006  1.00  0.00     0.049 A 
ATOM     57  H   UNL A   1      40.639  30.984  34.262  1.00  0.00     0.167 HD
ATOM     58  C   UNL A   1      39.133  33.340  34.763  1.00  0.00     0.074 A 
ATOM     59  C   UNL A   1      38.179  34.418  34.607  1.00  0.00     0.031 C 
ATOM     60  C   UNL A   1      39.978  33.220  35.815  1.00  0.00     0.037 A 
BRANCH  47  61
ATOM     61  C   UNL A   1      43.700  28.295  35.539  1.00  0.00     0.058 A 
ATOM     62  C   UNL A   1      45.048  28.523  35.219  1.00  0.00     0.135 A 
ATOM     63  C   UNL A   1      43.412  27.323  36.509  1.00  0.00     0.135 A 
ATOM     64  F   UNL A   1      45.378  29.427  34.284  1.00  0.00    -0.206 F 
ATOM     65  C   UNL A   1      46.071  27.800  35.823  1.00  0.00     0.059 A 
ATOM     66  C   UNL A   1      44.421  26.606  37.146  1.00  0.00     0.059 A 
ATOM     67  F   UNL A   1      42.140  27.062  36.850  1.00  0.00    -0.206 F 
ATOM     68  C   UNL A   1      45.747  26.845  36.788  1.00  0.00     0.060 A 
BRANCH  68  69
ATOM     69  S   UNL A   1      47.090  25.932  37.578  1.00  0.00     0.124 S 
ATOM     70  O   UNL A   1      47.516  25.049  36.496  1.00  0.00    -0.237 OA
ATOM     71  O   UNL A   1      48.024  26.995  37.933  1.00  0.00    -0.237 OA
ATOM     72  O   UNL A   1      46.435  25.274  38.704  1.00  0.00    -0.744 OA
ENDBRANCH  68  69
ENDBRANCH  47  61
BRANCH  48  73
ATOM     73  C   UNL A   1      36.373  33.335  30.950  1.00  0.00     0.058 A 
ATOM     74  C   UNL A   1      36.605  34.169  29.846  1.00  0.00     0.135 A 
ATOM     75  C   UNL A   1      35.061  33.247  31.436  1.00  0.00     0.135 A 
ATOM     76  F   UNL A   1      37.845  34.289  29.346  1.00  0.00    -0.206 F 
ATOM     77  C   UNL A   1      35.585  34.920  29.270  1.00  0.00     0.059 A 
ATOM     78  C   UNL A   1      34.018  33.967  30.860  1.00  0.00     0.059 A 
ATOM     79  F   UNL A   1      34.780  32.447  32.476  1.00  0.00    -0.206 F 
ATOM     80  C   UNL A   1      34.294  34.817  29.789  1.00  0.00     0.060 A 
BRANCH  80  81
ATOM     81  S   UNL A   1      32.972  35.785  29.032  1.00  0.00     0.124 S 
ATOM     82  O   UNL A   1      32.177  36.157  30.196  1.00  0.00    -0.237 OA
ATOM     83  O   UNL A   1      33.709  36.868  28.389  1.00  0.00    -0.237 OA
ATOM     84  O   UNL A   1      32.346  34.835  28.116  1.00  0.00    -0.744 OA
ENDBRANCH  80  81
ENDBRANCH  48  73
BRANCH  60  85
ATOM     85  C   UNL A   1      39.955  34.309  36.848  1.00  0.00     0.058 A 
ATOM     86  C   UNL A   1      40.710  35.483  36.702  1.00  0.00     0.135 A 
ATOM     87  C   UNL A   1      39.123  34.197  37.974  1.00  0.00     0.135 A 
ATOM     88  F   UNL A   1      41.523  35.636  35.646  1.00  0.00    -0.206 F 
ATOM     89  C   UNL A   1      40.661  36.497  37.651  1.00  0.00     0.059 A 
ATOM     90  C   UNL A   1      39.039  35.210  38.923  1.00  0.00     0.059 A 
ATOM     91  F   UNL A   1      38.372  33.098  38.153  1.00  0.00    -0.206 F 
ATOM     92  C   UNL A   1      39.823  36.353  38.759  1.00  0.00     0.060 A 
BRANCH  92  93
ATOM     93  S   UNL A   1      39.741  37.690  39.968  1.00  0.00     0.124 S 
ATOM     94  O   UNL A   1      38.558  38.418  39.520  1.00  0.00    -0.237 OA
ATOM     95  O   UNL A   1      39.602  36.967  41.228  1.00  0.00    -0.237 OA
ATOM     96  O   UNL A   1      41.013  38.386  39.789  1.00  0.00    -0.744 OA
ENDBRANCH  92  93
ENDBRANCH  60  85
ENDBRANCH  34  35
ENDBRANCH  26  29
ENDBRANCH  24  25
ENDBRANCH   1  24
TORSDOF 15
ENDMDL
MODEL 2
REMARK VINA RESULT:     -13.0      4.847     10.317
REMARK SMILES O=C(NCCCCNC(=O)c1ccc(-c2c3nc(c(-c4c(F)cc(S(=O)(=O)[O-])cc4F)c4ccc([nH]4)c(-c4c(F)cc(S(=O)(=O)[O-])cc4F)c4nc(c(-c5c(F)cc(S(=O)(=O)[O-])cc5F)c5ccc2[nH]5)C=C4)C=C3)cc1)C1=Cc2cc(Cl)c(Cl)cc2O[C@@H]1C(F)(F)F
REMARK SMILES IDX 6 1 5 2 4 3 3 4 1 5 2 6 77 8 78 9 88 10 79 11 87 12 80 13
REMARK SMILES IDX 86 14 81 15 85 16 82 17 83 18 84 19 89 20 90 21 91 22 92 23
REMARK SMILES IDX 7 24 8 25 9 26 10 28 11 29 12 30 76 31 13 32 75 33 14 34
REMARK SMILES IDX 15 35 16 36 69 37 17 38 74 39 68 40 70 41 18 42 73 43 67 44
REMARK SMILES IDX 66 45 19 47 53 48 32 49 52 50 33 51 36 52 51 53 71 54 34 55
REMARK SMILES IDX 35 56 50 58 72 59 37 60 20 61 21 62 30 63 22 64 23 65 29 66
REMARK SMILES IDX 31 67 24 68 25 69 26 70 27 71 28 72 54 73 55 74 64 75 56 76
REMARK SMILES IDX 57 77 63 78 65 79 58 80 59 81 60 82 61 83 62 84 38 85 39 86
REMARK SMILES IDX 48 87 40 88 41 89 47 90 49 91 42 92 43 93 44 94 45 95 46 96
REMARK H PARENT 3 7 8 27 70 46 36 57
REMARK Flexibility Score: inf
ROOT
ATOM      1  C   UNL A   1      32.416  28.315  26.126  1.00  0.00     0.023 C 
ENDROOT
BRANCH   1   2
ATOM      2  C   UNL A   1      31.311  27.542  26.845  1.00  0.00     0.023 C 
BRANCH   2   3
ATOM      3  C   UNL A   1      30.831  26.295  26.099  1.00  0.00     0.116 C 
BRANCH   3   4
ATOM      4  N   UNL A   1      31.011  25.049  26.849  1.00  0.00    -0.352 N 
ATOM      5  O   UNL A   1      32.142  23.217  27.581  1.00  0.00    -0.270 OA
ATOM      6  C   UNL A   1      31.981  24.079  26.728  1.00  0.00     0.251 C 
ATOM      7  H   UNL A   1      30.336  24.879  27.546  1.00  0.00     0.163 HD
BRANCH   6   8
ATOM      8  C   UNL A   1      32.888  24.166  25.567  1.00  0.00     0.067 C 
ATOM      9  C   UNL A   1      34.129  24.627  25.771  1.00  0.00     0.025 C 
ATOM     10  C   UNL A   1      32.504  23.407  24.332  1.00  0.00     0.314 C 
ATOM     11  C   UNL A   1      35.157  23.761  25.172  1.00  0.00     0.019 A 
ATOM     12  O   UNL A   1      33.487  22.394  24.001  1.00  0.00    -0.475 OA
ATOM     13  C   UNL A   1      36.444  23.825  25.717  1.00  0.00     0.034 A 
ATOM     14  C   UNL A   1      34.768  22.619  24.445  1.00  0.00     0.129 A 
ATOM     15  C   UNL A   1      37.296  22.720  25.624  1.00  0.00     0.060 A 
ATOM     16  C   UNL A   1      35.638  21.538  24.313  1.00  0.00     0.069 A 
ATOM     17  Cl  UNL A   1      38.785  22.796  26.498  1.00  0.00    -0.083 Cl
ATOM     18  C   UNL A   1      36.888  21.572  24.933  1.00  0.00     0.063 A 
ATOM     19  Cl  UNL A   1      37.840  20.134  24.889  1.00  0.00    -0.083 Cl
BRANCH  10  20
ATOM     20  C   UNL A   1      32.265  24.345  23.137  1.00  0.00     0.429 C 
ATOM     21  F   UNL A   1      30.959  24.352  22.773  1.00  0.00    -0.167 F 
ATOM     22  F   UNL A   1      32.599  25.626  23.419  1.00  0.00    -0.167 F 
ATOM     23  F   UNL A   1      32.978  23.978  22.044  1.00  0.00    -0.167 F 
ENDBRANCH  10  20
ENDBRANCH   6   8
ENDBRANCH   3   4
ENDBRANCH   2   3
ENDBRANCH   1   2
BRANCH   1  24
ATOM     24  C   UNL A   1      33.630  28.702  26.970  1.00  0.00     0.116 C 
BRANCH  24  25
ATOM     25  N   UNL A   1      33.564  30.034  27.556  1.00  0.00    -0.352 N 
ATOM     26  C   UNL A   1      34.554  30.720  28.231  1.00  0.00     0.251 C 
ATOM     27  H   UNL A   1      32.705  30.503  27.459  1.00  0.00     0.163 HD
ATOM     28  O   UNL A   1      34.320  31.821  28.722  1.00  0.00    -0.269 OA
BRANCH  26  29
ATOM     29  C   UNL A   1      35.881  30.090  28.408  1.00  0.00     0.039 A 
ATOM     30  C   UNL A   1      36.797  30.136  27.353  1.00  0.00     0.014 A 
ATOM     31  C   UNL A   1      36.248  29.530  29.634  1.00  0.00     0.014 A 
ATOM     32  C   UNL A   1      38.112  29.712  27.563  1.00  0.00     0.010 A 
ATOM     33  C   UNL A   1      37.576  29.185  29.863  1.00  0.00     0.010 A 
ATOM     34  C   UNL A   1      38.526  29.282  28.834  1.00  0.00    -0.014 A 
BRANCH  34  35
ATOM     35  C   UNL A   1      39.945  28.931  29.110  1.00  0.00     0.031 A 
ATOM     36  C   UNL A   1      40.861  29.951  29.730  1.00  0.00     0.074 A 
ATOM     37  C   UNL A   1      40.425  27.725  28.738  1.00  0.00     0.049 A 
ATOM     38  N   UNL A   1      42.148  29.879  29.952  1.00  0.00    -0.248 NA
ATOM     39  C   UNL A   1      40.257  31.236  30.121  1.00  0.00     0.031 C 
ATOM     40  C   UNL A   1      39.653  26.672  28.073  1.00  0.00     0.029 A 
ATOM     41  N   UNL A   1      41.682  27.185  28.854  1.00  0.00    -0.354 N 
ATOM     42  C   UNL A   1      42.508  31.107  30.496  1.00  0.00     0.074 A 
ATOM     43  C   UNL A   1      41.316  31.927  30.514  1.00  0.00     0.031 C 
ATOM     44  C   UNL A   1      40.446  25.609  27.861  1.00  0.00     0.029 A 
ATOM     45  C   UNL A   1      41.789  25.913  28.342  1.00  0.00     0.049 A 
ATOM     46  H   UNL A   1      42.437  27.665  29.265  1.00  0.00     0.167 HD
ATOM     47  C   UNL A   1      43.713  31.507  30.966  1.00  0.00     0.037 A 
ATOM     48  C   UNL A   1      42.852  25.086  28.267  1.00  0.00     0.037 A 
ATOM     49  C   UNL A   1      44.887  30.675  30.984  1.00  0.00     0.049 A 
ATOM     50  C   UNL A   1      44.172  25.543  28.831  1.00  0.00     0.074 A 
ATOM     51  C   UNL A   1      46.150  30.975  31.461  1.00  0.00     0.029 A 
ATOM     52  N   UNL A   1      44.936  29.370  30.517  1.00  0.00    -0.354 N 
ATOM     53  N   UNL A   1      44.482  26.696  29.374  1.00  0.00    -0.248 NA
ATOM     54  C   UNL A   1      45.284  24.582  28.786  1.00  0.00     0.031 C 
ATOM     55  C   UNL A   1      46.968  29.857  31.269  1.00  0.00     0.029 A 
ATOM     56  C   UNL A   1      46.204  28.849  30.704  1.00  0.00     0.049 A 
ATOM     57  H   UNL A   1      44.180  28.885  30.113  1.00  0.00     0.167 HD
ATOM     58  C   UNL A   1      45.812  26.586  29.766  1.00  0.00     0.074 A 
ATOM     59  C   UNL A   1      46.245  25.252  29.407  1.00  0.00     0.031 C 
ATOM     60  C   UNL A   1      46.604  27.506  30.368  1.00  0.00     0.037 A 
BRANCH  47  61
ATOM     61  C   UNL A   1      43.814  32.896  31.532  1.00  0.00     0.058 A 
ATOM     62  C   UNL A   1      44.084  34.001  30.708  1.00  0.00     0.135 A 
ATOM     63  C   UNL A   1      43.598  33.134  32.898  1.00  0.00     0.135 A 
ATOM     64  F   UNL A   1      44.318  33.827  29.398  1.00  0.00    -0.206 F 
ATOM     65  C   UNL A   1      44.158  35.290  31.223  1.00  0.00     0.059 A 
ATOM     66  C   UNL A   1      43.641  34.419  33.430  1.00  0.00     0.059 A 
ATOM     67  F   UNL A   1      43.340  32.113  33.731  1.00  0.00    -0.206 F 
ATOM     68  C   UNL A   1      43.932  35.490  32.586  1.00  0.00     0.060 A 
BRANCH  68  69
ATOM     69  S   UNL A   1      44.009  37.174  33.232  1.00  0.00     0.124 S 
ATOM     70  O   UNL A   1      45.207  37.111  34.064  1.00  0.00    -0.237 OA
ATOM     71  O   UNL A   1      44.124  37.971  32.015  1.00  0.00    -0.237 OA
ATOM     72  O   UNL A   1      42.750  37.318  33.956  1.00  0.00    -0.744 OA
ENDBRANCH  68  69
ENDBRANCH  47  61
BRANCH  48  73
ATOM     73  C   UNL A   1      42.717  23.734  27.660  1.00  0.00     0.058 A 
ATOM     74  C   UNL A   1      42.450  22.609  28.454  1.00  0.00     0.135 A 
ATOM     75  C   UNL A   1      42.882  23.534  26.281  1.00  0.00     0.135 A 
ATOM     76  F   UNL A   1      42.287  22.747  29.779  1.00  0.00    -0.206 F 
ATOM     77  C   UNL A   1      42.388  21.328  27.911  1.00  0.00     0.059 A 
ATOM     78  C   UNL A   1      42.798  22.268  25.710  1.00  0.00     0.059 A 
ATOM     79  F   UNL A   1      43.117  24.579  25.473  1.00  0.00    -0.206 F 
ATOM     80  C   UNL A   1      42.571  21.168  26.537  1.00  0.00     0.060 A 
BRANCH  80  81
ATOM     81  S   UNL A   1      42.480  19.506  25.836  1.00  0.00     0.124 S 
ATOM     82  O   UNL A   1      41.074  19.423  25.461  1.00  0.00    -0.237 OA
ATOM     83  O   UNL A   1      43.432  19.581  24.734  1.00  0.00    -0.237 OA
ATOM     84  O   UNL A   1      42.889  18.653  26.949  1.00  0.00    -0.744 OA
ENDBRANCH  80  81
ENDBRANCH  48  73
BRANCH  60  85
ATOM     85  C   UNL A   1      47.998  27.084  30.734  1.00  0.00     0.058 A 
ATOM     86  C   UNL A   1      48.268  26.356  31.903  1.00  0.00     0.135 A 
ATOM     87  C   UNL A   1      49.071  27.370  29.873  1.00  0.00     0.135 A 
ATOM     88  F   UNL A   1      47.277  26.062  32.759  1.00  0.00    -0.206 F 
ATOM     89  C   UNL A   1      49.559  25.947  32.218  1.00  0.00     0.059 A 
ATOM     90  C   UNL A   1      50.365  26.949  30.156  1.00  0.00     0.059 A 
ATOM     91  F   UNL A   1      48.862  28.054  28.737  1.00  0.00    -0.206 F 
ATOM     92  C   UNL A   1      50.601  26.247  31.339  1.00  0.00     0.060 A 
BRANCH  92  93
ATOM     93  S   UNL A   1      52.267  25.683  31.742  1.00  0.00     0.124 S 
ATOM     94  O   UNL A   1      52.622  26.577  32.840  1.00  0.00    -0.237 OA
ATOM     95  O   UNL A   1      52.046  24.287  32.108  1.00  0.00    -0.237 OA
ATOM     96  O   UNL A   1      53.005  25.889  30.499  1.00  0.00    -0.744 OA
ENDBRANCH  92  93
ENDBRANCH  60  85
ENDBRANCH  34  35
ENDBRANCH  26  29
ENDBRANCH  24  25
ENDBRANCH   1  24
TORSDOF 15
ENDMDL
MODEL 3
REMARK VINA RESULT:     -12.8      5.919     12.723
REMARK SMILES O=C(NCCCCNC(=O)c1ccc(-c2c3nc(c(-c4c(F)cc(S(=O)(=O)[O-])cc4F)c4ccc([nH]4)c(-c4c(F)cc(S(=O)(=O)[O-])cc4F)c4nc(c(-c5c(F)cc(S(=O)(=O)[O-])cc5F)c5ccc2[nH]5)C=C4)C=C3)cc1)C1=Cc2cc(Cl)c(Cl)cc2O[C@@H]1C(F)(F)F
REMARK SMILES IDX 6 1 5 2 4 3 3 4 1 5 2 6 77 8 78 9 88 10 79 11 87 12 80 13
REMARK SMILES IDX 86 14 81 15 85 16 82 17 83 18 84 19 89 20 90 21 91 22 92 23
REMARK SMILES IDX 7 24 8 25 9 26 10 28 11 29 12 30 76 31 13 32 75 33 14 34
REMARK SMILES IDX 15 35 16 36 69 37 17 38 74 39 68 40 70 41 18 42 73 43 67 44
REMARK SMILES IDX 66 45 19 47 53 48 32 49 52 50 33 51 36 52 51 53 71 54 34 55
REMARK SMILES IDX 35 56 50 58 72 59 37 60 20 61 21 62 30 63 22 64 23 65 29 66
REMARK SMILES IDX 31 67 24 68 25 69 26 70 27 71 28 72 54 73 55 74 64 75 56 76
REMARK SMILES IDX 57 77 63 78 65 79 58 80 59 81 60 82 61 83 62 84 38 85 39 86
REMARK SMILES IDX 48 87 40 88 41 89 47 90 49 91 42 92 43 93 44 94 45 95 46 96
REMARK H PARENT 3 7 8 27 70 46 36 57
REMARK Flexibility Score: inf
ROOT
ATOM      1  C   UNL A   1      34.741  32.763  31.047  1.00  0.00     0.023 C 
ENDROOT
BRANCH   1   2
ATOM      2  C   UNL A   1      34.406  34.129  31.645  1.00  0.00     0.023 C 
BRANCH   2   3
ATOM      3  C   UNL A   1      35.529  34.735  32.489  1.00  0.00     0.116 C 
BRANCH   3   4
ATOM      4  N   UNL A   1      36.780  34.937  31.754  1.00  0.00    -0.352 N 
ATOM      5  O   UNL A   1      38.893  34.429  31.082  1.00  0.00    -0.270 OA
ATOM      6  C   UNL A   1      38.009  34.338  31.924  1.00  0.00     0.251 C 
ATOM      7  H   UNL A   1      36.737  35.602  31.029  1.00  0.00     0.163 HD
BRANCH   6   8
ATOM      8  C   UNL A   1      38.196  33.499  33.123  1.00  0.00     0.067 C 
ATOM      9  C   UNL A   1      37.659  32.272  33.124  1.00  0.00     0.025 C 
ATOM     10  C   UNL A   1      39.261  33.912  34.094  1.00  0.00     0.314 C 
ATOM     11  C   UNL A   1      38.617  31.238  33.544  1.00  0.00     0.019 A 
ATOM     12  O   UNL A   1      40.293  32.901  34.217  1.00  0.00    -0.475 OA
ATOM     13  C   UNL A   1      38.373  29.928  33.117  1.00  0.00     0.034 A 
ATOM     14  C   UNL A   1      39.920  31.610  33.928  1.00  0.00     0.129 A 
ATOM     15  C   UNL A   1      39.436  29.030  32.978  1.00  0.00     0.060 A 
ATOM     16  C   UNL A   1      40.970  30.698  33.833  1.00  0.00     0.069 A 
ATOM     17  Cl  UNL A   1      39.088  27.503  32.250  1.00  0.00    -0.083 Cl
ATOM     18  C   UNL A   1      40.736  29.420  33.324  1.00  0.00     0.063 A 
ATOM     19  Cl  UNL A   1      42.105  28.404  33.058  1.00  0.00    -0.083 Cl
BRANCH  10  20
ATOM     20  C   UNL A   1      38.673  34.258  35.472  1.00  0.00     0.429 C 
ATOM     21  F   UNL A   1      37.322  34.359  35.417  1.00  0.00    -0.167 F 
ATOM     22  F   UNL A   1      38.956  33.315  36.401  1.00  0.00    -0.167 F 
ATOM     23  F   UNL A   1      39.138  35.439  35.949  1.00  0.00    -0.167 F 
ENDBRANCH  10  20
ENDBRANCH   6   8
ENDBRANCH   3   4
ENDBRANCH   2   3
ENDBRANCH   1   2
BRANCH   1  24
ATOM     24  C   UNL A   1      35.061  32.738  29.553  1.00  0.00     0.116 C 
BRANCH  24  25
ATOM     25  N   UNL A   1      34.155  31.929  28.749  1.00  0.00    -0.352 N 
ATOM     26  C   UNL A   1      34.400  30.707  28.156  1.00  0.00     0.251 C 
ATOM     27  H   UNL A   1      33.255  32.301  28.612  1.00  0.00     0.163 HD
ATOM     28  O   UNL A   1      33.544  30.177  27.453  1.00  0.00    -0.269 OA
BRANCH  26  29
ATOM     29  C   UNL A   1      35.726  30.071  28.325  1.00  0.00     0.039 A 
ATOM     30  C   UNL A   1      36.649  30.146  27.278  1.00  0.00     0.014 A 
ATOM     31  C   UNL A   1      36.083  29.476  29.537  1.00  0.00     0.014 A 
ATOM     32  C   UNL A   1      37.962  29.715  27.484  1.00  0.00     0.010 A 
ATOM     33  C   UNL A   1      37.409  29.123  29.765  1.00  0.00     0.010 A 
ATOM     34  C   UNL A   1      38.367  29.249  28.746  1.00  0.00    -0.014 A 
BRANCH  34  35
ATOM     35  C   UNL A   1      39.783  28.888  29.022  1.00  0.00     0.031 A 
ATOM     36  C   UNL A   1      40.714  29.911  29.615  1.00  0.00     0.074 A 
ATOM     37  C   UNL A   1      40.248  27.670  28.672  1.00  0.00     0.049 A 
ATOM     38  N   UNL A   1      42.001  29.830  29.832  1.00  0.00    -0.248 NA
ATOM     39  C   UNL A   1      40.125  31.210  29.982  1.00  0.00     0.031 C 
ATOM     40  C   UNL A   1      39.461  26.610  28.035  1.00  0.00     0.029 A 
ATOM     41  N   UNL A   1      41.500  27.119  28.793  1.00  0.00    -0.354 N 
ATOM     42  C   UNL A   1      42.377  31.066  30.347  1.00  0.00     0.074 A 
ATOM     43  C   UNL A   1      41.194  31.899  30.354  1.00  0.00     0.031 C 
ATOM     44  C   UNL A   1      40.242  25.535  27.840  1.00  0.00     0.029 A 
ATOM     45  C   UNL A   1      41.591  25.835  28.308  1.00  0.00     0.049 A 
ATOM     46  H   UNL A   1      42.262  27.599  29.190  1.00  0.00     0.167 HD
ATOM     47  C   UNL A   1      43.589  31.462  30.802  1.00  0.00     0.037 A 
ATOM     48  C   UNL A   1      42.645  24.995  28.245  1.00  0.00     0.037 A 
ATOM     49  C   UNL A   1      44.753  30.618  30.831  1.00  0.00     0.049 A 
ATOM     50  C   UNL A   1      43.973  25.450  28.792  1.00  0.00     0.074 A 
ATOM     51  C   UNL A   1      46.023  30.915  31.295  1.00  0.00     0.029 A 
ATOM     52  N   UNL A   1      44.786  29.303  30.392  1.00  0.00    -0.354 N 
ATOM     53  N   UNL A   1      44.298  26.610  29.309  1.00  0.00    -0.248 NA
ATOM     54  C   UNL A   1      45.074  24.476  28.761  1.00  0.00     0.031 C 
ATOM     55  C   UNL A   1      46.827  29.784  31.123  1.00  0.00     0.029 A 
ATOM     56  C   UNL A   1      46.050  28.773  30.584  1.00  0.00     0.049 A 
ATOM     57  H   UNL A   1      44.023  28.818  30.002  1.00  0.00     0.167 HD
ATOM     58  C   UNL A   1      45.628  26.495  29.696  1.00  0.00     0.074 A 
ATOM     59  C   UNL A   1      46.045  25.149  29.364  1.00  0.00     0.031 C 
ATOM     60  C   UNL A   1      46.433  27.419  30.274  1.00  0.00     0.037 A 
BRANCH  47  61
ATOM     61  C   UNL A   1      43.708  32.861  31.338  1.00  0.00     0.058 A 
ATOM     62  C   UNL A   1      43.802  33.967  30.476  1.00  0.00     0.135 A 
ATOM     63  C   UNL A   1      43.684  33.108  32.719  1.00  0.00     0.135 A 
ATOM     64  F   UNL A   1      43.849  33.786  29.147  1.00  0.00    -0.206 F 
ATOM     65  C   UNL A   1      43.891  35.265  30.965  1.00  0.00     0.059 A 
ATOM     66  C   UNL A   1      43.745  34.401  33.231  1.00  0.00     0.059 A 
ATOM     67  F   UNL A   1      43.598  32.088  33.588  1.00  0.00    -0.206 F 
ATOM     68  C   UNL A   1      43.859  35.473  32.345  1.00  0.00     0.060 A 
BRANCH  68  69
ATOM     69  S   UNL A   1      43.953  37.166  32.962  1.00  0.00     0.124 S 
ATOM     70  O   UNL A   1      43.876  37.932  31.721  1.00  0.00    -0.237 OA
ATOM     71  O   UNL A   1      42.782  37.248  33.830  1.00  0.00    -0.237 OA
ATOM     72  O   UNL A   1      45.241  37.208  33.646  1.00  0.00    -0.744 OA
ENDBRANCH  68  69
ENDBRANCH  47  61
BRANCH  48  73
ATOM     73  C   UNL A   1      42.492  23.632  27.667  1.00  0.00     0.058 A 
ATOM     74  C   UNL A   1      42.302  22.514  28.494  1.00  0.00     0.135 A 
ATOM     75  C   UNL A   1      42.562  23.415  26.283  1.00  0.00     0.135 A 
ATOM     76  F   UNL A   1      42.232  22.669  29.825  1.00  0.00    -0.206 F 
ATOM     77  C   UNL A   1      42.226  21.225  27.975  1.00  0.00     0.059 A 
ATOM     78  C   UNL A   1      42.461  22.138  25.737  1.00  0.00     0.059 A 
ATOM     79  F   UNL A   1      42.720  24.452  25.447  1.00  0.00    -0.206 F 
ATOM     80  C   UNL A   1      42.314  21.047  26.593  1.00  0.00     0.060 A 
BRANCH  80  81
ATOM     81  S   UNL A   1      42.204  19.374  25.924  1.00  0.00     0.124 S 
ATOM     82  O   UNL A   1      42.753  18.584  27.019  1.00  0.00    -0.237 OA
ATOM     83  O   UNL A   1      40.772  19.228  25.685  1.00  0.00    -0.237 OA
ATOM     84  O   UNL A   1      43.027  19.443  24.719  1.00  0.00    -0.744 OA
ENDBRANCH  80  81
ENDBRANCH  48  73
BRANCH  60  85
ATOM     85  C   UNL A   1      47.825  26.990  30.641  1.00  0.00     0.058 A 
ATOM     86  C   UNL A   1      48.896  27.107  29.742  1.00  0.00     0.135 A 
ATOM     87  C   UNL A   1      48.097  26.504  31.931  1.00  0.00     0.135 A 
ATOM     88  F   UNL A   1      48.686  27.562  28.498  1.00  0.00    -0.206 F 
ATOM     89  C   UNL A   1      50.186  26.733  30.102  1.00  0.00     0.059 A 
ATOM     90  C   UNL A   1      49.384  26.148  32.319  1.00  0.00     0.059 A 
ATOM     91  F   UNL A   1      47.108  26.385  32.831  1.00  0.00    -0.206 F 
ATOM     92  C   UNL A   1      50.421  26.254  31.392  1.00  0.00     0.060 A 
BRANCH  92  93
ATOM     93  S   UNL A   1      52.105  25.802  31.858  1.00  0.00     0.124 S 
ATOM     94  O   UNL A   1      52.843  26.128  30.642  1.00  0.00    -0.237 OA
ATOM     95  O   UNL A   1      52.358  26.670  33.004  1.00  0.00    -0.237 OA
ATOM     96  O   UNL A   1      52.000  24.379  32.169  1.00  0.00    -0.744 OA
ENDBRANCH  92  93
ENDBRANCH  60  85
ENDBRANCH  34  35
ENDBRANCH  26  29
ENDBRANCH  24  25
ENDBRANCH   1  24
TORSDOF 15
ENDMDL
