MODEL 1
REMARK VINA RESULT:     -11.5      0.000      0.000
REMARK SMILES O=C(CS[C@H](C(=O)Nc1ccc(C(F)(F)F)cc1)c1ccccc1)NCCCCNC(=O)c1ccc(-c2c3nc(c(-c4c(F)cc(S(=O)(=O)[O-])cc4F)c4ccc([nH]4)c(-c4c(F)cc(S(=O)(=O)[O-])cc4F)c4nc(c(-c5c(F)cc(S(=O)(=O)[O-])cc5F)c5ccc2[nH]5)C=C4)C=C3)cc1
REMARK SMILES IDX 26 1 25 2 1 3 2 4 3 6 4 7 5 8 19 9 20 10 24 11 21 12 23 13
REMARK SMILES IDX 22 14 6 15 7 16 8 17 9 19 10 20 18 21 11 22 17 23 12 24
REMARK SMILES IDX 13 25 14 26 15 27 16 28 27 29 28 30 29 31 30 32 31 33 32 35
REMARK SMILES IDX 33 36 34 37 98 38 35 39 97 40 36 41 37 42 38 43 91 44 39 45
REMARK SMILES IDX 96 46 90 47 92 48 40 49 95 50 89 51 88 52 41 54 75 55 54 56
REMARK SMILES IDX 74 57 55 58 58 59 73 60 93 61 56 62 57 63 72 65 94 66 59 67
REMARK SMILES IDX 42 68 43 69 52 70 44 71 45 72 51 73 53 74 46 75 47 76 48 77
REMARK SMILES IDX 49 78 50 79 76 80 77 81 86 82 78 83 79 84 85 85 87 86 80 87
REMARK SMILES IDX 81 88 82 89 83 90 84 91 60 92 61 93 70 94 62 95 63 96 69 97
REMARK SMILES IDX 71 98 64 99 65 100 66 101 67 102 68 103
REMARK H PARENT 25 5 8 18 30 34 92 53 58 64
REMARK Flexibility Score: inf
ROOT
ATOM      1  C   UNL A   1      30.943  29.868  24.444  1.00  0.00     0.116 C 
ENDROOT
BRANCH   1   2
ATOM      2  N   UNL A   1      31.065  28.429  24.238  1.00  0.00    -0.355 N 
ATOM      3  O   UNL A   1      30.573  28.553  21.999  1.00  0.00    -0.274 OA
ATOM      4  C   UNL A   1      30.936  27.879  22.961  1.00  0.00     0.230 C 
ATOM      5  H   UNL A   1      31.241  27.839  25.006  1.00  0.00     0.163 HD
BRANCH   4   6
ATOM      6  C   UNL A   1      31.325  26.400  22.855  1.00  0.00     0.170 C 
BRANCH   6   7
ATOM      7  S   UNL A   1      30.001  25.241  23.378  1.00  0.00    -0.134 SA
BRANCH   7   8
ATOM      8  C   UNL A   1      30.701  24.345  24.862  1.00  0.00     0.166 C 
BRANCH   8   9
ATOM      9  C   UNL A   1      31.411  23.010  24.584  1.00  0.00    -0.026 A 
ATOM     10  C   UNL A   1      31.497  22.024  25.591  1.00  0.00     0.005 A 
ATOM     11  C   UNL A   1      32.028  22.714  23.351  1.00  0.00     0.005 A 
ATOM     12  C   UNL A   1      32.283  20.875  25.420  1.00  0.00     0.000 A 
ATOM     13  C   UNL A   1      32.797  21.558  23.174  1.00  0.00     0.000 A 
ATOM     14  C   UNL A   1      32.948  20.651  24.218  1.00  0.00     0.000 A 
ENDBRANCH   8   9
BRANCH   8  15
ATOM     15  C   UNL A   1      31.242  25.362  25.906  1.00  0.00     0.242 C 
ATOM     16  O   UNL A   1      30.450  26.166  26.428  1.00  0.00    -0.273 OA
ATOM     17  N   UNL A   1      32.534  25.462  26.349  1.00  0.00    -0.325 N 
ATOM     18  H   UNL A   1      32.666  26.096  27.092  1.00  0.00     0.169 HD
BRANCH  17  19
ATOM     19  C   UNL A   1      33.695  24.816  25.924  1.00  0.00     0.041 A 
ATOM     20  C   UNL A   1      34.223  23.793  26.696  1.00  0.00     0.027 A 
ATOM     21  C   UNL A   1      34.276  25.091  24.700  1.00  0.00     0.027 A 
ATOM     22  C   UNL A   1      35.160  22.927  26.121  1.00  0.00     0.015 A 
ATOM     23  C   UNL A   1      35.243  24.267  24.142  1.00  0.00     0.015 A 
ATOM     24  C   UNL A   1      35.665  23.138  24.826  1.00  0.00     0.056 A 
BRANCH  24  25
ATOM     25  C   UNL A   1      36.659  22.228  24.154  1.00  0.00     0.416 C 
ATOM     26  F   UNL A   1      36.727  22.460  22.813  1.00  0.00    -0.166 F 
ATOM     27  F   UNL A   1      37.924  22.369  24.627  1.00  0.00    -0.166 F 
ATOM     28  F   UNL A   1      36.348  20.909  24.278  1.00  0.00    -0.166 F 
ENDBRANCH  24  25
ENDBRANCH  17  19
ENDBRANCH   8  15
ENDBRANCH   7   8
ENDBRANCH   6   7
ENDBRANCH   4   6
ENDBRANCH   1   2
BRANCH   1  29
ATOM     29  C   UNL A   1      31.387  30.415  25.817  1.00  0.00     0.023 C 
BRANCH  29  30
ATOM     30  C   UNL A   1      32.084  29.468  26.825  1.00  0.00     0.023 C 
BRANCH  30  31
ATOM     31  C   UNL A   1      33.550  29.763  27.222  1.00  0.00     0.116 C 
BRANCH  31  32
ATOM     32  N   UNL A   1      33.747  30.835  28.191  1.00  0.00    -0.352 N 
ATOM     33  C   UNL A   1      34.875  31.279  28.863  1.00  0.00     0.251 C 
ATOM     34  H   UNL A   1      32.927  31.335  28.409  1.00  0.00     0.163 HD
ATOM     35  O   UNL A   1      34.788  32.314  29.525  1.00  0.00    -0.269 OA
BRANCH  33  36
ATOM     36  C   UNL A   1      36.175  30.548  28.883  1.00  0.00     0.039 A 
ATOM     37  C   UNL A   1      36.943  30.495  27.721  1.00  0.00     0.014 A 
ATOM     38  C   UNL A   1      36.602  29.776  29.958  1.00  0.00     0.014 A 
ATOM     39  C   UNL A   1      38.175  29.807  27.703  1.00  0.00     0.010 A 
ATOM     40  C   UNL A   1      37.875  29.156  29.971  1.00  0.00     0.010 A 
ATOM     41  C   UNL A   1      38.724  29.218  28.865  1.00  0.00    -0.014 A 
BRANCH  41  42
ATOM     42  C   UNL A   1      40.196  28.863  28.917  1.00  0.00     0.031 A 
ATOM     43  C   UNL A   1      40.812  27.549  28.463  1.00  0.00     0.074 A 
ATOM     44  C   UNL A   1      41.033  29.761  29.494  1.00  0.00     0.049 A 
ATOM     45  N   UNL A   1      42.085  27.219  28.395  1.00  0.00    -0.248 NA
ATOM     46  C   UNL A   1      39.911  26.447  28.098  1.00  0.00     0.031 C 
ATOM     47  C   UNL A   1      40.608  30.986  30.179  1.00  0.00     0.029 A 
ATOM     48  N   UNL A   1      42.406  29.812  29.576  1.00  0.00    -0.354 N 
ATOM     49  C   UNL A   1      42.137  25.880  28.012  1.00  0.00     0.074 A 
ATOM     50  C   UNL A   1      40.760  25.441  27.911  1.00  0.00     0.031 C 
ATOM     51  C   UNL A   1      41.682  31.722  30.487  1.00  0.00     0.029 A 
ATOM     52  C   UNL A   1      42.883  31.001  30.084  1.00  0.00     0.049 A 
ATOM     53  H   UNL A   1      42.991  29.069  29.299  1.00  0.00     0.167 HD
ATOM     54  C   UNL A   1      43.216  25.093  27.744  1.00  0.00     0.037 A 
ATOM     55  C   UNL A   1      44.133  31.491  30.198  1.00  0.00     0.037 A 
ATOM     56  C   UNL A   1      44.591  25.538  27.779  1.00  0.00     0.049 A 
ATOM     57  C   UNL A   1      45.303  30.674  29.737  1.00  0.00     0.074 A 
ATOM     58  C   UNL A   1      45.731  24.846  27.391  1.00  0.00     0.029 A 
ATOM     59  N   UNL A   1      45.020  26.779  28.218  1.00  0.00    -0.354 N 
ATOM     60  N   UNL A   1      45.311  29.462  29.242  1.00  0.00    -0.248 NA
ATOM     61  C   UNL A   1      46.634  31.290  29.848  1.00  0.00     0.031 C 
ATOM     62  C   UNL A   1      46.848  25.659  27.622  1.00  0.00     0.029 A 
ATOM     63  C   UNL A   1      46.403  26.871  28.118  1.00  0.00     0.049 A 
ATOM     64  H   UNL A   1      44.432  27.494  28.552  1.00  0.00     0.167 HD
ATOM     65  C   UNL A   1      46.644  29.175  28.970  1.00  0.00     0.074 A 
ATOM     66  C   UNL A   1      47.410  30.347  29.333  1.00  0.00     0.031 C 
ATOM     67  C   UNL A   1      47.176  28.034  28.472  1.00  0.00     0.037 A 
BRANCH  54  68
ATOM     68  C   UNL A   1      42.974  23.657  27.332  1.00  0.00     0.058 A 
ATOM     69  C   UNL A   1      42.757  22.649  28.286  1.00  0.00     0.135 A 
ATOM     70  C   UNL A   1      42.857  23.300  25.976  1.00  0.00     0.135 A 
ATOM     71  F   UNL A   1      42.842  22.930  29.595  1.00  0.00    -0.206 F 
ATOM     72  C   UNL A   1      42.475  21.337  27.913  1.00  0.00     0.059 A 
ATOM     73  C   UNL A   1      42.547  21.999  25.582  1.00  0.00     0.059 A 
ATOM     74  F   UNL A   1      43.028  24.223  25.017  1.00  0.00    -0.206 F 
ATOM     75  C   UNL A   1      42.376  21.019  26.559  1.00  0.00     0.060 A 
BRANCH  75  76
ATOM     76  S   UNL A   1      42.011  19.311  26.096  1.00  0.00     0.124 S 
ATOM     77  O   UNL A   1      42.855  19.145  24.917  1.00  0.00    -0.237 OA
ATOM     78  O   UNL A   1      42.427  18.568  27.281  1.00  0.00    -0.237 OA
ATOM     79  O   UNL A   1      40.574  19.326  25.842  1.00  0.00    -0.744 OA
ENDBRANCH  75  76
ENDBRANCH  54  68
BRANCH  55  80
ATOM     80  C   UNL A   1      44.334  32.873  30.711  1.00  0.00     0.058 A 
ATOM     81  C   UNL A   1      44.275  33.973  29.842  1.00  0.00     0.135 A 
ATOM     82  C   UNL A   1      44.547  33.124  32.074  1.00  0.00     0.135 A 
ATOM     83  F   UNL A   1      44.073  33.780  28.529  1.00  0.00    -0.206 F 
ATOM     84  C   UNL A   1      44.435  35.274  30.302  1.00  0.00     0.059 A 
ATOM     85  C   UNL A   1      44.682  34.419  32.563  1.00  0.00     0.059 A 
ATOM     86  F   UNL A   1      44.580  32.107  32.949  1.00  0.00    -0.206 F 
ATOM     87  C   UNL A   1      44.636  35.487  31.667  1.00  0.00     0.060 A 
BRANCH  87  88
ATOM     88  S   UNL A   1      44.788  37.185  32.265  1.00  0.00     0.124 S 
ATOM     89  O   UNL A   1      46.209  37.419  32.133  1.00  0.00    -0.237 OA
ATOM     90  O   UNL A   1      43.920  37.914  31.338  1.00  0.00    -0.237 OA
ATOM     91  O   UNL A   1      44.277  37.097  33.636  1.00  0.00    -0.744 OA
ENDBRANCH  87  88
ENDBRANCH  55  80
BRANCH  67  92
ATOM     92  C   UNL A   1      48.666  27.996  28.268  1.00  0.00     0.058 A 
ATOM     93  C   UNL A   1      49.248  28.292  27.025  1.00  0.00     0.135 A 
ATOM     94  C   UNL A   1      49.525  27.686  29.335  1.00  0.00     0.135 A 
ATOM     95  F   UNL A   1      48.472  28.585  25.969  1.00  0.00    -0.206 F 
ATOM     96  C   UNL A   1      50.627  28.263  26.841  1.00  0.00     0.059 A 
ATOM     97  C   UNL A   1      50.908  27.673  29.179  1.00  0.00     0.059 A 
ATOM     98  F   UNL A   1      49.022  27.399  30.546  1.00  0.00    -0.206 F 
ATOM     99  C   UNL A   1      51.450  27.952  27.925  1.00  0.00     0.060 A 
BRANCH  99 100
ATOM    100  S   UNL A   1      53.240  27.945  27.681  1.00  0.00     0.124 S 
ATOM    101  O   UNL A   1      53.519  26.516  27.589  1.00  0.00    -0.237 OA
ATOM    102  O   UNL A   1      53.391  28.703  26.442  1.00  0.00    -0.237 OA
ATOM    103  O   UNL A   1      53.746  28.609  28.879  1.00  0.00    -0.744 OA
ENDBRANCH  99 100
ENDBRANCH  67  92
ENDBRANCH  41  42
ENDBRANCH  33  36
ENDBRANCH  31  32
ENDBRANCH  30  31
ENDBRANCH  29  30
ENDBRANCH   1  29
TORSDOF 20
ENDMDL
MODEL 2
REMARK VINA RESULT:     -11.4      5.678     10.505
REMARK SMILES O=C(CS[C@H](C(=O)Nc1ccc(C(F)(F)F)cc1)c1ccccc1)NCCCCNC(=O)c1ccc(-c2c3nc(c(-c4c(F)cc(S(=O)(=O)[O-])cc4F)c4ccc([nH]4)c(-c4c(F)cc(S(=O)(=O)[O-])cc4F)c4nc(c(-c5c(F)cc(S(=O)(=O)[O-])cc5F)c5ccc2[nH]5)C=C4)C=C3)cc1
REMARK SMILES IDX 26 1 25 2 1 3 2 4 3 6 4 7 5 8 19 9 20 10 24 11 21 12 23 13
REMARK SMILES IDX 22 14 6 15 7 16 8 17 9 19 10 20 18 21 11 22 17 23 12 24
REMARK SMILES IDX 13 25 14 26 15 27 16 28 27 29 28 30 29 31 30 32 31 33 32 35
REMARK SMILES IDX 33 36 34 37 98 38 35 39 97 40 36 41 37 42 38 43 91 44 39 45
REMARK SMILES IDX 96 46 90 47 92 48 40 49 95 50 89 51 88 52 41 54 75 55 54 56
REMARK SMILES IDX 74 57 55 58 58 59 73 60 93 61 56 62 57 63 72 65 94 66 59 67
REMARK SMILES IDX 42 68 43 69 52 70 44 71 45 72 51 73 53 74 46 75 47 76 48 77
REMARK SMILES IDX 49 78 50 79 76 80 77 81 86 82 78 83 79 84 85 85 87 86 80 87
REMARK SMILES IDX 81 88 82 89 83 90 84 91 60 92 61 93 70 94 62 95 63 96 69 97
REMARK SMILES IDX 71 98 64 99 65 100 66 101 67 102 68 103
REMARK H PARENT 25 5 8 18 30 34 92 53 58 64
REMARK Flexibility Score: inf
ROOT
ATOM      1  C   UNL A   1      38.208  21.451  25.600  1.00  0.00     0.116 C 
ENDROOT
BRANCH   1   2
ATOM      2  N   UNL A   1      37.293  22.497  26.042  1.00  0.00    -0.355 N 
ATOM      3  O   UNL A   1      36.973  23.324  23.924  1.00  0.00    -0.274 OA
ATOM      4  C   UNL A   1      36.668  23.335  25.115  1.00  0.00     0.230 C 
ATOM      5  H   UNL A   1      37.113  22.614  27.003  1.00  0.00     0.163 HD
BRANCH   4   6
ATOM      6  C   UNL A   1      35.558  24.220  25.694  1.00  0.00     0.170 C 
BRANCH   6   7
ATOM      7  S   UNL A   1      34.226  24.623  24.498  1.00  0.00    -0.134 SA
BRANCH   7   8
ATOM      8  C   UNL A   1      32.723  24.982  25.550  1.00  0.00     0.166 C 
BRANCH   8   9
ATOM      9  C   UNL A   1      32.503  26.450  25.953  1.00  0.00    -0.026 A 
ATOM     10  C   UNL A   1      33.337  27.465  25.437  1.00  0.00     0.005 A 
ATOM     11  C   UNL A   1      31.502  26.850  26.862  1.00  0.00     0.005 A 
ATOM     12  C   UNL A   1      33.266  28.781  25.919  1.00  0.00     0.000 A 
ATOM     13  C   UNL A   1      31.420  28.167  27.329  1.00  0.00     0.000 A 
ATOM     14  C   UNL A   1      32.320  29.127  26.879  1.00  0.00     0.000 A 
ENDBRANCH   8   9
BRANCH   8  15
ATOM     15  C   UNL A   1      31.542  24.055  25.145  1.00  0.00     0.242 C 
ATOM     16  O   UNL A   1      31.554  22.869  25.521  1.00  0.00    -0.273 OA
ATOM     17  N   UNL A   1      30.439  24.414  24.418  1.00  0.00    -0.325 N 
ATOM     18  H   UNL A   1      29.745  23.718  24.353  1.00  0.00     0.169 HD
BRANCH  17  19
ATOM     19  C   UNL A   1      30.135  25.602  23.752  1.00  0.00     0.041 A 
ATOM     20  C   UNL A   1      28.949  26.257  24.044  1.00  0.00     0.027 A 
ATOM     21  C   UNL A   1      31.030  26.202  22.887  1.00  0.00     0.027 A 
ATOM     22  C   UNL A   1      28.802  27.593  23.650  1.00  0.00     0.015 A 
ATOM     23  C   UNL A   1      30.868  27.510  22.450  1.00  0.00     0.015 A 
ATOM     24  C   UNL A   1      29.771  28.245  22.869  1.00  0.00     0.056 A 
BRANCH  24  25
ATOM     25  C   UNL A   1      29.670  29.684  22.436  1.00  0.00     0.416 C 
ATOM     26  F   UNL A   1      29.724  30.535  23.499  1.00  0.00    -0.166 F 
ATOM     27  F   UNL A   1      30.668  30.065  21.596  1.00  0.00    -0.166 F 
ATOM     28  F   UNL A   1      28.502  29.972  21.800  1.00  0.00    -0.166 F 
ENDBRANCH  24  25
ENDBRANCH  17  19
ENDBRANCH   8  15
ENDBRANCH   7   8
ENDBRANCH   6   7
ENDBRANCH   4   6
ENDBRANCH   1   2
BRANCH   1  29
ATOM     29  C   UNL A   1      39.656  21.522  26.131  1.00  0.00     0.023 C 
BRANCH  29  30
ATOM     30  C   UNL A   1      40.028  22.594  27.185  1.00  0.00     0.023 C 
BRANCH  30  31
ATOM     31  C   UNL A   1      41.448  23.207  27.145  1.00  0.00     0.116 C 
BRANCH  31  32
ATOM     32  N   UNL A   1      41.747  24.052  25.994  1.00  0.00    -0.352 N 
ATOM     33  C   UNL A   1      41.864  25.427  25.861  1.00  0.00     0.251 C 
ATOM     34  H   UNL A   1      41.894  23.554  25.157  1.00  0.00     0.163 HD
ATOM     35  O   UNL A   1      42.275  25.875  24.791  1.00  0.00    -0.269 OA
BRANCH  33  36
ATOM     36  C   UNL A   1      41.462  26.403  26.916  1.00  0.00     0.039 A 
ATOM     37  C   UNL A   1      40.412  26.082  27.774  1.00  0.00     0.014 A 
ATOM     38  C   UNL A   1      41.975  27.693  27.000  1.00  0.00     0.014 A 
ATOM     39  C   UNL A   1      40.002  26.983  28.779  1.00  0.00     0.010 A 
ATOM     40  C   UNL A   1      41.625  28.566  28.059  1.00  0.00     0.010 A 
ATOM     41  C   UNL A   1      40.679  28.201  29.018  1.00  0.00    -0.014 A 
BRANCH  41  42
ATOM     42  C   UNL A   1      40.493  28.933  30.331  1.00  0.00     0.031 A 
ATOM     43  C   UNL A   1      41.337  28.746  31.583  1.00  0.00     0.074 A 
ATOM     44  C   UNL A   1      39.431  29.770  30.433  1.00  0.00     0.049 A 
ATOM     45  N   UNL A   1      41.285  29.416  32.715  1.00  0.00    -0.248 NA
ATOM     46  C   UNL A   1      42.313  27.649  31.606  1.00  0.00     0.031 C 
ATOM     47  C   UNL A   1      38.385  29.926  29.417  1.00  0.00     0.029 A 
ATOM     48  N   UNL A   1      39.064  30.670  31.408  1.00  0.00    -0.354 N 
ATOM     49  C   UNL A   1      42.190  28.811  33.586  1.00  0.00     0.074 A 
ATOM     50  C   UNL A   1      42.743  27.682  32.864  1.00  0.00     0.031 C 
ATOM     51  C   UNL A   1      37.582  30.942  29.755  1.00  0.00     0.029 A 
ATOM     52  C   UNL A   1      38.008  31.477  31.041  1.00  0.00     0.049 A 
ATOM     53  H   UNL A   1      39.511  30.730  32.283  1.00  0.00     0.167 HD
ATOM     54  C   UNL A   1      42.551  29.166  34.850  1.00  0.00     0.037 A 
ATOM     55  C   UNL A   1      37.448  32.547  31.639  1.00  0.00     0.037 A 
ATOM     56  C   UNL A   1      42.055  30.326  35.556  1.00  0.00     0.049 A 
ATOM     57  C   UNL A   1      37.973  33.030  32.957  1.00  0.00     0.074 A 
ATOM     58  C   UNL A   1      42.467  30.831  36.781  1.00  0.00     0.029 A 
ATOM     59  N   UNL A   1      41.047  31.165  35.108  1.00  0.00    -0.354 N 
ATOM     60  N   UNL A   1      38.931  32.522  33.693  1.00  0.00    -0.248 NA
ATOM     61  C   UNL A   1      37.344  34.231  33.528  1.00  0.00     0.031 C 
ATOM     62  C   UNL A   1      41.691  31.956  37.085  1.00  0.00     0.029 A 
ATOM     63  C   UNL A   1      40.820  32.176  36.033  1.00  0.00     0.049 A 
ATOM     64  H   UNL A   1      40.562  31.060  34.258  1.00  0.00     0.167 HD
ATOM     65  C   UNL A   1      39.028  33.349  34.806  1.00  0.00     0.074 A 
ATOM     66  C   UNL A   1      38.049  34.402  34.638  1.00  0.00     0.031 C 
ATOM     67  C   UNL A   1      39.853  33.231  35.874  1.00  0.00     0.037 A 
BRANCH  54  68
ATOM     68  C   UNL A   1      43.581  28.321  35.568  1.00  0.00     0.058 A 
ATOM     69  C   UNL A   1      44.956  28.574  35.437  1.00  0.00     0.135 A 
ATOM     70  C   UNL A   1      43.193  27.316  36.474  1.00  0.00     0.135 A 
ATOM     71  F   UNL A   1      45.388  29.528  34.598  1.00  0.00    -0.206 F 
ATOM     72  C   UNL A   1      45.908  27.839  36.140  1.00  0.00     0.059 A 
ATOM     73  C   UNL A   1      44.128  26.589  37.211  1.00  0.00     0.059 A 
ATOM     74  F   UNL A   1      41.893  27.043  36.665  1.00  0.00    -0.206 F 
ATOM     75  C   UNL A   1      45.485  26.846  37.023  1.00  0.00     0.060 A 
BRANCH  75  76
ATOM     76  S   UNL A   1      46.734  25.903  37.926  1.00  0.00     0.124 S 
ATOM     77  O   UNL A   1      47.395  25.187  36.839  1.00  0.00    -0.237 OA
ATOM     78  O   UNL A   1      47.523  26.953  38.562  1.00  0.00    -0.237 OA
ATOM     79  O   UNL A   1      45.948  25.076  38.834  1.00  0.00    -0.744 OA
ENDBRANCH  75  76
ENDBRANCH  54  68
BRANCH  55  80
ATOM     80  C   UNL A   1      36.360  33.287  30.944  1.00  0.00     0.058 A 
ATOM     81  C   UNL A   1      35.051  33.273  31.449  1.00  0.00     0.135 A 
ATOM     82  C   UNL A   1      36.611  34.049  29.794  1.00  0.00     0.135 A 
ATOM     83  F   UNL A   1      34.764  32.556  32.547  1.00  0.00    -0.206 F 
ATOM     84  C   UNL A   1      34.024  33.975  30.832  1.00  0.00     0.059 A 
ATOM     85  C   UNL A   1      35.606  34.784  29.173  1.00  0.00     0.059 A 
ATOM     86  F   UNL A   1      37.853  34.118  29.291  1.00  0.00    -0.206 F 
ATOM     87  C   UNL A   1      34.312  34.731  29.694  1.00  0.00     0.060 A 
BRANCH  87  88
ATOM     88  S   UNL A   1      32.984  35.687  28.929  1.00  0.00     0.124 S 
ATOM     89  O   UNL A   1      32.425  34.727  28.002  1.00  0.00    -0.237 OA
ATOM     90  O   UNL A   1      32.153  36.034  30.084  1.00  0.00    -0.237 OA
ATOM     91  O   UNL A   1      33.697  36.818  28.329  1.00  0.00    -0.744 OA
ENDBRANCH  87  88
ENDBRANCH  55  80
BRANCH  67  92
ATOM     92  C   UNL A   1      39.752  34.282  36.946  1.00  0.00     0.058 A 
ATOM     93  C   UNL A   1      38.950  34.100  38.084  1.00  0.00     0.135 A 
ATOM     94  C   UNL A   1      40.487  35.474  36.848  1.00  0.00     0.135 A 
ATOM     95  F   UNL A   1      38.219  32.982  38.223  1.00  0.00    -0.206 F 
ATOM     96  C   UNL A   1      38.864  35.071  39.077  1.00  0.00     0.059 A 
ATOM     97  C   UNL A   1      40.433  36.450  37.840  1.00  0.00     0.059 A 
ATOM     98  F   UNL A   1      41.272  35.699  35.782  1.00  0.00    -0.206 F 
ATOM     99  C   UNL A   1      39.610  36.244  38.946  1.00  0.00     0.060 A 
BRANCH  99 100
ATOM    100  S   UNL A   1      39.512  37.484  40.256  1.00  0.00     0.124 S 
ATOM    101  O   UNL A   1      38.692  38.514  39.626  1.00  0.00    -0.237 OA
ATOM    102  O   UNL A   1      38.877  36.745  41.343  1.00  0.00    -0.237 OA
ATOM    103  O   UNL A   1      40.908  37.844  40.485  1.00  0.00    -0.744 OA
ENDBRANCH  99 100
ENDBRANCH  67  92
ENDBRANCH  41  42
ENDBRANCH  33  36
ENDBRANCH  31  32
ENDBRANCH  30  31
ENDBRANCH  29  30
ENDBRANCH   1  29
TORSDOF 20
ENDMDL
MODEL 3
REMARK VINA RESULT:     -10.8      5.153      9.839
REMARK SMILES O=C(CS[C@H](C(=O)Nc1ccc(C(F)(F)F)cc1)c1ccccc1)NCCCCNC(=O)c1ccc(-c2c3nc(c(-c4c(F)cc(S(=O)(=O)[O-])cc4F)c4ccc([nH]4)c(-c4c(F)cc(S(=O)(=O)[O-])cc4F)c4nc(c(-c5c(F)cc(S(=O)(=O)[O-])cc5F)c5ccc2[nH]5)C=C4)C=C3)cc1
REMARK SMILES IDX 26 1 25 2 1 3 2 4 3 6 4 7 5 8 19 9 20 10 24 11 21 12 23 13
REMARK SMILES IDX 22 14 6 15 7 16 8 17 9 19 10 20 18 21 11 22 17 23 12 24
REMARK SMILES IDX 13 25 14 26 15 27 16 28 27 29 28 30 29 31 30 32 31 33 32 35
REMARK SMILES IDX 33 36 34 37 98 38 35 39 97 40 36 41 37 42 38 43 91 44 39 45
REMARK SMILES IDX 96 46 90 47 92 48 40 49 95 50 89 51 88 52 41 54 75 55 54 56
REMARK SMILES IDX 74 57 55 58 58 59 73 60 93 61 56 62 57 63 72 65 94 66 59 67
REMARK SMILES IDX 42 68 43 69 52 70 44 71 45 72 51 73 53 74 46 75 47 76 48 77
REMARK SMILES IDX 49 78 50 79 76 80 77 81 86 82 78 83 79 84 85 85 87 86 80 87
REMARK SMILES IDX 81 88 82 89 83 90 84 91 60 92 61 93 70 94 62 95 63 96 69 97
REMARK SMILES IDX 71 98 64 99 65 100 66 101 67 102 68 103
REMARK H PARENT 25 5 8 18 30 34 92 53 58 64
REMARK Flexibility Score: inf
ROOT
ATOM      1  C   UNL A   1      34.384  28.594  26.225  1.00  0.00     0.116 C 
ENDROOT
BRANCH   1   2
ATOM      2  N   UNL A   1      33.156  28.930  25.512  1.00  0.00    -0.355 N 
ATOM      3  O   UNL A   1      34.089  28.600  23.440  1.00  0.00    -0.274 OA
ATOM      4  C   UNL A   1      33.091  28.828  24.120  1.00  0.00     0.230 C 
ATOM      5  H   UNL A   1      32.366  29.230  26.016  1.00  0.00     0.163 HD
BRANCH   4   6
ATOM      6  C   UNL A   1      31.684  28.976  23.530  1.00  0.00     0.170 C 
BRANCH   6   7
ATOM      7  S   UNL A   1      30.601  27.519  23.808  1.00  0.00    -0.134 SA
BRANCH   7   8
ATOM      8  C   UNL A   1      31.734  26.040  23.666  1.00  0.00     0.166 C 
BRANCH   8   9
ATOM      9  C   UNL A   1      31.684  25.025  24.821  1.00  0.00    -0.026 A 
ATOM     10  C   UNL A   1      32.724  24.975  25.774  1.00  0.00     0.005 A 
ATOM     11  C   UNL A   1      30.640  24.089  24.970  1.00  0.00     0.005 A 
ATOM     12  C   UNL A   1      32.787  23.952  26.731  1.00  0.00     0.000 A 
ATOM     13  C   UNL A   1      30.694  23.078  25.937  1.00  0.00     0.000 A 
ATOM     14  C   UNL A   1      31.781  22.992  26.800  1.00  0.00     0.000 A 
ENDBRANCH   8   9
BRANCH   8  15
ATOM     15  C   UNL A   1      31.860  25.591  22.183  1.00  0.00     0.242 C 
ATOM     16  O   UNL A   1      31.338  26.292  21.298  1.00  0.00    -0.273 OA
ATOM     17  N   UNL A   1      32.524  24.486  21.721  1.00  0.00    -0.325 N 
ATOM     18  H   UNL A   1      32.586  24.424  20.740  1.00  0.00     0.169 HD
BRANCH  17  19
ATOM     19  C   UNL A   1      33.126  23.433  22.410  1.00  0.00     0.041 A 
ATOM     20  C   UNL A   1      34.411  23.595  22.904  1.00  0.00     0.027 A 
ATOM     21  C   UNL A   1      32.442  22.270  22.708  1.00  0.00     0.027 A 
ATOM     22  C   UNL A   1      34.880  22.698  23.873  1.00  0.00     0.015 A 
ATOM     23  C   UNL A   1      32.920  21.349  23.629  1.00  0.00     0.015 A 
ATOM     24  C   UNL A   1      34.130  21.577  24.266  1.00  0.00     0.056 A 
BRANCH  24  25
ATOM     25  C   UNL A   1      34.578  20.593  25.315  1.00  0.00     0.416 C 
ATOM     26  F   UNL A   1      35.569  21.108  26.097  1.00  0.00    -0.166 F 
ATOM     27  F   UNL A   1      33.585  20.218  26.162  1.00  0.00    -0.166 F 
ATOM     28  F   UNL A   1      35.089  19.446  24.791  1.00  0.00    -0.166 F 
ENDBRANCH  24  25
ENDBRANCH  17  19
ENDBRANCH   8  15
ENDBRANCH   7   8
ENDBRANCH   6   7
ENDBRANCH   4   6
ENDBRANCH   1   2
BRANCH   1  29
ATOM     29  C   UNL A   1      34.845  29.579  27.320  1.00  0.00     0.023 C 
BRANCH  29  30
ATOM     30  C   UNL A   1      34.388  31.057  27.255  1.00  0.00     0.023 C 
BRANCH  30  31
ATOM     31  C   UNL A   1      32.913  31.390  27.585  1.00  0.00     0.116 C 
BRANCH  31  32
ATOM     32  N   UNL A   1      32.590  32.806  27.710  1.00  0.00    -0.352 N 
ATOM     33  C   UNL A   1      33.275  33.864  28.288  1.00  0.00     0.251 C 
ATOM     34  H   UNL A   1      31.725  33.058  27.311  1.00  0.00     0.163 HD
ATOM     35  O   UNL A   1      32.835  35.002  28.121  1.00  0.00    -0.269 OA
BRANCH  33  36
ATOM     36  C   UNL A   1      34.480  33.704  29.153  1.00  0.00     0.039 A 
ATOM     37  C   UNL A   1      34.323  33.238  30.457  1.00  0.00     0.014 A 
ATOM     38  C   UNL A   1      35.748  34.140  28.786  1.00  0.00     0.014 A 
ATOM     39  C   UNL A   1      35.440  33.079  31.304  1.00  0.00     0.010 A 
ATOM     40  C   UNL A   1      36.882  33.904  29.601  1.00  0.00     0.010 A 
ATOM     41  C   UNL A   1      36.762  33.300  30.854  1.00  0.00    -0.014 A 
BRANCH  41  42
ATOM     42  C   UNL A   1      37.936  32.736  31.627  1.00  0.00     0.031 A 
ATOM     43  C   UNL A   1      38.401  33.195  33.001  1.00  0.00     0.074 A 
ATOM     44  C   UNL A   1      38.692  31.794  31.012  1.00  0.00     0.049 A 
ATOM     45  N   UNL A   1      39.348  32.683  33.760  1.00  0.00    -0.248 NA
ATOM     46  C   UNL A   1      37.787  34.399  33.577  1.00  0.00     0.031 C 
ATOM     47  C   UNL A   1      38.536  31.371  29.616  1.00  0.00     0.029 A 
ATOM     48  N   UNL A   1      39.715  30.996  31.472  1.00  0.00    -0.354 N 
ATOM     49  C   UNL A   1      39.462  33.510  34.877  1.00  0.00     0.074 A 
ATOM     50  C   UNL A   1      38.518  34.590  34.671  1.00  0.00     0.031 C 
ATOM     51  C   UNL A   1      39.326  30.319  29.376  1.00  0.00     0.029 A 
ATOM     52  C   UNL A   1      40.098  30.021  30.576  1.00  0.00     0.049 A 
ATOM     53  H   UNL A   1      40.134  31.112  32.356  1.00  0.00     0.167 HD
ATOM     54  C   UNL A   1      40.251  33.378  35.979  1.00  0.00     0.037 A 
ATOM     55  C   UNL A   1      40.946  28.980  30.691  1.00  0.00     0.037 A 
ATOM     56  C   UNL A   1      41.148  32.271  36.225  1.00  0.00     0.049 A 
ATOM     57  C   UNL A   1      41.680  28.750  31.978  1.00  0.00     0.074 A 
ATOM     58  C   UNL A   1      41.879  31.992  37.372  1.00  0.00     0.029 A 
ATOM     59  N   UNL A   1      41.438  31.260  35.324  1.00  0.00    -0.354 N 
ATOM     60  N   UNL A   1      41.659  29.469  33.073  1.00  0.00    -0.248 NA
ATOM     61  C   UNL A   1      42.554  27.569  32.047  1.00  0.00     0.031 C 
ATOM     62  C   UNL A   1      42.629  30.831  37.153  1.00  0.00     0.029 A 
ATOM     63  C   UNL A   1      42.339  30.363  35.884  1.00  0.00     0.049 A 
ATOM     64  H   UNL A   1      41.061  31.187  34.417  1.00  0.00     0.167 HD
ATOM     65  C   UNL A   1      42.504  28.820  33.965  1.00  0.00     0.074 A 
ATOM     66  C   UNL A   1      43.003  27.639  33.292  1.00  0.00     0.031 C 
ATOM     67  C   UNL A   1      42.839  29.183  35.226  1.00  0.00     0.037 A 
BRANCH  54  68
ATOM     68  C   UNL A   1      40.160  34.434  37.059  1.00  0.00     0.058 A 
ATOM     69  C   UNL A   1      39.196  34.360  38.078  1.00  0.00     0.135 A 
ATOM     70  C   UNL A   1      41.106  35.474  37.139  1.00  0.00     0.135 A 
ATOM     71  F   UNL A   1      38.275  33.384  38.064  1.00  0.00    -0.206 F 
ATOM     72  C   UNL A   1      39.145  35.296  39.108  1.00  0.00     0.059 A 
ATOM     73  C   UNL A   1      41.091  36.404  38.178  1.00  0.00     0.059 A 
ATOM     74  F   UNL A   1      42.068  35.585  36.211  1.00  0.00    -0.206 F 
ATOM     75  C   UNL A   1      40.094  36.317  39.149  1.00  0.00     0.060 A 
BRANCH  75  76
ATOM     76  S   UNL A   1      40.009  37.522  40.493  1.00  0.00     0.124 S 
ATOM     77  O   UNL A   1      40.150  38.778  39.763  1.00  0.00    -0.237 OA
ATOM     78  O   UNL A   1      38.690  37.266  41.063  1.00  0.00    -0.237 OA
ATOM     79  O   UNL A   1      41.138  37.162  41.345  1.00  0.00    -0.744 OA
ENDBRANCH  75  76
ENDBRANCH  54  68
BRANCH  55  80
ATOM     80  C   UNL A   1      41.087  28.022  29.561  1.00  0.00     0.058 A 
ATOM     81  C   UNL A   1      42.185  28.101  28.690  1.00  0.00     0.135 A 
ATOM     82  C   UNL A   1      40.157  26.993  29.353  1.00  0.00     0.135 A 
ATOM     83  F   UNL A   1      43.099  29.070  28.851  1.00  0.00    -0.206 F 
ATOM     84  C   UNL A   1      42.350  27.204  27.643  1.00  0.00     0.059 A 
ATOM     85  C   UNL A   1      40.315  26.065  28.329  1.00  0.00     0.059 A 
ATOM     86  F   UNL A   1      39.107  26.858  30.178  1.00  0.00    -0.206 F 
ATOM     87  C   UNL A   1      41.410  26.186  27.472  1.00  0.00     0.060 A 
BRANCH  87  88
ATOM     88  S   UNL A   1      41.661  24.989  26.143  1.00  0.00     0.124 S 
ATOM     89  O   UNL A   1      41.867  25.854  25.001  1.00  0.00    -0.237 OA
ATOM     90  O   UNL A   1      42.832  24.248  26.616  1.00  0.00    -0.237 OA
ATOM     91  O   UNL A   1      40.411  24.223  26.150  1.00  0.00    -0.744 OA
ENDBRANCH  87  88
ENDBRANCH  55  80
BRANCH  67  92
ATOM     92  C   UNL A   1      43.780  28.283  35.980  1.00  0.00     0.058 A 
ATOM     93  C   UNL A   1      43.311  27.214  36.759  1.00  0.00     0.135 A 
ATOM     94  C   UNL A   1      45.168  28.476  35.900  1.00  0.00     0.135 A 
ATOM     95  F   UNL A   1      41.993  26.991  36.877  1.00  0.00    -0.206 F 
ATOM     96  C   UNL A   1      44.185  26.379  37.450  1.00  0.00     0.059 A 
ATOM     97  C   UNL A   1      46.062  27.641  36.565  1.00  0.00     0.059 A 
ATOM     98  F   UNL A   1      45.671  29.482  35.166  1.00  0.00    -0.206 F 
ATOM     99  C   UNL A   1      45.560  26.601  37.347  1.00  0.00     0.060 A 
BRANCH  99 100
ATOM    100  S   UNL A   1      46.685  25.493  38.225  1.00  0.00     0.124 S 
ATOM    101  O   UNL A   1      46.261  25.679  39.609  1.00  0.00    -0.237 OA
ATOM    102  O   UNL A   1      46.372  24.195  37.635  1.00  0.00    -0.237 OA
ATOM    103  O   UNL A   1      48.005  26.022  37.895  1.00  0.00    -0.744 OA
ENDBRANCH  99 100
ENDBRANCH  67  92
ENDBRANCH  41  42
ENDBRANCH  33  36
ENDBRANCH  31  32
ENDBRANCH  30  31
ENDBRANCH  29  30
ENDBRANCH   1  29
TORSDOF 20
ENDMDL
