MODEL 1
REMARK VINA RESULT:     -11.7      0.000      0.000
REMARK SMILES Cc1cc(NC(=O)/C=C/c2ccco2)cc(C(=O)NCCCCNC(=O)c2ccc(-c3c4nc(c(-c5c(F)cc(S(=O)(=O)[O-])cc5F)c5ccc([nH]5)c(-c5c(F)cc(S(=O)(=O)[O-])cc5F)c5nc(c(-c6c(F)cc(S(=O)(=O)[O-])cc6F)c6ccc3[nH]6)C=C5)C=C4)cc2)c1O
REMARK SMILES IDX 21 1 20 2 19 3 17 4 18 5 16 7 1 8 2 9 3 10 93 11 4 12 15 13
REMARK SMILES IDX 94 14 5 16 6 17 7 19 8 20 9 21 10 22 11 23 14 24 12 25 13 26
REMARK SMILES IDX 22 27 23 28 24 29 25 30 26 32 27 33 28 34 92 35 29 36 91 37
REMARK SMILES IDX 30 38 31 39 32 40 85 41 33 42 90 43 84 44 86 45 34 46 89 47
REMARK SMILES IDX 83 48 82 49 35 51 69 52 48 53 68 54 49 55 52 56 67 57 87 58
REMARK SMILES IDX 50 59 51 60 66 62 88 63 53 64 36 65 37 66 46 67 38 68 39 69
REMARK SMILES IDX 45 70 47 71 40 72 41 73 42 74 43 75 44 76 70 77 71 78 80 79
REMARK SMILES IDX 72 80 73 81 79 82 81 83 74 84 75 85 76 86 77 87 78 88 54 89
REMARK SMILES IDX 55 90 64 91 56 92 57 93 63 94 65 95 58 96 59 97 60 98 61 99
REMARK SMILES IDX 62 100
REMARK H PARENT 19 6 94 15 5 18 24 31 86 50 52 61
REMARK Flexibility Score: inf
ROOT
ATOM      1  C   UNL A   1      32.268  29.062  24.640  1.00  0.00     0.023 C 
ENDROOT
BRANCH   1   2
ATOM      2  C   UNL A   1      31.143  28.694  23.675  1.00  0.00     0.116 C 
BRANCH   2   3
ATOM      3  N   UNL A   1      31.478  27.873  22.523  1.00  0.00    -0.352 N 
ATOM      4  C   UNL A   1      31.846  26.533  22.454  1.00  0.00     0.255 C 
ATOM      5  O   UNL A   1      31.842  25.991  21.348  1.00  0.00    -0.269 OA
ATOM      6  H   UNL A   1      31.439  28.339  21.657  1.00  0.00     0.163 HD
BRANCH   4   7
ATOM      7  C   UNL A   1      32.250  25.739  23.664  1.00  0.00     0.083 A 
ATOM      8  C   UNL A   1      30.692  23.559  26.406  1.00  0.00     0.048 C 
ATOM      9  C   UNL A   1      31.693  24.262  25.533  1.00  0.00    -0.006 A 
ATOM     10  C   UNL A   1      33.061  24.108  25.799  1.00  0.00     0.033 A 
ATOM     11  C   UNL A   1      31.300  25.065  24.447  1.00  0.00     0.131 A 
ATOM     12  C   UNL A   1      34.026  24.803  25.068  1.00  0.00     0.042 A 
ATOM     13  C   UNL A   1      33.592  25.670  24.061  1.00  0.00     0.044 A 
BRANCH  11  14
ATOM     14  O   UNL A   1      29.970  25.132  24.134  1.00  0.00    -0.507 OA
ATOM     15  H   UNL A   1      29.648  25.834  23.603  1.00  0.00     0.293 HD
ENDBRANCH  11  14
BRANCH  12  16
ATOM     16  N   UNL A   1      35.378  24.481  25.327  1.00  0.00    -0.322 N 
ATOM     17  C   UNL A   1      36.044  23.286  25.431  1.00  0.00     0.248 C 
ATOM     18  H   UNL A   1      35.955  25.268  25.458  1.00  0.00     0.170 HD
ATOM     19  O   UNL A   1      37.137  23.213  25.981  1.00  0.00    -0.270 OA
BRANCH  17  20
ATOM     20  C   UNL A   1      35.456  22.133  24.740  1.00  0.00     0.075 C 
ATOM     21  C   UNL A   1      35.110  21.038  25.428  1.00  0.00     0.053 C 
BRANCH  21  22
ATOM     22  C   UNL A   1      34.140  20.174  24.846  1.00  0.00     0.126 A 
ATOM     23  C   UNL A   1      32.929  20.472  24.241  1.00  0.00     0.050 A 
ATOM     24  O   UNL A   1      34.376  18.827  24.645  1.00  0.00    -0.465 OA
ATOM     25  C   UNL A   1      32.472  19.302  23.583  1.00  0.00     0.042 A 
ATOM     26  C   UNL A   1      33.391  18.327  23.867  1.00  0.00     0.195 A 
ENDBRANCH  21  22
ENDBRANCH  17  20
ENDBRANCH  12  16
ENDBRANCH   4   7
ENDBRANCH   2   3
ENDBRANCH   1   2
BRANCH   1  27
ATOM     27  C   UNL A   1      32.100  28.759  26.132  1.00  0.00     0.023 C 
BRANCH  27  28
ATOM     28  C   UNL A   1      33.284  28.976  27.081  1.00  0.00     0.116 C 
BRANCH  28  29
ATOM     29  N   UNL A   1      33.363  30.282  27.722  1.00  0.00    -0.352 N 
ATOM     30  C   UNL A   1      34.459  30.874  28.326  1.00  0.00     0.251 C 
ATOM     31  H   UNL A   1      32.533  30.810  27.726  1.00  0.00     0.163 HD
ATOM     32  O   UNL A   1      34.368  32.015  28.775  1.00  0.00    -0.269 OA
BRANCH  30  33
ATOM     33  C   UNL A   1      35.731  30.124  28.472  1.00  0.00     0.039 A 
ATOM     34  C   UNL A   1      36.581  30.023  27.367  1.00  0.00     0.014 A 
ATOM     35  C   UNL A   1      36.118  29.569  29.694  1.00  0.00     0.014 A 
ATOM     36  C   UNL A   1      37.866  29.492  27.524  1.00  0.00     0.010 A 
ATOM     37  C   UNL A   1      37.413  29.073  29.861  1.00  0.00     0.010 A 
ATOM     38  C   UNL A   1      38.317  29.080  28.790  1.00  0.00    -0.014 A 
BRANCH  38  39
ATOM     39  C   UNL A   1      39.764  28.825  29.037  1.00  0.00     0.031 A 
ATOM     40  C   UNL A   1      40.681  29.888  29.571  1.00  0.00     0.074 A 
ATOM     41  C   UNL A   1      40.271  27.626  28.683  1.00  0.00     0.049 A 
ATOM     42  N   UNL A   1      41.964  29.818  29.816  1.00  0.00    -0.248 NA
ATOM     43  C   UNL A   1      40.087  31.204  29.847  1.00  0.00     0.031 C 
ATOM     44  C   UNL A   1      39.503  26.530  28.083  1.00  0.00     0.029 A 
ATOM     45  N   UNL A   1      41.548  27.125  28.764  1.00  0.00    -0.354 N 
ATOM     46  C   UNL A   1      42.338  31.074  30.278  1.00  0.00     0.074 A 
ATOM     47  C   UNL A   1      41.148  31.900  30.237  1.00  0.00     0.031 C 
ATOM     48  C   UNL A   1      40.315  25.483  27.876  1.00  0.00     0.029 A 
ATOM     49  C   UNL A   1      41.667  25.837  28.295  1.00  0.00     0.049 A 
ATOM     50  H   UNL A   1      42.305  27.639  29.126  1.00  0.00     0.167 HD
ATOM     51  C   UNL A   1      43.552  31.493  30.711  1.00  0.00     0.037 A 
ATOM     52  C   UNL A   1      42.740  25.028  28.208  1.00  0.00     0.037 A 
ATOM     53  C   UNL A   1      44.733  30.667  30.754  1.00  0.00     0.049 A 
ATOM     54  C   UNL A   1      44.074  25.513  28.702  1.00  0.00     0.074 A 
ATOM     55  C   UNL A   1      45.993  30.991  31.231  1.00  0.00     0.029 A 
ATOM     56  N   UNL A   1      44.809  29.359  30.297  1.00  0.00    -0.354 N 
ATOM     57  N   UNL A   1      44.386  26.677  29.218  1.00  0.00    -0.248 NA
ATOM     58  C   UNL A   1      45.200  24.572  28.614  1.00  0.00     0.031 C 
ATOM     59  C   UNL A   1      46.838  29.895  31.027  1.00  0.00     0.029 A 
ATOM     60  C   UNL A   1      46.095  28.871  30.463  1.00  0.00     0.049 A 
ATOM     61  H   UNL A   1      44.059  28.853  29.910  1.00  0.00     0.167 HD
ATOM     62  C   UNL A   1      45.735  26.599  29.542  1.00  0.00     0.074 A 
ATOM     63  C   UNL A   1      46.180  25.272  29.169  1.00  0.00     0.031 C 
ATOM     64  C   UNL A   1      46.530  27.544  30.101  1.00  0.00     0.037 A 
BRANCH  51  65
ATOM     65  C   UNL A   1      43.669  32.915  31.186  1.00  0.00     0.058 A 
ATOM     66  C   UNL A   1      43.562  33.244  32.547  1.00  0.00     0.135 A 
ATOM     67  C   UNL A   1      43.937  33.956  30.281  1.00  0.00     0.135 A 
ATOM     68  F   UNL A   1      43.300  32.290  33.454  1.00  0.00    -0.206 F 
ATOM     69  C   UNL A   1      43.683  34.557  32.990  1.00  0.00     0.059 A 
ATOM     70  C   UNL A   1      44.088  35.273  30.704  1.00  0.00     0.059 A 
ATOM     71  F   UNL A   1      44.057  33.697  28.969  1.00  0.00    -0.206 F 
ATOM     72  C   UNL A   1      43.942  35.566  32.061  1.00  0.00     0.060 A 
BRANCH  72  73
ATOM     73  S   UNL A   1      44.087  37.266  32.650  1.00  0.00     0.124 S 
ATOM     74  O   UNL A   1      45.426  37.258  33.230  1.00  0.00    -0.237 OA
ATOM     75  O   UNL A   1      43.935  38.039  31.422  1.00  0.00    -0.237 OA
ATOM     76  O   UNL A   1      42.990  37.389  33.605  1.00  0.00    -0.744 OA
ENDBRANCH  72  73
ENDBRANCH  51  65
BRANCH  52  77
ATOM     77  C   UNL A   1      42.586  23.655  27.658  1.00  0.00     0.058 A 
ATOM     78  C   UNL A   1      42.663  23.421  26.279  1.00  0.00     0.135 A 
ATOM     79  C   UNL A   1      42.384  22.552  28.501  1.00  0.00     0.135 A 
ATOM     80  F   UNL A   1      42.852  24.447  25.433  1.00  0.00    -0.206 F 
ATOM     81  C   UNL A   1      42.533  22.141  25.748  1.00  0.00     0.059 A 
ATOM     82  C   UNL A   1      42.273  21.259  27.998  1.00  0.00     0.059 A 
ATOM     83  F   UNL A   1      42.323  22.723  29.831  1.00  0.00    -0.206 F 
ATOM     84  C   UNL A   1      42.340  21.066  26.618  1.00  0.00     0.060 A 
BRANCH  84  85
ATOM     85  S   UNL A   1      42.226  19.402  25.925  1.00  0.00     0.124 S 
ATOM     86  O   UNL A   1      40.789  19.268  25.716  1.00  0.00    -0.237 OA
ATOM     87  O   UNL A   1      43.041  19.515  24.719  1.00  0.00    -0.237 OA
ATOM     88  O   UNL A   1      42.793  18.564  26.978  1.00  0.00    -0.744 OA
ENDBRANCH  84  85
ENDBRANCH  52  77
BRANCH  64  89
ATOM     89  C   UNL A   1      47.959  27.171  30.384  1.00  0.00     0.058 A 
ATOM     90  C   UNL A   1      49.010  27.580  29.548  1.00  0.00     0.135 A 
ATOM     91  C   UNL A   1      48.286  26.445  31.541  1.00  0.00     0.135 A 
ATOM     92  F   UNL A   1      48.749  28.267  28.424  1.00  0.00    -0.206 F 
ATOM     93  C   UNL A   1      50.335  27.270  29.841  1.00  0.00     0.059 A 
ATOM     94  C   UNL A   1      49.606  26.144  31.866  1.00  0.00     0.059 A 
ATOM     95  F   UNL A   1      47.321  26.035  32.378  1.00  0.00    -0.206 F 
ATOM     96  C   UNL A   1      50.623  26.554  31.004  1.00  0.00     0.060 A 
BRANCH  96  97
ATOM     97  S   UNL A   1      52.350  26.201  31.401  1.00  0.00     0.124 S 
ATOM     98  O   UNL A   1      52.222  25.006  32.228  1.00  0.00    -0.237 OA
ATOM     99  O   UNL A   1      52.939  25.998  30.081  1.00  0.00    -0.237 OA
ATOM    100  O   UNL A   1      52.790  27.405  32.099  1.00  0.00    -0.744 OA
ENDBRANCH  96  97
ENDBRANCH  64  89
ENDBRANCH  38  39
ENDBRANCH  30  33
ENDBRANCH  28  29
ENDBRANCH  27  28
ENDBRANCH   1  27
TORSDOF 18
ENDMDL
MODEL 2
REMARK VINA RESULT:     -11.6      1.310      2.304
REMARK SMILES Cc1cc(NC(=O)/C=C/c2ccco2)cc(C(=O)NCCCCNC(=O)c2ccc(-c3c4nc(c(-c5c(F)cc(S(=O)(=O)[O-])cc5F)c5ccc([nH]5)c(-c5c(F)cc(S(=O)(=O)[O-])cc5F)c5nc(c(-c6c(F)cc(S(=O)(=O)[O-])cc6F)c6ccc3[nH]6)C=C5)C=C4)cc2)c1O
REMARK SMILES IDX 21 1 20 2 19 3 17 4 18 5 16 7 1 8 2 9 3 10 93 11 4 12 15 13
REMARK SMILES IDX 94 14 5 16 6 17 7 19 8 20 9 21 10 22 11 23 14 24 12 25 13 26
REMARK SMILES IDX 22 27 23 28 24 29 25 30 26 32 27 33 28 34 92 35 29 36 91 37
REMARK SMILES IDX 30 38 31 39 32 40 85 41 33 42 90 43 84 44 86 45 34 46 89 47
REMARK SMILES IDX 83 48 82 49 35 51 69 52 48 53 68 54 49 55 52 56 67 57 87 58
REMARK SMILES IDX 50 59 51 60 66 62 88 63 53 64 36 65 37 66 46 67 38 68 39 69
REMARK SMILES IDX 45 70 47 71 40 72 41 73 42 74 43 75 44 76 70 77 71 78 80 79
REMARK SMILES IDX 72 80 73 81 79 82 81 83 74 84 75 85 76 86 77 87 78 88 54 89
REMARK SMILES IDX 55 90 64 91 56 92 57 93 63 94 65 95 58 96 59 97 60 98 61 99
REMARK SMILES IDX 62 100
REMARK H PARENT 19 6 94 15 5 18 24 31 86 50 52 61
REMARK Flexibility Score: inf
ROOT
ATOM      1  C   UNL A   1      31.392  28.454  25.838  1.00  0.00     0.023 C 
ENDROOT
BRANCH   1   2
ATOM      2  C   UNL A   1      31.809  29.479  24.786  1.00  0.00     0.116 C 
BRANCH   2   3
ATOM      3  N   UNL A   1      31.069  29.507  23.535  1.00  0.00    -0.352 N 
ATOM      4  C   UNL A   1      30.461  28.473  22.829  1.00  0.00     0.255 C 
ATOM      5  O   UNL A   1      29.682  28.774  21.924  1.00  0.00    -0.269 OA
ATOM      6  H   UNL A   1      30.984  30.397  23.124  1.00  0.00     0.163 HD
BRANCH   4   7
ATOM      7  C   UNL A   1      30.728  27.024  23.124  1.00  0.00     0.083 A 
ATOM      8  C   UNL A   1      32.891  24.117  21.872  1.00  0.00     0.048 C 
ATOM      9  C   UNL A   1      31.942  24.946  22.693  1.00  0.00    -0.006 A 
ATOM     10  C   UNL A   1      31.345  24.378  23.828  1.00  0.00     0.033 A 
ATOM     11  C   UNL A   1      31.641  26.279  22.363  1.00  0.00     0.131 A 
ATOM     12  C   UNL A   1      30.396  25.079  24.576  1.00  0.00     0.042 A 
ATOM     13  C   UNL A   1      30.048  26.366  24.159  1.00  0.00     0.044 A 
BRANCH  11  14
ATOM     14  O   UNL A   1      32.302  26.855  21.313  1.00  0.00    -0.507 OA
ATOM     15  H   UNL A   1      33.144  26.535  21.057  1.00  0.00     0.293 HD
ENDBRANCH  11  14
BRANCH  12  16
ATOM     16  N   UNL A   1      29.950  24.470  25.772  1.00  0.00    -0.322 N 
ATOM     17  C   UNL A   1      30.566  23.646  26.679  1.00  0.00     0.248 C 
ATOM     18  H   UNL A   1      29.015  24.678  25.997  1.00  0.00     0.170 HD
ATOM     19  O   UNL A   1      29.916  22.968  27.466  1.00  0.00    -0.270 OA
BRANCH  17  20
ATOM     20  C   UNL A   1      32.030  23.715  26.756  1.00  0.00     0.075 C 
ATOM     21  C   UNL A   1      32.763  22.597  26.677  1.00  0.00     0.053 C 
BRANCH  21  22
ATOM     22  C   UNL A   1      34.123  22.729  26.278  1.00  0.00     0.126 A 
ATOM     23  C   UNL A   1      34.915  23.862  26.168  1.00  0.00     0.050 A 
ATOM     24  O   UNL A   1      34.947  21.636  26.091  1.00  0.00    -0.465 OA
ATOM     25  C   UNL A   1      36.258  23.440  26.005  1.00  0.00     0.042 A 
ATOM     26  C   UNL A   1      36.220  22.071  25.958  1.00  0.00     0.195 A 
ENDBRANCH  21  22
ENDBRANCH  17  20
ENDBRANCH  12  16
ENDBRANCH   4   7
ENDBRANCH   2   3
ENDBRANCH   1   2
BRANCH   1  27
ATOM     27  C   UNL A   1      32.061  28.484  27.216  1.00  0.00     0.023 C 
BRANCH  27  28
ATOM     28  C   UNL A   1      33.485  29.038  27.347  1.00  0.00     0.116 C 
BRANCH  28  29
ATOM     29  N   UNL A   1      33.608  30.356  27.954  1.00  0.00    -0.352 N 
ATOM     30  C   UNL A   1      34.737  30.949  28.492  1.00  0.00     0.251 C 
ATOM     31  H   UNL A   1      32.784  30.893  27.987  1.00  0.00     0.163 HD
ATOM     32  O   UNL A   1      34.680  32.100  28.919  1.00  0.00    -0.269 OA
BRANCH  30  33
ATOM     33  C   UNL A   1      36.007  30.188  28.594  1.00  0.00     0.039 A 
ATOM     34  C   UNL A   1      36.856  30.149  27.484  1.00  0.00     0.014 A 
ATOM     35  C   UNL A   1      36.393  29.563  29.781  1.00  0.00     0.014 A 
ATOM     36  C   UNL A   1      38.140  29.607  27.610  1.00  0.00     0.010 A 
ATOM     37  C   UNL A   1      37.687  29.054  29.919  1.00  0.00     0.010 A 
ATOM     38  C   UNL A   1      38.591  29.120  28.850  1.00  0.00    -0.014 A 
BRANCH  38  39
ATOM     39  C   UNL A   1      40.037  28.848  29.080  1.00  0.00     0.031 A 
ATOM     40  C   UNL A   1      40.971  29.898  29.610  1.00  0.00     0.074 A 
ATOM     41  C   UNL A   1      40.527  27.644  28.716  1.00  0.00     0.049 A 
ATOM     42  N   UNL A   1      42.256  29.811  29.841  1.00  0.00    -0.248 NA
ATOM     43  C   UNL A   1      40.395  31.219  29.898  1.00  0.00     0.031 C 
ATOM     44  C   UNL A   1      39.740  26.561  28.119  1.00  0.00     0.029 A 
ATOM     45  N   UNL A   1      41.798  27.129  28.782  1.00  0.00    -0.354 N 
ATOM     46  C   UNL A   1      42.649  31.061  30.305  1.00  0.00     0.074 A 
ATOM     47  C   UNL A   1      41.468  31.902  30.280  1.00  0.00     0.031 C 
ATOM     48  C   UNL A   1      40.537  25.506  27.899  1.00  0.00     0.029 A 
ATOM     49  C   UNL A   1      41.897  25.842  28.306  1.00  0.00     0.049 A 
ATOM     50  H   UNL A   1      42.565  27.633  29.138  1.00  0.00     0.167 HD
ATOM     51  C   UNL A   1      43.872  31.464  30.728  1.00  0.00     0.037 A 
ATOM     52  C   UNL A   1      42.960  25.021  28.204  1.00  0.00     0.037 A 
ATOM     53  C   UNL A   1      45.044  30.624  30.755  1.00  0.00     0.049 A 
ATOM     54  C   UNL A   1      44.305  25.488  28.687  1.00  0.00     0.074 A 
ATOM     55  C   UNL A   1      46.312  30.932  31.221  1.00  0.00     0.029 A 
ATOM     56  N   UNL A   1      45.100  29.318  30.291  1.00  0.00    -0.354 N 
ATOM     57  N   UNL A   1      44.635  26.646  29.204  1.00  0.00    -0.248 NA
ATOM     58  C   UNL A   1      45.418  24.534  28.583  1.00  0.00     0.031 C 
ATOM     59  C   UNL A   1      47.143  29.827  31.003  1.00  0.00     0.029 A 
ATOM     60  C   UNL A   1      46.382  28.814  30.442  1.00  0.00     0.049 A 
ATOM     61  H   UNL A   1      44.340  28.823  29.909  1.00  0.00     0.167 HD
ATOM     62  C   UNL A   1      45.986  26.551  29.514  1.00  0.00     0.074 A 
ATOM     63  C   UNL A   1      46.413  25.221  29.132  1.00  0.00     0.031 C 
ATOM     64  C   UNL A   1      46.798  27.484  30.070  1.00  0.00     0.037 A 
BRANCH  51  65
ATOM     65  C   UNL A   1      44.010  32.883  31.208  1.00  0.00     0.058 A 
ATOM     66  C   UNL A   1      44.348  33.924  30.329  1.00  0.00     0.135 A 
ATOM     67  C   UNL A   1      43.757  33.216  32.550  1.00  0.00     0.135 A 
ATOM     68  F   UNL A   1      44.607  33.661  29.038  1.00  0.00    -0.206 F 
ATOM     69  C   UNL A   1      44.463  35.239  30.768  1.00  0.00     0.059 A 
ATOM     70  C   UNL A   1      43.841  34.528  33.006  1.00  0.00     0.059 A 
ATOM     71  F   UNL A   1      43.423  32.261  33.432  1.00  0.00    -0.206 F 
ATOM     72  C   UNL A   1      44.212  35.531  32.110  1.00  0.00     0.060 A 
BRANCH  72  73
ATOM     73  S   UNL A   1      44.374  37.241  32.666  1.00  0.00     0.124 S 
ATOM     74  O   UNL A   1      43.267  37.344  33.611  1.00  0.00    -0.237 OA
ATOM     75  O   UNL A   1      45.710  37.255  33.253  1.00  0.00    -0.237 OA
ATOM     76  O   UNL A   1      44.223  38.014  31.437  1.00  0.00    -0.744 OA
ENDBRANCH  72  73
ENDBRANCH  51  65
BRANCH  52  77
ATOM     77  C   UNL A   1      42.784  23.652  27.650  1.00  0.00     0.058 A 
ATOM     78  C   UNL A   1      42.948  23.406  26.280  1.00  0.00     0.135 A 
ATOM     79  C   UNL A   1      42.476  22.564  28.480  1.00  0.00     0.135 A 
ATOM     80  F   UNL A   1      43.240  24.417  25.446  1.00  0.00    -0.206 F 
ATOM     81  C   UNL A   1      42.798  22.130  25.746  1.00  0.00     0.059 A 
ATOM     82  C   UNL A   1      42.344  21.274  27.975  1.00  0.00     0.059 A 
ATOM     83  F   UNL A   1      42.330  22.746  29.802  1.00  0.00    -0.206 F 
ATOM     84  C   UNL A   1      42.498  21.070  26.604  1.00  0.00     0.060 A 
BRANCH  84  85
ATOM     85  S   UNL A   1      42.360  19.407  25.911  1.00  0.00     0.124 S 
ATOM     86  O   UNL A   1      42.917  18.594  26.986  1.00  0.00    -0.237 OA
ATOM     87  O   UNL A   1      40.922  19.283  25.694  1.00  0.00    -0.237 OA
ATOM     88  O   UNL A   1      43.164  19.486  24.695  1.00  0.00    -0.744 OA
ENDBRANCH  84  85
ENDBRANCH  52  77
BRANCH  64  89
ATOM     89  C   UNL A   1      48.225  27.094  30.337  1.00  0.00     0.058 A 
ATOM     90  C   UNL A   1      49.249  27.354  29.412  1.00  0.00     0.135 A 
ATOM     91  C   UNL A   1      48.582  26.503  31.561  1.00  0.00     0.135 A 
ATOM     92  F   UNL A   1      48.959  27.906  28.223  1.00  0.00    -0.206 F 
ATOM     93  C   UNL A   1      50.575  27.031  29.685  1.00  0.00     0.059 A 
ATOM     94  C   UNL A   1      49.904  26.194  31.864  1.00  0.00     0.059 A 
ATOM     95  F   UNL A   1      47.643  26.239  32.482  1.00  0.00    -0.206 F 
ATOM     96  C   UNL A   1      50.893  26.454  30.916  1.00  0.00     0.060 A 
BRANCH  96  97
ATOM     97  S   UNL A   1      52.624  26.085  31.281  1.00  0.00     0.124 S 
ATOM     98  O   UNL A   1      53.217  26.116  29.948  1.00  0.00    -0.237 OA
ATOM     99  O   UNL A   1      52.998  27.184  32.166  1.00  0.00    -0.237 OA
ATOM    100  O   UNL A   1      52.565  24.771  31.914  1.00  0.00    -0.744 OA
ENDBRANCH  96  97
ENDBRANCH  64  89
ENDBRANCH  38  39
ENDBRANCH  30  33
ENDBRANCH  28  29
ENDBRANCH  27  28
ENDBRANCH   1  27
TORSDOF 18
ENDMDL
MODEL 3
REMARK VINA RESULT:     -11.5      2.979      9.407
REMARK SMILES Cc1cc(NC(=O)/C=C/c2ccco2)cc(C(=O)NCCCCNC(=O)c2ccc(-c3c4nc(c(-c5c(F)cc(S(=O)(=O)[O-])cc5F)c5ccc([nH]5)c(-c5c(F)cc(S(=O)(=O)[O-])cc5F)c5nc(c(-c6c(F)cc(S(=O)(=O)[O-])cc6F)c6ccc3[nH]6)C=C5)C=C4)cc2)c1O
REMARK SMILES IDX 21 1 20 2 19 3 17 4 18 5 16 7 1 8 2 9 3 10 93 11 4 12 15 13
REMARK SMILES IDX 94 14 5 16 6 17 7 19 8 20 9 21 10 22 11 23 14 24 12 25 13 26
REMARK SMILES IDX 22 27 23 28 24 29 25 30 26 32 27 33 28 34 92 35 29 36 91 37
REMARK SMILES IDX 30 38 31 39 32 40 85 41 33 42 90 43 84 44 86 45 34 46 89 47
REMARK SMILES IDX 83 48 82 49 35 51 69 52 48 53 68 54 49 55 52 56 67 57 87 58
REMARK SMILES IDX 50 59 51 60 66 62 88 63 53 64 36 65 37 66 46 67 38 68 39 69
REMARK SMILES IDX 45 70 47 71 40 72 41 73 42 74 43 75 44 76 70 77 71 78 80 79
REMARK SMILES IDX 72 80 73 81 79 82 81 83 74 84 75 85 76 86 77 87 78 88 54 89
REMARK SMILES IDX 55 90 64 91 56 92 57 93 63 94 65 95 58 96 59 97 60 98 61 99
REMARK SMILES IDX 62 100
REMARK H PARENT 19 6 94 15 5 18 24 31 86 50 52 61
REMARK Flexibility Score: inf
ROOT
ATOM      1  C   UNL A   1      35.880  21.317  24.487  1.00  0.00     0.023 C 
ENDROOT
BRANCH   1   2
ATOM      2  C   UNL A   1      35.108  21.060  25.780  1.00  0.00     0.116 C 
BRANCH   2   3
ATOM      3  N   UNL A   1      33.967  20.163  25.723  1.00  0.00    -0.352 N 
ATOM      4  C   UNL A   1      32.715  20.340  25.141  1.00  0.00     0.255 C 
ATOM      5  O   UNL A   1      31.997  19.348  25.004  1.00  0.00    -0.269 OA
ATOM      6  H   UNL A   1      34.100  19.294  26.165  1.00  0.00     0.163 HD
BRANCH   4   7
ATOM      7  C   UNL A   1      32.214  21.683  24.688  1.00  0.00     0.083 A 
ATOM      8  C   UNL A   1      30.189  24.661  26.000  1.00  0.00     0.048 C 
ATOM      9  C   UNL A   1      31.044  23.784  25.128  1.00  0.00    -0.006 A 
ATOM     10  C   UNL A   1      31.465  24.264  23.879  1.00  0.00     0.033 A 
ATOM     11  C   UNL A   1      31.444  22.498  25.531  1.00  0.00     0.131 A 
ATOM     12  C   UNL A   1      32.192  23.458  23.000  1.00  0.00     0.042 A 
ATOM     13  C   UNL A   1      32.485  22.150  23.394  1.00  0.00     0.044 A 
BRANCH  11  14
ATOM     14  O   UNL A   1      31.110  22.076  26.789  1.00  0.00    -0.507 OA
ATOM     15  H   UNL A   1      31.266  21.188  27.042  1.00  0.00     0.293 HD
ENDBRANCH  11  14
BRANCH  12  16
ATOM     16  N   UNL A   1      32.679  24.074  21.824  1.00  0.00    -0.322 N 
ATOM     17  C   UNL A   1      33.023  25.369  21.530  1.00  0.00     0.248 C 
ATOM     18  H   UNL A   1      32.793  23.453  21.070  1.00  0.00     0.170 HD
ATOM     19  O   UNL A   1      33.109  25.756  20.370  1.00  0.00    -0.270 OA
BRANCH  17  20
ATOM     20  C   UNL A   1      33.414  26.228  22.654  1.00  0.00     0.075 C 
ATOM     21  C   UNL A   1      32.842  27.427  22.818  1.00  0.00     0.053 C 
BRANCH  21  22
ATOM     22  C   UNL A   1      32.875  28.000  24.120  1.00  0.00     0.126 A 
ATOM     23  C   UNL A   1      32.024  27.812  25.199  1.00  0.00     0.050 A 
ATOM     24  O   UNL A   1      33.942  28.753  24.570  1.00  0.00    -0.465 OA
ATOM     25  C   UNL A   1      32.637  28.385  26.341  1.00  0.00     0.042 A 
ATOM     26  C   UNL A   1      33.803  28.951  25.899  1.00  0.00     0.195 A 
ENDBRANCH  21  22
ENDBRANCH  17  20
ENDBRANCH  12  16
ENDBRANCH   4   7
ENDBRANCH   2   3
ENDBRANCH   1   2
BRANCH   1  27
ATOM     27  C   UNL A   1      36.421  22.722  24.208  1.00  0.00     0.023 C 
BRANCH  27  28
ATOM     28  C   UNL A   1      37.380  23.371  25.213  1.00  0.00     0.116 C 
BRANCH  28  29
ATOM     29  N   UNL A   1      38.603  22.634  25.503  1.00  0.00    -0.352 N 
ATOM     30  C   UNL A   1      39.666  23.019  26.301  1.00  0.00     0.251 C 
ATOM     31  H   UNL A   1      38.683  21.750  25.079  1.00  0.00     0.163 HD
ATOM     32  O   UNL A   1      40.605  22.247  26.485  1.00  0.00    -0.269 OA
BRANCH  30  33
ATOM     33  C   UNL A   1      39.700  24.376  26.902  1.00  0.00     0.039 A 
ATOM     34  C   UNL A   1      39.079  24.578  28.137  1.00  0.00     0.014 A 
ATOM     35  C   UNL A   1      40.380  25.431  26.289  1.00  0.00     0.014 A 
ATOM     36  C   UNL A   1      39.257  25.788  28.816  1.00  0.00     0.010 A 
ATOM     37  C   UNL A   1      40.590  26.626  26.982  1.00  0.00     0.010 A 
ATOM     38  C   UNL A   1      40.076  26.795  28.275  1.00  0.00    -0.014 A 
BRANCH  38  39
ATOM     39  C   UNL A   1      40.536  27.935  29.116  1.00  0.00     0.031 A 
ATOM     40  C   UNL A   1      41.846  27.907  29.849  1.00  0.00     0.074 A 
ATOM     41  C   UNL A   1      39.701  28.982  29.284  1.00  0.00     0.049 A 
ATOM     42  N   UNL A   1      42.367  28.816  30.633  1.00  0.00    -0.248 NA
ATOM     43  C   UNL A   1      42.668  26.697  29.700  1.00  0.00     0.031 C 
ATOM     44  C   UNL A   1      38.367  29.101  28.687  1.00  0.00     0.029 A 
ATOM     45  N   UNL A   1      39.840  30.140  30.010  1.00  0.00    -0.354 N 
ATOM     46  C   UNL A   1      43.579  28.296  31.072  1.00  0.00     0.074 A 
ATOM     47  C   UNL A   1      43.693  26.970  30.498  1.00  0.00     0.031 C 
ATOM     48  C   UNL A   1      37.824  30.272  29.050  1.00  0.00     0.029 A 
ATOM     49  C   UNL A   1      38.751  30.977  29.928  1.00  0.00     0.049 A 
ATOM     50  H   UNL A   1      40.644  30.351  30.538  1.00  0.00     0.167 HD
ATOM     51  C   UNL A   1      44.515  28.876  31.863  1.00  0.00     0.037 A 
ATOM     52  C   UNL A   1      38.518  32.176  30.496  1.00  0.00     0.037 A 
ATOM     53  C   UNL A   1      44.400  30.197  32.430  1.00  0.00     0.049 A 
ATOM     54  C   UNL A   1      39.574  32.802  31.363  1.00  0.00     0.074 A 
ATOM     55  C   UNL A   1      45.324  30.888  33.196  1.00  0.00     0.029 A 
ATOM     56  N   UNL A   1      43.295  31.027  32.302  1.00  0.00    -0.354 N 
ATOM     57  N   UNL A   1      40.751  32.329  31.694  1.00  0.00    -0.248 NA
ATOM     58  C   UNL A   1      39.276  34.127  31.925  1.00  0.00     0.031 C 
ATOM     59  C   UNL A   1      44.763  32.116  33.564  1.00  0.00     0.029 A 
ATOM     60  C   UNL A   1      43.507  32.211  32.990  1.00  0.00     0.049 A 
ATOM     61  H   UNL A   1      42.479  30.805  31.797  1.00  0.00     0.167 HD
ATOM     62  C   UNL A   1      41.346  33.310  32.478  1.00  0.00     0.074 A 
ATOM     63  C   UNL A   1      40.403  34.406  32.569  1.00  0.00     0.031 C 
ATOM     64  C   UNL A   1      42.568  33.303  33.067  1.00  0.00     0.037 A 
BRANCH  51  65
ATOM     65  C   UNL A   1      45.760  28.087  32.162  1.00  0.00     0.058 A 
ATOM     66  C   UNL A   1      45.849  27.261  33.294  1.00  0.00     0.135 A 
ATOM     67  C   UNL A   1      46.858  28.117  31.286  1.00  0.00     0.135 A 
ATOM     68  F   UNL A   1      44.831  27.199  34.167  1.00  0.00    -0.206 F 
ATOM     69  C   UNL A   1      46.994  26.519  33.565  1.00  0.00     0.059 A 
ATOM     70  C   UNL A   1      48.004  27.364  31.524  1.00  0.00     0.059 A 
ATOM     71  F   UNL A   1      46.824  28.884  30.185  1.00  0.00    -0.206 F 
ATOM     72  C   UNL A   1      48.069  26.580  32.676  1.00  0.00     0.060 A 
BRANCH  72  73
ATOM     73  S   UNL A   1      49.551  25.620  33.047  1.00  0.00     0.124 S 
ATOM     74  O   UNL A   1      48.974  24.402  33.609  1.00  0.00    -0.237 OA
ATOM     75  O   UNL A   1      50.171  25.478  31.734  1.00  0.00    -0.237 OA
ATOM     76  O   UNL A   1      50.276  26.464  33.992  1.00  0.00    -0.744 OA
ENDBRANCH  72  73
ENDBRANCH  51  65
BRANCH  52  77
ATOM     77  C   UNL A   1      37.236  32.881  30.229  1.00  0.00     0.058 A 
ATOM     78  C   UNL A   1      37.139  33.834  29.206  1.00  0.00     0.135 A 
ATOM     79  C   UNL A   1      36.081  32.598  30.974  1.00  0.00     0.135 A 
ATOM     80  F   UNL A   1      38.219  34.140  28.469  1.00  0.00    -0.206 F 
ATOM     81  C   UNL A   1      35.945  34.494  28.935  1.00  0.00     0.059 A 
ATOM     82  C   UNL A   1      34.869  33.227  30.708  1.00  0.00     0.059 A 
ATOM     83  F   UNL A   1      36.119  31.679  31.951  1.00  0.00    -0.206 F 
ATOM     84  C   UNL A   1      34.814  34.181  29.693  1.00  0.00     0.060 A 
BRANCH  84  85
ATOM     85  S   UNL A   1      33.254  35.003  29.299  1.00  0.00     0.124 S 
ATOM     86  O   UNL A   1      32.631  34.035  28.405  1.00  0.00    -0.237 OA
ATOM     87  O   UNL A   1      32.641  35.146  30.616  1.00  0.00    -0.237 OA
ATOM     88  O   UNL A   1      33.684  36.252  28.679  1.00  0.00    -0.744 OA
ENDBRANCH  84  85
ENDBRANCH  52  77
BRANCH  64  89
ATOM     89  C   UNL A   1      42.978  34.530  33.832  1.00  0.00     0.058 A 
ATOM     90  C   UNL A   1      42.720  34.666  35.205  1.00  0.00     0.135 A 
ATOM     91  C   UNL A   1      43.692  35.558  33.194  1.00  0.00     0.135 A 
ATOM     92  F   UNL A   1      42.032  33.717  35.859  1.00  0.00    -0.206 F 
ATOM     93  C   UNL A   1      43.143  35.785  35.917  1.00  0.00     0.059 A 
ATOM     94  C   UNL A   1      44.145  36.674  33.892  1.00  0.00     0.059 A 
ATOM     95  F   UNL A   1      43.971  35.475  31.885  1.00  0.00    -0.206 F 
ATOM     96  C   UNL A   1      43.858  36.782  35.252  1.00  0.00     0.060 A 
BRANCH  96  97
ATOM     97  S   UNL A   1      44.447  38.205  36.196  1.00  0.00     0.124 S 
ATOM     98  O   UNL A   1      43.628  38.117  37.400  1.00  0.00    -0.237 OA
ATOM     99  O   UNL A   1      45.864  37.901  36.371  1.00  0.00    -0.237 OA
ATOM    100  O   UNL A   1      44.158  39.337  35.320  1.00  0.00    -0.744 OA
ENDBRANCH  96  97
ENDBRANCH  64  89
ENDBRANCH  38  39
ENDBRANCH  30  33
ENDBRANCH  28  29
ENDBRANCH  27  28
ENDBRANCH   1  27
TORSDOF 18
ENDMDL
