MODEL 1
REMARK VINA RESULT:     -11.9      0.000      0.000
REMARK SMILES CC(C)(C)c1cc2c(cc1Cl)C=C(C(=O)NCCCCNC(=O)c1ccc(-c3c4nc(c(-c5c(F)cc(S(=O)(=O)[O-])cc5F)c5ccc([nH]5)c(-c5c(F)cc(S(=O)(=O)[O-])cc5F)c5nc(c(-c6c(F)cc(S(=O)(=O)[O-])cc6F)c6ccc3[nH]6)C=C5)C=C4)cc1)[C@@H](C(F)(F)F)O2
REMARK SMILES IDX 19 1 18 2 17 3 16 4 14 5 15 6 13 8 5 9 6 10 10 11 7 12 9 13
REMARK SMILES IDX 11 14 8 15 95 16 12 17 90 18 2 19 1 20 3 21 4 22 91 23 92 24
REMARK SMILES IDX 93 25 94 26 20 27 21 28 22 29 23 31 24 32 25 33 89 34 26 35
REMARK SMILES IDX 88 36 27 37 28 38 29 39 82 40 30 41 87 42 81 43 83 44 31 45
REMARK SMILES IDX 86 46 80 47 79 48 32 50 66 51 45 52 65 53 46 54 49 55 64 56
REMARK SMILES IDX 84 57 47 58 48 59 63 61 85 62 50 63 33 64 34 65 43 66 35 67
REMARK SMILES IDX 36 68 42 69 44 70 37 71 38 72 39 73 40 74 41 75 67 76 68 77
REMARK SMILES IDX 77 78 69 79 70 80 76 81 78 82 71 83 72 84 73 85 74 86 75 87
REMARK SMILES IDX 51 88 52 89 61 90 53 91 54 92 60 93 62 94 55 95 56 96 57 97
REMARK SMILES IDX 58 98 59 99
REMARK H PARENT 16 7 21 30 83 49 49 60
REMARK Flexibility Score: inf
ROOT
ATOM      1  C   UNL A   1      32.546  28.516  26.998  1.00  0.00     0.023 C 
ENDROOT
BRANCH   1   2
ATOM      2  C   UNL A   1      31.418  29.503  26.685  1.00  0.00     0.023 C 
BRANCH   2   3
ATOM      3  C   UNL A   1      31.431  30.044  25.256  1.00  0.00     0.116 C 
BRANCH   3   4
ATOM      4  N   UNL A   1      30.529  29.314  24.383  1.00  0.00    -0.352 N 
ATOM      5  C   UNL A   1      30.553  28.150  23.692  1.00  0.00     0.251 C 
ATOM      6  O   UNL A   1      29.525  27.890  23.057  1.00  0.00    -0.270 OA
ATOM      7  H   UNL A   1      29.677  29.790  24.263  1.00  0.00     0.163 HD
BRANCH   5   8
ATOM      8  C   UNL A   1      31.699  27.194  23.648  1.00  0.00     0.067 C 
ATOM      9  C   UNL A   1      35.020  23.470  24.676  1.00  0.00    -0.020 A 
ATOM     10  C   UNL A   1      34.699  24.269  23.554  1.00  0.00     0.053 A 
ATOM     11  C   UNL A   1      34.214  23.670  25.825  1.00  0.00     0.045 A 
ATOM     12  C   UNL A   1      33.665  25.206  23.577  1.00  0.00     0.128 A 
ATOM     13  C   UNL A   1      33.157  24.603  25.831  1.00  0.00     0.032 A 
ATOM     14  Cl  UNL A   1      34.417  22.813  27.315  1.00  0.00    -0.084 Cl
ATOM     15  C   UNL A   1      32.880  25.374  24.707  1.00  0.00     0.019 A 
ATOM     16  O   UNL A   1      33.447  25.907  22.424  1.00  0.00    -0.475 OA
ATOM     17  C   UNL A   1      31.773  26.322  24.673  1.00  0.00     0.025 C 
ATOM     18  C   UNL A   1      32.759  27.181  22.582  1.00  0.00     0.314 C 
BRANCH   9  19
ATOM     19  C   UNL A   1      36.191  22.459  24.583  1.00  0.00    -0.012 C 
ATOM     20  C   UNL A   1      36.868  22.523  23.197  1.00  0.00     0.016 C 
ATOM     21  C   UNL A   1      35.707  21.025  24.885  1.00  0.00     0.016 C 
ATOM     22  C   UNL A   1      37.330  22.733  25.608  1.00  0.00     0.016 C 
ENDBRANCH   9  19
BRANCH  18  23
ATOM     23  C   UNL A   1      33.801  28.301  22.772  1.00  0.00     0.429 C 
ATOM     24  F   UNL A   1      34.369  28.213  24.003  1.00  0.00    -0.167 F 
ATOM     25  F   UNL A   1      34.812  28.230  21.876  1.00  0.00    -0.167 F 
ATOM     26  F   UNL A   1      33.265  29.537  22.664  1.00  0.00    -0.167 F 
ENDBRANCH  18  23
ENDBRANCH   5   8
ENDBRANCH   3   4
ENDBRANCH   2   3
ENDBRANCH   1   2
BRANCH   1  27
ATOM     27  C   UNL A   1      33.921  29.138  27.238  1.00  0.00     0.116 C 
BRANCH  27  28
ATOM     28  N   UNL A   1      33.899  30.374  28.010  1.00  0.00    -0.352 N 
ATOM     29  C   UNL A   1      34.923  30.916  28.756  1.00  0.00     0.251 C 
ATOM     30  H   UNL A   1      33.055  30.881  27.996  1.00  0.00     0.163 HD
ATOM     31  O   UNL A   1      34.753  31.939  29.410  1.00  0.00    -0.269 OA
BRANCH  29  32
ATOM     32  C   UNL A   1      36.212  30.197  28.797  1.00  0.00     0.039 A 
ATOM     33  C   UNL A   1      36.669  29.652  29.998  1.00  0.00     0.014 A 
ATOM     34  C   UNL A   1      37.019  30.192  27.657  1.00  0.00     0.014 A 
ATOM     35  C   UNL A   1      38.000  29.267  30.105  1.00  0.00     0.010 A 
ATOM     36  C   UNL A   1      38.337  29.738  27.751  1.00  0.00     0.010 A 
ATOM     37  C   UNL A   1      38.855  29.337  28.993  1.00  0.00    -0.014 A 
BRANCH  37  38
ATOM     38  C   UNL A   1      40.301  29.050  29.169  1.00  0.00     0.031 A 
ATOM     39  C   UNL A   1      40.869  27.716  28.755  1.00  0.00     0.074 A 
ATOM     40  C   UNL A   1      41.118  30.020  29.623  1.00  0.00     0.049 A 
ATOM     41  N   UNL A   1      42.107  27.294  28.813  1.00  0.00    -0.248 NA
ATOM     42  C   UNL A   1      39.926  26.728  28.205  1.00  0.00     0.031 C 
ATOM     43  C   UNL A   1      40.688  31.360  30.028  1.00  0.00     0.029 A 
ATOM     44  N   UNL A   1      42.478  30.041  29.787  1.00  0.00    -0.354 N 
ATOM     45  C   UNL A   1      42.089  25.990  28.331  1.00  0.00     0.074 A 
ATOM     46  C   UNL A   1      40.714  25.680  28.001  1.00  0.00     0.031 C 
ATOM     47  C   UNL A   1      41.769  32.090  30.339  1.00  0.00     0.029 A 
ATOM     48  C   UNL A   1      42.960  31.257  30.208  1.00  0.00     0.049 A 
ATOM     49  H   UNL A   1      43.054  29.261  29.618  1.00  0.00     0.167 HD
ATOM     50  C   UNL A   1      43.125  25.134  28.165  1.00  0.00     0.037 A 
ATOM     51  C   UNL A   1      44.221  31.654  30.468  1.00  0.00     0.037 A 
ATOM     52  C   UNL A   1      44.496  25.456  28.460  1.00  0.00     0.049 A 
ATOM     53  C   UNL A   1      45.347  30.676  30.309  1.00  0.00     0.074 A 
ATOM     54  C   UNL A   1      45.619  24.660  28.310  1.00  0.00     0.029 A 
ATOM     55  N   UNL A   1      44.934  26.674  28.955  1.00  0.00    -0.354 N 
ATOM     56  N   UNL A   1      45.307  29.438  29.878  1.00  0.00    -0.248 NA
ATOM     57  C   UNL A   1      46.688  31.140  30.692  1.00  0.00     0.031 C 
ATOM     58  C   UNL A   1      46.733  25.389  28.741  1.00  0.00     0.029 A 
ATOM     59  C   UNL A   1      46.307  26.648  29.132  1.00  0.00     0.049 A 
ATOM     60  H   UNL A   1      44.354  27.445  29.152  1.00  0.00     0.167 HD
ATOM     61  C   UNL A   1      46.613  28.972  29.944  1.00  0.00     0.074 A 
ATOM     62  C   UNL A   1      47.425  30.068  30.434  1.00  0.00     0.031 C 
ATOM     63  C   UNL A   1      47.095  27.743  29.636  1.00  0.00     0.037 A 
BRANCH  50  64
ATOM     64  C   UNL A   1      42.817  23.757  27.648  1.00  0.00     0.058 A 
ATOM     65  C   UNL A   1      42.789  23.478  26.273  1.00  0.00     0.135 A 
ATOM     66  C   UNL A   1      42.593  22.696  28.538  1.00  0.00     0.135 A 
ATOM     67  F   UNL A   1      42.978  24.463  25.380  1.00  0.00    -0.206 F 
ATOM     68  C   UNL A   1      42.532  22.196  25.798  1.00  0.00     0.059 A 
ATOM     69  C   UNL A   1      42.352  21.401  28.087  1.00  0.00     0.059 A 
ATOM     70  F   UNL A   1      42.607  22.910  29.863  1.00  0.00    -0.206 F 
ATOM     71  C   UNL A   1      42.313  21.164  26.713  1.00  0.00     0.060 A 
BRANCH  71  72
ATOM     72  S   UNL A   1      41.984  19.505  26.081  1.00  0.00     0.124 S 
ATOM     73  O   UNL A   1      42.891  19.446  24.937  1.00  0.00    -0.237 OA
ATOM     74  O   UNL A   1      42.342  18.661  27.215  1.00  0.00    -0.237 OA
ATOM     75  O   UNL A   1      40.562  19.541  25.753  1.00  0.00    -0.744 OA
ENDBRANCH  71  72
ENDBRANCH  50  64
BRANCH  51  76
ATOM     76  C   UNL A   1      44.470  33.047  30.913  1.00  0.00     0.058 A 
ATOM     77  C   UNL A   1      44.647  34.078  29.979  1.00  0.00     0.135 A 
ATOM     78  C   UNL A   1      44.488  33.382  32.275  1.00  0.00     0.135 A 
ATOM     79  F   UNL A   1      44.644  33.803  28.666  1.00  0.00    -0.206 F 
ATOM     80  C   UNL A   1      44.830  35.396  30.381  1.00  0.00     0.059 A 
ATOM     81  C   UNL A   1      44.648  34.695  32.702  1.00  0.00     0.059 A 
ATOM     82  F   UNL A   1      44.309  32.429  33.204  1.00  0.00    -0.206 F 
ATOM     83  C   UNL A   1      44.823  35.696  31.746  1.00  0.00     0.060 A 
BRANCH  83  84
ATOM     84  S   UNL A   1      44.980  37.421  32.258  1.00  0.00     0.124 S 
ATOM     85  O   UNL A   1      46.428  37.587  32.283  1.00  0.00    -0.237 OA
ATOM     86  O   UNL A   1      44.273  38.125  31.194  1.00  0.00    -0.237 OA
ATOM     87  O   UNL A   1      44.317  37.442  33.559  1.00  0.00    -0.744 OA
ENDBRANCH  83  84
ENDBRANCH  51  76
BRANCH  63  88
ATOM     88  C   UNL A   1      48.563  27.514  29.836  1.00  0.00     0.058 A 
ATOM     89  C   UNL A   1      49.059  27.020  31.053  1.00  0.00     0.135 A 
ATOM     90  C   UNL A   1      49.474  27.734  28.793  1.00  0.00     0.135 A 
ATOM     91  F   UNL A   1      48.225  26.801  32.082  1.00  0.00    -0.206 F 
ATOM     92  C   UNL A   1      50.412  26.762  31.232  1.00  0.00     0.059 A 
ATOM     93  C   UNL A   1      50.831  27.467  28.944  1.00  0.00     0.059 A 
ATOM     94  F   UNL A   1      49.045  28.200  27.609  1.00  0.00    -0.206 F 
ATOM     95  C   UNL A   1      51.291  26.988  30.170  1.00  0.00     0.060 A 
BRANCH  95  96
ATOM     96  S   UNL A   1      53.042  26.610  30.401  1.00  0.00     0.124 S 
ATOM     97  O   UNL A   1      53.549  27.877  30.918  1.00  0.00    -0.237 OA
ATOM     98  O   UNL A   1      53.003  25.506  31.356  1.00  0.00    -0.237 OA
ATOM     99  O   UNL A   1      53.491  26.252  29.059  1.00  0.00    -0.744 OA
ENDBRANCH  95  96
ENDBRANCH  63  88
ENDBRANCH  37  38
ENDBRANCH  29  32
ENDBRANCH  27  28
ENDBRANCH   1  27
TORSDOF 16
ENDMDL
MODEL 2
REMARK VINA RESULT:     -11.9      1.459      8.270
REMARK SMILES CC(C)(C)c1cc2c(cc1Cl)C=C(C(=O)NCCCCNC(=O)c1ccc(-c3c4nc(c(-c5c(F)cc(S(=O)(=O)[O-])cc5F)c5ccc([nH]5)c(-c5c(F)cc(S(=O)(=O)[O-])cc5F)c5nc(c(-c6c(F)cc(S(=O)(=O)[O-])cc6F)c6ccc3[nH]6)C=C5)C=C4)cc1)[C@@H](C(F)(F)F)O2
REMARK SMILES IDX 19 1 18 2 17 3 16 4 14 5 15 6 13 8 5 9 6 10 10 11 7 12 9 13
REMARK SMILES IDX 11 14 8 15 95 16 12 17 90 18 2 19 1 20 3 21 4 22 91 23 92 24
REMARK SMILES IDX 93 25 94 26 20 27 21 28 22 29 23 31 24 32 25 33 89 34 26 35
REMARK SMILES IDX 88 36 27 37 28 38 29 39 82 40 30 41 87 42 81 43 83 44 31 45
REMARK SMILES IDX 86 46 80 47 79 48 32 50 66 51 45 52 65 53 46 54 49 55 64 56
REMARK SMILES IDX 84 57 47 58 48 59 63 61 85 62 50 63 33 64 34 65 43 66 35 67
REMARK SMILES IDX 36 68 42 69 44 70 37 71 38 72 39 73 40 74 41 75 67 76 68 77
REMARK SMILES IDX 77 78 69 79 70 80 76 81 78 82 71 83 72 84 73 85 74 86 75 87
REMARK SMILES IDX 51 88 52 89 61 90 53 91 54 92 60 93 62 94 55 95 56 96 57 97
REMARK SMILES IDX 58 98 59 99
REMARK H PARENT 16 7 21 30 83 49 49 60
REMARK Flexibility Score: inf
ROOT
ATOM      1  C   UNL A   1      33.611  29.097  27.328  1.00  0.00     0.023 C 
ENDROOT
BRANCH   1   2
ATOM      2  C   UNL A   1      32.210  29.665  27.083  1.00  0.00     0.023 C 
BRANCH   2   3
ATOM      3  C   UNL A   1      32.053  30.409  25.758  1.00  0.00     0.116 C 
BRANCH   3   4
ATOM      4  N   UNL A   1      31.036  29.812  24.909  1.00  0.00    -0.352 N 
ATOM      5  C   UNL A   1      30.903  28.682  24.176  1.00  0.00     0.251 C 
ATOM      6  O   UNL A   1      29.823  28.557  23.589  1.00  0.00    -0.270 OA
ATOM      7  H   UNL A   1      30.234  30.379  24.853  1.00  0.00     0.163 HD
BRANCH   5   8
ATOM      8  C   UNL A   1      31.938  27.616  24.036  1.00  0.00     0.067 C 
ATOM      9  C   UNL A   1      34.932  23.560  24.774  1.00  0.00    -0.020 A 
ATOM     10  C   UNL A   1      34.608  24.403  23.687  1.00  0.00     0.053 A 
ATOM     11  C   UNL A   1      34.242  23.823  25.984  1.00  0.00     0.045 A 
ATOM     12  C   UNL A   1      33.679  25.440  23.797  1.00  0.00     0.128 A 
ATOM     13  C   UNL A   1      33.290  24.859  26.080  1.00  0.00     0.032 A 
ATOM     14  Cl  UNL A   1      34.472  22.929  27.448  1.00  0.00    -0.084 Cl
ATOM     15  C   UNL A   1      33.007  25.671  24.986  1.00  0.00     0.019 A 
ATOM     16  O   UNL A   1      33.446  26.176  22.669  1.00  0.00    -0.475 OA
ATOM     17  C   UNL A   1      32.003  26.726  25.046  1.00  0.00     0.025 C 
ATOM     18  C   UNL A   1      32.905  27.511  22.889  1.00  0.00     0.314 C 
BRANCH   9  19
ATOM     19  C   UNL A   1      35.982  22.437  24.582  1.00  0.00    -0.012 C 
ATOM     20  C   UNL A   1      36.688  22.567  23.215  1.00  0.00     0.016 C 
ATOM     21  C   UNL A   1      35.334  21.043  24.728  1.00  0.00     0.016 C 
ATOM     22  C   UNL A   1      37.126  22.471  25.638  1.00  0.00     0.016 C 
ENDBRANCH   9  19
BRANCH  18  23
ATOM     23  C   UNL A   1      34.068  28.516  23.004  1.00  0.00     0.429 C 
ATOM     24  F   UNL A   1      33.601  29.789  22.932  1.00  0.00    -0.167 F 
ATOM     25  F   UNL A   1      34.729  28.416  24.180  1.00  0.00    -0.167 F 
ATOM     26  F   UNL A   1      34.986  28.368  22.022  1.00  0.00    -0.167 F 
ENDBRANCH  18  23
ENDBRANCH   5   8
ENDBRANCH   3   4
ENDBRANCH   2   3
ENDBRANCH   1   2
BRANCH   1  27
ATOM     27  C   UNL A   1      34.728  30.130  27.471  1.00  0.00     0.116 C 
BRANCH  27  28
ATOM     28  N   UNL A   1      34.781  30.785  28.772  1.00  0.00    -0.352 N 
ATOM     29  C   UNL A   1      35.819  30.765  29.679  1.00  0.00     0.251 C 
ATOM     30  H   UNL A   1      33.984  31.301  29.032  1.00  0.00     0.163 HD
ATOM     31  O   UNL A   1      35.711  31.314  30.770  1.00  0.00    -0.269 OA
BRANCH  29  32
ATOM     32  C   UNL A   1      37.040  30.014  29.326  1.00  0.00     0.039 A 
ATOM     33  C   UNL A   1      37.783  29.382  30.325  1.00  0.00     0.014 A 
ATOM     34  C   UNL A   1      37.506  30.062  28.011  1.00  0.00     0.014 A 
ATOM     35  C   UNL A   1      39.075  28.958  30.043  1.00  0.00     0.010 A 
ATOM     36  C   UNL A   1      38.780  29.571  27.716  1.00  0.00     0.010 A 
ATOM     37  C   UNL A   1      39.599  29.078  28.745  1.00  0.00    -0.014 A 
BRANCH  37  38
ATOM     38  C   UNL A   1      41.025  28.744  28.503  1.00  0.00     0.031 A 
ATOM     39  C   UNL A   1      42.102  29.765  28.770  1.00  0.00     0.074 A 
ATOM     40  C   UNL A   1      41.358  27.495  28.125  1.00  0.00     0.049 A 
ATOM     41  N   UNL A   1      43.399  29.648  28.639  1.00  0.00    -0.248 NA
ATOM     42  C   UNL A   1      41.667  31.090  29.245  1.00  0.00     0.031 C 
ATOM     43  C   UNL A   1      40.406  26.414  27.864  1.00  0.00     0.029 A 
ATOM     44  N   UNL A   1      42.584  26.917  27.928  1.00  0.00    -0.354 N 
ATOM     45  C   UNL A   1      43.932  30.883  28.991  1.00  0.00     0.074 A 
ATOM     46  C   UNL A   1      42.818  31.744  29.325  1.00  0.00     0.031 C 
ATOM     47  C   UNL A   1      41.085  25.288  27.597  1.00  0.00     0.029 A 
ATOM     48  C   UNL A   1      42.515  25.581  27.614  1.00  0.00     0.049 A 
ATOM     49  H   UNL A   1      43.433  27.410  28.004  1.00  0.00     0.167 HD
ATOM     50  C   UNL A   1      45.232  31.260  29.045  1.00  0.00     0.037 A 
ATOM     51  C   UNL A   1      43.494  24.691  27.361  1.00  0.00     0.037 A 
ATOM     52  C   UNL A   1      46.340  30.393  28.747  1.00  0.00     0.049 A 
ATOM     53  C   UNL A   1      44.925  25.143  27.394  1.00  0.00     0.074 A 
ATOM     54  C   UNL A   1      47.693  30.680  28.789  1.00  0.00     0.029 A 
ATOM     55  N   UNL A   1      46.225  29.067  28.362  1.00  0.00    -0.354 N 
ATOM     56  N   UNL A   1      45.407  26.323  27.703  1.00  0.00    -0.248 NA
ATOM     57  C   UNL A   1      45.943  24.150  27.023  1.00  0.00     0.031 C 
ATOM     58  C   UNL A   1      48.396  29.533  28.402  1.00  0.00     0.029 A 
ATOM     59  C   UNL A   1      47.481  28.524  28.147  1.00  0.00     0.049 A 
ATOM     60  H   UNL A   1      45.375  28.581  28.256  1.00  0.00     0.167 HD
ATOM     61  C   UNL A   1      46.785  26.217  27.557  1.00  0.00     0.074 A 
ATOM     62  C   UNL A   1      47.060  24.852  27.156  1.00  0.00     0.031 C 
ATOM     63  C   UNL A   1      47.734  27.169  27.731  1.00  0.00     0.037 A 
BRANCH  50  64
ATOM     64  C   UNL A   1      45.530  32.681  29.433  1.00  0.00     0.058 A 
ATOM     65  C   UNL A   1      45.948  33.016  30.730  1.00  0.00     0.135 A 
ATOM     66  C   UNL A   1      45.442  33.712  28.485  1.00  0.00     0.135 A 
ATOM     67  F   UNL A   1      46.030  32.069  31.679  1.00  0.00    -0.206 F 
ATOM     68  C   UNL A   1      46.252  34.328  31.079  1.00  0.00     0.059 A 
ATOM     69  C   UNL A   1      45.758  35.029  28.806  1.00  0.00     0.059 A 
ATOM     70  F   UNL A   1      45.044  33.445  27.231  1.00  0.00    -0.206 F 
ATOM     71  C   UNL A   1      46.152  35.329  30.111  1.00  0.00     0.060 A 
BRANCH  71  72
ATOM     72  S   UNL A   1      46.552  37.026  30.577  1.00  0.00     0.124 S 
ATOM     73  O   UNL A   1      45.589  37.781  29.781  1.00  0.00    -0.237 OA
ATOM     74  O   UNL A   1      46.316  37.020  32.016  1.00  0.00    -0.237 OA
ATOM     75  O   UNL A   1      47.948  37.169  30.175  1.00  0.00    -0.744 OA
ENDBRANCH  71  72
ENDBRANCH  50  64
BRANCH  51  76
ATOM     76  C   UNL A   1      43.140  23.284  27.048  1.00  0.00     0.058 A 
ATOM     77  C   UNL A   1      43.197  22.806  25.731  1.00  0.00     0.135 A 
ATOM     78  C   UNL A   1      42.787  22.382  28.062  1.00  0.00     0.135 A 
ATOM     79  F   UNL A   1      43.524  23.636  24.729  1.00  0.00    -0.206 F 
ATOM     80  C   UNL A   1      42.918  21.478  25.430  1.00  0.00     0.059 A 
ATOM     81  C   UNL A   1      42.524  21.044  27.789  1.00  0.00     0.059 A 
ATOM     82  F   UNL A   1      42.733  22.792  29.339  1.00  0.00    -0.206 F 
ATOM     83  C   UNL A   1      42.588  20.603  26.468  1.00  0.00     0.060 A 
BRANCH  83  84
ATOM     84  S   UNL A   1      42.307  18.861  26.080  1.00  0.00     0.124 S 
ATOM     85  O   UNL A   1      40.890  18.865  25.734  1.00  0.00    -0.237 OA
ATOM     86  O   UNL A   1      43.234  18.636  24.977  1.00  0.00    -0.237 OA
ATOM     87  O   UNL A   1      42.653  18.184  27.326  1.00  0.00    -0.744 OA
ENDBRANCH  83  84
ENDBRANCH  51  76
BRANCH  63  88
ATOM     88  C   UNL A   1      49.156  26.772  27.471  1.00  0.00     0.058 A 
ATOM     89  C   UNL A   1      49.752  26.996  26.220  1.00  0.00     0.135 A 
ATOM     90  C   UNL A   1      49.946  26.218  28.489  1.00  0.00     0.135 A 
ATOM     91  F   UNL A   1      49.033  27.518  25.213  1.00  0.00    -0.206 F 
ATOM     92  C   UNL A   1      51.083  26.673  25.984  1.00  0.00     0.059 A 
ATOM     93  C   UNL A   1      51.285  25.902  28.280  1.00  0.00     0.059 A 
ATOM     94  F   UNL A   1      49.421  25.991  29.703  1.00  0.00    -0.206 F 
ATOM     95  C   UNL A   1      51.842  26.127  27.021  1.00  0.00     0.060 A 
BRANCH  95  96
ATOM     96  S   UNL A   1      53.581  25.749  26.715  1.00  0.00     0.124 S 
ATOM     97  O   UNL A   1      53.967  26.845  25.832  1.00  0.00    -0.237 OA
ATOM     98  O   UNL A   1      54.152  25.786  28.058  1.00  0.00    -0.237 OA
ATOM     99  O   UNL A   1      53.536  24.428  26.096  1.00  0.00    -0.744 OA
ENDBRANCH  95  96
ENDBRANCH  63  88
ENDBRANCH  37  38
ENDBRANCH  29  32
ENDBRANCH  27  28
ENDBRANCH   1  27
TORSDOF 16
ENDMDL
MODEL 3
REMARK VINA RESULT:     -11.5      5.203     10.585
REMARK SMILES CC(C)(C)c1cc2c(cc1Cl)C=C(C(=O)NCCCCNC(=O)c1ccc(-c3c4nc(c(-c5c(F)cc(S(=O)(=O)[O-])cc5F)c5ccc([nH]5)c(-c5c(F)cc(S(=O)(=O)[O-])cc5F)c5nc(c(-c6c(F)cc(S(=O)(=O)[O-])cc6F)c6ccc3[nH]6)C=C5)C=C4)cc1)[C@@H](C(F)(F)F)O2
REMARK SMILES IDX 19 1 18 2 17 3 16 4 14 5 15 6 13 8 5 9 6 10 10 11 7 12 9 13
REMARK SMILES IDX 11 14 8 15 95 16 12 17 90 18 2 19 1 20 3 21 4 22 91 23 92 24
REMARK SMILES IDX 93 25 94 26 20 27 21 28 22 29 23 31 24 32 25 33 89 34 26 35
REMARK SMILES IDX 88 36 27 37 28 38 29 39 82 40 30 41 87 42 81 43 83 44 31 45
REMARK SMILES IDX 86 46 80 47 79 48 32 50 66 51 45 52 65 53 46 54 49 55 64 56
REMARK SMILES IDX 84 57 47 58 48 59 63 61 85 62 50 63 33 64 34 65 43 66 35 67
REMARK SMILES IDX 36 68 42 69 44 70 37 71 38 72 39 73 40 74 41 75 67 76 68 77
REMARK SMILES IDX 77 78 69 79 70 80 76 81 78 82 71 83 72 84 73 85 74 86 75 87
REMARK SMILES IDX 51 88 52 89 61 90 53 91 54 92 60 93 62 94 55 95 56 96 57 97
REMARK SMILES IDX 58 98 59 99
REMARK H PARENT 16 7 21 30 83 49 49 60
REMARK Flexibility Score: inf
ROOT
ATOM      1  C   UNL A   1      37.160  23.583  25.185  1.00  0.00     0.023 C 
ENDROOT
BRANCH   1   2
ATOM      2  C   UNL A   1      37.411  22.126  24.787  1.00  0.00     0.023 C 
BRANCH   2   3
ATOM      3  C   UNL A   1      36.937  21.100  25.815  1.00  0.00     0.116 C 
BRANCH   3   4
ATOM      4  N   UNL A   1      35.971  20.169  25.258  1.00  0.00    -0.352 N 
ATOM      5  C   UNL A   1      34.684  20.216  24.838  1.00  0.00     0.251 C 
ATOM      6  O   UNL A   1      34.230  19.151  24.407  1.00  0.00    -0.270 OA
ATOM      7  H   UNL A   1      36.352  19.267  25.159  1.00  0.00     0.163 HD
BRANCH   5   8
ATOM      8  C   UNL A   1      33.811  21.426  24.863  1.00  0.00     0.067 C 
ATOM      9  C   UNL A   1      31.531  25.850  23.774  1.00  0.00    -0.020 A 
ATOM     10  C   UNL A   1      31.271  24.751  24.625  1.00  0.00     0.053 A 
ATOM     11  C   UNL A   1      32.675  25.729  22.945  1.00  0.00     0.045 A 
ATOM     12  C   UNL A   1      32.094  23.624  24.662  1.00  0.00     0.128 A 
ATOM     13  C   UNL A   1      33.488  24.578  22.974  1.00  0.00     0.032 A 
ATOM     14  Cl  UNL A   1      33.196  26.942  21.826  1.00  0.00    -0.084 Cl
ATOM     15  C   UNL A   1      33.200  23.522  23.833  1.00  0.00     0.019 A 
ATOM     16  O   UNL A   1      31.728  22.626  25.520  1.00  0.00    -0.475 OA
ATOM     17  C   UNL A   1      34.003  22.306  23.860  1.00  0.00     0.025 C 
ATOM     18  C   UNL A   1      32.796  21.725  25.931  1.00  0.00     0.314 C 
BRANCH   9  19
ATOM     19  C   UNL A   1      30.581  27.073  23.796  1.00  0.00    -0.012 C 
ATOM     20  C   UNL A   1      31.158  28.207  24.671  1.00  0.00     0.016 C 
ATOM     21  C   UNL A   1      29.174  26.671  24.287  1.00  0.00     0.016 C 
ATOM     22  C   UNL A   1      30.360  27.712  22.393  1.00  0.00     0.016 C 
ENDBRANCH   9  19
BRANCH  18  23
ATOM     23  C   UNL A   1      33.441  22.260  27.224  1.00  0.00     0.429 C 
ATOM     24  F   UNL A   1      32.487  22.727  28.070  1.00  0.00    -0.167 F 
ATOM     25  F   UNL A   1      34.120  21.306  27.901  1.00  0.00    -0.167 F 
ATOM     26  F   UNL A   1      34.307  23.273  26.996  1.00  0.00    -0.167 F 
ENDBRANCH  18  23
ENDBRANCH   5   8
ENDBRANCH   3   4
ENDBRANCH   2   3
ENDBRANCH   1   2
BRANCH   1  27
ATOM     27  C   UNL A   1      38.073  24.136  26.279  1.00  0.00     0.116 C 
BRANCH  27  28
ATOM     28  N   UNL A   1      39.492  23.877  26.069  1.00  0.00    -0.352 N 
ATOM     29  C   UNL A   1      40.558  24.582  26.584  1.00  0.00     0.251 C 
ATOM     30  H   UNL A   1      39.714  23.110  25.492  1.00  0.00     0.163 HD
ATOM     31  O   UNL A   1      41.710  24.293  26.279  1.00  0.00    -0.269 OA
BRANCH  29  32
ATOM     32  C   UNL A   1      40.274  25.733  27.463  1.00  0.00     0.039 A 
ATOM     33  C   UNL A   1      40.945  26.942  27.269  1.00  0.00     0.014 A 
ATOM     34  C   UNL A   1      39.433  25.551  28.564  1.00  0.00     0.014 A 
ATOM     35  C   UNL A   1      40.917  27.902  28.273  1.00  0.00     0.010 A 
ATOM     36  C   UNL A   1      39.353  26.549  29.538  1.00  0.00     0.010 A 
ATOM     37  C   UNL A   1      40.147  27.702  29.431  1.00  0.00    -0.014 A 
BRANCH  37  38
ATOM     38  C   UNL A   1      40.243  28.680  30.545  1.00  0.00     0.031 A 
ATOM     39  C   UNL A   1      39.272  29.829  30.635  1.00  0.00     0.074 A 
ATOM     40  C   UNL A   1      41.151  28.484  31.520  1.00  0.00     0.049 A 
ATOM     41  N   UNL A   1      39.187  30.766  31.544  1.00  0.00    -0.248 NA
ATOM     42  C   UNL A   1      38.264  29.941  29.567  1.00  0.00     0.031 C 
ATOM     43  C   UNL A   1      42.125  27.392  31.556  1.00  0.00     0.029 A 
ATOM     44  N   UNL A   1      41.379  29.174  32.682  1.00  0.00    -0.354 N 
ATOM     45  C   UNL A   1      38.138  31.589  31.149  1.00  0.00     0.074 A 
ATOM     46  C   UNL A   1      37.626  31.053  29.906  1.00  0.00     0.031 C 
ATOM     47  C   UNL A   1      42.807  27.452  32.710  1.00  0.00     0.029 A 
ATOM     48  C   UNL A   1      42.358  28.615  33.468  1.00  0.00     0.049 A 
ATOM     49  H   UNL A   1      40.888  29.991  32.930  1.00  0.00     0.167 HD
ATOM     50  C   UNL A   1      37.639  32.683  31.772  1.00  0.00     0.037 A 
ATOM     51  C   UNL A   1      42.845  29.001  34.663  1.00  0.00     0.037 A 
ATOM     52  C   UNL A   1      38.127  33.195  33.025  1.00  0.00     0.049 A 
ATOM     53  C   UNL A   1      42.298  30.237  35.315  1.00  0.00     0.074 A 
ATOM     54  C   UNL A   1      37.675  34.289  33.743  1.00  0.00     0.029 A 
ATOM     55  N   UNL A   1      39.169  32.643  33.753  1.00  0.00    -0.354 N 
ATOM     56  N   UNL A   1      41.324  31.017  34.912  1.00  0.00    -0.248 NA
ATOM     57  C   UNL A   1      42.929  30.657  36.574  1.00  0.00     0.031 C 
ATOM     58  C   UNL A   1      38.463  34.414  34.892  1.00  0.00     0.029 A 
ATOM     59  C   UNL A   1      39.387  33.381  34.904  1.00  0.00     0.049 A 
ATOM     60  H   UNL A   1      39.680  31.843  33.491  1.00  0.00     0.167 HD
ATOM     61  C   UNL A   1      41.230  32.025  35.863  1.00  0.00     0.074 A 
ATOM     62  C   UNL A   1      42.229  31.743  36.874  1.00  0.00     0.031 C 
ATOM     63  C   UNL A   1      40.396  33.094  35.890  1.00  0.00     0.037 A 
BRANCH  50  64
ATOM     64  C   UNL A   1      36.509  33.412  31.102  1.00  0.00     0.058 A 
ATOM     65  C   UNL A   1      36.708  34.162  29.933  1.00  0.00     0.135 A 
ATOM     66  C   UNL A   1      35.203  33.322  31.609  1.00  0.00     0.135 A 
ATOM     67  F   UNL A   1      37.942  34.295  29.418  1.00  0.00    -0.206 F 
ATOM     68  C   UNL A   1      35.654  34.812  29.298  1.00  0.00     0.059 A 
ATOM     69  C   UNL A   1      34.130  33.949  30.981  1.00  0.00     0.059 A 
ATOM     70  F   UNL A   1      34.959  32.619  32.726  1.00  0.00    -0.206 F 
ATOM     71  C   UNL A   1      34.369  34.701  29.831  1.00  0.00     0.060 A 
BRANCH  71  72
ATOM     72  S   UNL A   1      33.011  35.547  28.995  1.00  0.00     0.124 S 
ATOM     73  O   UNL A   1      32.435  34.462  28.207  1.00  0.00    -0.237 OA
ATOM     74  O   UNL A   1      32.199  36.018  30.111  1.00  0.00    -0.237 OA
ATOM     75  O   UNL A   1      33.683  36.592  28.228  1.00  0.00    -0.744 OA
ENDBRANCH  71  72
ENDBRANCH  50  64
BRANCH  51  76
ATOM     76  C   UNL A   1      43.917  28.203  35.307  1.00  0.00     0.058 A 
ATOM     77  C   UNL A   1      43.605  27.203  36.239  1.00  0.00     0.135 A 
ATOM     78  C   UNL A   1      45.265  28.390  34.967  1.00  0.00     0.135 A 
ATOM     79  F   UNL A   1      42.330  26.994  36.598  1.00  0.00    -0.206 F 
ATOM     80  C   UNL A   1      44.595  26.412  36.812  1.00  0.00     0.059 A 
ATOM     81  C   UNL A   1      46.271  27.599  35.510  1.00  0.00     0.059 A 
ATOM     82  F   UNL A   1      45.608  29.326  34.068  1.00  0.00    -0.206 F 
ATOM     83  C   UNL A   1      45.925  26.614  36.435  1.00  0.00     0.060 A 
BRANCH  83  84
ATOM     84  S   UNL A   1      47.197  25.530  37.122  1.00  0.00     0.124 S 
ATOM     85  O   UNL A   1      46.420  24.343  37.455  1.00  0.00    -0.237 OA
ATOM     86  O   UNL A   1      48.124  25.394  36.003  1.00  0.00    -0.237 OA
ATOM     87  O   UNL A   1      47.707  26.294  38.257  1.00  0.00    -0.744 OA
ENDBRANCH  83  84
ENDBRANCH  51  76
BRANCH  63  88
ATOM     88  C   UNL A   1      40.542  34.046  37.039  1.00  0.00     0.058 A 
ATOM     89  C   UNL A   1      41.481  35.089  37.000  1.00  0.00     0.135 A 
ATOM     90  C   UNL A   1      39.704  33.954  38.160  1.00  0.00     0.135 A 
ATOM     91  F   UNL A   1      42.309  35.212  35.951  1.00  0.00    -0.206 F 
ATOM     92  C   UNL A   1      41.592  36.002  38.041  1.00  0.00     0.059 A 
ATOM     93  C   UNL A   1      39.786  34.867  39.206  1.00  0.00     0.059 A 
ATOM     94  F   UNL A   1      38.787  32.977  38.238  1.00  0.00    -0.206 F 
ATOM     95  C   UNL A   1      40.738  35.884  39.140  1.00  0.00     0.060 A 
BRANCH  95  96
ATOM     96  S   UNL A   1      40.863  37.102  40.467  1.00  0.00     0.124 S 
ATOM     97  O   UNL A   1      41.956  36.555  41.264  1.00  0.00    -0.237 OA
ATOM     98  O   UNL A   1      41.163  38.331  39.740  1.00  0.00    -0.237 OA
ATOM     99  O   UNL A   1      39.544  37.058  41.092  1.00  0.00    -0.744 OA
ENDBRANCH  95  96
ENDBRANCH  63  88
ENDBRANCH  37  38
ENDBRANCH  29  32
ENDBRANCH  27  28
ENDBRANCH   1  27
TORSDOF 16
ENDMDL
