MODEL 1
REMARK VINA RESULT:     -13.1      0.000      0.000
REMARK SMILES Cc1ccc(C(=O)[C@@H](C)[C@H](C)C(=O)NCCCCNC(=O)c2ccc(-c3c4nc(c(-c5c(F)cc(S(=O)(=O)[O-])cc5F)c5ccc([nH]5)c(-c5c(F)cc(S(=O)(=O)[O-])cc5F)c5nc(c(-c6c(F)cc(S(=O)(=O)[O-])cc6F)c6ccc3[nH]6)C=C5)C=C4)cc2)cc1
REMARK SMILES IDX 16 1 15 2 14 3 12 4 13 5 10 7 11 8 8 9 9 10 6 11 7 12 5 13
REMARK SMILES IDX 1 14 2 15 3 16 89 17 4 18 88 19 17 20 18 21 19 22 20 23
REMARK SMILES IDX 21 25 22 26 23 27 87 28 24 29 86 30 25 31 26 32 27 33 80 34
REMARK SMILES IDX 28 35 85 36 79 37 81 38 29 39 84 40 78 41 77 42 30 44 64 45
REMARK SMILES IDX 43 46 63 47 44 48 47 49 62 50 82 51 45 52 46 53 61 55 83 56
REMARK SMILES IDX 48 57 31 58 32 59 41 60 33 61 34 62 40 63 42 64 35 65 36 66
REMARK SMILES IDX 37 67 38 68 39 69 65 70 66 71 75 72 67 73 68 74 74 75 76 76
REMARK SMILES IDX 69 77 70 78 71 79 72 80 73 81 49 82 50 83 59 84 51 85 52 86
REMARK SMILES IDX 58 87 60 88 53 89 54 90 55 91 56 92 57 93
REMARK H PARENT 14 6 19 24 81 43 47 54
REMARK Flexibility Score: inf
ROOT
ATOM      1  C   UNL A   1      32.666  29.485  25.421  1.00  0.00     0.023 C 
ENDROOT
BRANCH   1   2
ATOM      2  C   UNL A   1      32.094  29.030  24.075  1.00  0.00     0.116 C 
BRANCH   2   3
ATOM      3  N   UNL A   1      31.034  28.031  24.191  1.00  0.00    -0.356 N 
ATOM      4  C   UNL A   1      30.880  26.750  24.589  1.00  0.00     0.223 C 
ATOM      5  O   UNL A   1      29.699  26.367  24.617  1.00  0.00    -0.275 OA
ATOM      6  H   UNL A   1      30.175  28.405  23.889  1.00  0.00     0.163 HD
BRANCH   4   7
ATOM      7  C   UNL A   1      31.973  25.730  24.946  1.00  0.00     0.086 C 
ATOM      8  C   UNL A   1      31.983  25.395  26.436  1.00  0.00     0.019 C 
BRANCH   7   9
ATOM      9  C   UNL A   1      32.337  24.619  23.917  1.00  0.00     0.070 C 
ATOM     10  C   UNL A   1      31.906  23.191  24.240  1.00  0.00     0.017 C 
BRANCH   9  11
ATOM     11  C   UNL A   1      33.723  24.673  23.238  1.00  0.00     0.166 C 
ATOM     12  O   UNL A   1      33.846  25.245  22.150  1.00  0.00    -0.294 OA
BRANCH  11  13
ATOM     13  C   UNL A   1      34.950  24.082  23.854  1.00  0.00     0.018 A 
ATOM     14  C   UNL A   1      38.224  22.018  25.775  1.00  0.00     0.044 C 
ATOM     15  C   UNL A   1      37.123  22.786  25.102  1.00  0.00    -0.051 A 
ATOM     16  C   UNL A   1      36.389  23.760  25.787  1.00  0.00     0.004 A 
ATOM     17  C   UNL A   1      36.785  22.493  23.785  1.00  0.00     0.004 A 
ATOM     18  C   UNL A   1      35.308  24.404  25.168  1.00  0.00     0.012 A 
ATOM     19  C   UNL A   1      35.717  23.148  23.176  1.00  0.00     0.012 A 
ENDBRANCH  11  13
ENDBRANCH   9  11
ENDBRANCH   7   9
ENDBRANCH   4   7
ENDBRANCH   2   3
ENDBRANCH   1   2
BRANCH   1  20
ATOM     20  C   UNL A   1      33.959  28.801  25.901  1.00  0.00     0.023 C 
BRANCH  20  21
ATOM     21  C   UNL A   1      34.377  29.069  27.345  1.00  0.00     0.116 C 
BRANCH  21  22
ATOM     22  N   UNL A   1      34.963  30.392  27.530  1.00  0.00    -0.352 N 
ATOM     23  C   UNL A   1      36.214  30.740  28.023  1.00  0.00     0.251 C 
ATOM     24  H   UNL A   1      34.388  31.147  27.268  1.00  0.00     0.163 HD
ATOM     25  O   UNL A   1      36.513  31.900  28.221  1.00  0.00    -0.269 OA
BRANCH  23  26
ATOM     26  C   UNL A   1      37.206  29.658  28.213  1.00  0.00     0.039 A 
ATOM     27  C   UNL A   1      37.296  29.050  29.470  1.00  0.00     0.014 A 
ATOM     28  C   UNL A   1      38.160  29.412  27.236  1.00  0.00     0.014 A 
ATOM     29  C   UNL A   1      38.450  28.344  29.812  1.00  0.00     0.010 A 
ATOM     30  C   UNL A   1      39.347  28.821  27.611  1.00  0.00     0.010 A 
ATOM     31  C   UNL A   1      39.509  28.312  28.910  1.00  0.00    -0.014 A 
BRANCH  31  32
ATOM     32  C   UNL A   1      40.840  27.779  29.190  1.00  0.00     0.031 A 
ATOM     33  C   UNL A   1      41.187  26.417  28.716  1.00  0.00     0.074 A 
ATOM     34  C   UNL A   1      41.791  28.597  29.688  1.00  0.00     0.049 A 
ATOM     35  N   UNL A   1      42.285  25.795  28.971  1.00  0.00    -0.248 NA
ATOM     36  C   UNL A   1      40.265  25.635  27.900  1.00  0.00     0.031 C 
ATOM     37  C   UNL A   1      43.238  28.405  29.648  1.00  0.00     0.029 A 
ATOM     38  N   UNL A   1      41.611  29.686  30.541  1.00  0.00    -0.354 N 
ATOM     39  C   UNL A   1      42.324  24.654  28.198  1.00  0.00     0.074 A 
ATOM     40  C   UNL A   1      41.036  24.605  27.549  1.00  0.00     0.031 C 
ATOM     41  C   UNL A   1      43.800  29.144  30.617  1.00  0.00     0.029 A 
ATOM     42  C   UNL A   1      42.720  29.695  31.417  1.00  0.00     0.049 A 
ATOM     43  H   UNL A   1      40.860  30.324  30.534  1.00  0.00     0.167 HD
ATOM     44  C   UNL A   1      43.478  23.928  28.132  1.00  0.00     0.037 A 
ATOM     45  C   UNL A   1      42.530  29.439  32.746  1.00  0.00     0.037 A 
ATOM     46  C   UNL A   1      44.454  24.413  29.109  1.00  0.00     0.049 A 
ATOM     47  C   UNL A   1      43.148  28.138  33.231  1.00  0.00     0.074 A 
ATOM     48  C   UNL A   1      45.516  25.302  29.067  1.00  0.00     0.029 A 
ATOM     49  N   UNL A   1      44.191  24.197  30.450  1.00  0.00    -0.354 N 
ATOM     50  N   UNL A   1      43.802  27.295  32.477  1.00  0.00    -0.248 NA
ATOM     51  C   UNL A   1      43.004  27.654  34.607  1.00  0.00     0.031 C 
ATOM     52  C   UNL A   1      45.815  25.692  30.407  1.00  0.00     0.029 A 
ATOM     53  C   UNL A   1      44.948  25.027  31.255  1.00  0.00     0.049 A 
ATOM     54  H   UNL A   1      43.544  23.536  30.788  1.00  0.00     0.167 HD
ATOM     55  C   UNL A   1      44.092  26.172  33.203  1.00  0.00     0.074 A 
ATOM     56  C   UNL A   1      43.598  26.451  34.538  1.00  0.00     0.031 C 
ATOM     57  C   UNL A   1      44.672  25.057  32.678  1.00  0.00     0.037 A 
BRANCH  44  58
ATOM     58  C   UNL A   1      43.793  22.901  27.063  1.00  0.00     0.058 A 
ATOM     59  C   UNL A   1      43.000  21.739  26.935  1.00  0.00     0.135 A 
ATOM     60  C   UNL A   1      44.884  22.961  26.174  1.00  0.00     0.135 A 
ATOM     61  F   UNL A   1      41.882  21.575  27.656  1.00  0.00    -0.206 F 
ATOM     62  C   UNL A   1      43.322  20.685  26.075  1.00  0.00     0.059 A 
ATOM     63  C   UNL A   1      45.266  21.895  25.352  1.00  0.00     0.059 A 
ATOM     64  F   UNL A   1      45.597  24.082  26.011  1.00  0.00    -0.206 F 
ATOM     65  C   UNL A   1      44.481  20.754  25.313  1.00  0.00     0.060 A 
BRANCH  65  66
ATOM     66  S   UNL A   1      44.935  19.353  24.275  1.00  0.00     0.124 S 
ATOM     67  O   UNL A   1      46.391  19.357  24.371  1.00  0.00    -0.237 OA
ATOM     68  O   UNL A   1      44.255  18.248  24.941  1.00  0.00    -0.237 OA
ATOM     69  O   UNL A   1      44.403  19.714  22.963  1.00  0.00    -0.744 OA
ENDBRANCH  65  66
ENDBRANCH  44  58
BRANCH  45  70
ATOM     70  C   UNL A   1      41.256  30.032  33.251  1.00  0.00     0.058 A 
ATOM     71  C   UNL A   1      41.233  31.424  33.487  1.00  0.00     0.135 A 
ATOM     72  C   UNL A   1      40.028  29.386  33.063  1.00  0.00     0.135 A 
ATOM     73  F   UNL A   1      42.382  32.088  33.695  1.00  0.00    -0.206 F 
ATOM     74  C   UNL A   1      40.070  32.169  33.340  1.00  0.00     0.059 A 
ATOM     75  C   UNL A   1      38.843  30.112  32.942  1.00  0.00     0.059 A 
ATOM     76  F   UNL A   1      39.982  28.064  32.841  1.00  0.00    -0.206 F 
ATOM     77  C   UNL A   1      38.893  31.506  32.997  1.00  0.00     0.060 A 
BRANCH  77  78
ATOM     78  S   UNL A   1      37.493  32.498  32.435  1.00  0.00     0.124 S 
ATOM     79  O   UNL A   1      37.753  32.618  31.005  1.00  0.00    -0.237 OA
ATOM     80  O   UNL A   1      36.362  31.650  32.805  1.00  0.00    -0.237 OA
ATOM     81  O   UNL A   1      37.625  33.732  33.202  1.00  0.00    -0.744 OA
ENDBRANCH  77  78
ENDBRANCH  45  70
BRANCH  57  82
ATOM     82  C   UNL A   1      45.008  23.884  33.537  1.00  0.00     0.058 A 
ATOM     83  C   UNL A   1      46.321  23.671  33.983  1.00  0.00     0.135 A 
ATOM     84  C   UNL A   1      44.057  22.895  33.848  1.00  0.00     0.135 A 
ATOM     85  F   UNL A   1      47.286  24.563  33.703  1.00  0.00    -0.206 F 
ATOM     86  C   UNL A   1      46.674  22.546  34.721  1.00  0.00     0.059 A 
ATOM     87  C   UNL A   1      44.393  21.745  34.555  1.00  0.00     0.059 A 
ATOM     88  F   UNL A   1      42.773  23.039  33.486  1.00  0.00    -0.206 F 
ATOM     89  C   UNL A   1      45.701  21.588  35.004  1.00  0.00     0.060 A 
BRANCH  89  90
ATOM     90  S   UNL A   1      46.153  20.117  35.943  1.00  0.00     0.124 S 
ATOM     91  O   UNL A   1      45.380  19.065  35.291  1.00  0.00    -0.237 OA
ATOM     92  O   UNL A   1      47.595  20.067  35.725  1.00  0.00    -0.237 OA
ATOM     93  O   UNL A   1      45.730  20.447  37.301  1.00  0.00    -0.744 OA
ENDBRANCH  89  90
ENDBRANCH  57  82
ENDBRANCH  31  32
ENDBRANCH  23  26
ENDBRANCH  21  22
ENDBRANCH  20  21
ENDBRANCH   1  20
TORSDOF 17
ENDMDL
MODEL 2
REMARK VINA RESULT:     -13.1      1.573      1.993
REMARK SMILES Cc1ccc(C(=O)[C@@H](C)[C@H](C)C(=O)NCCCCNC(=O)c2ccc(-c3c4nc(c(-c5c(F)cc(S(=O)(=O)[O-])cc5F)c5ccc([nH]5)c(-c5c(F)cc(S(=O)(=O)[O-])cc5F)c5nc(c(-c6c(F)cc(S(=O)(=O)[O-])cc6F)c6ccc3[nH]6)C=C5)C=C4)cc2)cc1
REMARK SMILES IDX 16 1 15 2 14 3 12 4 13 5 10 7 11 8 8 9 9 10 6 11 7 12 5 13
REMARK SMILES IDX 1 14 2 15 3 16 89 17 4 18 88 19 17 20 18 21 19 22 20 23
REMARK SMILES IDX 21 25 22 26 23 27 87 28 24 29 86 30 25 31 26 32 27 33 80 34
REMARK SMILES IDX 28 35 85 36 79 37 81 38 29 39 84 40 78 41 77 42 30 44 64 45
REMARK SMILES IDX 43 46 63 47 44 48 47 49 62 50 82 51 45 52 46 53 61 55 83 56
REMARK SMILES IDX 48 57 31 58 32 59 41 60 33 61 34 62 40 63 42 64 35 65 36 66
REMARK SMILES IDX 37 67 38 68 39 69 65 70 66 71 75 72 67 73 68 74 74 75 76 76
REMARK SMILES IDX 69 77 70 78 71 79 72 80 73 81 49 82 50 83 59 84 51 85 52 86
REMARK SMILES IDX 58 87 60 88 53 89 54 90 55 91 56 92 57 93
REMARK H PARENT 14 6 19 24 81 43 47 54
REMARK Flexibility Score: inf
ROOT
ATOM      1  C   UNL A   1      32.094  27.735  27.121  1.00  0.00     0.023 C 
ENDROOT
BRANCH   1   2
ATOM      2  C   UNL A   1      32.204  26.579  26.122  1.00  0.00     0.116 C 
BRANCH   2   3
ATOM      3  N   UNL A   1      31.514  25.364  26.547  1.00  0.00    -0.356 N 
ATOM      4  C   UNL A   1      31.812  24.106  26.940  1.00  0.00     0.223 C 
ATOM      5  O   UNL A   1      30.833  23.454  27.336  1.00  0.00    -0.275 OA
ATOM      6  H   UNL A   1      30.539  25.504  26.548  1.00  0.00     0.163 HD
BRANCH   4   7
ATOM      7  C   UNL A   1      33.175  23.398  26.899  1.00  0.00     0.086 C 
ATOM      8  C   UNL A   1      33.288  22.306  27.960  1.00  0.00     0.019 C 
BRANCH   7   9
ATOM      9  C   UNL A   1      33.883  23.198  25.526  1.00  0.00     0.070 C 
ATOM     10  C   UNL A   1      34.665  24.379  24.959  1.00  0.00     0.017 C 
BRANCH   9  11
ATOM     11  C   UNL A   1      33.144  22.403  24.428  1.00  0.00     0.166 C 
ATOM     12  O   UNL A   1      32.448  23.004  23.603  1.00  0.00    -0.294 OA
BRANCH  11  13
ATOM     13  C   UNL A   1      33.252  20.917  24.293  1.00  0.00     0.018 A 
ATOM     14  C   UNL A   1      33.832  16.705  23.528  1.00  0.00     0.044 C 
ATOM     15  C   UNL A   1      33.586  18.154  23.835  1.00  0.00    -0.051 A 
ATOM     16  C   UNL A   1      32.475  18.830  23.319  1.00  0.00     0.004 A 
ATOM     17  C   UNL A   1      34.503  18.860  24.606  1.00  0.00     0.004 A 
ATOM     18  C   UNL A   1      32.309  20.204  23.546  1.00  0.00     0.012 A 
ATOM     19  C   UNL A   1      34.322  20.222  24.834  1.00  0.00     0.012 A 
ENDBRANCH  11  13
ENDBRANCH   9  11
ENDBRANCH   7   9
ENDBRANCH   4   7
ENDBRANCH   2   3
ENDBRANCH   1   2
BRANCH   1  20
ATOM     20  C   UNL A   1      32.877  29.020  26.796  1.00  0.00     0.023 C 
BRANCH  20  21
ATOM     21  C   UNL A   1      34.369  29.009  27.121  1.00  0.00     0.116 C 
BRANCH  21  22
ATOM     22  N   UNL A   1      34.862  30.309  27.564  1.00  0.00    -0.352 N 
ATOM     23  C   UNL A   1      36.034  30.621  28.241  1.00  0.00     0.251 C 
ATOM     24  H   UNL A   1      34.280  31.074  27.354  1.00  0.00     0.163 HD
ATOM     25  O   UNL A   1      36.249  31.748  28.641  1.00  0.00    -0.269 OA
BRANCH  23  26
ATOM     26  C   UNL A   1      37.055  29.558  28.380  1.00  0.00     0.039 A 
ATOM     27  C   UNL A   1      37.170  28.901  29.610  1.00  0.00     0.014 A 
ATOM     28  C   UNL A   1      38.008  29.378  27.387  1.00  0.00     0.014 A 
ATOM     29  C   UNL A   1      38.345  28.213  29.915  1.00  0.00     0.010 A 
ATOM     30  C   UNL A   1      39.213  28.804  27.729  1.00  0.00     0.010 A 
ATOM     31  C   UNL A   1      39.398  28.245  29.004  1.00  0.00    -0.014 A 
BRANCH  31  32
ATOM     32  C   UNL A   1      40.744  27.737  29.253  1.00  0.00     0.031 A 
ATOM     33  C   UNL A   1      41.098  26.374  28.788  1.00  0.00     0.074 A 
ATOM     34  C   UNL A   1      41.697  28.575  29.712  1.00  0.00     0.049 A 
ATOM     35  N   UNL A   1      42.213  25.772  29.019  1.00  0.00    -0.248 NA
ATOM     36  C   UNL A   1      40.166  25.567  28.009  1.00  0.00     0.031 C 
ATOM     37  C   UNL A   1      43.144  28.405  29.634  1.00  0.00     0.029 A 
ATOM     38  N   UNL A   1      41.524  29.674  30.556  1.00  0.00    -0.354 N 
ATOM     39  C   UNL A   1      42.247  24.621  28.260  1.00  0.00     0.074 A 
ATOM     40  C   UNL A   1      40.942  24.543  27.649  1.00  0.00     0.031 C 
ATOM     41  C   UNL A   1      43.722  29.165  30.576  1.00  0.00     0.029 A 
ATOM     42  C   UNL A   1      42.657  29.711  31.400  1.00  0.00     0.049 A 
ATOM     43  H   UNL A   1      40.763  30.299  30.563  1.00  0.00     0.167 HD
ATOM     44  C   UNL A   1      43.410  23.912  28.171  1.00  0.00     0.037 A 
ATOM     45  C   UNL A   1      42.509  29.470  32.737  1.00  0.00     0.037 A 
ATOM     46  C   UNL A   1      44.405  24.425  29.113  1.00  0.00     0.049 A 
ATOM     47  C   UNL A   1      43.160  28.185  33.222  1.00  0.00     0.074 A 
ATOM     48  C   UNL A   1      45.452  25.328  29.029  1.00  0.00     0.029 A 
ATOM     49  N   UNL A   1      44.184  24.223  30.464  1.00  0.00    -0.354 N 
ATOM     50  N   UNL A   1      43.805  27.342  32.460  1.00  0.00    -0.248 NA
ATOM     51  C   UNL A   1      43.063  27.718  34.607  1.00  0.00     0.031 C 
ATOM     52  C   UNL A   1      45.783  25.742  30.354  1.00  0.00     0.029 A 
ATOM     53  C   UNL A   1      44.951  25.075  31.235  1.00  0.00     0.049 A 
ATOM     54  H   UNL A   1      43.558  23.557  30.829  1.00  0.00     0.167 HD
ATOM     55  C   UNL A   1      44.133  26.233  33.192  1.00  0.00     0.074 A 
ATOM     56  C   UNL A   1      43.673  26.523  34.537  1.00  0.00     0.031 C 
ATOM     57  C   UNL A   1      44.715  25.120  32.666  1.00  0.00     0.037 A 
BRANCH  44  58
ATOM     58  C   UNL A   1      43.711  22.875  27.107  1.00  0.00     0.058 A 
ATOM     59  C   UNL A   1      42.989  21.661  27.071  1.00  0.00     0.135 A 
ATOM     60  C   UNL A   1      44.724  22.978  26.134  1.00  0.00     0.135 A 
ATOM     61  F   UNL A   1      41.943  21.447  27.881  1.00  0.00    -0.206 F 
ATOM     62  C   UNL A   1      43.314  20.605  26.215  1.00  0.00     0.059 A 
ATOM     63  C   UNL A   1      45.112  21.914  25.312  1.00  0.00     0.059 A 
ATOM     64  F   UNL A   1      45.346  24.137  25.888  1.00  0.00    -0.206 F 
ATOM     65  C   UNL A   1      44.403  20.724  25.364  1.00  0.00     0.060 A 
BRANCH  65  66
ATOM     66  S   UNL A   1      44.869  19.325  24.329  1.00  0.00     0.124 S 
ATOM     67  O   UNL A   1      46.308  19.239  24.555  1.00  0.00    -0.237 OA
ATOM     68  O   UNL A   1      44.069  18.246  24.898  1.00  0.00    -0.237 OA
ATOM     69  O   UNL A   1      44.481  19.750  22.986  1.00  0.00    -0.744 OA
ENDBRANCH  65  66
ENDBRANCH  44  58
BRANCH  45  70
ATOM     70  C   UNL A   1      41.240  30.050  33.270  1.00  0.00     0.058 A 
ATOM     71  C   UNL A   1      41.183  31.452  33.433  1.00  0.00     0.135 A 
ATOM     72  C   UNL A   1      40.027  29.358  33.176  1.00  0.00     0.135 A 
ATOM     73  F   UNL A   1      42.318  32.161  33.551  1.00  0.00    -0.206 F 
ATOM     74  C   UNL A   1      39.990  32.152  33.303  1.00  0.00     0.059 A 
ATOM     75  C   UNL A   1      38.815  30.040  33.074  1.00  0.00     0.059 A 
ATOM     76  F   UNL A   1      40.015  28.026  33.027  1.00  0.00    -0.206 F 
ATOM     77  C   UNL A   1      38.822  31.436  33.053  1.00  0.00     0.060 A 
BRANCH  77  78
ATOM     78  S   UNL A   1      37.365  32.354  32.507  1.00  0.00     0.124 S 
ATOM     79  O   UNL A   1      36.938  33.015  33.735  1.00  0.00    -0.237 OA
ATOM     80  O   UNL A   1      37.933  33.227  31.481  1.00  0.00    -0.237 OA
ATOM     81  O   UNL A   1      36.474  31.310  32.014  1.00  0.00    -0.744 OA
ENDBRANCH  77  78
ENDBRANCH  45  70
BRANCH  57  82
ATOM     82  C   UNL A   1      45.094  23.964  33.530  1.00  0.00     0.058 A 
ATOM     83  C   UNL A   1      46.381  23.868  34.080  1.00  0.00     0.135 A 
ATOM     84  C   UNL A   1      44.222  22.881  33.744  1.00  0.00     0.135 A 
ATOM     85  F   UNL A   1      47.273  24.855  33.897  1.00  0.00    -0.206 F 
ATOM     86  C   UNL A   1      46.780  22.764  34.827  1.00  0.00     0.059 A 
ATOM     87  C   UNL A   1      44.610  21.752  34.457  1.00  0.00     0.059 A 
ATOM     88  F   UNL A   1      42.964  22.909  33.278  1.00  0.00    -0.206 F 
ATOM     89  C   UNL A   1      45.886  21.710  35.011  1.00  0.00     0.060 A 
BRANCH  89  90
ATOM     90  S   UNL A   1      46.403  20.267  35.960  1.00  0.00     0.124 S 
ATOM     91  O   UNL A   1      45.424  19.256  35.573  1.00  0.00    -0.237 OA
ATOM     92  O   UNL A   1      47.756  20.059  35.455  1.00  0.00    -0.237 OA
ATOM     93  O   UNL A   1      46.307  20.727  37.342  1.00  0.00    -0.744 OA
ENDBRANCH  89  90
ENDBRANCH  57  82
ENDBRANCH  31  32
ENDBRANCH  23  26
ENDBRANCH  21  22
ENDBRANCH  20  21
ENDBRANCH   1  20
TORSDOF 17
ENDMDL
MODEL 3
REMARK VINA RESULT:     -13.1      4.729     11.399
REMARK SMILES Cc1ccc(C(=O)[C@@H](C)[C@H](C)C(=O)NCCCCNC(=O)c2ccc(-c3c4nc(c(-c5c(F)cc(S(=O)(=O)[O-])cc5F)c5ccc([nH]5)c(-c5c(F)cc(S(=O)(=O)[O-])cc5F)c5nc(c(-c6c(F)cc(S(=O)(=O)[O-])cc6F)c6ccc3[nH]6)C=C5)C=C4)cc2)cc1
REMARK SMILES IDX 16 1 15 2 14 3 12 4 13 5 10 7 11 8 8 9 9 10 6 11 7 12 5 13
REMARK SMILES IDX 1 14 2 15 3 16 89 17 4 18 88 19 17 20 18 21 19 22 20 23
REMARK SMILES IDX 21 25 22 26 23 27 87 28 24 29 86 30 25 31 26 32 27 33 80 34
REMARK SMILES IDX 28 35 85 36 79 37 81 38 29 39 84 40 78 41 77 42 30 44 64 45
REMARK SMILES IDX 43 46 63 47 44 48 47 49 62 50 82 51 45 52 46 53 61 55 83 56
REMARK SMILES IDX 48 57 31 58 32 59 41 60 33 61 34 62 40 63 42 64 35 65 36 66
REMARK SMILES IDX 37 67 38 68 39 69 65 70 66 71 75 72 67 73 68 74 74 75 76 76
REMARK SMILES IDX 69 77 70 78 71 79 72 80 73 81 49 82 50 83 59 84 51 85 52 86
REMARK SMILES IDX 58 87 60 88 53 89 54 90 55 91 56 92 57 93
REMARK H PARENT 14 6 19 24 81 43 47 54
REMARK Flexibility Score: inf
ROOT
ATOM      1  C   UNL A   1      36.182  21.645  25.094  1.00  0.00     0.023 C 
ENDROOT
BRANCH   1   2
ATOM      2  C   UNL A   1      35.218  21.804  26.275  1.00  0.00     0.116 C 
BRANCH   2   3
ATOM      3  N   UNL A   1      33.899  21.224  26.041  1.00  0.00    -0.356 N 
ATOM      4  C   UNL A   1      32.800  21.458  25.290  1.00  0.00     0.223 C 
ATOM      5  O   UNL A   1      31.941  20.565  25.358  1.00  0.00    -0.275 OA
ATOM      6  H   UNL A   1      33.771  20.422  26.598  1.00  0.00     0.163 HD
BRANCH   4   7
ATOM      7  C   UNL A   1      32.483  22.694  24.434  1.00  0.00     0.086 C 
ATOM      8  C   UNL A   1      32.730  22.443  22.948  1.00  0.00     0.019 C 
BRANCH   7   9
ATOM      9  C   UNL A   1      31.315  23.631  24.860  1.00  0.00     0.070 C 
ATOM     10  C   UNL A   1      30.632  24.449  23.768  1.00  0.00     0.017 C 
BRANCH   9  11
ATOM     11  C   UNL A   1      31.450  24.418  26.183  1.00  0.00     0.166 C 
ATOM     12  O   UNL A   1      31.045  23.915  27.236  1.00  0.00    -0.294 OA
BRANCH  11  13
ATOM     13  C   UNL A   1      32.082  25.771  26.258  1.00  0.00     0.018 A 
ATOM     14  C   UNL A   1      34.101  29.540  26.880  1.00  0.00     0.044 C 
ATOM     15  C   UNL A   1      33.366  28.258  26.618  1.00  0.00    -0.051 A 
ATOM     16  C   UNL A   1      32.050  28.068  27.053  1.00  0.00     0.004 A 
ATOM     17  C   UNL A   1      34.017  27.210  25.974  1.00  0.00     0.004 A 
ATOM     18  C   UNL A   1      31.412  26.833  26.876  1.00  0.00     0.012 A 
ATOM     19  C   UNL A   1      33.369  25.991  25.792  1.00  0.00     0.012 A 
ENDBRANCH  11  13
ENDBRANCH   9  11
ENDBRANCH   7   9
ENDBRANCH   4   7
ENDBRANCH   2   3
ENDBRANCH   1   2
BRANCH   1  20
ATOM     20  C   UNL A   1      37.043  22.866  24.722  1.00  0.00     0.023 C 
BRANCH  20  21
ATOM     21  C   UNL A   1      37.557  23.717  25.880  1.00  0.00     0.116 C 
BRANCH  21  22
ATOM     22  N   UNL A   1      38.832  23.244  26.409  1.00  0.00    -0.352 N 
ATOM     23  C   UNL A   1      39.860  23.964  27.003  1.00  0.00     0.251 C 
ATOM     24  H   UNL A   1      38.985  22.275  26.333  1.00  0.00     0.163 HD
ATOM     25  O   UNL A   1      40.914  23.435  27.293  1.00  0.00    -0.269 OA
BRANCH  23  26
ATOM     26  C   UNL A   1      39.598  25.377  27.357  1.00  0.00     0.039 A 
ATOM     27  C   UNL A   1      40.124  26.379  26.534  1.00  0.00     0.014 A 
ATOM     28  C   UNL A   1      39.034  25.692  28.586  1.00  0.00     0.014 A 
ATOM     29  C   UNL A   1      40.259  27.676  27.029  1.00  0.00     0.010 A 
ATOM     30  C   UNL A   1      39.276  26.939  29.119  1.00  0.00     0.010 A 
ATOM     31  C   UNL A   1      39.916  27.927  28.355  1.00  0.00    -0.014 A 
BRANCH  31  32
ATOM     32  C   UNL A   1      40.171  29.175  29.070  1.00  0.00     0.031 A 
ATOM     33  C   UNL A   1      39.109  30.210  29.116  1.00  0.00     0.074 A 
ATOM     34  C   UNL A   1      41.272  29.286  29.842  1.00  0.00     0.049 A 
ATOM     35  N   UNL A   1      39.233  31.384  29.631  1.00  0.00    -0.248 NA
ATOM     36  C   UNL A   1      37.788  29.975  28.545  1.00  0.00     0.031 C 
ATOM     37  C   UNL A   1      41.504  30.231  30.931  1.00  0.00     0.029 A 
ATOM     38  N   UNL A   1      42.515  28.684  29.637  1.00  0.00    -0.354 N 
ATOM     39  C   UNL A   1      37.987  31.973  29.667  1.00  0.00     0.074 A 
ATOM     40  C   UNL A   1      37.122  31.048  28.974  1.00  0.00     0.031 C 
ATOM     41  C   UNL A   1      42.826  30.350  31.127  1.00  0.00     0.029 A 
ATOM     42  C   UNL A   1      43.486  29.621  30.058  1.00  0.00     0.049 A 
ATOM     43  H   UNL A   1      42.682  27.785  29.271  1.00  0.00     0.167 HD
ATOM     44  C   UNL A   1      37.816  33.139  30.355  1.00  0.00     0.037 A 
ATOM     45  C   UNL A   1      44.322  30.185  29.135  1.00  0.00     0.037 A 
ATOM     46  C   UNL A   1      39.105  33.684  30.784  1.00  0.00     0.049 A 
ATOM     47  C   UNL A   1      44.111  31.674  28.920  1.00  0.00     0.074 A 
ATOM     48  C   UNL A   1      39.856  33.609  31.945  1.00  0.00     0.029 A 
ATOM     49  N   UNL A   1      39.954  34.180  29.811  1.00  0.00    -0.354 N 
ATOM     50  N   UNL A   1      43.209  32.395  29.531  1.00  0.00    -0.248 NA
ATOM     51  C   UNL A   1      44.864  32.449  27.931  1.00  0.00     0.031 C 
ATOM     52  C   UNL A   1      41.198  33.972  31.623  1.00  0.00     0.029 A 
ATOM     53  C   UNL A   1      41.252  34.283  30.277  1.00  0.00     0.049 A 
ATOM     54  H   UNL A   1      39.670  34.428  28.902  1.00  0.00     0.167 HD
ATOM     55  C   UNL A   1      43.202  33.655  28.996  1.00  0.00     0.074 A 
ATOM     56  C   UNL A   1      44.272  33.652  28.016  1.00  0.00     0.031 C 
ATOM     57  C   UNL A   1      42.303  34.620  29.336  1.00  0.00     0.037 A 
BRANCH  44  58
ATOM     58  C   UNL A   1      36.476  33.693  30.798  1.00  0.00     0.058 A 
ATOM     59  C   UNL A   1      35.552  34.173  29.844  1.00  0.00     0.135 A 
ATOM     60  C   UNL A   1      36.058  33.837  32.136  1.00  0.00     0.135 A 
ATOM     61  F   UNL A   1      35.772  34.034  28.529  1.00  0.00    -0.206 F 
ATOM     62  C   UNL A   1      34.368  34.830  30.190  1.00  0.00     0.059 A 
ATOM     63  C   UNL A   1      34.913  34.548  32.512  1.00  0.00     0.059 A 
ATOM     64  F   UNL A   1      36.707  33.240  33.143  1.00  0.00    -0.206 F 
ATOM     65  C   UNL A   1      34.074  35.048  31.529  1.00  0.00     0.060 A 
BRANCH  65  66
ATOM     66  S   UNL A   1      32.591  35.975  31.964  1.00  0.00     0.124 S 
ATOM     67  O   UNL A   1      33.098  36.926  32.948  1.00  0.00    -0.237 OA
ATOM     68  O   UNL A   1      32.196  36.538  30.678  1.00  0.00    -0.237 OA
ATOM     69  O   UNL A   1      31.695  34.953  32.500  1.00  0.00    -0.744 OA
ENDBRANCH  65  66
ENDBRANCH  44  58
BRANCH  45  70
ATOM     70  C   UNL A   1      44.726  29.207  28.080  1.00  0.00     0.058 A 
ATOM     71  C   UNL A   1      45.654  28.205  28.441  1.00  0.00     0.135 A 
ATOM     72  C   UNL A   1      43.922  28.973  26.958  1.00  0.00     0.135 A 
ATOM     73  F   UNL A   1      46.465  28.390  29.497  1.00  0.00    -0.206 F 
ATOM     74  C   UNL A   1      45.641  26.952  27.843  1.00  0.00     0.059 A 
ATOM     75  C   UNL A   1      43.915  27.731  26.325  1.00  0.00     0.059 A 
ATOM     76  F   UNL A   1      43.027  29.889  26.561  1.00  0.00    -0.206 F 
ATOM     77  C   UNL A   1      44.715  26.706  26.831  1.00  0.00     0.060 A 
BRANCH  77  78
ATOM     78  S   UNL A   1      44.440  24.992  26.332  1.00  0.00     0.124 S 
ATOM     79  O   UNL A   1      44.260  24.321  27.614  1.00  0.00    -0.237 OA
ATOM     80  O   UNL A   1      43.239  25.114  25.506  1.00  0.00    -0.237 OA
ATOM     81  O   UNL A   1      45.660  24.651  25.611  1.00  0.00    -0.744 OA
ENDBRANCH  77  78
ENDBRANCH  45  70
BRANCH  57  82
ATOM     82  C   UNL A   1      42.383  35.991  28.752  1.00  0.00     0.058 A 
ATOM     83  C   UNL A   1      41.819  36.272  27.498  1.00  0.00     0.135 A 
ATOM     84  C   UNL A   1      43.108  37.022  29.376  1.00  0.00     0.135 A 
ATOM     85  F   UNL A   1      41.133  35.327  26.835  1.00  0.00    -0.206 F 
ATOM     86  C   UNL A   1      41.945  37.522  26.900  1.00  0.00     0.059 A 
ATOM     87  C   UNL A   1      43.277  38.269  28.781  1.00  0.00     0.059 A 
ATOM     88  F   UNL A   1      43.651  36.844  30.590  1.00  0.00    -0.206 F 
ATOM     89  C   UNL A   1      42.675  38.515  27.551  1.00  0.00     0.060 A 
BRANCH  89  90
ATOM     90  S   UNL A   1      42.861  40.131  26.772  1.00  0.00     0.124 S 
ATOM     91  O   UNL A   1      43.984  39.927  25.863  1.00  0.00    -0.237 OA
ATOM     92  O   UNL A   1      41.558  40.297  26.138  1.00  0.00    -0.237 OA
ATOM     93  O   UNL A   1      43.131  41.014  27.903  1.00  0.00    -0.744 OA
ENDBRANCH  89  90
ENDBRANCH  57  82
ENDBRANCH  31  32
ENDBRANCH  23  26
ENDBRANCH  21  22
ENDBRANCH  20  21
ENDBRANCH   1  20
TORSDOF 17
ENDMDL
