MODEL 1
REMARK VINA RESULT:     -10.5      0.000      0.000
REMARK SMILES O=C(NCCCCNC(=O)c1ccc(Br)c(NC(=S)NC(=O)c2cccs2)c1)c1ccc(-c2c3nc(c(-c4c(F)cc(S(=O)(=O)[O-])cc4F)c4ccc([nH]4)c(-c4c(F)cc(S(=O)(=O)[O-])cc4F)c4nc(c(-c5c(F)cc(S(=O)(=O)[O-])cc5F)c5ccc2[nH]5)C=C4)C=C3)cc1
REMARK SMILES IDX 6 1 5 2 4 3 3 4 1 5 2 6 29 8 30 9 94 10 31 11 93 12 32 13
REMARK SMILES IDX 33 14 34 15 87 16 35 17 92 18 86 19 88 20 36 21 91 22 85 23
REMARK SMILES IDX 84 24 37 26 71 27 50 28 70 29 51 30 54 31 69 32 89 33 52 34
REMARK SMILES IDX 53 35 68 37 90 38 55 39 38 40 39 41 48 42 40 43 41 44 47 45
REMARK SMILES IDX 49 46 42 47 43 48 44 49 45 50 46 51 72 52 73 53 82 54 74 55
REMARK SMILES IDX 75 56 81 57 83 58 76 59 77 60 78 61 79 62 80 63 56 64 57 65
REMARK SMILES IDX 66 66 58 67 59 68 65 69 67 70 60 71 61 72 62 73 63 74 64 75
REMARK SMILES IDX 7 76 8 77 9 78 10 80 11 81 12 82 28 83 13 84 16 85 14 86
REMARK SMILES IDX 15 87 17 88 18 90 19 91 20 92 21 93 22 95 23 96 24 97 27 98
REMARK SMILES IDX 25 99 26 100
REMARK H PARENT 3 7 88 25 54 36 8 79 17 89 20 94
REMARK Flexibility Score: inf
ROOT
ATOM      1  C   UNL A   1      40.253  21.023  26.161  1.00  0.00     0.023 C 
ENDROOT
BRANCH   1   2
ATOM      2  C   UNL A   1      39.526  22.210  26.776  1.00  0.00     0.023 C 
BRANCH   2   3
ATOM      3  C   UNL A   1      40.424  23.355  27.209  1.00  0.00     0.116 C 
BRANCH   3   4
ATOM      4  N   UNL A   1      41.078  24.032  26.096  1.00  0.00    -0.352 N 
ATOM      5  O   UNL A   1      41.820  25.808  24.909  1.00  0.00    -0.269 OA
ATOM      6  C   UNL A   1      41.370  25.370  25.962  1.00  0.00     0.251 C 
ATOM      7  H   UNL A   1      41.345  23.457  25.343  1.00  0.00     0.163 HD
BRANCH   6   8
ATOM      8  C   UNL A   1      41.095  26.264  27.103  1.00  0.00     0.039 A 
ATOM      9  C   UNL A   1      41.835  27.437  27.244  1.00  0.00     0.014 A 
ATOM     10  C   UNL A   1      40.173  25.884  28.081  1.00  0.00     0.014 A 
ATOM     11  C   UNL A   1      41.812  28.110  28.453  1.00  0.00     0.010 A 
ATOM     12  C   UNL A   1      40.040  26.659  29.237  1.00  0.00     0.010 A 
ATOM     13  C   UNL A   1      40.880  27.763  29.445  1.00  0.00    -0.014 A 
BRANCH  13  14
ATOM     14  C   UNL A   1      40.746  28.661  30.620  1.00  0.00     0.031 A 
ATOM     15  C   UNL A   1      41.652  28.558  31.815  1.00  0.00     0.074 A 
ATOM     16  C   UNL A   1      39.804  29.625  30.558  1.00  0.00     0.049 A 
ATOM     17  N   UNL A   1      41.667  29.300  32.893  1.00  0.00    -0.248 NA
ATOM     18  C   UNL A   1      42.664  27.491  31.813  1.00  0.00     0.031 C 
ATOM     19  C   UNL A   1      38.856  29.803  29.450  1.00  0.00     0.029 A 
ATOM     20  N   UNL A   1      39.499  30.650  31.413  1.00  0.00    -0.354 N 
ATOM     21  C   UNL A   1      42.680  28.792  33.698  1.00  0.00     0.074 A 
ATOM     22  C   UNL A   1      43.234  27.652  33.001  1.00  0.00     0.031 C 
ATOM     23  C   UNL A   1      38.129  30.906  29.660  1.00  0.00     0.029 A 
ATOM     24  C   UNL A   1      38.479  31.454  30.961  1.00  0.00     0.049 A 
ATOM     25  H   UNL A   1      39.965  30.798  32.268  1.00  0.00     0.167 HD
ATOM     26  C   UNL A   1      43.109  29.248  34.900  1.00  0.00     0.037 A 
ATOM     27  C   UNL A   1      37.859  32.496  31.542  1.00  0.00     0.037 A 
ATOM     28  C   UNL A   1      42.541  30.388  35.582  1.00  0.00     0.049 A 
ATOM     29  C   UNL A   1      38.324  32.937  32.898  1.00  0.00     0.074 A 
ATOM     30  C   UNL A   1      42.915  30.936  36.797  1.00  0.00     0.029 A 
ATOM     31  N   UNL A   1      41.480  31.152  35.114  1.00  0.00    -0.354 N 
ATOM     32  N   UNL A   1      39.306  32.463  33.628  1.00  0.00    -0.248 NA
ATOM     33  C   UNL A   1      37.600  34.055  33.511  1.00  0.00     0.031 C 
ATOM     34  C   UNL A   1      42.042  31.987  37.094  1.00  0.00     0.029 A 
ATOM     35  C   UNL A   1      41.169  32.146  36.030  1.00  0.00     0.049 A 
ATOM     36  H   UNL A   1      41.016  31.009  34.258  1.00  0.00     0.167 HD
ATOM     37  C   UNL A   1      39.330  33.241  34.778  1.00  0.00     0.074 A 
ATOM     38  C   UNL A   1      38.290  34.240  34.626  1.00  0.00     0.031 C 
ATOM     39  C   UNL A   1      40.132  33.135  35.866  1.00  0.00     0.037 A 
BRANCH  26  40
ATOM     40  C   UNL A   1      44.246  28.523  35.575  1.00  0.00     0.058 A 
ATOM     41  C   UNL A   1      44.020  27.461  36.465  1.00  0.00     0.135 A 
ATOM     42  C   UNL A   1      45.580  28.829  35.252  1.00  0.00     0.135 A 
ATOM     43  F   UNL A   1      42.768  27.132  36.821  1.00  0.00    -0.206 F 
ATOM     44  C   UNL A   1      45.072  26.735  37.016  1.00  0.00     0.059 A 
ATOM     45  C   UNL A   1      46.647  28.097  35.769  1.00  0.00     0.059 A 
ATOM     46  F   UNL A   1      45.858  29.835  34.408  1.00  0.00    -0.206 F 
ATOM     47  C   UNL A   1      46.382  27.053  36.654  1.00  0.00     0.060 A 
BRANCH  47  48
ATOM     48  S   UNL A   1      47.728  26.068  37.344  1.00  0.00     0.124 S 
ATOM     49  O   UNL A   1      48.034  25.173  36.233  1.00  0.00    -0.237 OA
ATOM     50  O   UNL A   1      48.735  27.083  37.637  1.00  0.00    -0.237 OA
ATOM     51  O   UNL A   1      47.123  25.432  38.511  1.00  0.00    -0.744 OA
ENDBRANCH  47  48
ENDBRANCH  26  40
BRANCH  27  52
ATOM     52  C   UNL A   1      36.706  33.152  30.868  1.00  0.00     0.058 A 
ATOM     53  C   UNL A   1      36.895  34.055  29.812  1.00  0.00     0.135 A 
ATOM     54  C   UNL A   1      35.388  32.904  31.287  1.00  0.00     0.135 A 
ATOM     55  F   UNL A   1      38.133  34.325  29.372  1.00  0.00    -0.206 F 
ATOM     56  C   UNL A   1      35.824  34.724  29.228  1.00  0.00     0.059 A 
ATOM     57  C   UNL A   1      34.299  33.524  30.688  1.00  0.00     0.059 A 
ATOM     58  F   UNL A   1      35.147  32.030  32.277  1.00  0.00    -0.206 F 
ATOM     59  C   UNL A   1      34.531  34.452  29.675  1.00  0.00     0.060 A 
BRANCH  59  60
ATOM     60  S   UNL A   1      33.149  35.327  28.913  1.00  0.00     0.124 S 
ATOM     61  O   UNL A   1      33.838  36.387  28.187  1.00  0.00    -0.237 OA
ATOM     62  O   UNL A   1      32.540  34.282  28.096  1.00  0.00    -0.237 OA
ATOM     63  O   UNL A   1      32.353  35.761  30.058  1.00  0.00    -0.744 OA
ENDBRANCH  59  60
ENDBRANCH  27  52
BRANCH  39  64
ATOM     64  C   UNL A   1      39.935  34.152  36.958  1.00  0.00     0.058 A 
ATOM     65  C   UNL A   1      39.088  33.912  38.053  1.00  0.00     0.135 A 
ATOM     66  C   UNL A   1      40.604  35.386  36.910  1.00  0.00     0.135 A 
ATOM     67  F   UNL A   1      38.416  32.753  38.148  1.00  0.00    -0.206 F 
ATOM     68  C   UNL A   1      38.872  34.877  39.031  1.00  0.00     0.059 A 
ATOM     69  C   UNL A   1      40.437  36.349  37.900  1.00  0.00     0.059 A 
ATOM     70  F   UNL A   1      41.434  35.667  35.893  1.00  0.00    -0.206 F 
ATOM     71  C   UNL A   1      39.553  36.092  38.946  1.00  0.00     0.060 A 
BRANCH  71  72
ATOM     72  S   UNL A   1      39.268  37.329  40.228  1.00  0.00     0.124 S 
ATOM     73  O   UNL A   1      38.420  38.288  39.530  1.00  0.00    -0.237 OA
ATOM     74  O   UNL A   1      38.615  36.547  41.274  1.00  0.00    -0.237 OA
ATOM     75  O   UNL A   1      40.612  37.799  40.551  1.00  0.00    -0.744 OA
ENDBRANCH  71  72
ENDBRANCH  39  64
ENDBRANCH  13  14
ENDBRANCH   6   8
ENDBRANCH   3   4
ENDBRANCH   2   3
ENDBRANCH   1   2
BRANCH   1  76
ATOM     76  C   UNL A   1      41.284  20.355  27.064  1.00  0.00     0.116 C 
BRANCH  76  77
ATOM     77  N   UNL A   1      42.152  19.437  26.352  1.00  0.00    -0.352 N 
ATOM     78  C   UNL A   1      43.341  19.608  25.688  1.00  0.00     0.251 C 
ATOM     79  H   UNL A   1      41.824  18.509  26.343  1.00  0.00     0.163 HD
ATOM     80  O   UNL A   1      43.802  18.605  25.154  1.00  0.00    -0.269 OA
BRANCH  78  81
ATOM     81  C   UNL A   1      44.015  21.025  25.687  1.00  0.00     0.041 A 
ATOM     82  C   UNL A   1      45.003  21.200  24.173  1.00  0.00     0.015 A 
ATOM     83  C   UNL A   1      44.150  22.638  26.958  1.00  0.00     0.041 A 
ATOM     84  C   UNL A   1      45.977  22.683  24.014  1.00  0.00     0.018 A 
ATOM     85  C   UNL A   1      45.170  23.917  26.759  1.00  0.00     0.055 A 
ATOM     86  C   UNL A   1      46.051  23.960  25.270  1.00  0.00     0.041 A 
ATOM     87  Br  UNL A   1      47.323  25.344  25.020  1.00  0.00    -0.049 Br
BRANCH  85  88
ATOM     88  N   UNL A   1      45.336  24.532  28.019  1.00  0.00    -0.331 N 
ATOM     89  H   UNL A   1      45.279  23.923  28.791  1.00  0.00     0.169 HD
BRANCH  88  90
ATOM     90  C   UNL A   1      45.568  25.873  28.336  1.00  0.00     0.177 C 
ATOM     91  S   UNL A   1      46.127  26.176  29.895  1.00  0.00    -0.040 S 
BRANCH  90  92
ATOM     92  N   UNL A   1      45.417  27.049  27.492  1.00  0.00    -0.298 N 
ATOM     93  C   UNL A   1      45.322  28.564  27.237  1.00  0.00     0.267 C 
ATOM     94  H   UNL A   1      45.325  26.665  26.589  1.00  0.00     0.172 HD
ATOM     95  O   UNL A   1      44.905  28.925  26.137  1.00  0.00    -0.268 OA
BRANCH  93  96
ATOM     96  C   UNL A   1      45.766  29.538  28.337  1.00  0.00     0.092 A 
ATOM     97  C   UNL A   1      44.651  29.608  29.626  1.00  0.00     0.025 A 
ATOM     98  S   UNL A   1      46.314  31.588  27.413  1.00  0.00    -0.139 S 
ATOM     99  C   UNL A   1      43.754  31.289  29.767  1.00  0.00     0.012 A 
ATOM    100  C   UNL A   1      44.540  32.626  28.525  1.00  0.00     0.065 A 
ENDBRANCH  93  96
ENDBRANCH  90  92
ENDBRANCH  88  90
ENDBRANCH  85  88
ENDBRANCH  78  81
ENDBRANCH  76  77
ENDBRANCH   1  76
TORSDOF 18
ENDMDL
MODEL 2
REMARK VINA RESULT:     -10.5      1.717      2.694
REMARK SMILES O=C(NCCCCNC(=O)c1ccc(Br)c(NC(=S)NC(=O)c2cccs2)c1)c1ccc(-c2c3nc(c(-c4c(F)cc(S(=O)(=O)[O-])cc4F)c4ccc([nH]4)c(-c4c(F)cc(S(=O)(=O)[O-])cc4F)c4nc(c(-c5c(F)cc(S(=O)(=O)[O-])cc5F)c5ccc2[nH]5)C=C4)C=C3)cc1
REMARK SMILES IDX 6 1 5 2 4 3 3 4 1 5 2 6 29 8 30 9 94 10 31 11 93 12 32 13
REMARK SMILES IDX 33 14 34 15 87 16 35 17 92 18 86 19 88 20 36 21 91 22 85 23
REMARK SMILES IDX 84 24 37 26 71 27 50 28 70 29 51 30 54 31 69 32 89 33 52 34
REMARK SMILES IDX 53 35 68 37 90 38 55 39 38 40 39 41 48 42 40 43 41 44 47 45
REMARK SMILES IDX 49 46 42 47 43 48 44 49 45 50 46 51 72 52 73 53 82 54 74 55
REMARK SMILES IDX 75 56 81 57 83 58 76 59 77 60 78 61 79 62 80 63 56 64 57 65
REMARK SMILES IDX 66 66 58 67 59 68 65 69 67 70 60 71 61 72 62 73 63 74 64 75
REMARK SMILES IDX 7 76 8 77 9 78 10 80 11 81 12 82 28 83 13 84 16 85 14 86
REMARK SMILES IDX 15 87 17 88 18 90 19 91 20 92 21 93 22 95 23 96 24 97 27 98
REMARK SMILES IDX 25 99 26 100
REMARK H PARENT 3 7 88 25 54 36 8 79 17 89 20 94
REMARK Flexibility Score: inf
ROOT
ATOM      1  C   UNL A   1      41.278  21.073  26.387  1.00  0.00     0.023 C 
ENDROOT
BRANCH   1   2
ATOM      2  C   UNL A   1      40.274  21.913  27.164  1.00  0.00     0.023 C 
BRANCH   2   3
ATOM      3  C   UNL A   1      40.705  23.344  27.427  1.00  0.00     0.116 C 
BRANCH   3   4
ATOM      4  N   UNL A   1      41.103  24.061  26.221  1.00  0.00    -0.352 N 
ATOM      5  O   UNL A   1      41.406  25.873  24.903  1.00  0.00    -0.269 OA
ATOM      6  C   UNL A   1      41.164  25.421  26.015  1.00  0.00     0.251 C 
ATOM      7  H   UNL A   1      41.362  23.499  25.455  1.00  0.00     0.163 HD
BRANCH   6   8
ATOM      8  C   UNL A   1      40.894  26.314  27.159  1.00  0.00     0.039 A 
ATOM      9  C   UNL A   1      41.703  27.431  27.356  1.00  0.00     0.014 A 
ATOM     10  C   UNL A   1      39.903  25.981  28.086  1.00  0.00     0.014 A 
ATOM     11  C   UNL A   1      41.668  28.086  28.575  1.00  0.00     0.010 A 
ATOM     12  C   UNL A   1      39.767  26.746  29.248  1.00  0.00     0.010 A 
ATOM     13  C   UNL A   1      40.669  27.787  29.516  1.00  0.00    -0.014 A 
BRANCH  13  14
ATOM     14  C   UNL A   1      40.538  28.675  30.700  1.00  0.00     0.031 A 
ATOM     15  C   UNL A   1      41.429  28.540  31.903  1.00  0.00     0.074 A 
ATOM     16  C   UNL A   1      39.616  29.658  30.638  1.00  0.00     0.049 A 
ATOM     17  N   UNL A   1      41.446  29.269  32.990  1.00  0.00    -0.248 NA
ATOM     18  C   UNL A   1      42.419  27.453  31.900  1.00  0.00     0.031 C 
ATOM     19  C   UNL A   1      38.684  29.867  29.522  1.00  0.00     0.029 A 
ATOM     20  N   UNL A   1      39.322  30.679  31.502  1.00  0.00    -0.354 N 
ATOM     21  C   UNL A   1      42.439  28.732  33.801  1.00  0.00     0.074 A 
ATOM     22  C   UNL A   1      42.979  27.588  33.096  1.00  0.00     0.031 C 
ATOM     23  C   UNL A   1      37.977  30.981  29.736  1.00  0.00     0.029 A 
ATOM     24  C   UNL A   1      38.324  31.508  31.048  1.00  0.00     0.049 A 
ATOM     25  H   UNL A   1      39.781  30.807  32.364  1.00  0.00     0.167 HD
ATOM     26  C   UNL A   1      42.864  29.165  35.012  1.00  0.00     0.037 A 
ATOM     27  C   UNL A   1      37.717  32.555  31.634  1.00  0.00     0.037 A 
ATOM     28  C   UNL A   1      42.310  30.308  35.701  1.00  0.00     0.049 A 
ATOM     29  C   UNL A   1      38.175  32.972  33.000  1.00  0.00     0.074 A 
ATOM     30  C   UNL A   1      42.681  30.835  36.926  1.00  0.00     0.029 A 
ATOM     31  N   UNL A   1      41.270  31.099  35.231  1.00  0.00    -0.354 N 
ATOM     32  N   UNL A   1      39.139  32.469  33.735  1.00  0.00    -0.248 NA
ATOM     33  C   UNL A   1      37.466  34.097  33.618  1.00  0.00     0.031 C 
ATOM     34  C   UNL A   1      41.825  31.900  37.226  1.00  0.00     0.029 A 
ATOM     35  C   UNL A   1      40.968  32.088  36.154  1.00  0.00     0.049 A 
ATOM     36  H   UNL A   1      40.813  30.974  34.367  1.00  0.00     0.167 HD
ATOM     37  C   UNL A   1      39.166  33.234  34.895  1.00  0.00     0.074 A 
ATOM     38  C   UNL A   1      38.147  34.254  34.742  1.00  0.00     0.031 C 
ATOM     39  C   UNL A   1      39.952  33.099  35.990  1.00  0.00     0.037 A 
BRANCH  26  40
ATOM     40  C   UNL A   1      43.978  28.410  35.691  1.00  0.00     0.058 A 
ATOM     41  C   UNL A   1      45.326  28.744  35.488  1.00  0.00     0.135 A 
ATOM     42  C   UNL A   1      43.691  27.405  36.631  1.00  0.00     0.135 A 
ATOM     43  F   UNL A   1      45.663  29.686  34.592  1.00  0.00    -0.206 F 
ATOM     44  C   UNL A   1      46.349  28.105  36.185  1.00  0.00     0.059 A 
ATOM     45  C   UNL A   1      44.696  26.773  37.361  1.00  0.00     0.059 A 
ATOM     46  F   UNL A   1      42.420  27.042  36.866  1.00  0.00    -0.206 F 
ATOM     47  C   UNL A   1      46.023  27.128  37.127  1.00  0.00     0.060 A 
BRANCH  47  48
ATOM     48  S   UNL A   1      47.361  26.347  38.052  1.00  0.00     0.124 S 
ATOM     49  O   UNL A   1      46.910  26.529  39.429  1.00  0.00    -0.237 OA
ATOM     50  O   UNL A   1      47.326  24.977  37.550  1.00  0.00    -0.237 OA
ATOM     51  O   UNL A   1      48.538  27.122  37.673  1.00  0.00    -0.744 OA
ENDBRANCH  47  48
ENDBRANCH  26  40
BRANCH  27  52
ATOM     52  C   UNL A   1      36.586  33.241  30.954  1.00  0.00     0.058 A 
ATOM     53  C   UNL A   1      36.800  34.117  29.880  1.00  0.00     0.135 A 
ATOM     54  C   UNL A   1      35.261  33.052  31.386  1.00  0.00     0.135 A 
ATOM     55  F   UNL A   1      38.045  34.331  29.427  1.00  0.00    -0.206 F 
ATOM     56  C   UNL A   1      35.752  34.814  29.290  1.00  0.00     0.059 A 
ATOM     57  C   UNL A   1      34.193  33.701  30.782  1.00  0.00     0.059 A 
ATOM     58  F   UNL A   1      34.994  32.207  32.394  1.00  0.00    -0.206 F 
ATOM     59  C   UNL A   1      34.452  34.601  29.750  1.00  0.00     0.060 A 
BRANCH  59  60
ATOM     60  S   UNL A   1      33.100  35.512  28.981  1.00  0.00     0.124 S 
ATOM     61  O   UNL A   1      32.455  34.469  28.191  1.00  0.00    -0.237 OA
ATOM     62  O   UNL A   1      32.354  35.989  30.141  1.00  0.00    -0.237 OA
ATOM     63  O   UNL A   1      33.785  36.550  28.216  1.00  0.00    -0.744 OA
ENDBRANCH  59  60
ENDBRANCH  27  52
BRANCH  39  64
ATOM     64  C   UNL A   1      39.763  34.108  37.092  1.00  0.00     0.058 A 
ATOM     65  C   UNL A   1      40.273  35.413  37.000  1.00  0.00     0.135 A 
ATOM     66  C   UNL A   1      39.058  33.763  38.257  1.00  0.00     0.135 A 
ATOM     67  F   UNL A   1      40.962  35.796  35.912  1.00  0.00    -0.206 F 
ATOM     68  C   UNL A   1      40.138  36.323  38.043  1.00  0.00     0.059 A 
ATOM     69  C   UNL A   1      38.872  34.671  39.295  1.00  0.00     0.059 A 
ATOM     70  F   UNL A   1      38.539  32.534  38.396  1.00  0.00    -0.206 F 
ATOM     71  C   UNL A   1      39.434  35.942  39.187  1.00  0.00     0.060 A 
BRANCH  71  72
ATOM     72  S   UNL A   1      39.259  37.137  40.527  1.00  0.00     0.124 S 
ATOM     73  O   UNL A   1      38.433  36.398  41.475  1.00  0.00    -0.237 OA
ATOM     74  O   UNL A   1      40.645  37.357  40.929  1.00  0.00    -0.237 OA
ATOM     75  O   UNL A   1      38.609  38.276  39.884  1.00  0.00    -0.744 OA
ENDBRANCH  71  72
ENDBRANCH  39  64
ENDBRANCH  13  14
ENDBRANCH   6   8
ENDBRANCH   3   4
ENDBRANCH   2   3
ENDBRANCH   1   2
BRANCH   1  76
ATOM     76  C   UNL A   1      42.653  20.944  27.033  1.00  0.00     0.116 C 
BRANCH  76  77
ATOM     77  N   UNL A   1      43.721  20.781  26.066  1.00  0.00    -0.352 N 
ATOM     78  C   UNL A   1      44.706  21.624  25.617  1.00  0.00     0.251 C 
ATOM     79  H   UNL A   1      43.744  19.889  25.650  1.00  0.00     0.163 HD
ATOM     80  O   UNL A   1      45.442  21.169  24.748  1.00  0.00    -0.269 OA
BRANCH  78  81
ATOM     81  C   UNL A   1      44.830  23.054  26.251  1.00  0.00     0.041 A 
ATOM     82  C   UNL A   1      44.540  24.294  24.955  1.00  0.00     0.015 A 
ATOM     83  C   UNL A   1      45.323  23.862  28.078  1.00  0.00     0.041 A 
ATOM     84  C   UNL A   1      44.764  26.001  25.410  1.00  0.00     0.018 A 
ATOM     85  C   UNL A   1      45.608  25.461  28.360  1.00  0.00     0.055 A 
ATOM     86  C   UNL A   1      45.289  26.532  27.040  1.00  0.00     0.041 A 
ATOM     87  Br  UNL A   1      45.698  28.371  27.258  1.00  0.00    -0.049 Br
BRANCH  85  88
ATOM     88  N   UNL A   1      46.372  25.556  29.544  1.00  0.00    -0.331 N 
ATOM     89  H   UNL A   1      45.851  25.547  30.379  1.00  0.00     0.169 HD
BRANCH  88  90
ATOM     90  C   UNL A   1      47.757  25.660  29.708  1.00  0.00     0.177 C 
ATOM     91  S   UNL A   1      48.286  26.097  31.245  1.00  0.00    -0.040 S 
BRANCH  90  92
ATOM     92  N   UNL A   1      48.811  25.416  28.735  1.00  0.00    -0.298 N 
ATOM     93  C   UNL A   1      49.503  25.600  27.373  1.00  0.00     0.267 C 
ATOM     94  H   UNL A   1      49.409  24.791  29.206  1.00  0.00     0.172 HD
ATOM     95  O   UNL A   1      50.390  24.800  27.078  1.00  0.00    -0.268 OA
BRANCH  93  96
ATOM     96  C   UNL A   1      49.081  26.768  26.469  1.00  0.00     0.092 A 
ATOM     97  C   UNL A   1      48.397  26.233  25.001  1.00  0.00     0.025 A 
ATOM     98  S   UNL A   1      50.825  28.271  26.239  1.00  0.00    -0.139 S 
ATOM     99  C   UNL A   1      49.470  26.632  23.471  1.00  0.00     0.012 A 
ATOM    100  C   UNL A   1      50.999  27.805  23.956  1.00  0.00     0.065 A 
ENDBRANCH  93  96
ENDBRANCH  90  92
ENDBRANCH  88  90
ENDBRANCH  85  88
ENDBRANCH  78  81
ENDBRANCH  76  77
ENDBRANCH   1  76
TORSDOF 18
ENDMDL
MODEL 3
REMARK VINA RESULT:     -10.3      2.616      4.588
REMARK SMILES O=C(NCCCCNC(=O)c1ccc(Br)c(NC(=S)NC(=O)c2cccs2)c1)c1ccc(-c2c3nc(c(-c4c(F)cc(S(=O)(=O)[O-])cc4F)c4ccc([nH]4)c(-c4c(F)cc(S(=O)(=O)[O-])cc4F)c4nc(c(-c5c(F)cc(S(=O)(=O)[O-])cc5F)c5ccc2[nH]5)C=C4)C=C3)cc1
REMARK SMILES IDX 6 1 5 2 4 3 3 4 1 5 2 6 29 8 30 9 94 10 31 11 93 12 32 13
REMARK SMILES IDX 33 14 34 15 87 16 35 17 92 18 86 19 88 20 36 21 91 22 85 23
REMARK SMILES IDX 84 24 37 26 71 27 50 28 70 29 51 30 54 31 69 32 89 33 52 34
REMARK SMILES IDX 53 35 68 37 90 38 55 39 38 40 39 41 48 42 40 43 41 44 47 45
REMARK SMILES IDX 49 46 42 47 43 48 44 49 45 50 46 51 72 52 73 53 82 54 74 55
REMARK SMILES IDX 75 56 81 57 83 58 76 59 77 60 78 61 79 62 80 63 56 64 57 65
REMARK SMILES IDX 66 66 58 67 59 68 65 69 67 70 60 71 61 72 62 73 63 74 64 75
REMARK SMILES IDX 7 76 8 77 9 78 10 80 11 81 12 82 28 83 13 84 16 85 14 86
REMARK SMILES IDX 15 87 17 88 18 90 19 91 20 92 21 93 22 95 23 96 24 97 27 98
REMARK SMILES IDX 25 99 26 100
REMARK H PARENT 3 7 88 25 54 36 8 79 17 89 20 94
REMARK Flexibility Score: inf
ROOT
ATOM      1  C   UNL A   1      46.423  24.344  25.177  1.00  0.00     0.023 C 
ENDROOT
BRANCH   1   2
ATOM      2  C   UNL A   1      45.828  24.360  26.578  1.00  0.00     0.023 C 
BRANCH   2   3
ATOM      3  C   UNL A   1      44.735  25.391  26.797  1.00  0.00     0.116 C 
BRANCH   3   4
ATOM      4  N   UNL A   1      43.687  25.348  25.785  1.00  0.00    -0.352 N 
ATOM      5  O   UNL A   1      41.610  25.671  24.949  1.00  0.00    -0.269 OA
ATOM      6  C   UNL A   1      42.424  25.894  25.838  1.00  0.00     0.251 C 
ATOM      7  H   UNL A   1      43.911  24.865  24.956  1.00  0.00     0.163 HD
BRANCH   6   8
ATOM      8  C   UNL A   1      42.069  26.721  27.007  1.00  0.00     0.039 A 
ATOM      9  C   UNL A   1      42.425  28.069  27.021  1.00  0.00     0.014 A 
ATOM     10  C   UNL A   1      41.474  26.131  28.125  1.00  0.00     0.014 A 
ATOM     11  C   UNL A   1      42.386  28.767  28.216  1.00  0.00     0.010 A 
ATOM     12  C   UNL A   1      41.291  26.890  29.285  1.00  0.00     0.010 A 
ATOM     13  C   UNL A   1      41.773  28.206  29.350  1.00  0.00    -0.014 A 
BRANCH  13  14
ATOM     14  C   UNL A   1      41.554  29.082  30.528  1.00  0.00     0.031 A 
ATOM     15  C   UNL A   1      42.481  29.078  31.712  1.00  0.00     0.074 A 
ATOM     16  C   UNL A   1      40.511  29.937  30.480  1.00  0.00     0.049 A 
ATOM     17  N   UNL A   1      42.426  29.815  32.793  1.00  0.00    -0.248 NA
ATOM     18  C   UNL A   1      43.603  28.128  31.696  1.00  0.00     0.031 C 
ATOM     19  C   UNL A   1      39.537  30.011  29.383  1.00  0.00     0.029 A 
ATOM     20  N   UNL A   1      40.106  30.921  31.341  1.00  0.00    -0.354 N 
ATOM     21  C   UNL A   1      43.498  29.420  33.585  1.00  0.00     0.074 A 
ATOM     22  C   UNL A   1      44.166  28.348  32.878  1.00  0.00     0.031 C 
ATOM     23  C   UNL A   1      38.696  31.027  29.604  1.00  0.00     0.029 A 
ATOM     24  C   UNL A   1      38.999  31.609  30.904  1.00  0.00     0.049 A 
ATOM     25  H   UNL A   1      40.563  31.117  32.191  1.00  0.00     0.167 HD
ATOM     26  C   UNL A   1      43.889  29.918  34.783  1.00  0.00     0.037 A 
ATOM     27  C   UNL A   1      38.274  32.575  31.495  1.00  0.00     0.037 A 
ATOM     28  C   UNL A   1      43.206  30.987  35.475  1.00  0.00     0.049 A 
ATOM     29  C   UNL A   1      38.704  33.063  32.846  1.00  0.00     0.074 A 
ATOM     30  C   UNL A   1      43.532  31.572  36.687  1.00  0.00     0.029 A 
ATOM     31  N   UNL A   1      42.062  31.631  35.021  1.00  0.00    -0.354 N 
ATOM     32  N   UNL A   1      39.741  32.697  33.563  1.00  0.00    -0.248 NA
ATOM     33  C   UNL A   1      37.868  34.093  33.471  1.00  0.00     0.031 C 
ATOM     34  C   UNL A   1      42.552  32.520  36.996  1.00  0.00     0.029 A 
ATOM     35  C   UNL A   1      41.655  32.584  35.943  1.00  0.00     0.049 A 
ATOM     36  H   UNL A   1      41.608  31.439  34.170  1.00  0.00     0.167 HD
ATOM     37  C   UNL A   1      39.693  33.472  34.716  1.00  0.00     0.074 A 
ATOM     38  C   UNL A   1      38.547  34.350  34.578  1.00  0.00     0.031 C 
ATOM     39  C   UNL A   1      40.514  33.453  35.794  1.00  0.00     0.037 A 
BRANCH  26  40
ATOM     40  C   UNL A   1      45.106  29.321  35.442  1.00  0.00     0.058 A 
ATOM     41  C   UNL A   1      45.011  28.226  36.315  1.00  0.00     0.135 A 
ATOM     42  C   UNL A   1      46.393  29.788  35.122  1.00  0.00     0.135 A 
ATOM     43  F   UNL A   1      43.807  27.746  36.669  1.00  0.00    -0.206 F 
ATOM     44  C   UNL A   1      46.143  27.620  36.851  1.00  0.00     0.059 A 
ATOM     45  C   UNL A   1      47.541  29.178  35.623  1.00  0.00     0.059 A 
ATOM     46  F   UNL A   1      46.547  30.833  34.294  1.00  0.00    -0.206 F 
ATOM     47  C   UNL A   1      47.405  28.096  36.491  1.00  0.00     0.060 A 
BRANCH  47  48
ATOM     48  S   UNL A   1      48.860  27.266  37.162  1.00  0.00     0.124 S 
ATOM     49  O   UNL A   1      49.400  28.292  38.048  1.00  0.00    -0.237 OA
ATOM     50  O   UNL A   1      48.277  26.102  37.821  1.00  0.00    -0.237 OA
ATOM     51  O   UNL A   1      49.665  26.976  35.978  1.00  0.00    -0.744 OA
ENDBRANCH  47  48
ENDBRANCH  26  40
BRANCH  27  52
ATOM     52  C   UNL A   1      37.049  33.102  30.835  1.00  0.00     0.058 A 
ATOM     53  C   UNL A   1      37.124  34.046  29.802  1.00  0.00     0.135 A 
ATOM     54  C   UNL A   1      35.772  32.684  31.247  1.00  0.00     0.135 A 
ATOM     55  F   UNL A   1      38.319  34.476  29.369  1.00  0.00    -0.206 F 
ATOM     56  C   UNL A   1      35.978  34.593  29.233  1.00  0.00     0.059 A 
ATOM     57  C   UNL A   1      34.614  33.181  30.662  1.00  0.00     0.059 A 
ATOM     58  F   UNL A   1      35.641  31.764  32.215  1.00  0.00    -0.206 F 
ATOM     59  C   UNL A   1      34.728  34.155  29.672  1.00  0.00     0.060 A 
BRANCH  59  60
ATOM     60  S   UNL A   1      33.249  34.872  28.931  1.00  0.00     0.124 S 
ATOM     61  O   UNL A   1      32.406  35.080  30.102  1.00  0.00    -0.237 OA
ATOM     62  O   UNL A   1      33.778  36.078  28.301  1.00  0.00    -0.237 OA
ATOM     63  O   UNL A   1      32.799  33.836  28.005  1.00  0.00    -0.744 OA
ENDBRANCH  59  60
ENDBRANCH  27  52
BRANCH  39  64
ATOM     64  C   UNL A   1      40.219  34.440  36.891  1.00  0.00     0.058 A 
ATOM     65  C   UNL A   1      39.304  34.157  37.920  1.00  0.00     0.135 A 
ATOM     66  C   UNL A   1      40.861  35.689  36.915  1.00  0.00     0.135 A 
ATOM     67  F   UNL A   1      38.654  32.982  37.942  1.00  0.00    -0.206 F 
ATOM     68  C   UNL A   1      38.999  35.094  38.900  1.00  0.00     0.059 A 
ATOM     69  C   UNL A   1      40.605  36.625  37.912  1.00  0.00     0.059 A 
ATOM     70  F   UNL A   1      41.753  36.011  35.965  1.00  0.00    -0.206 F 
ATOM     71  C   UNL A   1      39.656  36.326  38.889  1.00  0.00     0.060 A 
BRANCH  71  72
ATOM     72  S   UNL A   1      39.256  37.527  40.174  1.00  0.00     0.124 S 
ATOM     73  O   UNL A   1      40.544  38.181  40.377  1.00  0.00    -0.237 OA
ATOM     74  O   UNL A   1      38.227  38.338  39.531  1.00  0.00    -0.237 OA
ATOM     75  O   UNL A   1      38.793  36.697  41.282  1.00  0.00    -0.744 OA
ENDBRANCH  71  72
ENDBRANCH  39  64
ENDBRANCH  13  14
ENDBRANCH   6   8
ENDBRANCH   3   4
ENDBRANCH   2   3
ENDBRANCH   1   2
BRANCH   1  76
ATOM     76  C   UNL A   1      45.850  23.284  24.242  1.00  0.00     0.116 C 
BRANCH  76  77
ATOM     77  N   UNL A   1      46.483  21.988  24.399  1.00  0.00    -0.352 N 
ATOM     78  C   UNL A   1      46.033  20.787  24.885  1.00  0.00     0.251 C 
ATOM     79  H   UNL A   1      47.420  21.967  24.098  1.00  0.00     0.163 HD
ATOM     80  O   UNL A   1      46.858  19.879  24.910  1.00  0.00    -0.269 OA
BRANCH  78  81
ATOM     81  C   UNL A   1      44.535  20.660  25.332  1.00  0.00     0.041 A 
ATOM     82  C   UNL A   1      44.055  18.909  25.278  1.00  0.00     0.015 A 
ATOM     83  C   UNL A   1      42.995  21.927  25.844  1.00  0.00     0.041 A 
ATOM     84  C   UNL A   1      42.347  18.531  25.615  1.00  0.00     0.018 A 
ATOM     85  C   UNL A   1      41.421  21.476  26.032  1.00  0.00     0.055 A 
ATOM     86  C   UNL A   1      41.105  19.777  25.959  1.00  0.00     0.041 A 
ATOM     87  Br  UNL A   1      39.303  19.195  26.058  1.00  0.00    -0.049 Br
BRANCH  85  88
ATOM     88  N   UNL A   1      40.625  22.633  25.887  1.00  0.00    -0.331 N 
ATOM     89  H   UNL A   1      41.075  23.398  25.460  1.00  0.00     0.169 HD
BRANCH  88  90
ATOM     90  C   UNL A   1      39.296  22.857  26.256  1.00  0.00     0.177 C 
ATOM     91  S   UNL A   1      39.034  24.118  27.341  1.00  0.00    -0.040 S 
BRANCH  90  92
ATOM     92  N   UNL A   1      38.097  22.162  25.811  1.00  0.00    -0.298 N 
ATOM     93  C   UNL A   1      36.575  21.982  25.674  1.00  0.00     0.267 C 
ATOM     94  H   UNL A   1      38.457  21.376  25.339  1.00  0.00     0.172 HD
ATOM     95  O   UNL A   1      36.167  20.881  25.309  1.00  0.00    -0.268 OA
BRANCH  93  96
ATOM     96  C   UNL A   1      35.650  23.172  25.971  1.00  0.00     0.092 A 
ATOM     97  C   UNL A   1      34.586  22.854  27.264  1.00  0.00     0.025 A 
ATOM     98  S   UNL A   1      34.628  23.893  24.024  1.00  0.00    -0.139 S 
ATOM     99  C   UNL A   1      32.754  22.736  26.733  1.00  0.00     0.012 A 
ATOM    100  C   UNL A   1      32.525  23.272  24.833  1.00  0.00     0.065 A 
ENDBRANCH  93  96
ENDBRANCH  90  92
ENDBRANCH  88  90
ENDBRANCH  85  88
ENDBRANCH  78  81
ENDBRANCH  76  77
ENDBRANCH   1  76
TORSDOF 18
ENDMDL
