MODEL 1
REMARK VINA RESULT:     -12.3      0.000      0.000
REMARK SMILES CSc1nc(N)cc(Nc2cccc(C(=O)NCCCCNC(=O)c3ccc(-c4c5nc(c(-c6c(F)cc(S(=O)(=O)[O-])cc6F)c6ccc([nH]6)c(-c6c(F)cc(S(=O)(=O)[O-])cc6F)c6nc(c(-c7c(F)cc(S(=O)(=O)[O-])cc7F)c7ccc4[nH]7)C=C6)C=C5)cc3)c2)n1
REMARK SMILES IDX 19 1 18 2 17 3 15 4 16 5 14 7 10 8 11 9 91 10 12 11 13 12
REMARK SMILES IDX 9 13 8 15 3 16 4 17 92 18 5 19 7 20 2 21 1 22 6 23 20 26
REMARK SMILES IDX 21 27 22 28 23 29 24 31 25 32 26 33 90 34 27 35 89 36 28 37
REMARK SMILES IDX 29 38 30 39 83 40 31 41 88 42 82 43 84 44 32 45 87 46 81 47
REMARK SMILES IDX 80 48 33 50 67 51 46 52 66 53 47 54 50 55 65 56 85 57 48 58
REMARK SMILES IDX 49 59 64 61 86 62 51 63 34 64 35 65 44 66 36 67 37 68 43 69
REMARK SMILES IDX 45 70 38 71 39 72 40 73 41 74 42 75 68 76 69 77 78 78 70 79
REMARK SMILES IDX 71 80 77 81 79 82 72 83 73 84 74 85 75 86 76 87 52 88 53 89
REMARK SMILES IDX 62 90 54 91 55 92 61 93 63 94 56 95 57 96 58 97 59 98 60 99
REMARK H PARENT 17 6 9 14 6 24 6 25 22 30 84 49 50 60
REMARK Flexibility Score: inf
ROOT
ATOM      1  C   UNL A   1      39.742  21.641  26.247  1.00  0.00     0.023 C 
ENDROOT
BRANCH   1   2
ATOM      2  C   UNL A   1      38.311  22.134  26.068  1.00  0.00     0.116 C 
BRANCH   2   3
ATOM      3  N   UNL A   1      37.982  22.529  24.706  1.00  0.00    -0.352 N 
ATOM      4  C   UNL A   1      36.777  22.876  24.134  1.00  0.00     0.251 C 
ATOM      5  O   UNL A   1      36.740  23.140  22.934  1.00  0.00    -0.269 OA
ATOM      6  H   UNL A   1      38.750  22.552  24.090  1.00  0.00     0.163 HD
BRANCH   4   7
ATOM      7  C   UNL A   1      35.510  22.878  24.912  1.00  0.00     0.041 A 
ATOM      8  C   UNL A   1      33.431  21.801  25.602  1.00  0.00     0.040 A 
ATOM      9  C   UNL A   1      33.034  23.008  26.193  1.00  0.00     0.026 A 
ATOM     10  C   UNL A   1      34.707  21.742  25.031  1.00  0.00     0.040 A 
ATOM     11  C   UNL A   1      33.884  24.119  26.198  1.00  0.00     0.003 A 
ATOM     12  C   UNL A   1      35.115  24.059  25.545  1.00  0.00     0.014 A 
BRANCH   8  13
ATOM     13  N   UNL A   1      32.545  20.706  25.584  1.00  0.00    -0.340 N 
ATOM     14  H   UNL A   1      31.806  20.752  26.231  1.00  0.00     0.168 HD
BRANCH  13  15
ATOM     15  C   UNL A   1      32.566  19.556  24.772  1.00  0.00     0.137 A 
ATOM     16  C   UNL A   1      32.863  17.297  24.511  1.00  0.00     0.191 A 
ATOM     17  N   UNL A   1      32.618  17.323  23.196  1.00  0.00    -0.206 NA
ATOM     18  N   UNL A   1      32.846  18.365  25.313  1.00  0.00    -0.205 NA
ATOM     19  C   UNL A   1      32.381  18.525  22.665  1.00  0.00     0.130 A 
ATOM     20  C   UNL A   1      32.342  19.680  23.416  1.00  0.00     0.093 A 
BRANCH  16  21
ATOM     21  S   UNL A   1      33.314  15.765  25.282  1.00  0.00    -0.090 SA
ATOM     22  C   UNL A   1      35.110  15.926  25.233  1.00  0.00     0.094 C 
ENDBRANCH  16  21
BRANCH  19  23
ATOM     23  N   UNL A   1      32.110  18.554  21.308  1.00  0.00    -0.383 N 
ATOM     24  H   UNL A   1      32.777  18.918  20.681  1.00  0.00     0.158 HD
ATOM     25  H   UNL A   1      31.252  18.210  20.969  1.00  0.00     0.158 HD
ENDBRANCH  19  23
ENDBRANCH  13  15
ENDBRANCH   8  13
ENDBRANCH   4   7
ENDBRANCH   2   3
ENDBRANCH   1   2
BRANCH   1  26
ATOM     26  C   UNL A   1      40.466  22.103  27.505  1.00  0.00     0.023 C 
BRANCH  26  27
ATOM     27  C   UNL A   1      41.714  22.952  27.289  1.00  0.00     0.116 C 
BRANCH  27  28
ATOM     28  N   UNL A   1      41.635  23.832  26.131  1.00  0.00    -0.352 N 
ATOM     29  C   UNL A   1      41.476  25.199  26.072  1.00  0.00     0.251 C 
ATOM     30  H   UNL A   1      41.708  23.381  25.259  1.00  0.00     0.163 HD
ATOM     31  O   UNL A   1      41.350  25.753  24.988  1.00  0.00    -0.269 OA
BRANCH  29  32
ATOM     32  C   UNL A   1      41.411  25.991  27.322  1.00  0.00     0.039 A 
ATOM     33  C   UNL A   1      42.484  26.827  27.646  1.00  0.00     0.014 A 
ATOM     34  C   UNL A   1      40.291  25.938  28.155  1.00  0.00     0.014 A 
ATOM     35  C   UNL A   1      42.389  27.683  28.748  1.00  0.00     0.010 A 
ATOM     36  C   UNL A   1      40.166  26.844  29.205  1.00  0.00     0.010 A 
ATOM     37  C   UNL A   1      41.207  27.736  29.506  1.00  0.00    -0.014 A 
BRANCH  37  38
ATOM     38  C   UNL A   1      41.034  28.722  30.604  1.00  0.00     0.031 A 
ATOM     39  C   UNL A   1      41.893  28.637  31.837  1.00  0.00     0.074 A 
ATOM     40  C   UNL A   1      40.057  29.649  30.524  1.00  0.00     0.049 A 
ATOM     41  N   UNL A   1      41.821  29.332  32.943  1.00  0.00    -0.248 NA
ATOM     42  C   UNL A   1      42.957  27.621  31.835  1.00  0.00     0.031 C 
ATOM     43  C   UNL A   1      39.124  29.806  29.404  1.00  0.00     0.029 A 
ATOM     44  N   UNL A   1      39.672  30.627  31.409  1.00  0.00    -0.354 N 
ATOM     45  C   UNL A   1      42.822  28.835  33.769  1.00  0.00     0.074 A 
ATOM     46  C   UNL A   1      43.450  27.742  33.059  1.00  0.00     0.031 C 
ATOM     47  C   UNL A   1      38.290  30.826  29.662  1.00  0.00     0.029 A 
ATOM     48  C   UNL A   1      38.600  31.374  30.978  1.00  0.00     0.049 A 
ATOM     49  H   UNL A   1      40.124  30.780  32.269  1.00  0.00     0.167 HD
ATOM     50  C   UNL A   1      43.204  29.267  34.994  1.00  0.00     0.037 A 
ATOM     51  C   UNL A   1      37.935  32.378  31.582  1.00  0.00     0.037 A 
ATOM     52  C   UNL A   1      42.593  30.369  35.690  1.00  0.00     0.049 A 
ATOM     53  C   UNL A   1      38.377  32.836  32.947  1.00  0.00     0.074 A 
ATOM     54  C   UNL A   1      42.921  30.894  36.928  1.00  0.00     0.029 A 
ATOM     55  N   UNL A   1      41.537  31.123  35.203  1.00  0.00    -0.354 N 
ATOM     56  N   UNL A   1      39.350  32.374  33.696  1.00  0.00    -0.248 NA
ATOM     57  C   UNL A   1      37.635  33.955  33.547  1.00  0.00     0.031 C 
ATOM     58  C   UNL A   1      42.049  31.953  37.200  1.00  0.00     0.029 A 
ATOM     59  C   UNL A   1      41.202  32.110  36.115  1.00  0.00     0.049 A 
ATOM     60  H   UNL A   1      41.091  30.978  34.338  1.00  0.00     0.167 HD
ATOM     61  C   UNL A   1      39.356  33.165  34.840  1.00  0.00     0.074 A 
ATOM     62  C   UNL A   1      38.298  34.142  34.680  1.00  0.00     0.031 C 
ATOM     63  C   UNL A   1      40.162  33.090  35.926  1.00  0.00     0.037 A 
BRANCH  50  64
ATOM     64  C   UNL A   1      44.361  28.565  35.649  1.00  0.00     0.058 A 
ATOM     65  C   UNL A   1      45.683  28.986  35.435  1.00  0.00     0.135 A 
ATOM     66  C   UNL A   1      44.150  27.495  36.533  1.00  0.00     0.135 A 
ATOM     67  F   UNL A   1      45.942  29.994  34.585  1.00  0.00    -0.206 F 
ATOM     68  C   UNL A   1      46.757  28.361  36.057  1.00  0.00     0.059 A 
ATOM     69  C   UNL A   1      45.208  26.869  37.187  1.00  0.00     0.059 A 
ATOM     70  F   UNL A   1      42.906  27.050  36.773  1.00  0.00    -0.206 F 
ATOM     71  C   UNL A   1      46.509  27.303  36.933  1.00  0.00     0.060 A 
BRANCH  71  72
ATOM     72  S   UNL A   1      47.914  26.516  37.749  1.00  0.00     0.124 S 
ATOM     73  O   UNL A   1      47.484  25.122  37.788  1.00  0.00    -0.237 OA
ATOM     74  O   UNL A   1      49.013  26.814  36.836  1.00  0.00    -0.237 OA
ATOM     75  O   UNL A   1      47.978  27.189  39.042  1.00  0.00    -0.744 OA
ENDBRANCH  71  72
ENDBRANCH  50  64
BRANCH  51  76
ATOM     76  C   UNL A   1      36.783  33.034  30.906  1.00  0.00     0.058 A 
ATOM     77  C   UNL A   1      36.986  33.939  29.852  1.00  0.00     0.135 A 
ATOM     78  C   UNL A   1      35.463  32.800  31.320  1.00  0.00     0.135 A 
ATOM     79  F   UNL A   1      38.230  34.198  29.422  1.00  0.00    -0.206 F 
ATOM     80  C   UNL A   1      35.926  34.616  29.257  1.00  0.00     0.059 A 
ATOM     81  C   UNL A   1      34.384  33.446  30.724  1.00  0.00     0.059 A 
ATOM     82  F   UNL A   1      35.214  31.929  32.311  1.00  0.00    -0.206 F 
ATOM     83  C   UNL A   1      34.628  34.367  29.705  1.00  0.00     0.060 A 
BRANCH  83  84
ATOM     84  S   UNL A   1      33.255  35.246  28.928  1.00  0.00     0.124 S 
ATOM     85  O   UNL A   1      32.702  34.214  28.059  1.00  0.00    -0.237 OA
ATOM     86  O   UNL A   1      32.436  35.620  30.078  1.00  0.00    -0.237 OA
ATOM     87  O   UNL A   1      33.913  36.359  28.250  1.00  0.00    -0.744 OA
ENDBRANCH  83  84
ENDBRANCH  51  76
BRANCH  63  88
ATOM     88  C   UNL A   1      39.967  34.117  37.005  1.00  0.00     0.058 A 
ATOM     89  C   UNL A   1      40.661  35.337  36.996  1.00  0.00     0.135 A 
ATOM     90  C   UNL A   1      39.038  33.897  38.033  1.00  0.00     0.135 A 
ATOM     91  F   UNL A   1      41.566  35.593  36.038  1.00  0.00    -0.206 F 
ATOM     92  C   UNL A   1      40.455  36.295  37.982  1.00  0.00     0.059 A 
ATOM     93  C   UNL A   1      38.798  34.851  39.016  1.00  0.00     0.059 A 
ATOM     94  F   UNL A   1      38.342  32.750  38.081  1.00  0.00    -0.206 F 
ATOM     95  C   UNL A   1      39.520  36.043  38.989  1.00  0.00     0.060 A 
BRANCH  95  96
ATOM     96  S   UNL A   1      39.234  37.309  40.244  1.00  0.00     0.124 S 
ATOM     97  O   UNL A   1      38.366  38.240  39.531  1.00  0.00    -0.237 OA
ATOM     98  O   UNL A   1      38.603  36.549  41.319  1.00  0.00    -0.237 OA
ATOM     99  O   UNL A   1      40.576  37.803  40.539  1.00  0.00    -0.744 OA
ENDBRANCH  95  96
ENDBRANCH  63  88
ENDBRANCH  37  38
ENDBRANCH  29  32
ENDBRANCH  27  28
ENDBRANCH  26  27
ENDBRANCH   1  26
TORSDOF 18
ENDMDL
MODEL 2
REMARK VINA RESULT:     -11.9      6.959     12.614
REMARK SMILES CSc1nc(N)cc(Nc2cccc(C(=O)NCCCCNC(=O)c3ccc(-c4c5nc(c(-c6c(F)cc(S(=O)(=O)[O-])cc6F)c6ccc([nH]6)c(-c6c(F)cc(S(=O)(=O)[O-])cc6F)c6nc(c(-c7c(F)cc(S(=O)(=O)[O-])cc7F)c7ccc4[nH]7)C=C6)C=C5)cc3)c2)n1
REMARK SMILES IDX 19 1 18 2 17 3 15 4 16 5 14 7 10 8 11 9 91 10 12 11 13 12
REMARK SMILES IDX 9 13 8 15 3 16 4 17 92 18 5 19 7 20 2 21 1 22 6 23 20 26
REMARK SMILES IDX 21 27 22 28 23 29 24 31 25 32 26 33 90 34 27 35 89 36 28 37
REMARK SMILES IDX 29 38 30 39 83 40 31 41 88 42 82 43 84 44 32 45 87 46 81 47
REMARK SMILES IDX 80 48 33 50 67 51 46 52 66 53 47 54 50 55 65 56 85 57 48 58
REMARK SMILES IDX 49 59 64 61 86 62 51 63 34 64 35 65 44 66 36 67 37 68 43 69
REMARK SMILES IDX 45 70 38 71 39 72 40 73 41 74 42 75 68 76 69 77 78 78 70 79
REMARK SMILES IDX 71 80 77 81 79 82 72 83 73 84 74 85 75 86 76 87 52 88 53 89
REMARK SMILES IDX 62 90 54 91 55 92 61 93 63 94 56 95 57 96 58 97 59 98 60 99
REMARK H PARENT 17 6 9 14 6 24 6 25 22 30 84 49 50 60
REMARK Flexibility Score: inf
ROOT
ATOM      1  C   UNL A   1      34.222  31.654  27.907  1.00  0.00     0.023 C 
ENDROOT
BRANCH   1   2
ATOM      2  C   UNL A   1      33.900  30.404  27.095  1.00  0.00     0.116 C 
BRANCH   2   3
ATOM      3  N   UNL A   1      32.913  29.529  27.711  1.00  0.00    -0.352 N 
ATOM      4  C   UNL A   1      32.300  28.389  27.240  1.00  0.00     0.251 C 
ATOM      5  O   UNL A   1      31.456  27.832  27.939  1.00  0.00    -0.269 OA
ATOM      6  H   UNL A   1      32.637  29.798  28.617  1.00  0.00     0.163 HD
BRANCH   4   7
ATOM      7  C   UNL A   1      32.583  27.848  25.885  1.00  0.00     0.041 A 
ATOM      8  C   UNL A   1      32.044  27.653  23.511  1.00  0.00     0.040 A 
ATOM      9  C   UNL A   1      32.999  26.633  23.406  1.00  0.00     0.026 A 
ATOM     10  C   UNL A   1      31.908  28.295  24.748  1.00  0.00     0.040 A 
ATOM     11  C   UNL A   1      33.780  26.263  24.507  1.00  0.00     0.003 A 
ATOM     12  C   UNL A   1      33.562  26.859  25.749  1.00  0.00     0.014 A 
BRANCH   8  13
ATOM     13  N   UNL A   1      31.250  27.987  22.397  1.00  0.00    -0.340 N 
ATOM     14  H   UNL A   1      31.644  27.772  21.521  1.00  0.00     0.168 HD
BRANCH  13  15
ATOM     15  C   UNL A   1      29.975  28.582  22.357  1.00  0.00     0.137 A 
ATOM     16  C   UNL A   1      28.576  30.270  21.682  1.00  0.00     0.191 A 
ATOM     17  N   UNL A   1      27.504  29.746  22.285  1.00  0.00    -0.206 NA
ATOM     18  N   UNL A   1      29.798  29.731  21.693  1.00  0.00    -0.205 NA
ATOM     19  C   UNL A   1      27.706  28.623  22.977  1.00  0.00     0.130 A 
ATOM     20  C   UNL A   1      28.932  27.996  23.043  1.00  0.00     0.093 A 
BRANCH  16  21
ATOM     21  S   UNL A   1      28.432  31.828  20.847  1.00  0.00    -0.090 SA
ATOM     22  C   UNL A   1      28.172  32.904  22.271  1.00  0.00     0.094 C 
ENDBRANCH  16  21
BRANCH  19  23
ATOM     23  N   UNL A   1      26.595  28.069  23.589  1.00  0.00    -0.383 N 
ATOM     24  H   UNL A   1      26.447  27.096  23.555  1.00  0.00     0.158 HD
ATOM     25  H   UNL A   1      25.952  28.648  24.059  1.00  0.00     0.158 HD
ENDBRANCH  19  23
ENDBRANCH  13  15
ENDBRANCH   8  13
ENDBRANCH   4   7
ENDBRANCH   2   3
ENDBRANCH   1   2
BRANCH   1  26
ATOM     26  C   UNL A   1      35.581  32.294  27.656  1.00  0.00     0.023 C 
BRANCH  26  27
ATOM     27  C   UNL A   1      36.473  32.480  28.878  1.00  0.00     0.116 C 
BRANCH  27  28
ATOM     28  N   UNL A   1      35.967  31.833  30.081  1.00  0.00    -0.352 N 
ATOM     29  C   UNL A   1      36.466  30.756  30.779  1.00  0.00     0.251 C 
ATOM     30  H   UNL A   1      35.144  32.227  30.451  1.00  0.00     0.163 HD
ATOM     31  O   UNL A   1      35.844  30.305  31.732  1.00  0.00    -0.269 OA
BRANCH  29  32
ATOM     32  C   UNL A   1      37.730  30.116  30.348  1.00  0.00     0.039 A 
ATOM     33  C   UNL A   1      37.986  29.987  28.980  1.00  0.00     0.014 A 
ATOM     34  C   UNL A   1      38.672  29.675  31.280  1.00  0.00     0.014 A 
ATOM     35  C   UNL A   1      39.228  29.509  28.549  1.00  0.00     0.010 A 
ATOM     36  C   UNL A   1      39.935  29.272  30.851  1.00  0.00     0.010 A 
ATOM     37  C   UNL A   1      40.231  29.197  29.481  1.00  0.00    -0.014 A 
BRANCH  37  38
ATOM     38  C   UNL A   1      41.598  28.806  29.047  1.00  0.00     0.031 A 
ATOM     39  C   UNL A   1      42.692  29.839  28.979  1.00  0.00     0.074 A 
ATOM     40  C   UNL A   1      41.839  27.540  28.648  1.00  0.00     0.049 A 
ATOM     41  N   UNL A   1      43.913  29.719  28.525  1.00  0.00    -0.248 NA
ATOM     42  C   UNL A   1      42.361  31.188  29.462  1.00  0.00     0.031 C 
ATOM     43  C   UNL A   1      40.852  26.457  28.620  1.00  0.00     0.029 A 
ATOM     44  N   UNL A   1      42.985  26.951  28.172  1.00  0.00    -0.354 N 
ATOM     45  C   UNL A   1      44.492  30.975  28.661  1.00  0.00     0.074 A 
ATOM     46  C   UNL A   1      43.472  31.856  29.186  1.00  0.00     0.031 C 
ATOM     47  C   UNL A   1      41.438  25.336  28.168  1.00  0.00     0.029 A 
ATOM     48  C   UNL A   1      42.830  25.625  27.839  1.00  0.00     0.049 A 
ATOM     49  H   UNL A   1      43.837  27.433  28.080  1.00  0.00     0.167 HD
ATOM     50  C   UNL A   1      45.766  31.355  28.400  1.00  0.00     0.037 A 
ATOM     51  C   UNL A   1      43.707  24.746  27.317  1.00  0.00     0.037 A 
ATOM     52  C   UNL A   1      46.786  30.472  27.898  1.00  0.00     0.049 A 
ATOM     53  C   UNL A   1      45.116  25.195  27.032  1.00  0.00     0.074 A 
ATOM     54  C   UNL A   1      48.111  30.759  27.619  1.00  0.00     0.029 A 
ATOM     55  N   UNL A   1      46.599  29.129  27.612  1.00  0.00    -0.354 N 
ATOM     56  N   UNL A   1      45.653  26.380  27.200  1.00  0.00    -0.248 NA
ATOM     57  C   UNL A   1      46.040  24.188  26.489  1.00  0.00     0.031 C 
ATOM     58  C   UNL A   1      48.721  29.593  27.144  1.00  0.00     0.029 A 
ATOM     59  C   UNL A   1      47.784  28.572  27.161  1.00  0.00     0.049 A 
ATOM     60  H   UNL A   1      45.749  28.643  27.714  1.00  0.00     0.167 HD
ATOM     61  C   UNL A   1      46.983  26.252  26.815  1.00  0.00     0.074 A 
ATOM     62  C   UNL A   1      47.173  24.872  26.416  1.00  0.00     0.031 C 
ATOM     63  C   UNL A   1      47.960  27.191  26.792  1.00  0.00     0.037 A 
BRANCH  50  64
ATOM     64  C   UNL A   1      46.137  32.783  28.685  1.00  0.00     0.058 A 
ATOM     65  C   UNL A   1      46.646  33.167  29.936  1.00  0.00     0.135 A 
ATOM     66  C   UNL A   1      46.030  33.770  27.691  1.00  0.00     0.135 A 
ATOM     67  F   UNL A   1      46.753  32.266  30.927  1.00  0.00    -0.206 F 
ATOM     68  C   UNL A   1      47.018  34.480  30.200  1.00  0.00     0.059 A 
ATOM     69  C   UNL A   1      46.419  35.086  27.925  1.00  0.00     0.059 A 
ATOM     70  F   UNL A   1      45.547  33.458  26.478  1.00  0.00    -0.206 F 
ATOM     71  C   UNL A   1      46.902  35.433  29.187  1.00  0.00     0.060 A 
BRANCH  71  72
ATOM     72  S   UNL A   1      47.408  37.129  29.541  1.00  0.00     0.124 S 
ATOM     73  O   UNL A   1      47.333  37.157  30.998  1.00  0.00    -0.237 OA
ATOM     74  O   UNL A   1      48.752  37.179  28.974  1.00  0.00    -0.237 OA
ATOM     75  O   UNL A   1      46.409  37.934  28.845  1.00  0.00    -0.744 OA
ENDBRANCH  71  72
ENDBRANCH  50  64
BRANCH  51  76
ATOM     76  C   UNL A   1      43.293  23.345  27.033  1.00  0.00     0.058 A 
ATOM     77  C   UNL A   1      43.116  22.421  28.075  1.00  0.00     0.135 A 
ATOM     78  C   UNL A   1      43.101  22.893  25.719  1.00  0.00     0.135 A 
ATOM     79  F   UNL A   1      43.292  22.805  29.348  1.00  0.00    -0.206 F 
ATOM     80  C   UNL A   1      42.800  21.089  27.823  1.00  0.00     0.059 A 
ATOM     81  C   UNL A   1      42.760  21.572  25.443  1.00  0.00     0.059 A 
ATOM     82  F   UNL A   1      43.239  23.741  24.688  1.00  0.00    -0.206 F 
ATOM     83  C   UNL A   1      42.631  20.673  26.502  1.00  0.00     0.060 A 
BRANCH  83  84
ATOM     84  S   UNL A   1      42.218  18.944  26.180  1.00  0.00     0.124 S 
ATOM     85  O   UNL A   1      42.473  18.336  27.480  1.00  0.00    -0.237 OA
ATOM     86  O   UNL A   1      40.817  19.030  25.779  1.00  0.00    -0.237 OA
ATOM     87  O   UNL A   1      43.145  18.573  25.115  1.00  0.00    -0.744 OA
ENDBRANCH  83  84
ENDBRANCH  51  76
BRANCH  63  88
ATOM     88  C   UNL A   1      49.332  26.751  26.367  1.00  0.00     0.058 A 
ATOM     89  C   UNL A   1      50.222  26.140  27.265  1.00  0.00     0.135 A 
ATOM     90  C   UNL A   1      49.741  26.899  25.033  1.00  0.00     0.135 A 
ATOM     91  F   UNL A   1      49.880  25.982  28.553  1.00  0.00    -0.206 F 
ATOM     92  C   UNL A   1      51.480  25.710  26.857  1.00  0.00     0.059 A 
ATOM     93  C   UNL A   1      50.986  26.454  24.598  1.00  0.00     0.059 A 
ATOM     94  F   UNL A   1      48.923  27.468  24.133  1.00  0.00    -0.206 F 
ATOM     95  C   UNL A   1      51.853  25.870  25.521  1.00  0.00     0.060 A 
BRANCH  95  96
ATOM     96  S   UNL A   1      53.474  25.276  24.995  1.00  0.00     0.124 S 
ATOM     97  O   UNL A   1      54.367  26.119  25.783  1.00  0.00    -0.237 OA
ATOM     98  O   UNL A   1      53.431  23.867  25.377  1.00  0.00    -0.237 OA
ATOM     99  O   UNL A   1      53.479  25.528  23.558  1.00  0.00    -0.744 OA
ENDBRANCH  95  96
ENDBRANCH  63  88
ENDBRANCH  37  38
ENDBRANCH  29  32
ENDBRANCH  27  28
ENDBRANCH  26  27
ENDBRANCH   1  26
TORSDOF 18
ENDMDL
MODEL 3
REMARK VINA RESULT:     -11.8      4.491     10.093
REMARK SMILES CSc1nc(N)cc(Nc2cccc(C(=O)NCCCCNC(=O)c3ccc(-c4c5nc(c(-c6c(F)cc(S(=O)(=O)[O-])cc6F)c6ccc([nH]6)c(-c6c(F)cc(S(=O)(=O)[O-])cc6F)c6nc(c(-c7c(F)cc(S(=O)(=O)[O-])cc7F)c7ccc4[nH]7)C=C6)C=C5)cc3)c2)n1
REMARK SMILES IDX 19 1 18 2 17 3 15 4 16 5 14 7 10 8 11 9 91 10 12 11 13 12
REMARK SMILES IDX 9 13 8 15 3 16 4 17 92 18 5 19 7 20 2 21 1 22 6 23 20 26
REMARK SMILES IDX 21 27 22 28 23 29 24 31 25 32 26 33 90 34 27 35 89 36 28 37
REMARK SMILES IDX 29 38 30 39 83 40 31 41 88 42 82 43 84 44 32 45 87 46 81 47
REMARK SMILES IDX 80 48 33 50 67 51 46 52 66 53 47 54 50 55 65 56 85 57 48 58
REMARK SMILES IDX 49 59 64 61 86 62 51 63 34 64 35 65 44 66 36 67 37 68 43 69
REMARK SMILES IDX 45 70 38 71 39 72 40 73 41 74 42 75 68 76 69 77 78 78 70 79
REMARK SMILES IDX 71 80 77 81 79 82 72 83 73 84 74 85 75 86 76 87 52 88 53 89
REMARK SMILES IDX 62 90 54 91 55 92 61 93 63 94 56 95 57 96 58 97 59 98 60 99
REMARK H PARENT 17 6 9 14 6 24 6 25 22 30 84 49 50 60
REMARK Flexibility Score: inf
ROOT
ATOM      1  C   UNL A   1      31.812  26.594  26.802  1.00  0.00     0.023 C 
ENDROOT
BRANCH   1   2
ATOM      2  C   UNL A   1      30.896  26.251  25.633  1.00  0.00     0.116 C 
BRANCH   2   3
ATOM      3  N   UNL A   1      31.535  26.336  24.328  1.00  0.00    -0.352 N 
ATOM      4  C   UNL A   1      32.530  25.571  23.759  1.00  0.00     0.251 C 
ATOM      5  O   UNL A   1      32.940  25.863  22.637  1.00  0.00    -0.269 OA
ATOM      6  H   UNL A   1      31.200  27.064  23.755  1.00  0.00     0.163 HD
BRANCH   4   7
ATOM      7  C   UNL A   1      33.164  24.441  24.487  1.00  0.00     0.041 A 
ATOM      8  C   UNL A   1      33.076  22.185  25.416  1.00  0.00     0.040 A 
ATOM      9  C   UNL A   1      34.297  22.432  26.058  1.00  0.00     0.026 A 
ATOM     10  C   UNL A   1      32.567  23.183  24.576  1.00  0.00     0.040 A 
ATOM     11  C   UNL A   1      34.976  23.641  25.872  1.00  0.00     0.003 A 
ATOM     12  C   UNL A   1      34.403  24.651  25.099  1.00  0.00     0.014 A 
BRANCH   8  13
ATOM     13  N   UNL A   1      32.398  20.972  25.643  1.00  0.00    -0.340 N 
ATOM     14  H   UNL A   1      31.824  20.954  26.442  1.00  0.00     0.168 HD
BRANCH  13  15
ATOM     15  C   UNL A   1      32.422  19.783  24.890  1.00  0.00     0.137 A 
ATOM     16  C   UNL A   1      32.625  17.502  24.760  1.00  0.00     0.191 A 
ATOM     17  N   UNL A   1      32.480  17.473  23.431  1.00  0.00    -0.206 NA
ATOM     18  N   UNL A   1      32.601  18.609  25.507  1.00  0.00    -0.205 NA
ATOM     19  C   UNL A   1      32.344  18.655  22.827  1.00  0.00     0.130 A 
ATOM     20  C   UNL A   1      32.306  19.847  23.517  1.00  0.00     0.093 A 
BRANCH  16  21
ATOM     21  S   UNL A   1      32.941  15.992  25.636  1.00  0.00    -0.090 SA
ATOM     22  C   UNL A   1      34.704  15.817  25.298  1.00  0.00     0.094 C 
ENDBRANCH  16  21
BRANCH  19  23
ATOM     23  N   UNL A   1      32.176  18.627  21.453  1.00  0.00    -0.383 N 
ATOM     24  H   UNL A   1      32.185  19.467  20.939  1.00  0.00     0.158 HD
ATOM     25  H   UNL A   1      32.050  17.767  20.990  1.00  0.00     0.158 HD
ENDBRANCH  19  23
ENDBRANCH  13  15
ENDBRANCH   8  13
ENDBRANCH   4   7
ENDBRANCH   2   3
ENDBRANCH   1   2
BRANCH   1  26
ATOM     26  C   UNL A   1      31.904  28.067  27.181  1.00  0.00     0.023 C 
BRANCH  26  27
ATOM     27  C   UNL A   1      33.310  28.638  27.324  1.00  0.00     0.116 C 
BRANCH  27  28
ATOM     28  N   UNL A   1      33.340  30.057  27.649  1.00  0.00    -0.352 N 
ATOM     29  C   UNL A   1      34.368  30.826  28.147  1.00  0.00     0.251 C 
ATOM     30  H   UNL A   1      32.497  30.540  27.487  1.00  0.00     0.163 HD
ATOM     31  O   UNL A   1      34.169  32.000  28.434  1.00  0.00    -0.269 OA
BRANCH  29  32
ATOM     32  C   UNL A   1      35.700  30.221  28.378  1.00  0.00     0.039 A 
ATOM     33  C   UNL A   1      36.621  30.200  27.327  1.00  0.00     0.014 A 
ATOM     34  C   UNL A   1      36.053  29.706  29.628  1.00  0.00     0.014 A 
ATOM     35  C   UNL A   1      37.927  29.756  27.559  1.00  0.00     0.010 A 
ATOM     36  C   UNL A   1      37.372  29.337  29.876  1.00  0.00     0.010 A 
ATOM     37  C   UNL A   1      38.328  29.370  28.848  1.00  0.00    -0.014 A 
BRANCH  37  38
ATOM     38  C   UNL A   1      39.739  29.013  29.148  1.00  0.00     0.031 A 
ATOM     39  C   UNL A   1      40.664  30.035  29.751  1.00  0.00     0.074 A 
ATOM     40  C   UNL A   1      40.207  27.793  28.813  1.00  0.00     0.049 A 
ATOM     41  N   UNL A   1      41.949  29.952  29.983  1.00  0.00    -0.248 NA
ATOM     42  C   UNL A   1      40.071  31.331  30.119  1.00  0.00     0.031 C 
ATOM     43  C   UNL A   1      39.426  26.728  28.177  1.00  0.00     0.029 A 
ATOM     44  N   UNL A   1      41.460  27.245  28.943  1.00  0.00    -0.354 N 
ATOM     45  C   UNL A   1      42.318  31.181  30.516  1.00  0.00     0.074 A 
ATOM     46  C   UNL A   1      41.135  32.013  30.520  1.00  0.00     0.031 C 
ATOM     47  C   UNL A   1      40.211  25.654  27.990  1.00  0.00     0.029 A 
ATOM     48  C   UNL A   1      41.559  25.963  28.455  1.00  0.00     0.049 A 
ATOM     49  H   UNL A   1      42.217  27.726  29.350  1.00  0.00     0.167 HD
ATOM     50  C   UNL A   1      43.527  31.573  30.987  1.00  0.00     0.037 A 
ATOM     51  C   UNL A   1      42.618  25.133  28.379  1.00  0.00     0.037 A 
ATOM     52  C   UNL A   1      44.699  30.737  31.003  1.00  0.00     0.049 A 
ATOM     53  C   UNL A   1      43.952  25.596  28.906  1.00  0.00     0.074 A 
ATOM     54  C   UNL A   1      45.964  31.038  31.476  1.00  0.00     0.029 A 
ATOM     55  N   UNL A   1      44.746  29.433  30.536  1.00  0.00    -0.354 N 
ATOM     56  N   UNL A   1      44.271  26.752  29.438  1.00  0.00    -0.248 NA
ATOM     57  C   UNL A   1      45.067  24.642  28.826  1.00  0.00     0.031 C 
ATOM     58  C   UNL A   1      46.784  29.922  31.276  1.00  0.00     0.029 A 
ATOM     59  C   UNL A   1      46.018  28.915  30.711  1.00  0.00     0.049 A 
ATOM     60  H   UNL A   1      43.987  28.947  30.139  1.00  0.00     0.167 HD
ATOM     61  C   UNL A   1      45.614  26.651  29.785  1.00  0.00     0.074 A 
ATOM     62  C   UNL A   1      46.044  25.319  29.413  1.00  0.00     0.031 C 
ATOM     63  C   UNL A   1      46.420  27.577  30.358  1.00  0.00     0.037 A 
BRANCH  50  64
ATOM     64  C   UNL A   1      43.634  32.960  31.556  1.00  0.00     0.058 A 
ATOM     65  C   UNL A   1      44.102  34.031  30.778  1.00  0.00     0.135 A 
ATOM     66  C   UNL A   1      43.224  33.236  32.870  1.00  0.00     0.135 A 
ATOM     67  F   UNL A   1      44.523  33.819  29.520  1.00  0.00    -0.206 F 
ATOM     68  C   UNL A   1      44.179  35.322  31.286  1.00  0.00     0.059 A 
ATOM     69  C   UNL A   1      43.269  34.526  33.393  1.00  0.00     0.059 A 
ATOM     70  F   UNL A   1      42.770  32.249  33.658  1.00  0.00    -0.206 F 
ATOM     71  C   UNL A   1      43.758  35.560  32.596  1.00  0.00     0.060 A 
BRANCH  71  72
ATOM     72  S   UNL A   1      43.846  37.247  33.233  1.00  0.00     0.124 S 
ATOM     73  O   UNL A   1      45.187  37.271  33.808  1.00  0.00    -0.237 OA
ATOM     74  O   UNL A   1      43.660  38.047  32.026  1.00  0.00    -0.237 OA
ATOM     75  O   UNL A   1      42.749  37.305  34.194  1.00  0.00    -0.744 OA
ENDBRANCH  71  72
ENDBRANCH  50  64
BRANCH  51  76
ATOM     76  C   UNL A   1      42.473  23.774  27.792  1.00  0.00     0.058 A 
ATOM     77  C   UNL A   1      42.359  22.643  28.615  1.00  0.00     0.135 A 
ATOM     78  C   UNL A   1      42.482  23.574  26.404  1.00  0.00     0.135 A 
ATOM     79  F   UNL A   1      42.350  22.782  29.949  1.00  0.00    -0.206 F 
ATOM     80  C   UNL A   1      42.295  21.358  28.083  1.00  0.00     0.059 A 
ATOM     81  C   UNL A   1      42.393  22.301  25.848  1.00  0.00     0.059 A 
ATOM     82  F   UNL A   1      42.569  24.625  25.573  1.00  0.00    -0.206 F 
ATOM     83  C   UNL A   1      42.320  21.198  26.697  1.00  0.00     0.060 A 
BRANCH  83  84
ATOM     84  S   UNL A   1      42.234  19.528  26.013  1.00  0.00     0.124 S 
ATOM     85  O   UNL A   1      42.695  18.726  27.140  1.00  0.00    -0.237 OA
ATOM     86  O   UNL A   1      40.819  19.404  25.676  1.00  0.00    -0.237 OA
ATOM     87  O   UNL A   1      43.139  19.591  24.868  1.00  0.00    -0.744 OA
ENDBRANCH  83  84
ENDBRANCH  51  76
BRANCH  63  88
ATOM     88  C   UNL A   1      47.834  27.170  30.662  1.00  0.00     0.058 A 
ATOM     89  C   UNL A   1      48.176  26.533  31.865  1.00  0.00     0.135 A 
ATOM     90  C   UNL A   1      48.850  27.377  29.716  1.00  0.00     0.135 A 
ATOM     91  F   UNL A   1      47.242  26.319  32.805  1.00  0.00    -0.206 F 
ATOM     92  C   UNL A   1      49.481  26.134  32.128  1.00  0.00     0.059 A 
ATOM     93  C   UNL A   1      50.158  26.964  29.948  1.00  0.00     0.059 A 
ATOM     94  F   UNL A   1      48.573  27.974  28.546  1.00  0.00    -0.206 F 
ATOM     95  C   UNL A   1      50.467  26.353  31.163  1.00  0.00     0.060 A 
BRANCH  95  96
ATOM     96  S   UNL A   1      52.151  25.798  31.500  1.00  0.00     0.124 S 
ATOM     97  O   UNL A   1      52.800  26.027  30.214  1.00  0.00    -0.237 OA
ATOM     98  O   UNL A   1      52.562  26.685  32.585  1.00  0.00    -0.237 OA
ATOM     99  O   UNL A   1      51.978  24.399  31.876  1.00  0.00    -0.744 OA
ENDBRANCH  95  96
ENDBRANCH  63  88
ENDBRANCH  37  38
ENDBRANCH  29  32
ENDBRANCH  27  28
ENDBRANCH  26  27
ENDBRANCH   1  26
TORSDOF 18
ENDMDL
