MODEL 1
REMARK VINA RESULT:     -12.7      0.000      0.000
REMARK SMILES Cc1ncc(CC(=O)N2CCc3c(c(C(=O)NCCCCNC(=O)c4ccc(-c5c6nc(c(-c7c(F)cc(S(=O)(=O)[O-])cc7F)c7ccc([nH]7)c(-c7c(F)cc(S(=O)(=O)[O-])cc7F)c7nc(c(-c8c(F)cc(S(=O)(=O)[O-])cc8F)c8ccc5[nH]8)C=C7)C=C6)cc4)nn3CC3CC3)C2)c(=O)[nH]1
REMARK SMILES IDX 19 1 18 2 17 3 15 4 16 5 14 7 9 8 10 9 97 10 11 11 13 12
REMARK SMILES IDX 12 13 92 14 91 15 7 16 8 17 6 18 5 19 1 20 2 21 3 22 100 23
REMARK SMILES IDX 4 24 98 25 99 27 93 28 94 29 95 30 96 31 20 32 21 33 22 34
REMARK SMILES IDX 23 35 24 37 25 38 26 39 90 40 27 41 89 42 28 43 29 44 30 45
REMARK SMILES IDX 83 46 31 47 88 48 82 49 84 50 32 51 87 52 81 53 80 54 33 56
REMARK SMILES IDX 67 57 46 58 66 59 47 60 50 61 65 62 85 63 48 64 49 65 64 67
REMARK SMILES IDX 86 68 51 69 34 70 35 71 44 72 36 73 37 74 43 75 45 76 38 77
REMARK SMILES IDX 39 78 40 79 41 80 42 81 68 82 69 83 78 84 70 85 71 86 77 87
REMARK SMILES IDX 79 88 72 89 73 90 74 91 75 92 76 93 52 94 53 95 62 96 54 97
REMARK SMILES IDX 55 98 61 99 63 100 56 101 57 102 58 103 59 104 60 105
REMARK H PARENT 17 6 100 26 22 36 84 55 50 66
REMARK Flexibility Score: inf
ROOT
ATOM      1  C   UNL A   1      35.153  30.449  27.621  1.00  0.00     0.023 C 
ENDROOT
BRANCH   1   2
ATOM      2  C   UNL A   1      34.481  29.273  26.893  1.00  0.00     0.116 C 
BRANCH   2   3
ATOM      3  N   UNL A   1      33.349  28.722  27.627  1.00  0.00    -0.351 N 
ATOM      4  C   UNL A   1      32.141  28.194  27.205  1.00  0.00     0.272 C 
ATOM      5  O   UNL A   1      31.354  27.829  28.080  1.00  0.00    -0.267 OA
ATOM      6  H   UNL A   1      33.465  28.726  28.605  1.00  0.00     0.163 HD
BRANCH   4   7
ATOM      7  C   UNL A   1      31.775  28.110  25.777  1.00  0.00     0.155 A 
ATOM      8  N   UNL A   1      32.522  24.916  23.822  1.00  0.00    -0.338 N 
ATOM      9  C   UNL A   1      31.298  25.038  23.019  1.00  0.00     0.126 C 
ATOM     10  C   UNL A   1      32.489  25.600  25.143  1.00  0.00     0.159 C 
ATOM     11  C   UNL A   1      31.093  26.486  22.552  1.00  0.00     0.078 C 
ATOM     12  C   UNL A   1      31.904  26.972  24.918  1.00  0.00     0.026 A 
ATOM     13  C   UNL A   1      31.292  27.355  23.736  1.00  0.00     0.046 A 
ATOM     14  N   UNL A   1      30.938  28.654  23.877  1.00  0.00    -0.268 N 
ATOM     15  N   UNL A   1      31.225  29.132  25.095  1.00  0.00    -0.167 NA
BRANCH   8  16
ATOM     16  C   UNL A   1      33.639  24.170  23.487  1.00  0.00     0.227 C 
ATOM     17  O   UNL A   1      33.972  24.037  22.306  1.00  0.00    -0.275 OA
BRANCH  16  18
ATOM     18  C   UNL A   1      34.301  23.275  24.558  1.00  0.00     0.143 C 
BRANCH  18  19
ATOM     19  C   UNL A   1      33.873  21.851  24.683  1.00  0.00     0.045 A 
ATOM     20  C   UNL A   1      32.586  17.930  25.600  1.00  0.00     0.087 C 
ATOM     21  C   UNL A   1      33.013  19.310  25.197  1.00  0.00     0.105 A 
ATOM     22  N   UNL A   1      32.171  20.142  24.677  1.00  0.00    -0.243 NA
ATOM     23  N   UNL A   1      34.321  19.619  25.439  1.00  0.00    -0.311 N 
ATOM     24  C   UNL A   1      32.638  21.403  24.409  1.00  0.00     0.123 A 
ATOM     25  C   UNL A   1      34.842  20.853  25.179  1.00  0.00     0.254 A 
ATOM     26  H   UNL A   1      34.910  18.925  25.814  1.00  0.00     0.171 HD
ATOM     27  O   UNL A   1      36.021  21.110  25.386  1.00  0.00    -0.269 OA
ENDBRANCH  18  19
ENDBRANCH  16  18
ENDBRANCH   8  16
BRANCH  14  28
ATOM     28  C   UNL A   1      30.310  29.528  22.897  1.00  0.00     0.148 C 
BRANCH  28  29
ATOM     29  C   UNL A   1      28.873  29.200  22.588  1.00  0.00     0.011 C 
ATOM     30  C   UNL A   1      27.677  29.984  23.090  1.00  0.00     0.006 C 
ATOM     31  C   UNL A   1      28.098  30.104  21.655  1.00  0.00     0.006 C 
ENDBRANCH  28  29
ENDBRANCH  14  28
ENDBRANCH   4   7
ENDBRANCH   2   3
ENDBRANCH   1   2
BRANCH   1  32
ATOM     32  C   UNL A   1      34.287  31.704  27.824  1.00  0.00     0.023 C 
BRANCH  32  33
ATOM     33  C   UNL A   1      35.025  32.906  28.401  1.00  0.00     0.116 C 
BRANCH  33  34
ATOM     34  N   UNL A   1      34.538  33.343  29.721  1.00  0.00    -0.352 N 
ATOM     35  C   UNL A   1      34.806  32.774  30.967  1.00  0.00     0.251 C 
ATOM     36  H   UNL A   1      33.951  34.132  29.724  1.00  0.00     0.163 HD
ATOM     37  O   UNL A   1      34.083  32.968  31.927  1.00  0.00    -0.269 OA
BRANCH  35  38
ATOM     38  C   UNL A   1      36.022  31.946  31.090  1.00  0.00     0.039 A 
ATOM     39  C   UNL A   1      36.039  30.548  31.043  1.00  0.00     0.014 A 
ATOM     40  C   UNL A   1      37.202  32.663  31.171  1.00  0.00     0.014 A 
ATOM     41  C   UNL A   1      37.277  29.901  31.005  1.00  0.00     0.010 A 
ATOM     42  C   UNL A   1      38.357  32.059  30.792  1.00  0.00     0.010 A 
ATOM     43  C   UNL A   1      38.434  30.679  30.874  1.00  0.00    -0.014 A 
BRANCH  43  44
ATOM     44  C   UNL A   1      39.783  30.141  30.803  1.00  0.00     0.031 A 
ATOM     45  C   UNL A   1      40.450  29.916  32.110  1.00  0.00     0.074 A 
ATOM     46  C   UNL A   1      40.237  29.591  29.652  1.00  0.00     0.049 A 
ATOM     47  N   UNL A   1      41.481  30.533  32.583  1.00  0.00    -0.248 NA
ATOM     48  C   UNL A   1      39.814  29.000  33.071  1.00  0.00     0.031 C 
ATOM     49  C   UNL A   1      39.541  29.432  28.362  1.00  0.00     0.029 A 
ATOM     50  N   UNL A   1      41.384  28.900  29.443  1.00  0.00    -0.354 N 
ATOM     51  C   UNL A   1      41.773  29.909  33.791  1.00  0.00     0.074 A 
ATOM     52  C   UNL A   1      40.604  29.142  34.137  1.00  0.00     0.031 C 
ATOM     53  C   UNL A   1      40.158  28.486  27.623  1.00  0.00     0.029 A 
ATOM     54  C   UNL A   1      41.384  28.111  28.295  1.00  0.00     0.049 A 
ATOM     55  H   UNL A   1      42.155  28.952  30.053  1.00  0.00     0.167 HD
ATOM     56  C   UNL A   1      43.044  29.870  34.284  1.00  0.00     0.037 A 
ATOM     57  C   UNL A   1      42.313  27.175  27.978  1.00  0.00     0.037 A 
ATOM     58  C   UNL A   1      43.911  30.774  33.566  1.00  0.00     0.049 A 
ATOM     59  C   UNL A   1      43.535  27.526  28.760  1.00  0.00     0.074 A 
ATOM     60  C   UNL A   1      43.883  32.133  33.306  1.00  0.00     0.029 A 
ATOM     61  N   UNL A   1      44.763  30.238  32.626  1.00  0.00    -0.354 N 
ATOM     62  N   UNL A   1      44.206  28.637  28.581  1.00  0.00    -0.248 NA
ATOM     63  C   UNL A   1      43.686  26.919  30.076  1.00  0.00     0.031 C 
ATOM     64  C   UNL A   1      44.268  32.246  31.937  1.00  0.00     0.029 A 
ATOM     65  C   UNL A   1      44.595  30.970  31.474  1.00  0.00     0.049 A 
ATOM     66  H   UNL A   1      45.373  29.476  32.753  1.00  0.00     0.167 HD
ATOM     67  C   UNL A   1      44.521  29.084  29.859  1.00  0.00     0.074 A 
ATOM     68  C   UNL A   1      44.224  27.950  30.737  1.00  0.00     0.031 C 
ATOM     69  C   UNL A   1      44.696  30.413  30.141  1.00  0.00     0.037 A 
BRANCH  56  70
ATOM     70  C   UNL A   1      43.592  28.774  35.163  1.00  0.00     0.058 A 
ATOM     71  C   UNL A   1      44.290  29.116  36.338  1.00  0.00     0.135 A 
ATOM     72  C   UNL A   1      43.694  27.423  34.764  1.00  0.00     0.135 A 
ATOM     73  F   UNL A   1      44.267  30.375  36.804  1.00  0.00    -0.206 F 
ATOM     74  C   UNL A   1      45.089  28.202  37.025  1.00  0.00     0.059 A 
ATOM     75  C   UNL A   1      44.437  26.481  35.465  1.00  0.00     0.059 A 
ATOM     76  F   UNL A   1      43.165  26.974  33.619  1.00  0.00    -0.206 F 
ATOM     77  C   UNL A   1      45.168  26.889  36.568  1.00  0.00     0.060 A 
BRANCH  77  78
ATOM     78  S   UNL A   1      46.291  25.739  37.381  1.00  0.00     0.124 S 
ATOM     79  O   UNL A   1      47.353  26.635  37.821  1.00  0.00    -0.237 OA
ATOM     80  O   UNL A   1      45.445  25.183  38.432  1.00  0.00    -0.237 OA
ATOM     81  O   UNL A   1      46.648  24.809  36.315  1.00  0.00    -0.744 OA
ENDBRANCH  77  78
ENDBRANCH  56  70
BRANCH  57  82
ATOM     82  C   UNL A   1      42.043  25.832  27.390  1.00  0.00     0.058 A 
ATOM     83  C   UNL A   1      42.919  25.240  26.462  1.00  0.00     0.135 A 
ATOM     84  C   UNL A   1      41.040  24.984  27.912  1.00  0.00     0.135 A 
ATOM     85  F   UNL A   1      43.919  25.959  25.930  1.00  0.00    -0.206 F 
ATOM     86  C   UNL A   1      42.828  23.888  26.101  1.00  0.00     0.059 A 
ATOM     87  C   UNL A   1      40.922  23.640  27.560  1.00  0.00     0.059 A 
ATOM     88  F   UNL A   1      40.189  25.415  28.854  1.00  0.00    -0.206 F 
ATOM     89  C   UNL A   1      41.834  23.091  26.670  1.00  0.00     0.060 A 
BRANCH  89  90
ATOM     90  S   UNL A   1      41.806  21.313  26.335  1.00  0.00     0.124 S 
ATOM     91  O   UNL A   1      42.096  20.753  27.651  1.00  0.00    -0.237 OA
ATOM     92  O   UNL A   1      40.448  21.113  25.843  1.00  0.00    -0.237 OA
ATOM     93  O   UNL A   1      42.859  21.140  25.337  1.00  0.00    -0.744 OA
ENDBRANCH  89  90
ENDBRANCH  57  82
BRANCH  69  94
ATOM     94  C   UNL A   1      44.750  31.409  29.003  1.00  0.00     0.058 A 
ATOM     95  C   UNL A   1      45.858  31.584  28.152  1.00  0.00     0.135 A 
ATOM     96  C   UNL A   1      43.568  32.069  28.635  1.00  0.00     0.135 A 
ATOM     97  F   UNL A   1      46.995  30.908  28.355  1.00  0.00    -0.206 F 
ATOM     98  C   UNL A   1      45.808  32.400  27.020  1.00  0.00     0.059 A 
ATOM     99  C   UNL A   1      43.484  32.865  27.494  1.00  0.00     0.059 A 
ATOM    100  F   UNL A   1      42.450  31.895  29.359  1.00  0.00    -0.206 F 
ATOM    101  C   UNL A   1      44.613  33.036  26.696  1.00  0.00     0.060 A 
BRANCH 101 102
ATOM    102  S   UNL A   1      44.529  34.035  25.194  1.00  0.00     0.124 S 
ATOM    103  O   UNL A   1      44.483  33.016  24.150  1.00  0.00    -0.237 OA
ATOM    104  O   UNL A   1      43.301  34.799  25.387  1.00  0.00    -0.237 OA
ATOM    105  O   UNL A   1      45.757  34.825  25.239  1.00  0.00    -0.744 OA
ENDBRANCH 101 102
ENDBRANCH  69  94
ENDBRANCH  43  44
ENDBRANCH  35  38
ENDBRANCH  33  34
ENDBRANCH  32  33
ENDBRANCH   1  32
TORSDOF 19
ENDMDL
MODEL 2
REMARK VINA RESULT:     -12.7      2.661      9.294
REMARK SMILES Cc1ncc(CC(=O)N2CCc3c(c(C(=O)NCCCCNC(=O)c4ccc(-c5c6nc(c(-c7c(F)cc(S(=O)(=O)[O-])cc7F)c7ccc([nH]7)c(-c7c(F)cc(S(=O)(=O)[O-])cc7F)c7nc(c(-c8c(F)cc(S(=O)(=O)[O-])cc8F)c8ccc5[nH]8)C=C7)C=C6)cc4)nn3CC3CC3)C2)c(=O)[nH]1
REMARK SMILES IDX 19 1 18 2 17 3 15 4 16 5 14 7 9 8 10 9 97 10 11 11 13 12
REMARK SMILES IDX 12 13 92 14 91 15 7 16 8 17 6 18 5 19 1 20 2 21 3 22 100 23
REMARK SMILES IDX 4 24 98 25 99 27 93 28 94 29 95 30 96 31 20 32 21 33 22 34
REMARK SMILES IDX 23 35 24 37 25 38 26 39 90 40 27 41 89 42 28 43 29 44 30 45
REMARK SMILES IDX 83 46 31 47 88 48 82 49 84 50 32 51 87 52 81 53 80 54 33 56
REMARK SMILES IDX 67 57 46 58 66 59 47 60 50 61 65 62 85 63 48 64 49 65 64 67
REMARK SMILES IDX 86 68 51 69 34 70 35 71 44 72 36 73 37 74 43 75 45 76 38 77
REMARK SMILES IDX 39 78 40 79 41 80 42 81 68 82 69 83 78 84 70 85 71 86 77 87
REMARK SMILES IDX 79 88 72 89 73 90 74 91 75 92 76 93 52 94 53 95 62 96 54 97
REMARK SMILES IDX 55 98 61 99 63 100 56 101 57 102 58 103 59 104 60 105
REMARK H PARENT 17 6 100 26 22 36 84 55 50 66
REMARK Flexibility Score: inf
ROOT
ATOM      1  C   UNL A   1      38.408  22.806  26.063  1.00  0.00     0.023 C 
ENDROOT
BRANCH   1   2
ATOM      2  C   UNL A   1      36.933  22.855  25.633  1.00  0.00     0.116 C 
BRANCH   2   3
ATOM      3  N   UNL A   1      36.014  22.922  26.761  1.00  0.00    -0.351 N 
ATOM      4  C   UNL A   1      34.719  22.462  26.929  1.00  0.00     0.272 C 
ATOM      5  O   UNL A   1      34.176  22.701  28.009  1.00  0.00    -0.267 OA
ATOM      6  H   UNL A   1      36.382  23.380  27.552  1.00  0.00     0.163 HD
BRANCH   4   7
ATOM      7  C   UNL A   1      33.989  21.759  25.855  1.00  0.00     0.155 A 
ATOM      8  N   UNL A   1      32.366  23.773  23.046  1.00  0.00    -0.338 N 
ATOM      9  C   UNL A   1      32.663  22.743  22.041  1.00  0.00     0.126 C 
ATOM     10  C   UNL A   1      33.254  23.774  24.239  1.00  0.00     0.159 C 
ATOM     11  C   UNL A   1      32.358  21.342  22.589  1.00  0.00     0.078 C 
ATOM     12  C   UNL A   1      33.394  22.343  24.691  1.00  0.00     0.026 A 
ATOM     13  C   UNL A   1      32.969  21.262  23.936  1.00  0.00     0.046 A 
ATOM     14  N   UNL A   1      33.207  20.150  24.671  1.00  0.00    -0.268 N 
ATOM     15  N   UNL A   1      33.814  20.424  25.833  1.00  0.00    -0.167 NA
BRANCH   8  16
ATOM     16  C   UNL A   1      31.404  24.761  22.932  1.00  0.00     0.227 C 
ATOM     17  O   UNL A   1      30.215  24.505  23.141  1.00  0.00    -0.275 OA
BRANCH  16  18
ATOM     18  C   UNL A   1      31.775  26.108  22.271  1.00  0.00     0.143 C 
BRANCH  18  19
ATOM     19  C   UNL A   1      31.828  27.340  23.110  1.00  0.00     0.045 A 
ATOM     20  C   UNL A   1      31.547  30.593  25.795  1.00  0.00     0.087 C 
ATOM     21  C   UNL A   1      31.727  29.459  24.831  1.00  0.00     0.105 A 
ATOM     22  N   UNL A   1      32.656  28.576  25.009  1.00  0.00    -0.243 NA
ATOM     23  N   UNL A   1      30.842  29.418  23.793  1.00  0.00    -0.311 N 
ATOM     24  C   UNL A   1      32.695  27.537  24.116  1.00  0.00     0.123 A 
ATOM     25  C   UNL A   1      30.844  28.414  22.867  1.00  0.00     0.254 A 
ATOM     26  H   UNL A   1      30.177  30.139  23.709  1.00  0.00     0.171 HD
ATOM     27  O   UNL A   1      30.054  28.400  21.932  1.00  0.00    -0.269 OA
ENDBRANCH  18  19
ENDBRANCH  16  18
ENDBRANCH   8  16
BRANCH  14  28
ATOM     28  C   UNL A   1      32.892  18.767  24.340  1.00  0.00     0.148 C 
BRANCH  28  29
ATOM     29  C   UNL A   1      34.090  17.882  24.117  1.00  0.00     0.011 C 
ATOM     30  C   UNL A   1      34.134  16.394  24.399  1.00  0.00     0.006 C 
ATOM     31  C   UNL A   1      34.064  16.884  22.982  1.00  0.00     0.006 C 
ENDBRANCH  28  29
ENDBRANCH  14  28
ENDBRANCH   4   7
ENDBRANCH   2   3
ENDBRANCH   1   2
BRANCH   1  32
ATOM     32  C   UNL A   1      39.132  21.464  25.854  1.00  0.00     0.023 C 
BRANCH  32  33
ATOM     33  C   UNL A   1      40.463  21.333  26.584  1.00  0.00     0.116 C 
BRANCH  33  34
ATOM     34  N   UNL A   1      41.647  21.446  25.715  1.00  0.00    -0.352 N 
ATOM     35  C   UNL A   1      42.440  22.572  25.486  1.00  0.00     0.251 C 
ATOM     36  H   UNL A   1      41.912  20.627  25.239  1.00  0.00     0.163 HD
ATOM     37  O   UNL A   1      43.145  22.666  24.499  1.00  0.00    -0.269 OA
BRANCH  35  38
ATOM     38  C   UNL A   1      42.416  23.640  26.505  1.00  0.00     0.039 A 
ATOM     39  C   UNL A   1      43.134  23.608  27.705  1.00  0.00     0.014 A 
ATOM     40  C   UNL A   1      41.681  24.757  26.153  1.00  0.00     0.014 A 
ATOM     41  C   UNL A   1      43.150  24.758  28.499  1.00  0.00     0.010 A 
ATOM     42  C   UNL A   1      41.980  25.943  26.740  1.00  0.00     0.010 A 
ATOM     43  C   UNL A   1      42.567  25.926  27.994  1.00  0.00    -0.014 A 
BRANCH  43  44
ATOM     44  C   UNL A   1      42.526  27.196  28.700  1.00  0.00     0.031 A 
ATOM     45  C   UNL A   1      43.562  28.181  28.303  1.00  0.00     0.074 A 
ATOM     46  C   UNL A   1      41.427  27.545  29.410  1.00  0.00     0.049 A 
ATOM     47  N   UNL A   1      44.542  28.623  29.018  1.00  0.00    -0.248 NA
ATOM     48  C   UNL A   1      43.606  28.623  26.899  1.00  0.00     0.031 C 
ATOM     49  C   UNL A   1      40.169  26.799  29.601  1.00  0.00     0.029 A 
ATOM     50  N   UNL A   1      41.139  28.737  29.988  1.00  0.00    -0.354 N 
ATOM     51  C   UNL A   1      45.176  29.585  28.238  1.00  0.00     0.074 A 
ATOM     52  C   UNL A   1      44.704  29.382  26.893  1.00  0.00     0.031 C 
ATOM     53  C   UNL A   1      39.193  27.641  30.003  1.00  0.00     0.029 A 
ATOM     54  C   UNL A   1      39.790  28.931  30.278  1.00  0.00     0.049 A 
ATOM     55  H   UNL A   1      41.829  29.412  30.187  1.00  0.00     0.167 HD
ATOM     56  C   UNL A   1      45.844  30.632  28.801  1.00  0.00     0.037 A 
ATOM     57  C   UNL A   1      39.222  30.103  30.655  1.00  0.00     0.037 A 
ATOM     58  C   UNL A   1      46.036  30.429  30.218  1.00  0.00     0.049 A 
ATOM     59  C   UNL A   1      40.331  30.942  31.201  1.00  0.00     0.074 A 
ATOM     60  C   UNL A   1      46.630  29.436  30.976  1.00  0.00     0.029 A 
ATOM     61  N   UNL A   1      45.205  31.104  31.084  1.00  0.00    -0.354 N 
ATOM     62  N   UNL A   1      41.012  30.619  32.272  1.00  0.00    -0.248 NA
ATOM     63  C   UNL A   1      41.023  31.825  30.272  1.00  0.00     0.031 C 
ATOM     64  C   UNL A   1      45.738  29.234  32.071  1.00  0.00     0.029 A 
ATOM     65  C   UNL A   1      44.710  30.173  31.966  1.00  0.00     0.049 A 
ATOM     66  H   UNL A   1      45.004  32.068  31.073  1.00  0.00     0.167 HD
ATOM     67  C   UNL A   1      42.336  30.908  31.964  1.00  0.00     0.074 A 
ATOM     68  C   UNL A   1      42.271  31.704  30.736  1.00  0.00     0.031 C 
ATOM     69  C   UNL A   1      43.379  30.230  32.537  1.00  0.00     0.037 A 
BRANCH  56  70
ATOM     70  C   UNL A   1      46.009  31.989  28.164  1.00  0.00     0.058 A 
ATOM     71  C   UNL A   1      47.285  32.585  28.130  1.00  0.00     0.135 A 
ATOM     72  C   UNL A   1      44.930  32.838  27.831  1.00  0.00     0.135 A 
ATOM     73  F   UNL A   1      48.380  31.871  28.436  1.00  0.00    -0.206 F 
ATOM     74  C   UNL A   1      47.469  33.941  27.857  1.00  0.00     0.059 A 
ATOM     75  C   UNL A   1      45.096  34.177  27.499  1.00  0.00     0.059 A 
ATOM     76  F   UNL A   1      43.655  32.438  27.912  1.00  0.00    -0.206 F 
ATOM     77  C   UNL A   1      46.363  34.731  27.559  1.00  0.00     0.060 A 
BRANCH  77  78
ATOM     78  S   UNL A   1      46.583  36.503  27.324  1.00  0.00     0.124 S 
ATOM     79  O   UNL A   1      45.348  37.026  27.896  1.00  0.00    -0.237 OA
ATOM     80  O   UNL A   1      47.800  36.760  28.086  1.00  0.00    -0.237 OA
ATOM     81  O   UNL A   1      46.716  36.635  25.877  1.00  0.00    -0.744 OA
ENDBRANCH  77  78
ENDBRANCH  56  70
BRANCH  57  82
ATOM     82  C   UNL A   1      37.912  30.637  30.186  1.00  0.00     0.058 A 
ATOM     83  C   UNL A   1      37.026  31.298  31.056  1.00  0.00     0.135 A 
ATOM     84  C   UNL A   1      37.601  30.730  28.810  1.00  0.00     0.135 A 
ATOM     85  F   UNL A   1      37.252  31.286  32.379  1.00  0.00    -0.206 F 
ATOM     86  C   UNL A   1      35.925  32.031  30.592  1.00  0.00     0.059 A 
ATOM     87  C   UNL A   1      36.506  31.444  28.325  1.00  0.00     0.059 A 
ATOM     88  F   UNL A   1      38.408  30.200  27.879  1.00  0.00    -0.206 F 
ATOM     89  C   UNL A   1      35.683  32.112  29.220  1.00  0.00     0.060 A 
BRANCH  89  90
ATOM     90  S   UNL A   1      34.362  33.183  28.603  1.00  0.00     0.124 S 
ATOM     91  O   UNL A   1      33.464  32.222  27.971  1.00  0.00    -0.237 OA
ATOM     92  O   UNL A   1      33.871  33.805  29.828  1.00  0.00    -0.237 OA
ATOM     93  O   UNL A   1      35.057  34.084  27.686  1.00  0.00    -0.744 OA
ENDBRANCH  89  90
ENDBRANCH  57  82
BRANCH  69  94
ATOM     94  C   UNL A   1      43.105  29.282  33.684  1.00  0.00     0.058 A 
ATOM     95  C   UNL A   1      42.917  29.685  35.020  1.00  0.00     0.135 A 
ATOM     96  C   UNL A   1      42.822  27.940  33.390  1.00  0.00     0.135 A 
ATOM     97  F   UNL A   1      43.052  30.967  35.377  1.00  0.00    -0.206 F 
ATOM     98  C   UNL A   1      42.510  28.796  36.018  1.00  0.00     0.059 A 
ATOM     99  C   UNL A   1      42.385  27.041  34.361  1.00  0.00     0.059 A 
ATOM    100  F   UNL A   1      42.910  27.498  32.124  1.00  0.00    -0.206 F 
ATOM    101  C   UNL A   1      42.243  27.474  35.677  1.00  0.00     0.060 A 
BRANCH 101 102
ATOM    102  S   UNL A   1      41.649  26.341  36.954  1.00  0.00     0.124 S 
ATOM    103  O   UNL A   1      41.447  25.109  36.199  1.00  0.00    -0.237 OA
ATOM    104  O   UNL A   1      42.755  26.326  37.906  1.00  0.00    -0.237 OA
ATOM    105  O   UNL A   1      40.430  26.982  37.439  1.00  0.00    -0.744 OA
ENDBRANCH 101 102
ENDBRANCH  69  94
ENDBRANCH  43  44
ENDBRANCH  35  38
ENDBRANCH  33  34
ENDBRANCH  32  33
ENDBRANCH   1  32
TORSDOF 19
ENDMDL
MODEL 3
REMARK VINA RESULT:     -12.6      1.869      2.673
REMARK SMILES Cc1ncc(CC(=O)N2CCc3c(c(C(=O)NCCCCNC(=O)c4ccc(-c5c6nc(c(-c7c(F)cc(S(=O)(=O)[O-])cc7F)c7ccc([nH]7)c(-c7c(F)cc(S(=O)(=O)[O-])cc7F)c7nc(c(-c8c(F)cc(S(=O)(=O)[O-])cc8F)c8ccc5[nH]8)C=C7)C=C6)cc4)nn3CC3CC3)C2)c(=O)[nH]1
REMARK SMILES IDX 19 1 18 2 17 3 15 4 16 5 14 7 9 8 10 9 97 10 11 11 13 12
REMARK SMILES IDX 12 13 92 14 91 15 7 16 8 17 6 18 5 19 1 20 2 21 3 22 100 23
REMARK SMILES IDX 4 24 98 25 99 27 93 28 94 29 95 30 96 31 20 32 21 33 22 34
REMARK SMILES IDX 23 35 24 37 25 38 26 39 90 40 27 41 89 42 28 43 29 44 30 45
REMARK SMILES IDX 83 46 31 47 88 48 82 49 84 50 32 51 87 52 81 53 80 54 33 56
REMARK SMILES IDX 67 57 46 58 66 59 47 60 50 61 65 62 85 63 48 64 49 65 64 67
REMARK SMILES IDX 86 68 51 69 34 70 35 71 44 72 36 73 37 74 43 75 45 76 38 77
REMARK SMILES IDX 39 78 40 79 41 80 42 81 68 82 69 83 78 84 70 85 71 86 77 87
REMARK SMILES IDX 79 88 72 89 73 90 74 91 75 92 76 93 52 94 53 95 62 96 54 97
REMARK SMILES IDX 55 98 61 99 63 100 56 101 57 102 58 103 59 104 60 105
REMARK H PARENT 17 6 100 26 22 36 84 55 50 66
REMARK Flexibility Score: inf
ROOT
ATOM      1  C   UNL A   1      34.144  28.362  24.717  1.00  0.00     0.023 C 
ENDROOT
BRANCH   1   2
ATOM      2  C   UNL A   1      34.061  28.925  23.289  1.00  0.00     0.116 C 
BRANCH   2   3
ATOM      3  N   UNL A   1      34.064  27.886  22.267  1.00  0.00    -0.351 N 
ATOM      4  C   UNL A   1      33.120  26.939  21.908  1.00  0.00     0.272 C 
ATOM      5  O   UNL A   1      33.427  26.158  21.006  1.00  0.00    -0.267 OA
ATOM      6  H   UNL A   1      34.890  27.852  21.733  1.00  0.00     0.163 HD
BRANCH   4   7
ATOM      7  C   UNL A   1      31.820  26.823  22.597  1.00  0.00     0.155 A 
ATOM      8  N   UNL A   1      31.296  24.064  25.185  1.00  0.00    -0.338 N 
ATOM      9  C   UNL A   1      30.446  24.918  26.026  1.00  0.00     0.126 C 
ATOM     10  C   UNL A   1      32.245  24.787  24.296  1.00  0.00     0.159 C 
ATOM     11  C   UNL A   1      29.445  25.705  25.169  1.00  0.00     0.078 C 
ATOM     12  C   UNL A   1      31.477  25.909  23.645  1.00  0.00     0.026 A 
ATOM     13  C   UNL A   1      30.208  26.296  24.046  1.00  0.00     0.046 A 
ATOM     14  N   UNL A   1      29.817  27.289  23.212  1.00  0.00    -0.268 N 
ATOM     15  N   UNL A   1      30.767  27.618  22.327  1.00  0.00    -0.167 NA
BRANCH   8  16
ATOM     16  C   UNL A   1      31.334  22.681  25.214  1.00  0.00     0.227 C 
ATOM     17  O   UNL A   1      30.543  22.047  25.918  1.00  0.00    -0.275 OA
BRANCH  16  18
ATOM     18  C   UNL A   1      32.541  21.943  24.592  1.00  0.00     0.143 C 
BRANCH  18  19
ATOM     19  C   UNL A   1      32.559  20.451  24.588  1.00  0.00     0.045 A 
ATOM     20  C   UNL A   1      33.146  16.271  24.361  1.00  0.00     0.087 C 
ATOM     21  C   UNL A   1      32.884  17.740  24.505  1.00  0.00     0.105 A 
ATOM     22  N   UNL A   1      33.032  18.334  25.643  1.00  0.00    -0.243 NA
ATOM     23  N   UNL A   1      32.510  18.389  23.363  1.00  0.00    -0.311 N 
ATOM     24  C   UNL A   1      32.841  19.692  25.658  1.00  0.00     0.123 A 
ATOM     25  C   UNL A   1      32.293  19.736  23.323  1.00  0.00     0.254 A 
ATOM     26  H   UNL A   1      32.394  17.865  22.537  1.00  0.00     0.171 HD
ATOM     27  O   UNL A   1      31.942  20.301  22.295  1.00  0.00    -0.269 OA
ENDBRANCH  18  19
ENDBRANCH  16  18
ENDBRANCH   8  16
BRANCH  14  28
ATOM     28  C   UNL A   1      28.543  27.994  23.186  1.00  0.00     0.148 C 
BRANCH  28  29
ATOM     29  C   UNL A   1      28.647  29.475  22.930  1.00  0.00     0.011 C 
ATOM     30  C   UNL A   1      28.127  30.179  21.693  1.00  0.00     0.006 C 
ATOM     31  C   UNL A   1      27.395  30.320  22.996  1.00  0.00     0.006 C 
ENDBRANCH  28  29
ENDBRANCH  14  28
ENDBRANCH   4   7
ENDBRANCH   2   3
ENDBRANCH   1   2
BRANCH   1  32
ATOM     32  C   UNL A   1      33.109  28.901  25.720  1.00  0.00     0.023 C 
BRANCH  32  33
ATOM     33  C   UNL A   1      33.694  29.433  27.022  1.00  0.00     0.116 C 
BRANCH  33  34
ATOM     34  N   UNL A   1      33.914  30.889  27.040  1.00  0.00    -0.352 N 
ATOM     35  C   UNL A   1      34.896  31.602  27.732  1.00  0.00     0.251 C 
ATOM     36  H   UNL A   1      33.294  31.426  26.497  1.00  0.00     0.163 HD
ATOM     37  O   UNL A   1      34.772  32.787  27.977  1.00  0.00    -0.269 OA
BRANCH  35  38
ATOM     38  C   UNL A   1      36.112  30.868  28.133  1.00  0.00     0.039 A 
ATOM     39  C   UNL A   1      36.412  29.557  27.749  1.00  0.00     0.014 A 
ATOM     40  C   UNL A   1      37.017  31.610  28.870  1.00  0.00     0.014 A 
ATOM     41  C   UNL A   1      37.674  29.045  28.064  1.00  0.00     0.010 A 
ATOM     42  C   UNL A   1      38.322  31.239  28.863  1.00  0.00     0.010 A 
ATOM     43  C   UNL A   1      38.625  29.910  28.620  1.00  0.00    -0.014 A 
BRANCH  43  44
ATOM     44  C   UNL A   1      39.979  29.520  28.979  1.00  0.00     0.031 A 
ATOM     45  C   UNL A   1      40.225  29.330  30.430  1.00  0.00     0.074 A 
ATOM     46  C   UNL A   1      40.827  29.055  28.032  1.00  0.00     0.049 A 
ATOM     47  N   UNL A   1      40.982  30.038  31.200  1.00  0.00    -0.248 NA
ATOM     48  C   UNL A   1      39.425  28.323  31.149  1.00  0.00     0.031 C 
ATOM     49  C   UNL A   1      40.591  28.861  26.590  1.00  0.00     0.029 A 
ATOM     50  N   UNL A   1      42.051  28.496  28.197  1.00  0.00    -0.354 N 
ATOM     51  C   UNL A   1      40.949  29.413  32.442  1.00  0.00     0.074 A 
ATOM     52  C   UNL A   1      39.822  28.517  32.408  1.00  0.00     0.031 C 
ATOM     53  C   UNL A   1      41.509  28.007  26.087  1.00  0.00     0.029 A 
ATOM     54  C   UNL A   1      42.496  27.745  27.112  1.00  0.00     0.049 A 
ATOM     55  H   UNL A   1      42.582  28.612  29.019  1.00  0.00     0.167 HD
ATOM     56  C   UNL A   1      41.998  29.496  33.309  1.00  0.00     0.037 A 
ATOM     57  C   UNL A   1      43.575  26.922  27.107  1.00  0.00     0.037 A 
ATOM     58  C   UNL A   1      42.942  30.507  32.894  1.00  0.00     0.049 A 
ATOM     59  C   UNL A   1      44.445  27.378  28.232  1.00  0.00     0.074 A 
ATOM     60  C   UNL A   1      42.847  31.862  32.630  1.00  0.00     0.029 A 
ATOM     61  N   UNL A   1      44.098  30.092  32.272  1.00  0.00    -0.354 N 
ATOM     62  N   UNL A   1      45.012  28.559  28.265  1.00  0.00    -0.248 NA
ATOM     63  C   UNL A   1      44.243  26.753  29.532  1.00  0.00     0.031 C 
ATOM     64  C   UNL A   1      43.625  32.055  31.450  1.00  0.00     0.029 A 
ATOM     65  C   UNL A   1      44.219  30.835  31.122  1.00  0.00     0.049 A 
ATOM     66  H   UNL A   1      44.718  29.396  32.589  1.00  0.00     0.167 HD
ATOM     67  C   UNL A   1      44.861  28.999  29.576  1.00  0.00     0.074 A 
ATOM     68  C   UNL A   1      44.431  27.815  30.322  1.00  0.00     0.031 C 
ATOM     69  C   UNL A   1      44.792  30.331  29.890  1.00  0.00     0.037 A 
BRANCH  56  70
ATOM     70  C   UNL A   1      42.361  28.438  34.322  1.00  0.00     0.058 A 
ATOM     71  C   UNL A   1      42.405  28.779  35.689  1.00  0.00     0.135 A 
ATOM     72  C   UNL A   1      42.924  27.187  33.986  1.00  0.00     0.135 A 
ATOM     73  F   UNL A   1      41.905  29.949  36.118  1.00  0.00    -0.206 F 
ATOM     74  C   UNL A   1      43.029  27.971  36.639  1.00  0.00     0.059 A 
ATOM     75  C   UNL A   1      43.498  26.340  34.926  1.00  0.00     0.059 A 
ATOM     76  F   UNL A   1      43.039  26.773  32.718  1.00  0.00    -0.206 F 
ATOM     77  C   UNL A   1      43.587  26.759  36.242  1.00  0.00     0.060 A 
BRANCH  77  78
ATOM     78  S   UNL A   1      44.495  25.770  37.443  1.00  0.00     0.124 S 
ATOM     79  O   UNL A   1      45.847  26.292  37.283  1.00  0.00    -0.237 OA
ATOM     80  O   UNL A   1      43.819  26.114  38.689  1.00  0.00    -0.237 OA
ATOM     81  O   UNL A   1      44.285  24.403  36.979  1.00  0.00    -0.744 OA
ENDBRANCH  77  78
ENDBRANCH  56  70
BRANCH  57  82
ATOM     82  C   UNL A   1      43.652  25.576  26.473  1.00  0.00     0.058 A 
ATOM     83  C   UNL A   1      44.509  25.316  25.388  1.00  0.00     0.135 A 
ATOM     84  C   UNL A   1      43.064  24.440  27.074  1.00  0.00     0.135 A 
ATOM     85  F   UNL A   1      45.133  26.329  24.768  1.00  0.00    -0.206 F 
ATOM     86  C   UNL A   1      44.792  24.014  24.950  1.00  0.00     0.059 A 
ATOM     87  C   UNL A   1      43.321  23.137  26.650  1.00  0.00     0.059 A 
ATOM     88  F   UNL A   1      42.282  24.555  28.158  1.00  0.00    -0.206 F 
ATOM     89  C   UNL A   1      44.204  22.928  25.601  1.00  0.00     0.060 A 
BRANCH  89  90
ATOM     90  S   UNL A   1      44.685  21.243  25.149  1.00  0.00     0.124 S 
ATOM     91  O   UNL A   1      46.038  21.161  25.689  1.00  0.00    -0.237 OA
ATOM     92  O   UNL A   1      43.677  20.441  25.833  1.00  0.00    -0.237 OA
ATOM     93  O   UNL A   1      44.593  21.243  23.692  1.00  0.00    -0.744 OA
ENDBRANCH  89  90
ENDBRANCH  57  82
BRANCH  69  94
ATOM     94  C   UNL A   1      45.089  31.360  28.822  1.00  0.00     0.058 A 
ATOM     95  C   UNL A   1      44.122  31.912  27.959  1.00  0.00     0.135 A 
ATOM     96  C   UNL A   1      46.358  31.957  28.803  1.00  0.00     0.135 A 
ATOM     97  F   UNL A   1      42.854  31.486  27.986  1.00  0.00    -0.206 F 
ATOM     98  C   UNL A   1      44.410  32.972  27.096  1.00  0.00     0.059 A 
ATOM     99  C   UNL A   1      46.661  33.036  27.973  1.00  0.00     0.059 A 
ATOM    100  F   UNL A   1      47.312  31.531  29.647  1.00  0.00    -0.206 F 
ATOM    101  C   UNL A   1      45.684  33.531  27.113  1.00  0.00     0.060 A 
BRANCH 101 102
ATOM    102  S   UNL A   1      46.036  34.947  26.048  1.00  0.00     0.124 S 
ATOM    103  O   UNL A   1      47.466  35.142  26.259  1.00  0.00    -0.237 OA
ATOM    104  O   UNL A   1      45.652  34.456  24.728  1.00  0.00    -0.237 OA
ATOM    105  O   UNL A   1      45.177  35.999  26.584  1.00  0.00    -0.744 OA
ENDBRANCH 101 102
ENDBRANCH  69  94
ENDBRANCH  43  44
ENDBRANCH  35  38
ENDBRANCH  33  34
ENDBRANCH  32  33
ENDBRANCH   1  32
TORSDOF 19
ENDMDL
