MODEL 1
REMARK VINA RESULT:     -11.8      0.000      0.000
REMARK SMILES CO[C@H]1C[C@@H](C(=O)NCCCCNC(=O)c2ccc(-c3c4nc(c(-c5c(F)cc(S(=O)(=O)[O-])cc5F)c5ccc([nH]5)c(-c5c(F)cc(S(=O)(=O)[O-])cc5F)c5nc(c(-c6c(F)cc(S(=O)(=O)[O-])cc6F)c6ccc3[nH]6)C=C5)C=C4)cc2)N(C(=O)Nc2cc(C)cc(F)c2)C1
REMARK SMILES IDX 11 1 10 2 9 3 8 4 6 5 7 6 5 8 3 9 4 10 94 11 82 12 2 13 1 14
REMARK SMILES IDX 83 15 84 16 85 17 86 19 87 20 93 21 88 22 91 23 89 24 90 25
REMARK SMILES IDX 92 26 12 27 13 28 14 29 15 31 16 32 17 33 81 34 18 35 80 36
REMARK SMILES IDX 19 37 20 38 21 39 74 40 22 41 79 42 73 43 75 44 23 45 78 46
REMARK SMILES IDX 72 47 71 48 24 50 58 51 37 52 57 53 38 54 41 55 56 56 76 57
REMARK SMILES IDX 39 58 40 59 55 61 77 62 42 63 25 64 26 65 35 66 27 67 28 68
REMARK SMILES IDX 34 69 36 70 29 71 30 72 31 73 32 74 33 75 59 76 60 77 69 78
REMARK SMILES IDX 61 79 62 80 68 81 70 82 63 83 64 84 65 85 66 86 67 87 43 88
REMARK SMILES IDX 44 89 53 90 45 91 46 92 52 93 54 94 47 95 48 96 49 97 50 98
REMARK SMILES IDX 51 99
REMARK H PARENT 8 7 85 18 13 30 75 49 41 60
REMARK Flexibility Score: inf
ROOT
ATOM      1  C   UNL A   1      33.087  27.529  25.551  1.00  0.00     0.023 C 
ENDROOT
BRANCH   1   2
ATOM      2  C   UNL A   1      33.605  27.324  24.132  1.00  0.00     0.023 C 
BRANCH   2   3
ATOM      3  C   UNL A   1      32.982  26.203  23.297  1.00  0.00     0.116 C 
BRANCH   3   4
ATOM      4  N   UNL A   1      33.863  25.124  22.901  1.00  0.00    -0.354 N 
ATOM      5  C   UNL A   1      34.251  23.988  23.536  1.00  0.00     0.242 C 
ATOM      6  O   UNL A   1      34.736  23.101  22.820  1.00  0.00    -0.273 OA
ATOM      7  H   UNL A   1      34.253  25.235  22.004  1.00  0.00     0.163 HD
BRANCH   5   8
ATOM      8  C   UNL A   1      34.212  23.775  25.070  1.00  0.00     0.179 C 
ATOM      9  C   UNL A   1      36.296  22.797  25.809  1.00  0.00     0.140 C 
ATOM     10  C   UNL A   1      35.598  24.138  25.619  1.00  0.00     0.069 C 
ATOM     11  C   UNL A   1      35.142  21.833  26.105  1.00  0.00     0.154 C 
ATOM     12  N   UNL A   1      33.903  22.476  25.645  1.00  0.00    -0.310 N 
BRANCH   9  13
ATOM     13  O   UNL A   1      37.000  22.352  24.650  1.00  0.00    -0.380 OA
ATOM     14  C   UNL A   1      37.304  20.961  24.648  1.00  0.00     0.195 C 
ENDBRANCH   9  13
BRANCH  12  15
ATOM     15  C   UNL A   1      32.731  21.894  26.006  1.00  0.00     0.322 C 
ATOM     16  O   UNL A   1      32.009  22.459  26.843  1.00  0.00    -0.248 OA
ATOM     17  N   UNL A   1      32.189  20.773  25.489  1.00  0.00    -0.308 N 
ATOM     18  H   UNL A   1      31.259  20.688  25.802  1.00  0.00     0.171 HD
BRANCH  17  19
ATOM     19  C   UNL A   1      32.501  19.687  24.657  1.00  0.00     0.046 A 
ATOM     20  C   UNL A   1      33.148  18.593  25.253  1.00  0.00     0.029 A 
ATOM     21  C   UNL A   1      32.313  19.633  23.292  1.00  0.00     0.065 A 
ATOM     22  C   UNL A   1      33.458  17.429  24.523  1.00  0.00    -0.046 A 
ATOM     23  C   UNL A   1      32.563  18.472  22.567  1.00  0.00     0.125 A 
ATOM     24  C   UNL A   1      34.245  16.319  25.149  1.00  0.00     0.044 C 
ATOM     25  C   UNL A   1      33.111  17.360  23.174  1.00  0.00     0.042 A 
ATOM     26  F   UNL A   1      32.309  18.451  21.251  1.00  0.00    -0.207 F 
ENDBRANCH  17  19
ENDBRANCH  12  15
ENDBRANCH   5   8
ENDBRANCH   3   4
ENDBRANCH   2   3
ENDBRANCH   1   2
BRANCH   1  27
ATOM     27  C   UNL A   1      34.106  28.040  26.551  1.00  0.00     0.116 C 
BRANCH  27  28
ATOM     28  N   UNL A   1      33.765  29.349  27.076  1.00  0.00    -0.352 N 
ATOM     29  C   UNL A   1      34.519  30.213  27.829  1.00  0.00     0.251 C 
ATOM     30  H   UNL A   1      32.858  29.664  26.859  1.00  0.00     0.163 HD
ATOM     31  O   UNL A   1      33.999  31.223  28.288  1.00  0.00    -0.269 OA
BRANCH  29  32
ATOM     32  C   UNL A   1      35.937  29.907  28.108  1.00  0.00     0.039 A 
ATOM     33  C   UNL A   1      36.271  29.388  29.360  1.00  0.00     0.014 A 
ATOM     34  C   UNL A   1      36.932  30.132  27.152  1.00  0.00     0.014 A 
ATOM     35  C   UNL A   1      37.599  29.063  29.640  1.00  0.00     0.010 A 
ATOM     36  C   UNL A   1      38.235  29.717  27.397  1.00  0.00     0.010 A 
ATOM     37  C   UNL A   1      38.587  29.202  28.652  1.00  0.00    -0.014 A 
BRANCH  37  38
ATOM     38  C   UNL A   1      40.003  28.861  28.930  1.00  0.00     0.031 A 
ATOM     39  C   UNL A   1      40.910  29.889  29.551  1.00  0.00     0.074 A 
ATOM     40  C   UNL A   1      40.475  27.647  28.589  1.00  0.00     0.049 A 
ATOM     41  N   UNL A   1      42.186  29.806  29.831  1.00  0.00    -0.248 NA
ATOM     42  C   UNL A   1      40.314  31.197  29.874  1.00  0.00     0.031 C 
ATOM     43  C   UNL A   1      39.698  26.588  27.939  1.00  0.00     0.029 A 
ATOM     44  N   UNL A   1      41.722  27.097  28.738  1.00  0.00    -0.354 N 
ATOM     45  C   UNL A   1      42.541  31.045  30.349  1.00  0.00     0.074 A 
ATOM     46  C   UNL A   1      41.368  31.887  30.281  1.00  0.00     0.031 C 
ATOM     47  C   UNL A   1      40.478  25.507  27.776  1.00  0.00     0.029 A 
ATOM     48  C   UNL A   1      41.817  25.807  28.273  1.00  0.00     0.049 A 
ATOM     49  H   UNL A   1      42.479  27.582  29.141  1.00  0.00     0.167 HD
ATOM     50  C   UNL A   1      43.731  31.437  30.864  1.00  0.00     0.037 A 
ATOM     51  C   UNL A   1      42.867  24.964  28.249  1.00  0.00     0.037 A 
ATOM     52  C   UNL A   1      44.885  30.582  30.949  1.00  0.00     0.049 A 
ATOM     53  C   UNL A   1      44.180  25.425  28.825  1.00  0.00     0.074 A 
ATOM     54  C   UNL A   1      46.128  30.863  31.489  1.00  0.00     0.029 A 
ATOM     55  N   UNL A   1      44.937  29.275  30.484  1.00  0.00    -0.354 N 
ATOM     56  N   UNL A   1      44.486  26.583  29.361  1.00  0.00    -0.248 NA
ATOM     57  C   UNL A   1      45.286  24.459  28.807  1.00  0.00     0.031 C 
ATOM     58  C   UNL A   1      46.944  29.741  31.311  1.00  0.00     0.029 A 
ATOM     59  C   UNL A   1      46.194  28.740  30.712  1.00  0.00     0.049 A 
ATOM     60  H   UNL A   1      44.190  28.798  30.055  1.00  0.00     0.167 HD
ATOM     61  C   UNL A   1      45.809  26.473  29.774  1.00  0.00     0.074 A 
ATOM     62  C   UNL A   1      46.239  25.132  29.436  1.00  0.00     0.031 C 
ATOM     63  C   UNL A   1      46.597  27.397  30.380  1.00  0.00     0.037 A 
BRANCH  50  64
ATOM     64  C   UNL A   1      43.835  32.845  31.385  1.00  0.00     0.058 A 
ATOM     65  C   UNL A   1      43.627  33.147  32.741  1.00  0.00     0.135 A 
ATOM     66  C   UNL A   1      44.176  33.903  30.528  1.00  0.00     0.135 A 
ATOM     67  F   UNL A   1      43.281  32.179  33.605  1.00  0.00    -0.206 F 
ATOM     68  C   UNL A   1      43.721  34.449  33.222  1.00  0.00     0.059 A 
ATOM     69  C   UNL A   1      44.308  35.209  30.992  1.00  0.00     0.059 A 
ATOM     70  F   UNL A   1      44.385  33.675  29.221  1.00  0.00    -0.206 F 
ATOM     71  C   UNL A   1      44.064  35.474  32.339  1.00  0.00     0.060 A 
BRANCH  71  72
ATOM     72  S   UNL A   1      44.193  37.156  32.981  1.00  0.00     0.124 S 
ATOM     73  O   UNL A   1      42.953  37.274  33.742  1.00  0.00    -0.237 OA
ATOM     74  O   UNL A   1      45.418  37.093  33.773  1.00  0.00    -0.237 OA
ATOM     75  O   UNL A   1      44.270  37.977  31.777  1.00  0.00    -0.744 OA
ENDBRANCH  71  72
ENDBRANCH  50  64
BRANCH  51  76
ATOM     76  C   UNL A   1      42.712  23.593  27.693  1.00  0.00     0.058 A 
ATOM     77  C   UNL A   1      42.872  23.349  26.320  1.00  0.00     0.135 A 
ATOM     78  C   UNL A   1      42.404  22.501  28.517  1.00  0.00     0.135 A 
ATOM     79  F   UNL A   1      43.166  24.362  25.489  1.00  0.00    -0.206 F 
ATOM     80  C   UNL A   1      42.707  22.079  25.780  1.00  0.00     0.059 A 
ATOM     81  C   UNL A   1      42.262  21.214  28.005  1.00  0.00     0.059 A 
ATOM     82  F   UNL A   1      42.260  22.675  29.840  1.00  0.00    -0.206 F 
ATOM     83  C   UNL A   1      42.402  21.015  26.632  1.00  0.00     0.060 A 
BRANCH  83  84
ATOM     84  S   UNL A   1      42.219  19.364  25.926  1.00  0.00     0.124 S 
ATOM     85  O   UNL A   1      40.782  19.307  25.683  1.00  0.00    -0.237 OA
ATOM     86  O   UNL A   1      43.065  19.443  24.739  1.00  0.00    -0.237 OA
ATOM     87  O   UNL A   1      42.717  18.490  26.983  1.00  0.00    -0.744 OA
ENDBRANCH  83  84
ENDBRANCH  51  76
BRANCH  63  88
ATOM     88  C   UNL A   1      47.987  26.971  30.766  1.00  0.00     0.058 A 
ATOM     89  C   UNL A   1      49.095  27.221  29.942  1.00  0.00     0.135 A 
ATOM     90  C   UNL A   1      48.215  26.337  31.999  1.00  0.00     0.135 A 
ATOM     91  F   UNL A   1      48.933  27.820  28.752  1.00  0.00    -0.206 F 
ATOM     92  C   UNL A   1      50.377  26.826  30.312  1.00  0.00     0.059 A 
ATOM     93  C   UNL A   1      49.491  25.964  32.403  1.00  0.00     0.059 A 
ATOM     94  F   UNL A   1      47.190  26.086  32.830  1.00  0.00    -0.206 F 
ATOM     95  C   UNL A   1      50.565  26.198  31.545  1.00  0.00     0.060 A 
BRANCH  95  96
ATOM     96  S   UNL A   1      52.235  25.709  32.022  1.00  0.00     0.124 S 
ATOM     97  O   UNL A   1      52.064  24.281  32.268  1.00  0.00    -0.237 OA
ATOM     98  O   UNL A   1      53.013  26.059  30.837  1.00  0.00    -0.237 OA
ATOM     99  O   UNL A   1      52.504  26.523  33.203  1.00  0.00    -0.744 OA
ENDBRANCH  95  96
ENDBRANCH  63  88
ENDBRANCH  37  38
ENDBRANCH  29  32
ENDBRANCH  27  28
ENDBRANCH   1  27
TORSDOF 17
ENDMDL
MODEL 2
REMARK VINA RESULT:     -11.5      4.740     10.470
REMARK SMILES CO[C@H]1C[C@@H](C(=O)NCCCCNC(=O)c2ccc(-c3c4nc(c(-c5c(F)cc(S(=O)(=O)[O-])cc5F)c5ccc([nH]5)c(-c5c(F)cc(S(=O)(=O)[O-])cc5F)c5nc(c(-c6c(F)cc(S(=O)(=O)[O-])cc6F)c6ccc3[nH]6)C=C5)C=C4)cc2)N(C(=O)Nc2cc(C)cc(F)c2)C1
REMARK SMILES IDX 11 1 10 2 9 3 8 4 6 5 7 6 5 8 3 9 4 10 94 11 82 12 2 13 1 14
REMARK SMILES IDX 83 15 84 16 85 17 86 19 87 20 93 21 88 22 91 23 89 24 90 25
REMARK SMILES IDX 92 26 12 27 13 28 14 29 15 31 16 32 17 33 81 34 18 35 80 36
REMARK SMILES IDX 19 37 20 38 21 39 74 40 22 41 79 42 73 43 75 44 23 45 78 46
REMARK SMILES IDX 72 47 71 48 24 50 58 51 37 52 57 53 38 54 41 55 56 56 76 57
REMARK SMILES IDX 39 58 40 59 55 61 77 62 42 63 25 64 26 65 35 66 27 67 28 68
REMARK SMILES IDX 34 69 36 70 29 71 30 72 31 73 32 74 33 75 59 76 60 77 69 78
REMARK SMILES IDX 61 79 62 80 68 81 70 82 63 83 64 84 65 85 66 86 67 87 43 88
REMARK SMILES IDX 44 89 53 90 45 91 46 92 52 93 54 94 47 95 48 96 49 97 50 98
REMARK SMILES IDX 51 99
REMARK H PARENT 8 7 85 18 13 30 75 49 41 60
REMARK Flexibility Score: inf
ROOT
ATOM      1  C   UNL A   1      40.152  22.252  26.585  1.00  0.00     0.023 C 
ENDROOT
BRANCH   1   2
ATOM      2  C   UNL A   1      38.741  22.785  26.807  1.00  0.00     0.023 C 
BRANCH   2   3
ATOM      3  C   UNL A   1      38.185  23.781  25.787  1.00  0.00     0.116 C 
BRANCH   3   4
ATOM      4  N   UNL A   1      37.576  23.221  24.599  1.00  0.00    -0.354 N 
ATOM      5  C   UNL A   1      36.406  23.489  23.964  1.00  0.00     0.242 C 
ATOM      6  O   UNL A   1      36.316  23.092  22.794  1.00  0.00    -0.273 OA
ATOM      7  H   UNL A   1      38.112  22.514  24.171  1.00  0.00     0.163 HD
BRANCH   5   8
ATOM      8  C   UNL A   1      35.175  24.158  24.625  1.00  0.00     0.179 C 
ATOM      9  C   UNL A   1      33.429  22.517  24.943  1.00  0.00     0.140 C 
ATOM     10  C   UNL A   1      34.610  23.168  25.652  1.00  0.00     0.069 C 
ATOM     11  C   UNL A   1      32.939  23.611  23.989  1.00  0.00     0.154 C 
ATOM     12  N   UNL A   1      34.031  24.582  23.835  1.00  0.00    -0.310 N 
BRANCH   9  13
ATOM     13  O   UNL A   1      33.784  21.355  24.192  1.00  0.00    -0.380 OA
ATOM     14  C   UNL A   1      34.617  20.438  24.894  1.00  0.00     0.195 C 
ENDBRANCH   9  13
BRANCH  12  15
ATOM     15  C   UNL A   1      33.739  25.748  23.205  1.00  0.00     0.322 C 
ATOM     16  O   UNL A   1      33.790  25.794  21.965  1.00  0.00    -0.248 OA
ATOM     17  N   UNL A   1      33.301  26.889  23.773  1.00  0.00    -0.308 N 
ATOM     18  H   UNL A   1      32.994  27.506  23.070  1.00  0.00     0.171 HD
BRANCH  17  19
ATOM     19  C   UNL A   1      33.136  27.496  25.028  1.00  0.00     0.046 A 
ATOM     20  C   UNL A   1      34.240  28.189  25.551  1.00  0.00     0.029 A 
ATOM     21  C   UNL A   1      32.021  27.398  25.834  1.00  0.00     0.065 A 
ATOM     22  C   UNL A   1      34.165  28.880  26.776  1.00  0.00    -0.046 A 
ATOM     23  C   UNL A   1      31.913  28.118  27.020  1.00  0.00     0.125 A 
ATOM     24  C   UNL A   1      35.383  29.521  27.369  1.00  0.00     0.044 C 
ATOM     25  C   UNL A   1      32.966  28.879  27.487  1.00  0.00     0.042 A 
ATOM     26  F   UNL A   1      30.786  28.034  27.739  1.00  0.00    -0.207 F 
ENDBRANCH  17  19
ENDBRANCH  12  15
ENDBRANCH   5   8
ENDBRANCH   3   4
ENDBRANCH   2   3
ENDBRANCH   1   2
BRANCH   1  27
ATOM     27  C   UNL A   1      41.275  23.171  27.025  1.00  0.00     0.116 C 
BRANCH  27  28
ATOM     28  N   UNL A   1      41.795  23.976  25.936  1.00  0.00    -0.352 N 
ATOM     29  C   UNL A   1      41.975  25.334  25.860  1.00  0.00     0.251 C 
ATOM     30  H   UNL A   1      42.061  23.473  25.132  1.00  0.00     0.163 HD
ATOM     31  O   UNL A   1      42.309  25.840  24.795  1.00  0.00    -0.269 OA
BRANCH  29  32
ATOM     32  C   UNL A   1      41.736  26.179  27.048  1.00  0.00     0.039 A 
ATOM     33  C   UNL A   1      42.541  27.304  27.237  1.00  0.00     0.014 A 
ATOM     34  C   UNL A   1      40.735  25.868  27.974  1.00  0.00     0.014 A 
ATOM     35  C   UNL A   1      42.319  28.135  28.335  1.00  0.00     0.010 A 
ATOM     36  C   UNL A   1      40.452  26.749  29.010  1.00  0.00     0.010 A 
ATOM     37  C   UNL A   1      41.257  27.877  29.216  1.00  0.00    -0.014 A 
BRANCH  37  38
ATOM     38  C   UNL A   1      41.004  28.750  30.388  1.00  0.00     0.031 A 
ATOM     39  C   UNL A   1      41.847  28.599  31.627  1.00  0.00     0.074 A 
ATOM     40  C   UNL A   1      39.996  29.643  30.349  1.00  0.00     0.049 A 
ATOM     41  N   UNL A   1      41.757  29.230  32.770  1.00  0.00    -0.248 NA
ATOM     42  C   UNL A   1      42.913  27.584  31.588  1.00  0.00     0.031 C 
ATOM     43  C   UNL A   1      39.086  29.843  29.219  1.00  0.00     0.029 A 
ATOM     44  N   UNL A   1      39.567  30.549  31.284  1.00  0.00    -0.354 N 
ATOM     45  C   UNL A   1      42.743  28.682  33.582  1.00  0.00     0.074 A 
ATOM     46  C   UNL A   1      43.373  27.621  32.829  1.00  0.00     0.031 C 
ATOM     47  C   UNL A   1      38.228  30.833  29.515  1.00  0.00     0.029 A 
ATOM     48  C   UNL A   1      38.501  31.311  30.867  1.00  0.00     0.049 A 
ATOM     49  H   UNL A   1      39.984  30.646  32.171  1.00  0.00     0.167 HD
ATOM     50  C   UNL A   1      43.111  29.052  34.832  1.00  0.00     0.037 A 
ATOM     51  C   UNL A   1      37.821  32.282  31.505  1.00  0.00     0.037 A 
ATOM     52  C   UNL A   1      42.492  30.126  35.562  1.00  0.00     0.049 A 
ATOM     53  C   UNL A   1      38.248  32.672  32.896  1.00  0.00     0.074 A 
ATOM     54  C   UNL A   1      42.812  30.611  36.818  1.00  0.00     0.029 A 
ATOM     55  N   UNL A   1      41.426  30.886  35.099  1.00  0.00    -0.354 N 
ATOM     56  N   UNL A   1      39.217  32.180  33.631  1.00  0.00    -0.248 NA
ATOM     57  C   UNL A   1      37.497  33.758  33.538  1.00  0.00     0.031 C 
ATOM     58  C   UNL A   1      41.913  31.635  37.131  1.00  0.00     0.029 A 
ATOM     59  C   UNL A   1      41.068  31.828  36.049  1.00  0.00     0.049 A 
ATOM     60  H   UNL A   1      40.990  30.773  34.224  1.00  0.00     0.167 HD
ATOM     61  C   UNL A   1      39.215  32.920  34.807  1.00  0.00     0.074 A 
ATOM     62  C   UNL A   1      38.156  33.900  34.680  1.00  0.00     0.031 C 
ATOM     63  C   UNL A   1      40.018  32.804  35.895  1.00  0.00     0.037 A 
BRANCH  50  64
ATOM     64  C   UNL A   1      44.240  28.295  35.479  1.00  0.00     0.058 A 
ATOM     65  C   UNL A   1      45.576  28.710  35.349  1.00  0.00     0.135 A 
ATOM     66  C   UNL A   1      43.985  27.158  36.262  1.00  0.00     0.135 A 
ATOM     67  F   UNL A   1      45.882  29.780  34.596  1.00  0.00    -0.206 F 
ATOM     68  C   UNL A   1      46.619  28.009  35.944  1.00  0.00     0.059 A 
ATOM     69  C   UNL A   1      45.010  26.460  36.895  1.00  0.00     0.059 A 
ATOM     70  F   UNL A   1      42.728  26.713  36.421  1.00  0.00    -0.206 F 
ATOM     71  C   UNL A   1      46.326  26.885  36.717  1.00  0.00     0.060 A 
BRANCH  71  72
ATOM     72  S   UNL A   1      47.691  25.994  37.493  1.00  0.00     0.124 S 
ATOM     73  O   UNL A   1      47.718  24.763  36.708  1.00  0.00    -0.237 OA
ATOM     74  O   UNL A   1      48.814  26.903  37.284  1.00  0.00    -0.237 OA
ATOM     75  O   UNL A   1      47.258  25.846  38.879  1.00  0.00    -0.744 OA
ENDBRANCH  71  72
ENDBRANCH  50  64
BRANCH  51  76
ATOM     76  C   UNL A   1      36.693  32.974  30.827  1.00  0.00     0.058 A 
ATOM     77  C   UNL A   1      36.924  33.866  29.769  1.00  0.00     0.135 A 
ATOM     78  C   UNL A   1      35.362  32.758  31.218  1.00  0.00     0.135 A 
ATOM     79  F   UNL A   1      38.179  34.108  29.359  1.00  0.00    -0.206 F 
ATOM     80  C   UNL A   1      35.882  34.539  29.140  1.00  0.00     0.059 A 
ATOM     81  C   UNL A   1      34.300  33.398  30.586  1.00  0.00     0.059 A 
ATOM     82  F   UNL A   1      35.084  31.900  32.211  1.00  0.00    -0.206 F 
ATOM     83  C   UNL A   1      34.571  34.298  29.556  1.00  0.00     0.060 A 
BRANCH  83  84
ATOM     84  S   UNL A   1      33.224  35.154  28.714  1.00  0.00     0.124 S 
ATOM     85  O   UNL A   1      32.379  35.546  29.836  1.00  0.00    -0.237 OA
ATOM     86  O   UNL A   1      33.926  36.238  28.034  1.00  0.00    -0.237 OA
ATOM     87  O   UNL A   1      32.672  34.128  27.835  1.00  0.00    -0.744 OA
ENDBRANCH  83  84
ENDBRANCH  51  76
BRANCH  63  88
ATOM     88  C   UNL A   1      39.817  33.793  37.010  1.00  0.00     0.058 A 
ATOM     89  C   UNL A   1      38.999  33.510  38.115  1.00  0.00     0.135 A 
ATOM     90  C   UNL A   1      40.487  35.027  36.989  1.00  0.00     0.135 A 
ATOM     91  F   UNL A   1      38.333  32.346  38.184  1.00  0.00    -0.206 F 
ATOM     92  C   UNL A   1      38.825  34.431  39.143  1.00  0.00     0.059 A 
ATOM     93  C   UNL A   1      40.354  35.948  38.021  1.00  0.00     0.059 A 
ATOM     94  F   UNL A   1      41.292  35.342  35.961  1.00  0.00    -0.206 F 
ATOM     95  C   UNL A   1      39.506  35.648  39.087  1.00  0.00     0.060 A 
BRANCH  95  96
ATOM     96  S   UNL A   1      39.287  36.826  40.436  1.00  0.00     0.124 S 
ATOM     97  O   UNL A   1      38.575  37.910  39.767  1.00  0.00    -0.237 OA
ATOM     98  O   UNL A   1      38.507  36.054  41.399  1.00  0.00    -0.237 OA
ATOM     99  O   UNL A   1      40.654  37.131  40.847  1.00  0.00    -0.744 OA
ENDBRANCH  95  96
ENDBRANCH  63  88
ENDBRANCH  37  38
ENDBRANCH  29  32
ENDBRANCH  27  28
ENDBRANCH   1  27
TORSDOF 17
ENDMDL
MODEL 3
REMARK VINA RESULT:     -11.4      3.065      4.256
REMARK SMILES CO[C@H]1C[C@@H](C(=O)NCCCCNC(=O)c2ccc(-c3c4nc(c(-c5c(F)cc(S(=O)(=O)[O-])cc5F)c5ccc([nH]5)c(-c5c(F)cc(S(=O)(=O)[O-])cc5F)c5nc(c(-c6c(F)cc(S(=O)(=O)[O-])cc6F)c6ccc3[nH]6)C=C5)C=C4)cc2)N(C(=O)Nc2cc(C)cc(F)c2)C1
REMARK SMILES IDX 11 1 10 2 9 3 8 4 6 5 7 6 5 8 3 9 4 10 94 11 82 12 2 13 1 14
REMARK SMILES IDX 83 15 84 16 85 17 86 19 87 20 93 21 88 22 91 23 89 24 90 25
REMARK SMILES IDX 92 26 12 27 13 28 14 29 15 31 16 32 17 33 81 34 18 35 80 36
REMARK SMILES IDX 19 37 20 38 21 39 74 40 22 41 79 42 73 43 75 44 23 45 78 46
REMARK SMILES IDX 72 47 71 48 24 50 58 51 37 52 57 53 38 54 41 55 56 56 76 57
REMARK SMILES IDX 39 58 40 59 55 61 77 62 42 63 25 64 26 65 35 66 27 67 28 68
REMARK SMILES IDX 34 69 36 70 29 71 30 72 31 73 32 74 33 75 59 76 60 77 69 78
REMARK SMILES IDX 61 79 62 80 68 81 70 82 63 83 64 84 65 85 66 86 67 87 43 88
REMARK SMILES IDX 44 89 53 90 45 91 46 92 52 93 54 94 47 95 48 96 49 97 50 98
REMARK SMILES IDX 51 99
REMARK H PARENT 8 7 85 18 13 30 75 49 41 60
REMARK Flexibility Score: inf
ROOT
ATOM      1  C   UNL A   1      33.925  28.928  27.191  1.00  0.00     0.023 C 
ENDROOT
BRANCH   1   2
ATOM      2  C   UNL A   1      33.859  28.301  25.804  1.00  0.00     0.023 C 
BRANCH   2   3
ATOM      3  C   UNL A   1      33.558  26.803  25.708  1.00  0.00     0.116 C 
BRANCH   3   4
ATOM      4  N   UNL A   1      34.083  26.109  24.551  1.00  0.00    -0.354 N 
ATOM      5  C   UNL A   1      33.559  25.140  23.757  1.00  0.00     0.242 C 
ATOM      6  O   UNL A   1      34.098  24.987  22.653  1.00  0.00    -0.273 OA
ATOM      7  H   UNL A   1      34.989  26.394  24.291  1.00  0.00     0.163 HD
BRANCH   5   8
ATOM      8  C   UNL A   1      32.418  24.177  24.174  1.00  0.00     0.179 C 
ATOM      9  C   UNL A   1      30.304  25.347  24.115  1.00  0.00     0.140 C 
ATOM     10  C   UNL A   1      31.216  24.470  23.267  1.00  0.00     0.069 C 
ATOM     11  C   UNL A   1      30.597  24.888  25.547  1.00  0.00     0.154 C 
ATOM     12  N   UNL A   1      31.885  24.180  25.526  1.00  0.00    -0.310 N 
BRANCH   9  13
ATOM     13  O   UNL A   1      30.584  26.743  23.997  1.00  0.00    -0.380 OA
ATOM     14  C   UNL A   1      30.681  27.208  22.655  1.00  0.00     0.195 C 
ENDBRANCH   9  13
BRANCH  12  15
ATOM     15  C   UNL A   1      32.235  23.498  26.646  1.00  0.00     0.322 C 
ATOM     16  O   UNL A   1      31.424  23.417  27.583  1.00  0.00    -0.248 OA
ATOM     17  N   UNL A   1      33.368  22.795  26.847  1.00  0.00    -0.308 N 
ATOM     18  H   UNL A   1      33.275  22.255  27.665  1.00  0.00     0.171 HD
BRANCH  17  19
ATOM     19  C   UNL A   1      34.635  22.575  26.286  1.00  0.00     0.046 A 
ATOM     20  C   UNL A   1      34.913  21.277  25.828  1.00  0.00     0.029 A 
ATOM     21  C   UNL A   1      35.664  23.491  26.226  1.00  0.00     0.065 A 
ATOM     22  C   UNL A   1      36.132  20.960  25.199  1.00  0.00    -0.046 A 
ATOM     23  C   UNL A   1      36.853  23.210  25.560  1.00  0.00     0.125 A 
ATOM     24  C   UNL A   1      36.452  19.547  24.817  1.00  0.00     0.044 C 
ATOM     25  C   UNL A   1      37.088  21.960  25.023  1.00  0.00     0.042 A 
ATOM     26  F   UNL A   1      37.800  24.154  25.478  1.00  0.00    -0.207 F 
ENDBRANCH  17  19
ENDBRANCH  12  15
ENDBRANCH   5   8
ENDBRANCH   3   4
ENDBRANCH   2   3
ENDBRANCH   1   2
BRANCH   1  27
ATOM     27  C   UNL A   1      35.297  29.405  27.627  1.00  0.00     0.116 C 
BRANCH  27  28
ATOM     28  N   UNL A   1      35.283  30.012  28.946  1.00  0.00    -0.352 N 
ATOM     29  C   UNL A   1      36.310  30.189  29.838  1.00  0.00     0.251 C 
ATOM     30  H   UNL A   1      34.407  30.348  29.244  1.00  0.00     0.163 HD
ATOM     31  O   UNL A   1      36.066  30.609  30.963  1.00  0.00    -0.269 OA
BRANCH  29  32
ATOM     32  C   UNL A   1      37.693  29.844  29.451  1.00  0.00     0.039 A 
ATOM     33  C   UNL A   1      38.578  29.425  30.447  1.00  0.00     0.014 A 
ATOM     34  C   UNL A   1      38.123  29.936  28.124  1.00  0.00     0.014 A 
ATOM     35  C   UNL A   1      39.882  29.067  30.105  1.00  0.00     0.010 A 
ATOM     36  C   UNL A   1      39.389  29.485  27.772  1.00  0.00     0.010 A 
ATOM     37  C   UNL A   1      40.290  29.070  28.762  1.00  0.00    -0.014 A 
BRANCH  37  38
ATOM     38  C   UNL A   1      41.671  28.690  28.379  1.00  0.00     0.031 A 
ATOM     39  C   UNL A   1      42.752  29.738  28.349  1.00  0.00     0.074 A 
ATOM     40  C   UNL A   1      41.938  27.419  28.022  1.00  0.00     0.049 A 
ATOM     41  N   UNL A   1      44.007  29.621  27.999  1.00  0.00    -0.248 NA
ATOM     42  C   UNL A   1      42.365  31.106  28.735  1.00  0.00     0.031 C 
ATOM     43  C   UNL A   1      40.959  26.331  27.969  1.00  0.00     0.029 A 
ATOM     44  N   UNL A   1      43.112  26.826  27.636  1.00  0.00    -0.354 N 
ATOM     45  C   UNL A   1      44.552  30.895  28.113  1.00  0.00     0.074 A 
ATOM     46  C   UNL A   1      43.478  31.783  28.496  1.00  0.00     0.031 C 
ATOM     47  C   UNL A   1      41.580  25.198  27.605  1.00  0.00     0.029 A 
ATOM     48  C   UNL A   1      42.990  25.485  27.362  1.00  0.00     0.049 A 
ATOM     49  H   UNL A   1      43.964  27.316  27.562  1.00  0.00     0.167 HD
ATOM     50  C   UNL A   1      45.838  31.284  27.944  1.00  0.00     0.037 A 
ATOM     51  C   UNL A   1      43.912  24.590  26.957  1.00  0.00     0.037 A 
ATOM     52  C   UNL A   1      46.903  30.385  27.587  1.00  0.00     0.049 A 
ATOM     53  C   UNL A   1      45.335  25.048  26.774  1.00  0.00     0.074 A 
ATOM     54  C   UNL A   1      48.249  30.663  27.429  1.00  0.00     0.029 A 
ATOM     55  N   UNL A   1      46.743  29.029  27.334  1.00  0.00    -0.354 N 
ATOM     56  N   UNL A   1      45.844  26.246  26.937  1.00  0.00    -0.248 NA
ATOM     57  C   UNL A   1      46.310  24.029  26.364  1.00  0.00     0.031 C 
ATOM     58  C   UNL A   1      48.895  29.486  27.040  1.00  0.00     0.029 A 
ATOM     59  C   UNL A   1      47.963  28.460  27.010  1.00  0.00     0.049 A 
ATOM     60  H   UNL A   1      45.888  28.543  27.380  1.00  0.00     0.167 HD
ATOM     61  C   UNL A   1      47.205  26.117  26.684  1.00  0.00     0.074 A 
ATOM     62  C   UNL A   1      47.440  24.723  26.368  1.00  0.00     0.031 C 
ATOM     63  C   UNL A   1      48.176  27.065  26.713  1.00  0.00     0.037 A 
BRANCH  50  64
ATOM     64  C   UNL A   1      46.161  32.738  28.157  1.00  0.00     0.058 A 
ATOM     65  C   UNL A   1      45.989  33.688  27.137  1.00  0.00     0.135 A 
ATOM     66  C   UNL A   1      46.620  33.196  29.402  1.00  0.00     0.135 A 
ATOM     67  F   UNL A   1      45.570  33.307  25.919  1.00  0.00    -0.206 F 
ATOM     68  C   UNL A   1      46.290  35.032  27.333  1.00  0.00     0.059 A 
ATOM     69  C   UNL A   1      46.896  34.541  29.632  1.00  0.00     0.059 A 
ATOM     70  F   UNL A   1      46.805  32.333  30.414  1.00  0.00    -0.206 F 
ATOM     71  C   UNL A   1      46.742  35.450  28.585  1.00  0.00     0.060 A 
BRANCH  71  72
ATOM     72  S   UNL A   1      47.116  37.199  28.826  1.00  0.00     0.124 S 
ATOM     73  O   UNL A   1      47.093  37.694  27.453  1.00  0.00    -0.237 OA
ATOM     74  O   UNL A   1      46.014  37.638  29.676  1.00  0.00    -0.237 OA
ATOM     75  O   UNL A   1      48.429  37.182  29.465  1.00  0.00    -0.744 OA
ENDBRANCH  71  72
ENDBRANCH  50  64
BRANCH  51  76
ATOM     76  C   UNL A   1      43.528  23.171  26.733  1.00  0.00     0.058 A 
ATOM     77  C   UNL A   1      43.233  22.323  27.811  1.00  0.00     0.135 A 
ATOM     78  C   UNL A   1      43.444  22.633  25.439  1.00  0.00     0.135 A 
ATOM     79  F   UNL A   1      43.301  22.790  29.068  1.00  0.00    -0.206 F 
ATOM     80  C   UNL A   1      42.897  20.988  27.620  1.00  0.00     0.059 A 
ATOM     81  C   UNL A   1      43.081  21.307  25.220  1.00  0.00     0.059 A 
ATOM     82  F   UNL A   1      43.696  23.405  24.371  1.00  0.00    -0.206 F 
ATOM     83  C   UNL A   1      42.823  20.488  26.318  1.00  0.00     0.060 A 
BRANCH  83  84
ATOM     84  S   UNL A   1      42.354  18.761  26.079  1.00  0.00     0.124 S 
ATOM     85  O   UNL A   1      40.953  18.888  25.694  1.00  0.00    -0.237 OA
ATOM     86  O   UNL A   1      43.271  18.338  25.024  1.00  0.00    -0.237 OA
ATOM     87  O   UNL A   1      42.598  18.163  27.388  1.00  0.00    -0.744 OA
ENDBRANCH  83  84
ENDBRANCH  51  76
BRANCH  63  88
ATOM     88  C   UNL A   1      49.587  26.617  26.447  1.00  0.00     0.058 A 
ATOM     89  C   UNL A   1      50.377  26.023  27.444  1.00  0.00     0.135 A 
ATOM     90  C   UNL A   1      50.139  26.748  25.163  1.00  0.00     0.135 A 
ATOM     91  F   UNL A   1      49.899  25.877  28.689  1.00  0.00    -0.206 F 
ATOM     92  C   UNL A   1      51.679  25.607  27.184  1.00  0.00     0.059 A 
ATOM     93  C   UNL A   1      51.426  26.310  24.873  1.00  0.00     0.059 A 
ATOM     94  F   UNL A   1      49.421  27.297  24.170  1.00  0.00    -0.206 F 
ATOM     95  C   UNL A   1      52.195  25.755  25.895  1.00  0.00     0.060 A 
BRANCH  95  96
ATOM     96  S   UNL A   1      53.878  25.193  25.567  1.00  0.00     0.124 S 
ATOM     97  O   UNL A   1      53.637  23.985  24.785  1.00  0.00    -0.237 OA
ATOM     98  O   UNL A   1      54.445  26.320  24.833  1.00  0.00    -0.237 OA
ATOM     99  O   UNL A   1      54.432  24.979  26.900  1.00  0.00    -0.744 OA
ENDBRANCH  95  96
ENDBRANCH  63  88
ENDBRANCH  37  38
ENDBRANCH  29  32
ENDBRANCH  27  28
ENDBRANCH   1  27
TORSDOF 17
ENDMDL
