MODEL 1
REMARK VINA RESULT:     -11.5      0.000      0.000
REMARK SMILES CC(C)(Oc1ccc(Cl)cc1)C(=O)N1CCC[C@H](C(=O)NCCCCNC(=O)c2ccc(-c3c4nc(c(-c5c(F)cc(S(=O)(=O)[O-])cc5F)c5ccc([nH]5)c(-c5c(F)cc(S(=O)(=O)[O-])cc5F)c5nc(c(-c6c(F)cc(S(=O)(=O)[O-])cc6F)c6ccc3[nH]6)C=C5)C=C4)cc2)C1
REMARK SMILES IDX 23 1 22 2 21 3 19 4 20 5 18 7 14 8 15 9 95 10 16 11 17 12
REMARK SMILES IDX 12 13 13 14 2 15 1 16 3 17 4 18 5 19 6 20 11 21 7 22 10 23
REMARK SMILES IDX 8 24 9 25 24 26 25 27 26 28 27 29 28 31 29 32 30 33 94 34
REMARK SMILES IDX 31 35 93 36 32 37 33 38 34 39 87 40 35 41 92 42 86 43 88 44
REMARK SMILES IDX 36 45 91 46 85 47 84 48 37 50 71 51 50 52 70 53 51 54 54 55
REMARK SMILES IDX 69 56 89 57 52 58 53 59 68 61 90 62 55 63 38 64 39 65 48 66
REMARK SMILES IDX 40 67 41 68 47 69 49 70 42 71 43 72 44 73 45 74 46 75 72 76
REMARK SMILES IDX 73 77 82 78 74 79 75 80 81 81 83 82 76 83 77 84 78 85 79 86
REMARK SMILES IDX 80 87 56 88 57 89 66 90 58 91 59 92 65 93 67 94 60 95 61 96
REMARK SMILES IDX 62 97 63 98 64 99
REMARK H PARENT 21 6 26 30 88 49 54 60
REMARK Flexibility Score: inf
ROOT
ATOM      1  C   UNL A   1      34.399  30.858  27.637  1.00  0.00     0.023 C 
ENDROOT
BRANCH   1   2
ATOM      2  C   UNL A   1      33.272  30.129  26.910  1.00  0.00     0.116 C 
BRANCH   2   3
ATOM      3  N   UNL A   1      33.543  29.902  25.509  1.00  0.00    -0.356 N 
ATOM      4  C   UNL A   1      32.986  29.040  24.621  1.00  0.00     0.224 C 
ATOM      5  O   UNL A   1      33.324  29.170  23.439  1.00  0.00    -0.275 OA
ATOM      6  H   UNL A   1      34.254  30.471  25.134  1.00  0.00     0.163 HD
BRANCH   4   7
ATOM      7  C   UNL A   1      31.996  27.927  24.993  1.00  0.00     0.098 C 
ATOM      8  N   UNL A   1      32.550  25.625  24.151  1.00  0.00    -0.338 N 
ATOM      9  C   UNL A   1      31.235  25.503  23.520  1.00  0.00     0.119 C 
ATOM     10  C   UNL A   1      32.638  26.560  25.267  1.00  0.00     0.133 C 
ATOM     11  C   UNL A   1      30.656  26.839  23.071  1.00  0.00     0.022 C 
ATOM     12  C   UNL A   1      30.713  27.905  24.157  1.00  0.00     0.017 C 
BRANCH   8  13
ATOM     13  C   UNL A   1      33.638  24.970  23.571  1.00  0.00     0.266 C 
ATOM     14  O   UNL A   1      33.953  25.255  22.408  1.00  0.00    -0.270 OA
BRANCH  13  15
ATOM     15  C   UNL A   1      34.305  23.737  24.298  1.00  0.00     0.181 C 
ATOM     16  C   UNL A   1      35.260  24.296  25.373  1.00  0.00     0.067 C 
ATOM     17  C   UNL A   1      35.115  23.048  23.181  1.00  0.00     0.067 C 
BRANCH  15  18
ATOM     18  O   UNL A   1      33.353  22.873  24.942  1.00  0.00    -0.478 OA
BRANCH  18  19
ATOM     19  C   UNL A   1      33.327  21.560  24.564  1.00  0.00     0.121 A 
ATOM     20  C   UNL A   1      34.146  20.604  25.165  1.00  0.00     0.048 A 
ATOM     21  C   UNL A   1      32.380  21.167  23.617  1.00  0.00     0.048 A 
ATOM     22  C   UNL A   1      34.083  19.270  24.753  1.00  0.00     0.024 A 
ATOM     23  C   UNL A   1      32.306  19.832  23.212  1.00  0.00     0.024 A 
ATOM     24  C   UNL A   1      33.168  18.891  23.772  1.00  0.00     0.041 A 
ATOM     25  Cl  UNL A   1      33.095  17.250  23.259  1.00  0.00    -0.084 Cl
ENDBRANCH  18  19
ENDBRANCH  15  18
ENDBRANCH  13  15
ENDBRANCH   8  13
ENDBRANCH   4   7
ENDBRANCH   2   3
ENDBRANCH   1   2
BRANCH   1  26
ATOM     26  C   UNL A   1      35.721  30.099  27.678  1.00  0.00     0.023 C 
BRANCH  26  27
ATOM     27  C   UNL A   1      36.099  29.513  29.036  1.00  0.00     0.116 C 
BRANCH  27  28
ATOM     28  N   UNL A   1      35.852  30.395  30.170  1.00  0.00    -0.352 N 
ATOM     29  C   UNL A   1      36.789  31.008  30.979  1.00  0.00     0.251 C 
ATOM     30  H   UNL A   1      34.907  30.574  30.385  1.00  0.00     0.163 HD
ATOM     31  O   UNL A   1      36.455  31.668  31.950  1.00  0.00    -0.269 OA
BRANCH  29  32
ATOM     32  C   UNL A   1      38.219  30.807  30.662  1.00  0.00     0.039 A 
ATOM     33  C   UNL A   1      39.026  30.119  31.570  1.00  0.00     0.014 A 
ATOM     34  C   UNL A   1      38.717  31.194  29.415  1.00  0.00     0.014 A 
ATOM     35  C   UNL A   1      40.310  29.729  31.185  1.00  0.00     0.010 A 
ATOM     36  C   UNL A   1      39.964  30.736  29.006  1.00  0.00     0.010 A 
ATOM     37  C   UNL A   1      40.767  29.986  29.881  1.00  0.00    -0.014 A 
BRANCH  37  38
ATOM     38  C   UNL A   1      42.072  29.462  29.398  1.00  0.00     0.031 A 
ATOM     39  C   UNL A   1      43.262  30.377  29.309  1.00  0.00     0.074 A 
ATOM     40  C   UNL A   1      42.161  28.191  28.955  1.00  0.00     0.049 A 
ATOM     41  N   UNL A   1      44.449  30.142  28.816  1.00  0.00    -0.248 NA
ATOM     42  C   UNL A   1      43.079  31.751  29.805  1.00  0.00     0.031 C 
ATOM     43  C   UNL A   1      41.063  27.222  28.924  1.00  0.00     0.029 A 
ATOM     44  N   UNL A   1      43.224  27.499  28.430  1.00  0.00    -0.354 N 
ATOM     45  C   UNL A   1      45.145  31.341  28.920  1.00  0.00     0.074 A 
ATOM     46  C   UNL A   1      44.232  32.315  29.475  1.00  0.00     0.031 C 
ATOM     47  C   UNL A   1      41.514  26.057  28.431  1.00  0.00     0.029 A 
ATOM     48  C   UNL A   1      42.923  26.203  28.080  1.00  0.00     0.049 A 
ATOM     49  H   UNL A   1      44.119  27.892  28.316  1.00  0.00     0.167 HD
ATOM     50  C   UNL A   1      46.436  31.600  28.605  1.00  0.00     0.037 A 
ATOM     51  C   UNL A   1      43.694  25.241  27.535  1.00  0.00     0.037 A 
ATOM     52  C   UNL A   1      47.357  30.617  28.098  1.00  0.00     0.049 A 
ATOM     53  C   UNL A   1      45.138  25.541  27.236  1.00  0.00     0.074 A 
ATOM     54  C   UNL A   1      48.703  30.763  27.815  1.00  0.00     0.029 A 
ATOM     55  N   UNL A   1      47.027  29.301  27.811  1.00  0.00    -0.354 N 
ATOM     56  N   UNL A   1      45.796  26.664  27.400  1.00  0.00    -0.248 NA
ATOM     57  C   UNL A   1      45.947  24.443  26.687  1.00  0.00     0.031 C 
ATOM     58  C   UNL A   1      49.183  29.540  27.334  1.00  0.00     0.029 A 
ATOM     59  C   UNL A   1      48.143  28.625  27.348  1.00  0.00     0.049 A 
ATOM     60  H   UNL A   1      46.132  28.906  27.919  1.00  0.00     0.167 HD
ATOM     61  C   UNL A   1      47.101  26.401  26.996  1.00  0.00     0.074 A 
ATOM     62  C   UNL A   1      47.141  25.012  26.589  1.00  0.00     0.031 C 
ATOM     63  C   UNL A   1      48.168  27.236  26.965  1.00  0.00     0.037 A 
BRANCH  50  64
ATOM     64  C   UNL A   1      46.933  33.000  28.821  1.00  0.00     0.058 A 
ATOM     65  C   UNL A   1      46.873  33.964  27.801  1.00  0.00     0.135 A 
ATOM     66  C   UNL A   1      47.455  33.392  30.064  1.00  0.00     0.135 A 
ATOM     67  F   UNL A   1      46.400  33.636  26.588  1.00  0.00    -0.206 F 
ATOM     68  C   UNL A   1      47.343  35.258  27.995  1.00  0.00     0.059 A 
ATOM     69  C   UNL A   1      47.906  34.689  30.289  1.00  0.00     0.059 A 
ATOM     70  F   UNL A   1      47.535  32.510  31.072  1.00  0.00    -0.206 F 
ATOM     71  C   UNL A   1      47.861  35.611  29.242  1.00  0.00     0.060 A 
BRANCH  71  72
ATOM     72  S   UNL A   1      48.468  37.294  29.480  1.00  0.00     0.124 S 
ATOM     73  O   UNL A   1      48.462  37.801  28.111  1.00  0.00    -0.237 OA
ATOM     74  O   UNL A   1      47.464  37.867  30.371  1.00  0.00    -0.237 OA
ATOM     75  O   UNL A   1      49.788  37.098  30.071  1.00  0.00    -0.744 OA
ENDBRANCH  71  72
ENDBRANCH  50  64
BRANCH  51  76
ATOM     76  C   UNL A   1      43.129  23.893  27.267  1.00  0.00     0.058 A 
ATOM     77  C   UNL A   1      42.669  23.550  25.987  1.00  0.00     0.135 A 
ATOM     78  C   UNL A   1      43.042  22.922  28.277  1.00  0.00     0.135 A 
ATOM     79  F   UNL A   1      42.727  24.447  24.991  1.00  0.00    -0.206 F 
ATOM     80  C   UNL A   1      42.121  22.299  25.720  1.00  0.00     0.059 A 
ATOM     81  C   UNL A   1      42.518  21.657  28.029  1.00  0.00     0.059 A 
ATOM     82  F   UNL A   1      43.486  23.196  29.513  1.00  0.00    -0.206 F 
ATOM     83  C   UNL A   1      42.049  21.359  26.749  1.00  0.00     0.060 A 
BRANCH  83  84
ATOM     84  S   UNL A   1      41.375  19.723  26.385  1.00  0.00     0.124 S 
ATOM     85  O   UNL A   1      39.991  20.043  26.057  1.00  0.00    -0.237 OA
ATOM     86  O   UNL A   1      42.210  19.285  25.271  1.00  0.00    -0.237 OA
ATOM     87  O   UNL A   1      41.578  18.994  27.633  1.00  0.00    -0.744 OA
ENDBRANCH  83  84
ENDBRANCH  51  76
BRANCH  63  88
ATOM     88  C   UNL A   1      49.480  26.666  26.510  1.00  0.00     0.058 A 
ATOM     89  C   UNL A   1      49.924  26.815  25.187  1.00  0.00     0.135 A 
ATOM     90  C   UNL A   1      50.331  26.024  27.423  1.00  0.00     0.135 A 
ATOM     91  F   UNL A   1      49.143  27.415  24.276  1.00  0.00    -0.206 F 
ATOM     92  C   UNL A   1      51.166  26.335  24.782  1.00  0.00     0.059 A 
ATOM     93  C   UNL A   1      51.584  25.555  27.045  1.00  0.00     0.059 A 
ATOM     94  F   UNL A   1      49.953  25.867  28.702  1.00  0.00    -0.206 F 
ATOM     95  C   UNL A   1      51.990  25.709  25.720  1.00  0.00     0.060 A 
BRANCH  95  96
ATOM     96  S   UNL A   1      53.620  25.136  25.197  1.00  0.00     0.124 S 
ATOM     97  O   UNL A   1      53.698  25.670  23.842  1.00  0.00    -0.237 OA
ATOM     98  O   UNL A   1      54.503  25.763  26.177  1.00  0.00    -0.237 OA
ATOM     99  O   UNL A   1      53.516  23.683  25.295  1.00  0.00    -0.744 OA
ENDBRANCH  95  96
ENDBRANCH  63  88
ENDBRANCH  37  38
ENDBRANCH  29  32
ENDBRANCH  27  28
ENDBRANCH  26  27
ENDBRANCH   1  26
TORSDOF 18
ENDMDL
MODEL 2
REMARK VINA RESULT:     -11.4      4.594      5.886
REMARK SMILES CC(C)(Oc1ccc(Cl)cc1)C(=O)N1CCC[C@H](C(=O)NCCCCNC(=O)c2ccc(-c3c4nc(c(-c5c(F)cc(S(=O)(=O)[O-])cc5F)c5ccc([nH]5)c(-c5c(F)cc(S(=O)(=O)[O-])cc5F)c5nc(c(-c6c(F)cc(S(=O)(=O)[O-])cc6F)c6ccc3[nH]6)C=C5)C=C4)cc2)C1
REMARK SMILES IDX 23 1 22 2 21 3 19 4 20 5 18 7 14 8 15 9 95 10 16 11 17 12
REMARK SMILES IDX 12 13 13 14 2 15 1 16 3 17 4 18 5 19 6 20 11 21 7 22 10 23
REMARK SMILES IDX 8 24 9 25 24 26 25 27 26 28 27 29 28 31 29 32 30 33 94 34
REMARK SMILES IDX 31 35 93 36 32 37 33 38 34 39 87 40 35 41 92 42 86 43 88 44
REMARK SMILES IDX 36 45 91 46 85 47 84 48 37 50 71 51 50 52 70 53 51 54 54 55
REMARK SMILES IDX 69 56 89 57 52 58 53 59 68 61 90 62 55 63 38 64 39 65 48 66
REMARK SMILES IDX 40 67 41 68 47 69 49 70 42 71 43 72 44 73 45 74 46 75 72 76
REMARK SMILES IDX 73 77 82 78 74 79 75 80 81 81 83 82 76 83 77 84 78 85 79 86
REMARK SMILES IDX 80 87 56 88 57 89 66 90 58 91 59 92 65 93 67 94 60 95 61 96
REMARK SMILES IDX 62 97 63 98 64 99
REMARK H PARENT 21 6 26 30 88 49 54 60
REMARK Flexibility Score: inf
ROOT
ATOM      1  C   UNL A   1      32.178  28.189  27.340  1.00  0.00     0.023 C 
ENDROOT
BRANCH   1   2
ATOM      2  C   UNL A   1      30.946  27.481  26.783  1.00  0.00     0.116 C 
BRANCH   2   3
ATOM      3  N   UNL A   1      31.023  26.041  26.863  1.00  0.00    -0.356 N 
ATOM      4  C   UNL A   1      30.910  25.087  25.905  1.00  0.00     0.224 C 
ATOM      5  O   UNL A   1      31.168  23.927  26.248  1.00  0.00    -0.275 OA
ATOM      6  H   UNL A   1      31.186  25.692  27.769  1.00  0.00     0.163 HD
BRANCH   4   7
ATOM      7  C   UNL A   1      30.476  25.355  24.458  1.00  0.00     0.098 C 
ATOM      8  N   UNL A   1      32.097  24.658  22.668  1.00  0.00    -0.338 N 
ATOM      9  C   UNL A   1      32.087  26.003  22.090  1.00  0.00     0.119 C 
ATOM     10  C   UNL A   1      30.919  24.290  23.445  1.00  0.00     0.133 C 
ATOM     11  C   UNL A   1      31.830  27.099  23.116  1.00  0.00     0.022 C 
ATOM     12  C   UNL A   1      30.626  26.810  24.003  1.00  0.00     0.017 C 
BRANCH   8  13
ATOM     13  C   UNL A   1      33.258  23.891  22.567  1.00  0.00     0.266 C 
ATOM     14  O   UNL A   1      33.531  23.364  21.479  1.00  0.00    -0.270 OA
BRANCH  13  15
ATOM     15  C   UNL A   1      34.082  23.518  23.861  1.00  0.00     0.181 C 
ATOM     16  C   UNL A   1      34.380  24.832  24.613  1.00  0.00     0.067 C 
ATOM     17  C   UNL A   1      35.391  22.922  23.304  1.00  0.00     0.067 C 
BRANCH  15  18
ATOM     18  O   UNL A   1      33.375  22.637  24.751  1.00  0.00    -0.478 OA
BRANCH  18  19
ATOM     19  C   UNL A   1      33.331  21.309  24.431  1.00  0.00     0.121 A 
ATOM     20  C   UNL A   1      32.391  20.798  23.535  1.00  0.00     0.048 A 
ATOM     21  C   UNL A   1      34.322  20.474  24.950  1.00  0.00     0.048 A 
ATOM     22  C   UNL A   1      32.386  19.435  23.229  1.00  0.00     0.024 A 
ATOM     23  C   UNL A   1      34.326  19.113  24.636  1.00  0.00     0.024 A 
ATOM     24  C   UNL A   1      33.349  18.596  23.789  1.00  0.00     0.041 A 
ATOM     25  Cl  UNL A   1      33.337  16.915  23.419  1.00  0.00    -0.084 Cl
ENDBRANCH  18  19
ENDBRANCH  15  18
ENDBRANCH  13  15
ENDBRANCH   8  13
ENDBRANCH   4   7
ENDBRANCH   2   3
ENDBRANCH   1   2
BRANCH   1  26
ATOM     26  C   UNL A   1      33.476  27.874  26.604  1.00  0.00     0.023 C 
BRANCH  26  27
ATOM     27  C   UNL A   1      34.218  29.081  26.037  1.00  0.00     0.116 C 
BRANCH  27  28
ATOM     28  N   UNL A   1      33.939  30.341  26.714  1.00  0.00    -0.352 N 
ATOM     29  C   UNL A   1      34.673  30.935  27.722  1.00  0.00     0.251 C 
ATOM     30  H   UNL A   1      33.134  30.826  26.418  1.00  0.00     0.163 HD
ATOM     31  O   UNL A   1      34.293  31.962  28.264  1.00  0.00    -0.269 OA
BRANCH  29  32
ATOM     32  C   UNL A   1      35.916  30.267  28.162  1.00  0.00     0.039 A 
ATOM     33  C   UNL A   1      37.100  30.503  27.460  1.00  0.00     0.014 A 
ATOM     34  C   UNL A   1      35.922  29.512  29.338  1.00  0.00     0.014 A 
ATOM     35  C   UNL A   1      38.312  30.062  27.995  1.00  0.00     0.010 A 
ATOM     36  C   UNL A   1      37.136  29.145  29.907  1.00  0.00     0.010 A 
ATOM     37  C   UNL A   1      38.344  29.430  29.249  1.00  0.00    -0.014 A 
BRANCH  37  38
ATOM     38  C   UNL A   1      39.629  29.075  29.908  1.00  0.00     0.031 A 
ATOM     39  C   UNL A   1      40.117  29.876  31.083  1.00  0.00     0.074 A 
ATOM     40  C   UNL A   1      40.397  28.094  29.392  1.00  0.00     0.049 A 
ATOM     41  N   UNL A   1      41.254  29.794  31.723  1.00  0.00    -0.248 NA
ATOM     42  C   UNL A   1      39.223  30.935  31.579  1.00  0.00     0.031 C 
ATOM     43  C   UNL A   1      40.069  27.287  28.214  1.00  0.00     0.029 A 
ATOM     44  N   UNL A   1      41.622  27.616  29.785  1.00  0.00    -0.354 N 
ATOM     45  C   UNL A   1      41.222  30.804  32.678  1.00  0.00     0.074 A 
ATOM     46  C   UNL A   1      39.977  31.517  32.501  1.00  0.00     0.031 C 
ATOM     47  C   UNL A   1      41.055  26.401  27.995  1.00  0.00     0.029 A 
ATOM     48  C   UNL A   1      42.100  26.596  28.996  1.00  0.00     0.049 A 
ATOM     49  H   UNL A   1      42.114  27.969  30.562  1.00  0.00     0.167 HD
ATOM     50  C   UNL A   1      42.137  31.094  33.633  1.00  0.00     0.037 A 
ATOM     51  C   UNL A   1      43.251  25.898  29.067  1.00  0.00     0.037 A 
ATOM     52  C   UNL A   1      43.352  30.352  33.839  1.00  0.00     0.049 A 
ATOM     53  C   UNL A   1      44.231  26.210  30.165  1.00  0.00     0.074 A 
ATOM     54  C   UNL A   1      44.309  30.523  34.823  1.00  0.00     0.029 A 
ATOM     55  N   UNL A   1      43.772  29.291  33.052  1.00  0.00    -0.354 N 
ATOM     56  N   UNL A   1      44.155  27.128  31.099  1.00  0.00    -0.248 NA
ATOM     57  C   UNL A   1      45.448  25.388  30.226  1.00  0.00     0.031 C 
ATOM     58  C   UNL A   1      45.320  29.579  34.618  1.00  0.00     0.029 A 
ATOM     59  C   UNL A   1      44.976  28.799  33.526  1.00  0.00     0.049 A 
ATOM     60  H   UNL A   1      43.285  28.938  32.272  1.00  0.00     0.167 HD
ATOM     61  C   UNL A   1      45.301  26.978  31.872  1.00  0.00     0.074 A 
ATOM     62  C   UNL A   1      46.049  25.877  31.303  1.00  0.00     0.031 C 
ATOM     63  C   UNL A   1      45.697  27.689  32.955  1.00  0.00     0.037 A 
BRANCH  50  64
ATOM     64  C   UNL A   1      41.843  32.252  34.543  1.00  0.00     0.058 A 
ATOM     65  C   UNL A   1      41.151  32.077  35.752  1.00  0.00     0.135 A 
ATOM     66  C   UNL A   1      42.274  33.548  34.216  1.00  0.00     0.135 A 
ATOM     67  F   UNL A   1      40.701  30.861  36.103  1.00  0.00    -0.206 F 
ATOM     68  C   UNL A   1      40.868  33.149  36.590  1.00  0.00     0.059 A 
ATOM     69  C   UNL A   1      42.024  34.632  35.052  1.00  0.00     0.059 A 
ATOM     70  F   UNL A   1      42.938  33.770  33.072  1.00  0.00    -0.206 F 
ATOM     71  C   UNL A   1      41.305  34.424  36.230  1.00  0.00     0.060 A 
BRANCH  71  72
ATOM     72  S   UNL A   1      40.930  35.807  37.327  1.00  0.00     0.124 S 
ATOM     73  O   UNL A   1      40.533  35.112  38.547  1.00  0.00    -0.237 OA
ATOM     74  O   UNL A   1      42.205  36.515  37.388  1.00  0.00    -0.237 OA
ATOM     75  O   UNL A   1      39.858  36.512  36.629  1.00  0.00    -0.744 OA
ENDBRANCH  71  72
ENDBRANCH  50  64
BRANCH  51  76
ATOM     76  C   UNL A   1      43.528  24.813  28.090  1.00  0.00     0.058 A 
ATOM     77  C   UNL A   1      43.008  23.524  28.283  1.00  0.00     0.135 A 
ATOM     78  C   UNL A   1      44.311  25.038  26.948  1.00  0.00     0.135 A 
ATOM     79  F   UNL A   1      42.257  23.259  29.363  1.00  0.00    -0.206 F 
ATOM     80  C   UNL A   1      43.270  22.491  27.389  1.00  0.00     0.059 A 
ATOM     81  C   UNL A   1      44.570  24.026  26.028  1.00  0.00     0.059 A 
ATOM     82  F   UNL A   1      44.817  26.258  26.710  1.00  0.00    -0.206 F 
ATOM     83  C   UNL A   1      44.054  22.752  26.265  1.00  0.00     0.060 A 
BRANCH  83  84
ATOM     84  S   UNL A   1      44.356  21.414  25.087  1.00  0.00     0.124 S 
ATOM     85  O   UNL A   1      44.268  22.120  23.815  1.00  0.00    -0.237 OA
ATOM     86  O   UNL A   1      45.688  20.958  25.473  1.00  0.00    -0.237 OA
ATOM     87  O   UNL A   1      43.275  20.474  25.367  1.00  0.00    -0.744 OA
ENDBRANCH  83  84
ENDBRANCH  51  76
BRANCH  63  88
ATOM     88  C   UNL A   1      46.980  27.281  33.621  1.00  0.00     0.058 A 
ATOM     89  C   UNL A   1      48.207  27.860  33.265  1.00  0.00     0.135 A 
ATOM     90  C   UNL A   1      46.969  26.350  34.671  1.00  0.00     0.135 A 
ATOM     91  F   UNL A   1      48.269  28.751  32.263  1.00  0.00    -0.206 F 
ATOM     92  C   UNL A   1      49.385  27.521  33.923  1.00  0.00     0.059 A 
ATOM     93  C   UNL A   1      48.131  26.011  35.355  1.00  0.00     0.059 A 
ATOM     94  F   UNL A   1      45.817  25.775  35.053  1.00  0.00    -0.206 F 
ATOM     95  C   UNL A   1      49.336  26.596  34.969  1.00  0.00     0.060 A 
BRANCH  95  96
ATOM     96  S   UNL A   1      50.861  26.201  35.850  1.00  0.00     0.124 S 
ATOM     97  O   UNL A   1      51.110  27.441  36.578  1.00  0.00    -0.237 OA
ATOM     98  O   UNL A   1      50.466  25.056  36.666  1.00  0.00    -0.237 OA
ATOM     99  O   UNL A   1      51.805  25.902  34.777  1.00  0.00    -0.744 OA
ENDBRANCH  95  96
ENDBRANCH  63  88
ENDBRANCH  37  38
ENDBRANCH  29  32
ENDBRANCH  27  28
ENDBRANCH  26  27
ENDBRANCH   1  26
TORSDOF 18
ENDMDL
MODEL 3
REMARK VINA RESULT:     -11.3      1.125      2.141
REMARK SMILES CC(C)(Oc1ccc(Cl)cc1)C(=O)N1CCC[C@H](C(=O)NCCCCNC(=O)c2ccc(-c3c4nc(c(-c5c(F)cc(S(=O)(=O)[O-])cc5F)c5ccc([nH]5)c(-c5c(F)cc(S(=O)(=O)[O-])cc5F)c5nc(c(-c6c(F)cc(S(=O)(=O)[O-])cc6F)c6ccc3[nH]6)C=C5)C=C4)cc2)C1
REMARK SMILES IDX 23 1 22 2 21 3 19 4 20 5 18 7 14 8 15 9 95 10 16 11 17 12
REMARK SMILES IDX 12 13 13 14 2 15 1 16 3 17 4 18 5 19 6 20 11 21 7 22 10 23
REMARK SMILES IDX 8 24 9 25 24 26 25 27 26 28 27 29 28 31 29 32 30 33 94 34
REMARK SMILES IDX 31 35 93 36 32 37 33 38 34 39 87 40 35 41 92 42 86 43 88 44
REMARK SMILES IDX 36 45 91 46 85 47 84 48 37 50 71 51 50 52 70 53 51 54 54 55
REMARK SMILES IDX 69 56 89 57 52 58 53 59 68 61 90 62 55 63 38 64 39 65 48 66
REMARK SMILES IDX 40 67 41 68 47 69 49 70 42 71 43 72 44 73 45 74 46 75 72 76
REMARK SMILES IDX 73 77 82 78 74 79 75 80 81 81 83 82 76 83 77 84 78 85 79 86
REMARK SMILES IDX 80 87 56 88 57 89 66 90 58 91 59 92 65 93 67 94 60 95 61 96
REMARK SMILES IDX 62 97 63 98 64 99
REMARK H PARENT 21 6 26 30 88 49 54 60
REMARK Flexibility Score: inf
ROOT
ATOM      1  C   UNL A   1      33.104  29.326  27.475  1.00  0.00     0.023 C 
ENDROOT
BRANCH   1   2
ATOM      2  C   UNL A   1      31.905  28.797  26.694  1.00  0.00     0.116 C 
BRANCH   2   3
ATOM      3  N   UNL A   1      31.581  27.422  26.997  1.00  0.00    -0.356 N 
ATOM      4  C   UNL A   1      31.090  26.428  26.215  1.00  0.00     0.224 C 
ATOM      5  O   UNL A   1      31.048  25.299  26.719  1.00  0.00    -0.275 OA
ATOM      6  H   UNL A   1      31.744  27.162  27.933  1.00  0.00     0.163 HD
BRANCH   4   7
ATOM      7  C   UNL A   1      30.582  26.621  24.780  1.00  0.00     0.098 C 
ATOM      8  N   UNL A   1      32.017  25.653  22.957  1.00  0.00    -0.338 N 
ATOM      9  C   UNL A   1      32.077  26.946  22.273  1.00  0.00     0.119 C 
ATOM     10  C   UNL A   1      30.869  25.448  23.833  1.00  0.00     0.133 C 
ATOM     11  C   UNL A   1      31.978  28.135  23.220  1.00  0.00     0.022 C 
ATOM     12  C   UNL A   1      30.817  28.019  24.200  1.00  0.00     0.017 C 
BRANCH   8  13
ATOM     13  C   UNL A   1      33.104  24.784  22.849  1.00  0.00     0.266 C 
ATOM     14  O   UNL A   1      33.390  24.325  21.734  1.00  0.00    -0.270 OA
BRANCH  13  15
ATOM     15  C   UNL A   1      33.808  24.223  24.146  1.00  0.00     0.181 C 
ATOM     16  C   UNL A   1      34.243  25.436  24.996  1.00  0.00     0.067 C 
ATOM     17  C   UNL A   1      35.050  23.490  23.600  1.00  0.00     0.067 C 
BRANCH  15  18
ATOM     18  O   UNL A   1      32.949  23.393  24.946  1.00  0.00    -0.478 OA
BRANCH  18  19
ATOM     19  C   UNL A   1      32.910  22.057  24.663  1.00  0.00     0.121 A 
ATOM     20  C   UNL A   1      32.291  21.566  23.513  1.00  0.00     0.048 A 
ATOM     21  C   UNL A   1      33.597  21.185  25.510  1.00  0.00     0.048 A 
ATOM     22  C   UNL A   1      32.279  20.192  23.258  1.00  0.00     0.024 A 
ATOM     23  C   UNL A   1      33.597  19.812  25.250  1.00  0.00     0.024 A 
ATOM     24  C   UNL A   1      32.926  19.320  24.133  1.00  0.00     0.041 A 
ATOM     25  Cl  UNL A   1      32.906  17.627  23.823  1.00  0.00    -0.084 Cl
ENDBRANCH  18  19
ENDBRANCH  15  18
ENDBRANCH  13  15
ENDBRANCH   8  13
ENDBRANCH   4   7
ENDBRANCH   2   3
ENDBRANCH   1   2
BRANCH   1  26
ATOM     26  C   UNL A   1      34.457  29.025  26.838  1.00  0.00     0.023 C 
BRANCH  26  27
ATOM     27  C   UNL A   1      35.675  29.374  27.689  1.00  0.00     0.116 C 
BRANCH  27  28
ATOM     28  N   UNL A   1      35.377  29.685  29.081  1.00  0.00    -0.352 N 
ATOM     29  C   UNL A   1      36.278  29.898  30.107  1.00  0.00     0.251 C 
ATOM     30  H   UNL A   1      34.424  29.751  29.318  1.00  0.00     0.163 HD
ATOM     31  O   UNL A   1      35.903  30.078  31.255  1.00  0.00    -0.269 OA
BRANCH  29  32
ATOM     32  C   UNL A   1      37.720  29.857  29.785  1.00  0.00     0.039 A 
ATOM     33  C   UNL A   1      38.638  29.602  30.806  1.00  0.00     0.014 A 
ATOM     34  C   UNL A   1      38.140  29.950  28.456  1.00  0.00     0.014 A 
ATOM     35  C   UNL A   1      39.970  29.339  30.479  1.00  0.00     0.010 A 
ATOM     36  C   UNL A   1      39.447  29.610  28.127  1.00  0.00     0.010 A 
ATOM     37  C   UNL A   1      40.372  29.286  29.134  1.00  0.00    -0.014 A 
BRANCH  37  38
ATOM     38  C   UNL A   1      41.747  28.873  28.749  1.00  0.00     0.031 A 
ATOM     39  C   UNL A   1      42.849  29.894  28.692  1.00  0.00     0.074 A 
ATOM     40  C   UNL A   1      41.981  27.602  28.365  1.00  0.00     0.049 A 
ATOM     41  N   UNL A   1      44.082  29.756  28.279  1.00  0.00    -0.248 NA
ATOM     42  C   UNL A   1      42.509  31.261  29.119  1.00  0.00     0.031 C 
ATOM     43  C   UNL A   1      40.982  26.531  28.310  1.00  0.00     0.029 A 
ATOM     44  N   UNL A   1      43.134  26.995  27.931  1.00  0.00    -0.354 N 
ATOM     45  C   UNL A   1      44.655  31.018  28.373  1.00  0.00     0.074 A 
ATOM     46  C   UNL A   1      43.622  31.920  28.834  1.00  0.00     0.031 C 
ATOM     47  C   UNL A   1      41.569  25.398  27.892  1.00  0.00     0.029 A 
ATOM     48  C   UNL A   1      42.978  25.665  27.618  1.00  0.00     0.049 A 
ATOM     49  H   UNL A   1      43.994  27.469  27.853  1.00  0.00     0.167 HD
ATOM     50  C   UNL A   1      45.933  31.388  28.123  1.00  0.00     0.037 A 
ATOM     51  C   UNL A   1      43.867  24.763  27.159  1.00  0.00     0.037 A 
ATOM     52  C   UNL A   1      46.971  30.480  27.713  1.00  0.00     0.049 A 
ATOM     53  C   UNL A   1      45.293  25.188  26.932  1.00  0.00     0.074 A 
ATOM     54  C   UNL A   1      48.313  30.744  27.502  1.00  0.00     0.029 A 
ATOM     55  N   UNL A   1      46.783  29.130  27.460  1.00  0.00    -0.354 N 
ATOM     56  N   UNL A   1      45.832  26.374  27.088  1.00  0.00    -0.248 NA
ATOM     57  C   UNL A   1      46.233  24.155  26.477  1.00  0.00     0.031 C 
ATOM     58  C   UNL A   1      48.933  29.557  27.101  1.00  0.00     0.029 A 
ATOM     59  C   UNL A   1      47.984  28.548  27.092  1.00  0.00     0.049 A 
ATOM     60  H   UNL A   1      45.924  28.655  27.533  1.00  0.00     0.167 HD
ATOM     61  C   UNL A   1      47.178  26.223  26.771  1.00  0.00     0.074 A 
ATOM     62  C   UNL A   1      47.373  24.830  26.426  1.00  0.00     0.031 C 
ATOM     63  C   UNL A   1      48.162  27.154  26.769  1.00  0.00     0.037 A 
BRANCH  50  64
ATOM     64  C   UNL A   1      46.283  32.837  28.311  1.00  0.00     0.058 A 
ATOM     65  C   UNL A   1      46.727  33.329  29.549  1.00  0.00     0.135 A 
ATOM     66  C   UNL A   1      46.194  33.740  27.239  1.00  0.00     0.135 A 
ATOM     67  F   UNL A   1      46.812  32.510  30.610  1.00  0.00    -0.206 F 
ATOM     68  C   UNL A   1      47.041  34.671  29.727  1.00  0.00     0.059 A 
ATOM     69  C   UNL A   1      46.528  35.083  27.389  1.00  0.00     0.059 A 
ATOM     70  F   UNL A   1      45.774  33.322  26.036  1.00  0.00    -0.206 F 
ATOM     71  C   UNL A   1      46.935  35.542  28.642  1.00  0.00     0.060 A 
BRANCH  71  72
ATOM     72  S   UNL A   1      47.344  37.282  28.889  1.00  0.00     0.124 S 
ATOM     73  O   UNL A   1      48.473  37.188  29.808  1.00  0.00    -0.237 OA
ATOM     74  O   UNL A   1      47.664  37.725  27.535  1.00  0.00    -0.237 OA
ATOM     75  O   UNL A   1      46.119  37.842  29.455  1.00  0.00    -0.744 OA
ENDBRANCH  71  72
ENDBRANCH  50  64
BRANCH  51  76
ATOM     76  C   UNL A   1      43.449  23.359  26.914  1.00  0.00     0.058 A 
ATOM     77  C   UNL A   1      43.211  22.483  27.985  1.00  0.00     0.135 A 
ATOM     78  C   UNL A   1      43.273  22.864  25.613  1.00  0.00     0.135 A 
ATOM     79  F   UNL A   1      43.371  22.910  29.247  1.00  0.00    -0.206 F 
ATOM     80  C   UNL A   1      42.835  21.160  27.776  1.00  0.00     0.059 A 
ATOM     81  C   UNL A   1      42.877  21.550  25.379  1.00  0.00     0.059 A 
ATOM     82  F   UNL A   1      43.471  23.666  24.556  1.00  0.00    -0.206 F 
ATOM     83  C   UNL A   1      42.672  20.703  26.468  1.00  0.00     0.060 A 
BRANCH  83  84
ATOM     84  S   UNL A   1      42.143  18.995  26.205  1.00  0.00     0.124 S 
ATOM     85  O   UNL A   1      42.359  18.415  27.525  1.00  0.00    -0.237 OA
ATOM     86  O   UNL A   1      40.750  19.161  25.801  1.00  0.00    -0.237 OA
ATOM     87  O   UNL A   1      43.039  18.527  25.152  1.00  0.00    -0.744 OA
ENDBRANCH  83  84
ENDBRANCH  51  76
BRANCH  63  88
ATOM     88  C   UNL A   1      49.547  26.697  26.414  1.00  0.00     0.058 A 
ATOM     89  C   UNL A   1      50.384  26.089  27.362  1.00  0.00     0.135 A 
ATOM     90  C   UNL A   1      50.016  26.809  25.096  1.00  0.00     0.135 A 
ATOM     91  F   UNL A   1      49.983  25.966  28.636  1.00  0.00    -0.206 F 
ATOM     92  C   UNL A   1      51.646  25.616  27.016  1.00  0.00     0.059 A 
ATOM     93  C   UNL A   1      51.265  26.325  24.723  1.00  0.00     0.059 A 
ATOM     94  F   UNL A   1      49.248  27.376  24.151  1.00  0.00    -0.206 F 
ATOM     95  C   UNL A   1      52.077  25.736  25.693  1.00  0.00     0.060 A 
BRANCH  95  96
ATOM     96  S   UNL A   1      53.694  25.073  25.243  1.00  0.00     0.124 S 
ATOM     97  O   UNL A   1      54.544  25.639  26.284  1.00  0.00    -0.237 OA
ATOM     98  O   UNL A   1      53.475  23.631  25.319  1.00  0.00    -0.237 OA
ATOM     99  O   UNL A   1      53.913  25.597  23.898  1.00  0.00    -0.744 OA
ENDBRANCH  95  96
ENDBRANCH  63  88
ENDBRANCH  37  38
ENDBRANCH  29  32
ENDBRANCH  27  28
ENDBRANCH  26  27
ENDBRANCH   1  26
TORSDOF 18
ENDMDL
