MODEL 1
REMARK VINA RESULT:     -13.5      0.000      0.000
REMARK SMILES O=C(NCCCCNC(=O)[C@H](c1c[nH]c2cc(F)ccc12)[NH+]1CCN(c2ccccc2)CC1)c1ccc(-c2c3nc(c(-c4c(F)cc(S(=O)(=O)[O-])cc4F)c4ccc([nH]4)c(-c4c(F)cc(S(=O)(=O)[O-])cc4F)c4nc(c(-c5c(F)cc(S(=O)(=O)[O-])cc5F)c5ccc2[nH]5)C=C4)C=C3)cc1
REMARK SMILES IDX 5 1 4 2 3 3 1 4 2 5 34 7 35 8 99 9 36 10 98 11 37 12 38 13
REMARK SMILES IDX 39 14 92 15 40 16 97 17 91 18 93 19 41 20 96 21 90 22 89 23
REMARK SMILES IDX 42 25 76 26 55 27 75 28 56 29 59 30 74 31 94 32 57 33 58 34
REMARK SMILES IDX 73 36 95 37 60 38 43 39 44 40 53 41 45 42 46 43 52 44 54 45
REMARK SMILES IDX 47 46 48 47 49 48 50 49 51 50 77 51 78 52 87 53 79 54 80 55
REMARK SMILES IDX 86 56 88 57 81 58 82 59 83 60 84 61 85 62 61 63 62 64 71 65
REMARK SMILES IDX 63 66 64 67 70 68 72 69 65 70 66 71 67 72 68 73 69 74 6 75
REMARK SMILES IDX 7 76 8 77 9 78 10 80 11 81 22 82 23 83 33 84 24 86 32 87
REMARK SMILES IDX 25 88 26 89 27 90 31 91 28 92 30 93 29 94 12 95 13 96 21 97
REMARK SMILES IDX 14 98 15 99 20 100 16 102 19 103 17 104 18 105
REMARK H PARENT 3 6 93 24 59 35 8 79 22 85 14 101
REMARK Flexibility Score: inf
ROOT
ATOM      1  C   UNL A   1      33.706  29.773  26.638  1.00  0.00     0.023 C 
ENDROOT
BRANCH   1   2
ATOM      2  C   UNL A   1      34.792  29.443  27.662  1.00  0.00     0.116 C 
BRANCH   2   3
ATOM      3  N   UNL A   1      34.918  30.423  28.729  1.00  0.00    -0.352 N 
ATOM      4  O   UNL A   1      35.931  31.617  30.348  1.00  0.00    -0.269 OA
ATOM      5  C   UNL A   1      36.022  30.757  29.485  1.00  0.00     0.251 C 
ATOM      6  H   UNL A   1      34.096  30.920  28.944  1.00  0.00     0.163 HD
BRANCH   5   7
ATOM      7  C   UNL A   1      37.300  30.033  29.286  1.00  0.00     0.039 A 
ATOM      8  C   UNL A   1      38.007  29.486  30.359  1.00  0.00     0.014 A 
ATOM      9  C   UNL A   1      37.811  29.947  27.988  1.00  0.00     0.014 A 
ATOM     10  C   UNL A   1      39.300  29.001  30.159  1.00  0.00     0.010 A 
ATOM     11  C   UNL A   1      39.084  29.413  27.782  1.00  0.00     0.010 A 
ATOM     12  C   UNL A   1      39.860  28.992  28.872  1.00  0.00    -0.014 A 
BRANCH  12  13
ATOM     13  C   UNL A   1      41.278  28.601  28.662  1.00  0.00     0.031 A 
ATOM     14  C   UNL A   1      42.361  29.643  28.746  1.00  0.00     0.074 A 
ATOM     15  C   UNL A   1      41.591  27.325  28.374  1.00  0.00     0.049 A 
ATOM     16  N   UNL A   1      43.639  29.536  28.483  1.00  0.00    -0.248 NA
ATOM     17  C   UNL A   1      41.949  30.990  29.174  1.00  0.00     0.031 C 
ATOM     18  C   UNL A   1      40.634  26.223  28.280  1.00  0.00     0.029 A 
ATOM     19  N   UNL A   1      42.801  26.745  28.089  1.00  0.00    -0.354 N 
ATOM     20  C   UNL A   1      44.177  30.803  28.683  1.00  0.00     0.074 A 
ATOM     21  C   UNL A   1      43.084  31.667  29.075  1.00  0.00     0.031 C 
ATOM     22  C   UNL A   1      41.292  25.099  27.954  1.00  0.00     0.029 A 
ATOM     23  C   UNL A   1      42.707  25.412  27.769  1.00  0.00     0.049 A 
ATOM     24  H   UNL A   1      43.654  27.236  28.111  1.00  0.00     0.167 HD
ATOM     25  C   UNL A   1      45.464  31.206  28.553  1.00  0.00     0.037 A 
ATOM     26  C   UNL A   1      43.647  24.547  27.341  1.00  0.00     0.037 A 
ATOM     27  C   UNL A   1      46.548  30.335  28.179  1.00  0.00     0.049 A 
ATOM     28  C   UNL A   1      45.065  25.016  27.186  1.00  0.00     0.074 A 
ATOM     29  C   UNL A   1      47.891  30.640  28.045  1.00  0.00     0.029 A 
ATOM     30  N   UNL A   1      46.412  28.988  27.879  1.00  0.00    -0.354 N 
ATOM     31  N   UNL A   1      45.562  26.214  27.386  1.00  0.00    -0.248 NA
ATOM     32  C   UNL A   1      46.052  24.021  26.746  1.00  0.00     0.031 C 
ATOM     33  C   UNL A   1      48.562  29.484  27.630  1.00  0.00     0.029 A 
ATOM     34  C   UNL A   1      47.644  28.450  27.545  1.00  0.00     0.049 A 
ATOM     35  H   UNL A   1      45.564  28.489  27.899  1.00  0.00     0.167 HD
ATOM     36  C   UNL A   1      46.922  26.112  27.120  1.00  0.00     0.074 A 
ATOM     37  C   UNL A   1      47.171  24.735  26.746  1.00  0.00     0.031 C 
ATOM     38  C   UNL A   1      47.876  27.072  27.186  1.00  0.00     0.037 A 
BRANCH  25  39
ATOM     39  C   UNL A   1      45.759  32.662  28.788  1.00  0.00     0.058 A 
ATOM     40  C   UNL A   1      45.681  33.610  27.755  1.00  0.00     0.135 A 
ATOM     41  C   UNL A   1      46.123  33.117  30.066  1.00  0.00     0.135 A 
ATOM     42  F   UNL A   1      45.352  33.228  26.511  1.00  0.00    -0.206 F 
ATOM     43  C   UNL A   1      45.996  34.949  27.970  1.00  0.00     0.059 A 
ATOM     44  C   UNL A   1      46.418  34.455  30.310  1.00  0.00     0.059 A 
ATOM     45  F   UNL A   1      46.209  32.255  31.091  1.00  0.00    -0.206 F 
ATOM     46  C   UNL A   1      46.373  35.359  29.250  1.00  0.00     0.060 A 
BRANCH  46  47
ATOM     47  S   UNL A   1      46.819  37.090  29.508  1.00  0.00     0.124 S 
ATOM     48  O   UNL A   1      45.896  37.469  30.574  1.00  0.00    -0.237 OA
ATOM     49  O   UNL A   1      48.225  37.000  29.891  1.00  0.00    -0.237 OA
ATOM     50  O   UNL A   1      46.565  37.704  28.209  1.00  0.00    -0.744 OA
ENDBRANCH  46  47
ENDBRANCH  25  39
BRANCH  26  51
ATOM     51  C   UNL A   1      43.253  23.148  27.033  1.00  0.00     0.058 A 
ATOM     52  C   UNL A   1      43.192  22.691  25.710  1.00  0.00     0.135 A 
ATOM     53  C   UNL A   1      43.007  22.224  28.060  1.00  0.00     0.135 A 
ATOM     54  F   UNL A   1      43.413  23.541  24.696  1.00  0.00    -0.206 F 
ATOM     55  C   UNL A   1      42.911  21.362  25.413  1.00  0.00     0.059 A 
ATOM     56  C   UNL A   1      42.745  20.885  27.790  1.00  0.00     0.059 A 
ATOM     57  F   UNL A   1      43.069  22.612  29.343  1.00  0.00    -0.206 F 
ATOM     58  C   UNL A   1      42.700  20.464  26.461  1.00  0.00     0.060 A 
BRANCH  58  59
ATOM     59  S   UNL A   1      42.439  18.720  26.070  1.00  0.00     0.124 S 
ATOM     60  O   UNL A   1      41.026  18.708  25.707  1.00  0.00    -0.237 OA
ATOM     61  O   UNL A   1      43.381  18.507  24.975  1.00  0.00    -0.237 OA
ATOM     62  O   UNL A   1      42.778  18.043  27.318  1.00  0.00    -0.744 OA
ENDBRANCH  58  59
ENDBRANCH  26  51
BRANCH  38  63
ATOM     63  C   UNL A   1      49.291  26.667  26.884  1.00  0.00     0.058 A 
ATOM     64  C   UNL A   1      50.109  26.069  27.853  1.00  0.00     0.135 A 
ATOM     65  C   UNL A   1      49.805  26.813  25.586  1.00  0.00     0.135 A 
ATOM     66  F   UNL A   1      49.665  25.915  29.110  1.00  0.00    -0.206 F 
ATOM     67  C   UNL A   1      51.394  25.632  27.547  1.00  0.00     0.059 A 
ATOM     68  C   UNL A   1      51.079  26.367  25.252  1.00  0.00     0.059 A 
ATOM     69  F   UNL A   1      49.057  27.375  24.622  1.00  0.00    -0.206 F 
ATOM     70  C   UNL A   1      51.869  25.782  26.242  1.00  0.00     0.060 A 
BRANCH  70  71
ATOM     71  S   UNL A   1      53.516  25.160  25.839  1.00  0.00     0.124 S 
ATOM     72  O   UNL A   1      53.213  23.817  25.356  1.00  0.00    -0.237 OA
ATOM     73  O   UNL A   1      53.972  26.109  24.828  1.00  0.00    -0.237 OA
ATOM     74  O   UNL A   1      54.224  25.225  27.113  1.00  0.00    -0.744 OA
ENDBRANCH  70  71
ENDBRANCH  38  63
ENDBRANCH  12  13
ENDBRANCH   5   7
ENDBRANCH   2   3
ENDBRANCH   1   2
BRANCH   1  75
ATOM     75  C   UNL A   1      32.416  28.952  26.717  1.00  0.00     0.023 C 
BRANCH  75  76
ATOM     76  C   UNL A   1      32.598  27.440  26.727  1.00  0.00     0.116 C 
BRANCH  76  77
ATOM     77  N   UNL A   1      31.385  26.695  26.974  1.00  0.00    -0.351 N 
ATOM     78  C   UNL A   1      30.597  26.035  26.061  1.00  0.00     0.283 C 
ATOM     79  H   UNL A   1      31.086  26.654  27.911  1.00  0.00     0.163 HD
ATOM     80  O   UNL A   1      29.809  25.203  26.521  1.00  0.00    -0.268 OA
BRANCH  78  81
ATOM     81  C   UNL A   1      30.727  26.348  24.536  1.00  0.00     0.307 C 
BRANCH  81  82
ATOM     82  N   UNL A   1      30.986  25.179  23.675  1.00  0.00    -0.318 N 
ATOM     83  C   UNL A   1      32.022  25.290  22.651  1.00  0.00     0.284 C 
ATOM     84  C   UNL A   1      30.943  23.842  24.265  1.00  0.00     0.284 C 
ATOM     85  H   UNL A   1      30.101  25.256  23.174  1.00  0.00     0.349 HD
ATOM     86  C   UNL A   1      33.414  24.699  22.980  1.00  0.00     0.178 C 
ATOM     87  C   UNL A   1      32.300  23.316  24.769  1.00  0.00     0.178 C 
ATOM     88  N   UNL A   1      33.353  23.445  23.744  1.00  0.00    -0.360 N 
BRANCH  88  89
ATOM     89  C   UNL A   1      34.530  22.738  24.003  1.00  0.00     0.037 A 
ATOM     90  C   UNL A   1      34.562  21.556  24.759  1.00  0.00     0.026 A 
ATOM     91  C   UNL A   1      35.754  23.194  23.487  1.00  0.00     0.026 A 
ATOM     92  C   UNL A   1      35.753  20.846  24.960  1.00  0.00     0.002 A 
ATOM     93  C   UNL A   1      36.948  22.495  23.689  1.00  0.00     0.002 A 
ATOM     94  C   UNL A   1      36.945  21.313  24.421  1.00  0.00     0.000 A 
ENDBRANCH  88  89
ENDBRANCH  81  82
BRANCH  81  95
ATOM     95  C   UNL A   1      29.468  27.020  23.993  1.00  0.00     0.044 A 
ATOM     96  C   UNL A   1      28.157  26.592  24.143  1.00  0.00     0.094 A 
ATOM     97  C   UNL A   1      29.404  28.218  23.198  1.00  0.00     0.009 A 
ATOM     98  N   UNL A   1      27.329  27.448  23.476  1.00  0.00    -0.361 N 
ATOM     99  C   UNL A   1      28.060  28.447  22.882  1.00  0.00     0.049 A 
ATOM    100  C   UNL A   1      30.367  29.130  22.707  1.00  0.00     0.014 A 
ATOM    101  H   UNL A   1      26.350  27.362  23.428  1.00  0.00     0.166 HD
ATOM    102  C   UNL A   1      27.634  29.523  22.096  1.00  0.00     0.065 A 
ATOM    103  C   UNL A   1      29.956  30.216  21.924  1.00  0.00     0.040 A 
ATOM    104  C   UNL A   1      28.612  30.396  21.627  1.00  0.00     0.125 A 
ATOM    105  F   UNL A   1      28.244  31.438  20.868  1.00  0.00    -0.207 F 
ENDBRANCH  81  95
ENDBRANCH  78  81
ENDBRANCH  76  77
ENDBRANCH  75  76
ENDBRANCH   1  75
TORSDOF 17
ENDMDL
MODEL 2
REMARK VINA RESULT:     -13.3      6.325     11.358
REMARK SMILES O=C(NCCCCNC(=O)[C@H](c1c[nH]c2cc(F)ccc12)[NH+]1CCN(c2ccccc2)CC1)c1ccc(-c2c3nc(c(-c4c(F)cc(S(=O)(=O)[O-])cc4F)c4ccc([nH]4)c(-c4c(F)cc(S(=O)(=O)[O-])cc4F)c4nc(c(-c5c(F)cc(S(=O)(=O)[O-])cc5F)c5ccc2[nH]5)C=C4)C=C3)cc1
REMARK SMILES IDX 5 1 4 2 3 3 1 4 2 5 34 7 35 8 99 9 36 10 98 11 37 12 38 13
REMARK SMILES IDX 39 14 92 15 40 16 97 17 91 18 93 19 41 20 96 21 90 22 89 23
REMARK SMILES IDX 42 25 76 26 55 27 75 28 56 29 59 30 74 31 94 32 57 33 58 34
REMARK SMILES IDX 73 36 95 37 60 38 43 39 44 40 53 41 45 42 46 43 52 44 54 45
REMARK SMILES IDX 47 46 48 47 49 48 50 49 51 50 77 51 78 52 87 53 79 54 80 55
REMARK SMILES IDX 86 56 88 57 81 58 82 59 83 60 84 61 85 62 61 63 62 64 71 65
REMARK SMILES IDX 63 66 64 67 70 68 72 69 65 70 66 71 67 72 68 73 69 74 6 75
REMARK SMILES IDX 7 76 8 77 9 78 10 80 11 81 22 82 23 83 33 84 24 86 32 87
REMARK SMILES IDX 25 88 26 89 27 90 31 91 28 92 30 93 29 94 12 95 13 96 21 97
REMARK SMILES IDX 14 98 15 99 20 100 16 102 19 103 17 104 18 105
REMARK H PARENT 3 6 93 24 59 35 8 79 22 85 14 101
REMARK Flexibility Score: inf
ROOT
ATOM      1  C   UNL A   1      37.683  23.134  25.425  1.00  0.00     0.023 C 
ENDROOT
BRANCH   1   2
ATOM      2  C   UNL A   1      38.543  23.985  26.360  1.00  0.00     0.116 C 
BRANCH   2   3
ATOM      3  N   UNL A   1      39.962  23.673  26.310  1.00  0.00    -0.352 N 
ATOM      4  O   UNL A   1      42.159  23.901  26.748  1.00  0.00    -0.269 OA
ATOM      5  C   UNL A   1      41.022  24.317  26.912  1.00  0.00     0.251 C 
ATOM      6  H   UNL A   1      40.201  22.887  25.767  1.00  0.00     0.163 HD
BRANCH   5   7
ATOM      7  C   UNL A   1      40.785  25.544  27.707  1.00  0.00     0.039 A 
ATOM      8  C   UNL A   1      41.634  26.650  27.620  1.00  0.00     0.014 A 
ATOM      9  C   UNL A   1      39.704  25.554  28.593  1.00  0.00     0.014 A 
ATOM     10  C   UNL A   1      41.501  27.697  28.534  1.00  0.00     0.010 A 
ATOM     11  C   UNL A   1      39.540  26.627  29.471  1.00  0.00     0.010 A 
ATOM     12  C   UNL A   1      40.472  27.677  29.488  1.00  0.00    -0.014 A 
BRANCH  12  13
ATOM     13  C   UNL A   1      40.395  28.715  30.547  1.00  0.00     0.031 A 
ATOM     14  C   UNL A   1      41.289  28.618  31.755  1.00  0.00     0.074 A 
ATOM     15  C   UNL A   1      39.514  29.725  30.439  1.00  0.00     0.049 A 
ATOM     16  N   UNL A   1      41.299  29.350  32.840  1.00  0.00    -0.248 NA
ATOM     17  C   UNL A   1      42.299  27.548  31.744  1.00  0.00     0.031 C 
ATOM     18  C   UNL A   1      38.607  29.936  29.311  1.00  0.00     0.029 A 
ATOM     19  N   UNL A   1      39.226  30.754  31.300  1.00  0.00    -0.354 N 
ATOM     20  C   UNL A   1      42.292  28.812  33.652  1.00  0.00     0.074 A 
ATOM     21  C   UNL A   1      42.852  27.683  32.941  1.00  0.00     0.031 C 
ATOM     22  C   UNL A   1      37.857  31.023  29.550  1.00  0.00     0.029 A 
ATOM     23  C   UNL A   1      38.197  31.556  30.867  1.00  0.00     0.049 A 
ATOM     24  H   UNL A   1      39.708  30.903  32.145  1.00  0.00     0.167 HD
ATOM     25  C   UNL A   1      42.699  29.225  34.878  1.00  0.00     0.037 A 
ATOM     26  C   UNL A   1      37.575  32.585  31.477  1.00  0.00     0.037 A 
ATOM     27  C   UNL A   1      42.148  30.359  35.571  1.00  0.00     0.049 A 
ATOM     28  C   UNL A   1      38.028  33.016  32.842  1.00  0.00     0.074 A 
ATOM     29  C   UNL A   1      42.508  30.874  36.804  1.00  0.00     0.029 A 
ATOM     30  N   UNL A   1      41.118  31.155  35.090  1.00  0.00    -0.354 N 
ATOM     31  N   UNL A   1      38.972  32.505  33.595  1.00  0.00    -0.248 NA
ATOM     32  C   UNL A   1      37.332  34.162  33.444  1.00  0.00     0.031 C 
ATOM     33  C   UNL A   1      41.672  31.962  37.084  1.00  0.00     0.029 A 
ATOM     34  C   UNL A   1      40.819  32.149  36.008  1.00  0.00     0.049 A 
ATOM     35  H   UNL A   1      40.666  31.031  34.226  1.00  0.00     0.167 HD
ATOM     36  C   UNL A   1      39.002  33.279  34.748  1.00  0.00     0.074 A 
ATOM     37  C   UNL A   1      37.981  34.295  34.594  1.00  0.00     0.031 C 
ATOM     38  C   UNL A   1      39.807  33.161  35.833  1.00  0.00     0.037 A 
BRANCH  25  39
ATOM     39  C   UNL A   1      43.773  28.419  35.556  1.00  0.00     0.058 A 
ATOM     40  C   UNL A   1      43.468  27.382  36.453  1.00  0.00     0.135 A 
ATOM     41  C   UNL A   1      45.129  28.686  35.304  1.00  0.00     0.135 A 
ATOM     42  F   UNL A   1      42.188  27.094  36.741  1.00  0.00    -0.206 F 
ATOM     43  C   UNL A   1      44.467  26.669  37.109  1.00  0.00     0.059 A 
ATOM     44  C   UNL A   1      46.145  27.969  35.930  1.00  0.00     0.059 A 
ATOM     45  F   UNL A   1      45.478  29.663  34.453  1.00  0.00    -0.206 F 
ATOM     46  C   UNL A   1      45.803  26.977  36.848  1.00  0.00     0.060 A 
BRANCH  46  47
ATOM     47  S   UNL A   1      47.090  26.074  37.735  1.00  0.00     0.124 S 
ATOM     48  O   UNL A   1      46.563  26.083  39.096  1.00  0.00    -0.237 OA
ATOM     49  O   UNL A   1      47.086  24.778  37.064  1.00  0.00    -0.237 OA
ATOM     50  O   UNL A   1      48.284  26.884  37.517  1.00  0.00    -0.744 OA
ENDBRANCH  46  47
ENDBRANCH  25  39
BRANCH  26  51
ATOM     51  C   UNL A   1      36.453  33.264  30.779  1.00  0.00     0.058 A 
ATOM     52  C   UNL A   1      35.137  33.141  31.242  1.00  0.00     0.135 A 
ATOM     53  C   UNL A   1      36.690  34.111  29.685  1.00  0.00     0.135 A 
ATOM     54  F   UNL A   1      34.863  32.338  32.281  1.00  0.00    -0.206 F 
ATOM     55  C   UNL A   1      34.091  33.843  30.651  1.00  0.00     0.059 A 
ATOM     56  C   UNL A   1      35.665  34.839  29.090  1.00  0.00     0.059 A 
ATOM     57  F   UNL A   1      37.937  34.271  29.216  1.00  0.00    -0.206 F 
ATOM     58  C   UNL A   1      34.368  34.698  29.582  1.00  0.00     0.060 A 
BRANCH  58  59
ATOM     59  S   UNL A   1      33.022  35.683  28.889  1.00  0.00     0.124 S 
ATOM     60  O   UNL A   1      33.755  36.729  28.185  1.00  0.00    -0.237 OA
ATOM     61  O   UNL A   1      32.332  34.710  28.047  1.00  0.00    -0.237 OA
ATOM     62  O   UNL A   1      32.280  36.114  30.070  1.00  0.00    -0.744 OA
ENDBRANCH  58  59
ENDBRANCH  26  51
BRANCH  38  63
ATOM     63  C   UNL A   1      39.648  34.175  36.929  1.00  0.00     0.058 A 
ATOM     64  C   UNL A   1      38.892  33.906  38.079  1.00  0.00     0.135 A 
ATOM     65  C   UNL A   1      40.325  35.403  36.858  1.00  0.00     0.135 A 
ATOM     66  F   UNL A   1      38.220  32.749  38.189  1.00  0.00    -0.206 F 
ATOM     67  C   UNL A   1      38.807  34.822  39.122  1.00  0.00     0.059 A 
ATOM     68  C   UNL A   1      40.271  36.326  37.897  1.00  0.00     0.059 A 
ATOM     69  F   UNL A   1      41.068  35.704  35.781  1.00  0.00    -0.206 F 
ATOM     70  C   UNL A   1      39.504  36.029  39.024  1.00  0.00     0.060 A 
BRANCH  70  71
ATOM     71  S   UNL A   1      39.436  37.188  40.406  1.00  0.00     0.124 S 
ATOM     72  O   UNL A   1      38.613  36.456  41.364  1.00  0.00    -0.237 OA
ATOM     73  O   UNL A   1      40.843  37.335  40.764  1.00  0.00    -0.237 OA
ATOM     74  O   UNL A   1      38.817  38.375  39.824  1.00  0.00    -0.744 OA
ENDBRANCH  70  71
ENDBRANCH  38  63
ENDBRANCH  12  13
ENDBRANCH   5   7
ENDBRANCH   2   3
ENDBRANCH   1   2
BRANCH   1  75
ATOM     75  C   UNL A   1      36.290  23.674  25.093  1.00  0.00     0.023 C 
BRANCH  75  76
ATOM     76  C   UNL A   1      35.169  23.215  26.017  1.00  0.00     0.116 C 
BRANCH  76  77
ATOM     77  N   UNL A   1      34.261  24.264  26.420  1.00  0.00    -0.351 N 
ATOM     78  C   UNL A   1      33.096  24.656  25.805  1.00  0.00     0.283 C 
ATOM     79  H   UNL A   1      34.506  24.757  27.236  1.00  0.00     0.163 HD
ATOM     80  O   UNL A   1      32.320  25.334  26.487  1.00  0.00    -0.268 OA
BRANCH  78  81
ATOM     81  C   UNL A   1      32.807  24.244  24.326  1.00  0.00     0.307 C 
BRANCH  81  82
ATOM     82  N   UNL A   1      31.766  23.214  24.154  1.00  0.00    -0.318 N 
ATOM     83  C   UNL A   1      31.734  22.466  22.898  1.00  0.00     0.284 C 
ATOM     84  C   UNL A   1      31.401  22.379  25.296  1.00  0.00     0.284 C 
ATOM     85  H   UNL A   1      31.004  23.888  24.086  1.00  0.00     0.349 HD
ATOM     86  C   UNL A   1      32.386  21.063  22.890  1.00  0.00     0.178 C 
ATOM     87  C   UNL A   1      32.180  21.055  25.403  1.00  0.00     0.178 C 
ATOM     88  N   UNL A   1      32.166  20.307  24.131  1.00  0.00    -0.360 N 
BRANCH  88  89
ATOM     89  C   UNL A   1      32.593  18.978  24.213  1.00  0.00     0.037 A 
ATOM     90  C   UNL A   1      33.010  18.240  23.097  1.00  0.00     0.026 A 
ATOM     91  C   UNL A   1      32.631  18.327  25.456  1.00  0.00     0.026 A 
ATOM     92  C   UNL A   1      33.477  16.924  23.220  1.00  0.00     0.002 A 
ATOM     93  C   UNL A   1      33.089  17.011  25.588  1.00  0.00     0.002 A 
ATOM     94  C   UNL A   1      33.521  16.312  24.467  1.00  0.00     0.000 A 
ENDBRANCH  88  89
ENDBRANCH  81  82
BRANCH  81  95
ATOM     95  C   UNL A   1      32.381  25.443  23.483  1.00  0.00     0.044 A 
ATOM     96  C   UNL A   1      33.149  26.134  22.558  1.00  0.00     0.094 A 
ATOM     97  C   UNL A   1      31.103  26.105  23.509  1.00  0.00     0.009 A 
ATOM     98  N   UNL A   1      32.415  27.166  22.050  1.00  0.00    -0.361 N 
ATOM     99  C   UNL A   1      31.164  27.180  22.616  1.00  0.00     0.049 A 
ATOM    100  C   UNL A   1      29.897  25.896  24.217  1.00  0.00     0.014 A 
ATOM    101  H   UNL A   1      32.735  27.807  21.374  1.00  0.00     0.166 HD
ATOM    102  C   UNL A   1      30.094  28.059  22.405  1.00  0.00     0.065 A 
ATOM    103  C   UNL A   1      28.815  26.763  24.013  1.00  0.00     0.040 A 
ATOM    104  C   UNL A   1      28.926  27.823  23.124  1.00  0.00     0.125 A 
ATOM    105  F   UNL A   1      27.881  28.644  22.952  1.00  0.00    -0.207 F 
ENDBRANCH  81  95
ENDBRANCH  78  81
ENDBRANCH  76  77
ENDBRANCH  75  76
ENDBRANCH   1  75
TORSDOF 17
ENDMDL
MODEL 3
REMARK VINA RESULT:     -13.1      1.895      4.375
REMARK SMILES O=C(NCCCCNC(=O)[C@H](c1c[nH]c2cc(F)ccc12)[NH+]1CCN(c2ccccc2)CC1)c1ccc(-c2c3nc(c(-c4c(F)cc(S(=O)(=O)[O-])cc4F)c4ccc([nH]4)c(-c4c(F)cc(S(=O)(=O)[O-])cc4F)c4nc(c(-c5c(F)cc(S(=O)(=O)[O-])cc5F)c5ccc2[nH]5)C=C4)C=C3)cc1
REMARK SMILES IDX 5 1 4 2 3 3 1 4 2 5 34 7 35 8 99 9 36 10 98 11 37 12 38 13
REMARK SMILES IDX 39 14 92 15 40 16 97 17 91 18 93 19 41 20 96 21 90 22 89 23
REMARK SMILES IDX 42 25 76 26 55 27 75 28 56 29 59 30 74 31 94 32 57 33 58 34
REMARK SMILES IDX 73 36 95 37 60 38 43 39 44 40 53 41 45 42 46 43 52 44 54 45
REMARK SMILES IDX 47 46 48 47 49 48 50 49 51 50 77 51 78 52 87 53 79 54 80 55
REMARK SMILES IDX 86 56 88 57 81 58 82 59 83 60 84 61 85 62 61 63 62 64 71 65
REMARK SMILES IDX 63 66 64 67 70 68 72 69 65 70 66 71 67 72 68 73 69 74 6 75
REMARK SMILES IDX 7 76 8 77 9 78 10 80 11 81 22 82 23 83 33 84 24 86 32 87
REMARK SMILES IDX 25 88 26 89 27 90 31 91 28 92 30 93 29 94 12 95 13 96 21 97
REMARK SMILES IDX 14 98 15 99 20 100 16 102 19 103 17 104 18 105
REMARK H PARENT 3 6 93 24 59 35 8 79 22 85 14 101
REMARK Flexibility Score: inf
ROOT
ATOM      1  C   UNL A   1      34.807  29.777  27.101  1.00  0.00     0.023 C 
ENDROOT
BRANCH   1   2
ATOM      2  C   UNL A   1      35.500  30.812  27.989  1.00  0.00     0.116 C 
BRANCH   2   3
ATOM      3  N   UNL A   1      35.401  30.532  29.412  1.00  0.00    -0.352 N 
ATOM      4  O   UNL A   1      36.114  30.018  31.486  1.00  0.00    -0.269 OA
ATOM      5  C   UNL A   1      36.396  30.225  30.316  1.00  0.00     0.251 C 
ATOM      6  H   UNL A   1      34.491  30.567  29.786  1.00  0.00     0.163 HD
BRANCH   5   7
ATOM      7  C   UNL A   1      37.798  30.090  29.852  1.00  0.00     0.039 A 
ATOM      8  C   UNL A   1      38.107  29.857  28.509  1.00  0.00     0.014 A 
ATOM      9  C   UNL A   1      38.815  30.157  30.807  1.00  0.00     0.014 A 
ATOM     10  C   UNL A   1      39.413  29.527  28.148  1.00  0.00     0.010 A 
ATOM     11  C   UNL A   1      40.131  29.878  30.435  1.00  0.00     0.010 A 
ATOM     12  C   UNL A   1      40.430  29.503  29.116  1.00  0.00    -0.014 A 
BRANCH  12  13
ATOM     13  C   UNL A   1      41.795  29.030  28.774  1.00  0.00     0.031 A 
ATOM     14  C   UNL A   1      42.940  30.008  28.745  1.00  0.00     0.074 A 
ATOM     15  C   UNL A   1      42.005  27.737  28.468  1.00  0.00     0.049 A 
ATOM     16  N   UNL A   1      44.178  29.826  28.362  1.00  0.00    -0.248 NA
ATOM     17  C   UNL A   1      42.649  31.378  29.198  1.00  0.00     0.031 C 
ATOM     18  C   UNL A   1      40.982  26.692  28.476  1.00  0.00     0.029 A 
ATOM     19  N   UNL A   1      43.148  27.087  28.074  1.00  0.00    -0.354 N 
ATOM     20  C   UNL A   1      44.805  31.060  28.499  1.00  0.00     0.074 A 
ATOM     21  C   UNL A   1      43.806  31.987  28.985  1.00  0.00     0.031 C 
ATOM     22  C   UNL A   1      41.540  25.532  28.099  1.00  0.00     0.029 A 
ATOM     23  C   UNL A   1      42.946  25.761  27.776  1.00  0.00     0.049 A 
ATOM     24  H   UNL A   1      44.025  27.528  28.011  1.00  0.00     0.167 HD
ATOM     25  C   UNL A   1      46.095  31.387  28.243  1.00  0.00     0.037 A 
ATOM     26  C   UNL A   1      43.790  24.841  27.269  1.00  0.00     0.037 A 
ATOM     27  C   UNL A   1      47.086  30.454  27.775  1.00  0.00     0.049 A 
ATOM     28  C   UNL A   1      45.211  25.227  26.974  1.00  0.00     0.074 A 
ATOM     29  C   UNL A   1      48.426  30.680  27.509  1.00  0.00     0.029 A 
ATOM     30  N   UNL A   1      46.845  29.116  27.500  1.00  0.00    -0.354 N 
ATOM     31  N   UNL A   1      45.792  26.394  27.115  1.00  0.00    -0.248 NA
ATOM     32  C   UNL A   1      46.093  24.174  26.451  1.00  0.00     0.031 C 
ATOM     33  C   UNL A   1      48.986  29.485  27.042  1.00  0.00     0.029 A 
ATOM     34  C   UNL A   1      48.006  28.506  27.055  1.00  0.00     0.049 A 
ATOM     35  H   UNL A   1      45.975  28.667  27.606  1.00  0.00     0.167 HD
ATOM     36  C   UNL A   1      47.113  26.213  26.721  1.00  0.00     0.074 A 
ATOM     37  C   UNL A   1      47.246  24.822  26.337  1.00  0.00     0.031 C 
ATOM     38  C   UNL A   1      48.123  27.116  26.688  1.00  0.00     0.037 A 
BRANCH  25  39
ATOM     39  C   UNL A   1      46.494  32.825  28.435  1.00  0.00     0.058 A 
ATOM     40  C   UNL A   1      47.001  33.297  29.657  1.00  0.00     0.135 A 
ATOM     41  C   UNL A   1      46.368  33.745  27.382  1.00  0.00     0.135 A 
ATOM     42  F   UNL A   1      47.129  32.463  30.702  1.00  0.00    -0.206 F 
ATOM     43  C   UNL A   1      47.328  34.637  29.840  1.00  0.00     0.059 A 
ATOM     44  C   UNL A   1      46.712  35.085  27.535  1.00  0.00     0.059 A 
ATOM     45  F   UNL A   1      45.892  33.347  26.191  1.00  0.00    -0.206 F 
ATOM     46  C   UNL A   1      47.170  35.525  28.775  1.00  0.00     0.060 A 
BRANCH  46  47
ATOM     47  S   UNL A   1      47.558  37.269  29.037  1.00  0.00     0.124 S 
ATOM     48  O   UNL A   1      48.967  37.311  28.658  1.00  0.00    -0.237 OA
ATOM     49  O   UNL A   1      46.638  37.938  28.123  1.00  0.00    -0.237 OA
ATOM     50  O   UNL A   1      47.282  37.469  30.456  1.00  0.00    -0.744 OA
ENDBRANCH  46  47
ENDBRANCH  25  39
BRANCH  26  51
ATOM     51  C   UNL A   1      43.288  23.467  27.011  1.00  0.00     0.058 A 
ATOM     52  C   UNL A   1      43.022  23.029  25.708  1.00  0.00     0.135 A 
ATOM     53  C   UNL A   1      43.142  22.543  28.059  1.00  0.00     0.135 A 
ATOM     54  F   UNL A   1      43.142  23.878  24.677  1.00  0.00    -0.206 F 
ATOM     55  C   UNL A   1      42.637  21.718  25.447  1.00  0.00     0.059 A 
ATOM     56  C   UNL A   1      42.779  21.222  27.821  1.00  0.00     0.059 A 
ATOM     57  F   UNL A   1      43.400  22.913  29.323  1.00  0.00    -0.206 F 
ATOM     58  C   UNL A   1      42.529  20.819  26.510  1.00  0.00     0.060 A 
BRANCH  58  59
ATOM     59  S   UNL A   1      42.130  19.094  26.151  1.00  0.00     0.124 S 
ATOM     60  O   UNL A   1      40.717  19.185  25.802  1.00  0.00    -0.237 OA
ATOM     61  O   UNL A   1      43.041  18.791  25.051  1.00  0.00    -0.237 OA
ATOM     62  O   UNL A   1      42.431  18.413  27.407  1.00  0.00    -0.744 OA
ENDBRANCH  58  59
ENDBRANCH  26  51
BRANCH  38  63
ATOM     63  C   UNL A   1      49.476  26.629  26.255  1.00  0.00     0.058 A 
ATOM     64  C   UNL A   1      49.955  26.840  24.954  1.00  0.00     0.135 A 
ATOM     65  C   UNL A   1      50.332  26.009  27.180  1.00  0.00     0.135 A 
ATOM     66  F   UNL A   1      49.171  27.421  24.033  1.00  0.00    -0.206 F 
ATOM     67  C   UNL A   1      51.237  26.449  24.581  1.00  0.00     0.059 A 
ATOM     68  C   UNL A   1      51.624  25.627  26.835  1.00  0.00     0.059 A 
ATOM     69  F   UNL A   1      49.922  25.791  28.440  1.00  0.00    -0.206 F 
ATOM     70  C   UNL A   1      52.066  25.846  25.529  1.00  0.00     0.060 A 
BRANCH  70  71
ATOM     71  S   UNL A   1      53.747  25.394  25.053  1.00  0.00     0.124 S 
ATOM     72  O   UNL A   1      53.811  25.896  23.684  1.00  0.00    -0.237 OA
ATOM     73  O   UNL A   1      54.556  26.117  26.030  1.00  0.00    -0.237 OA
ATOM     74  O   UNL A   1      53.760  23.941  25.191  1.00  0.00    -0.744 OA
ENDBRANCH  70  71
ENDBRANCH  38  63
ENDBRANCH  12  13
ENDBRANCH   5   7
ENDBRANCH   2   3
ENDBRANCH   1   2
BRANCH   1  75
ATOM     75  C   UNL A   1      33.278  29.742  27.155  1.00  0.00     0.023 C 
BRANCH  75  76
ATOM     76  C   UNL A   1      32.637  28.410  26.788  1.00  0.00     0.116 C 
BRANCH  76  77
ATOM     77  N   UNL A   1      33.575  27.386  26.390  1.00  0.00    -0.351 N 
ATOM     78  C   UNL A   1      33.338  26.279  25.609  1.00  0.00     0.283 C 
ATOM     79  H   UNL A   1      34.498  27.494  26.716  1.00  0.00     0.163 HD
ATOM     80  O   UNL A   1      34.332  25.727  25.128  1.00  0.00    -0.268 OA
BRANCH  78  81
ATOM     81  C   UNL A   1      31.876  25.783  25.368  1.00  0.00     0.307 C 
BRANCH  81  82
ATOM     82  N   UNL A   1      31.360  25.992  24.002  1.00  0.00    -0.318 N 
ATOM     83  C   UNL A   1      29.914  25.954  23.796  1.00  0.00     0.284 C 
ATOM     84  C   UNL A   1      32.008  26.982  23.145  1.00  0.00     0.284 C 
ATOM     85  H   UNL A   1      31.707  25.098  23.653  1.00  0.00     0.349 HD
ATOM     86  C   UNL A   1      29.171  27.309  23.721  1.00  0.00     0.178 C 
ATOM     87  C   UNL A   1      31.389  28.390  23.203  1.00  0.00     0.178 C 
ATOM     88  N   UNL A   1      29.926  28.354  23.014  1.00  0.00    -0.360 N 
BRANCH  88  89
ATOM     89  C   UNL A   1      29.323  29.590  22.765  1.00  0.00     0.037 A 
ATOM     90  C   UNL A   1      28.636  29.879  21.577  1.00  0.00     0.026 A 
ATOM     91  C   UNL A   1      29.376  30.607  23.731  1.00  0.00     0.026 A 
ATOM     92  C   UNL A   1      28.002  31.113  21.377  1.00  0.00     0.002 A 
ATOM     93  C   UNL A   1      28.752  31.844  23.538  1.00  0.00     0.002 A 
ATOM     94  C   UNL A   1      28.057  32.094  22.361  1.00  0.00     0.000 A 
ENDBRANCH  88  89
ENDBRANCH  81  82
BRANCH  81  95
ATOM     95  C   UNL A   1      31.734  24.293  25.666  1.00  0.00     0.044 A 
ATOM     96  C   UNL A   1      31.352  23.710  26.866  1.00  0.00     0.094 A 
ATOM     97  C   UNL A   1      31.996  23.203  24.764  1.00  0.00     0.009 A 
ATOM     98  N   UNL A   1      31.388  22.353  26.734  1.00  0.00    -0.361 N 
ATOM     99  C   UNL A   1      31.784  22.011  25.465  1.00  0.00     0.049 A 
ATOM    100  C   UNL A   1      32.403  23.116  23.413  1.00  0.00     0.014 A 
ATOM    101  H   UNL A   1      31.160  21.711  27.445  1.00  0.00     0.166 HD
ATOM    102  C   UNL A   1      31.970  20.746  24.894  1.00  0.00     0.065 A 
ATOM    103  C   UNL A   1      32.588  21.858  22.824  1.00  0.00     0.040 A 
ATOM    104  C   UNL A   1      32.377  20.703  23.563  1.00  0.00     0.125 A 
ATOM    105  F   UNL A   1      32.568  19.510  22.981  1.00  0.00    -0.207 F 
ENDBRANCH  81  95
ENDBRANCH  78  81
ENDBRANCH  76  77
ENDBRANCH  75  76
ENDBRANCH   1  75
TORSDOF 17
ENDMDL
