MODEL 1
REMARK VINA RESULT:     -13.4      0.000      0.000
REMARK SMILES Cc1cccc(NC(=O)C[C@@H]2CCCCO2)c1C(=O)NCCCCNC(=O)c1ccc(-c2c3nc(c(-c4c(F)cc(S(=O)(=O)[O-])cc4F)c4ccc([nH]4)c(-c4c(F)cc(S(=O)(=O)[O-])cc4F)c4nc(c(-c5c(F)cc(S(=O)(=O)[O-])cc5F)c5ccc2[nH]5)C=C4)C=C3)cc1
REMARK SMILES IDX 22 1 21 2 20 3 18 4 19 5 17 7 1 8 2 9 3 10 4 11 6 12 5 13
REMARK SMILES IDX 7 14 8 15 9 17 10 18 11 19 12 20 16 21 13 22 15 23 14 24
REMARK SMILES IDX 23 25 24 26 25 27 26 28 27 30 28 31 29 32 93 33 30 34 92 35
REMARK SMILES IDX 31 36 32 37 33 38 86 39 34 40 91 41 85 42 87 43 35 44 90 45
REMARK SMILES IDX 84 46 83 47 36 49 70 50 49 51 69 52 50 53 53 54 68 55 88 56
REMARK SMILES IDX 51 57 52 58 67 60 89 61 54 62 37 63 38 64 47 65 39 66 40 67
REMARK SMILES IDX 46 68 48 69 41 70 42 71 43 72 44 73 45 74 71 75 72 76 81 77
REMARK SMILES IDX 73 78 74 79 80 80 82 81 75 82 76 83 77 84 78 85 79 86 55 87
REMARK SMILES IDX 56 88 65 89 57 90 58 91 64 92 66 93 59 94 60 95 61 96 62 97
REMARK SMILES IDX 63 98
REMARK H PARENT 20 6 7 16 25 29 87 48 53 59
REMARK Flexibility Score: inf
ROOT
ATOM      1  C   UNL A   1      36.295  22.030  24.791  1.00  0.00     0.023 C 
ENDROOT
BRANCH   1   2
ATOM      2  C   UNL A   1      35.786  23.437  24.422  1.00  0.00     0.116 C 
BRANCH   2   3
ATOM      3  N   UNL A   1      35.104  23.413  23.135  1.00  0.00    -0.352 N 
ATOM      4  C   UNL A   1      33.804  23.213  22.745  1.00  0.00     0.253 C 
ATOM      5  O   UNL A   1      33.583  23.285  21.534  1.00  0.00    -0.269 OA
ATOM      6  H   UNL A   1      35.710  23.577  22.377  1.00  0.00     0.163 HD
BRANCH   4   7
ATOM      7  C   UNL A   1      32.657  23.053  23.700  1.00  0.00     0.066 A 
ATOM      8  C   UNL A   1      33.069  20.587  24.258  1.00  0.00     0.045 C 
ATOM      9  C   UNL A   1      32.458  21.931  24.528  1.00  0.00    -0.036 A 
ATOM     10  C   UNL A   1      31.498  21.981  25.557  1.00  0.00     0.004 A 
ATOM     11  C   UNL A   1      30.661  23.080  25.693  1.00  0.00     0.002 A 
ATOM     12  C   UNL A   1      31.618  24.021  23.674  1.00  0.00     0.054 A 
ATOM     13  C   UNL A   1      30.698  24.082  24.730  1.00  0.00     0.027 A 
BRANCH  12  14
ATOM     14  N   UNL A   1      31.432  24.825  22.522  1.00  0.00    -0.325 N 
ATOM     15  C   UNL A   1      31.454  26.195  22.394  1.00  0.00     0.227 C 
ATOM     16  H   UNL A   1      31.261  24.329  21.688  1.00  0.00     0.169 HD
ATOM     17  O   UNL A   1      31.213  26.699  21.291  1.00  0.00    -0.275 OA
BRANCH  15  18
ATOM     18  C   UNL A   1      31.718  27.104  23.582  1.00  0.00     0.132 C 
BRANCH  18  19
ATOM     19  C   UNL A   1      33.189  27.534  23.737  1.00  0.00     0.127 C 
ATOM     20  C   UNL A   1      33.957  26.569  24.658  1.00  0.00     0.033 C 
ATOM     21  O   UNL A   1      33.391  28.867  24.214  1.00  0.00    -0.378 OA
ATOM     22  C   UNL A   1      33.535  26.718  26.120  1.00  0.00     0.005 C 
ATOM     23  C   UNL A   1      32.985  29.108  25.554  1.00  0.00     0.160 C 
ATOM     24  C   UNL A   1      33.634  28.173  26.560  1.00  0.00     0.029 C 
ENDBRANCH  18  19
ENDBRANCH  15  18
ENDBRANCH  12  14
ENDBRANCH   4   7
ENDBRANCH   2   3
ENDBRANCH   1   2
BRANCH   1  25
ATOM     25  C   UNL A   1      37.776  21.973  25.173  1.00  0.00     0.023 C 
BRANCH  25  26
ATOM     26  C   UNL A   1      38.175  23.139  26.059  1.00  0.00     0.116 C 
BRANCH  26  27
ATOM     27  N   UNL A   1      39.331  22.888  26.907  1.00  0.00    -0.352 N 
ATOM     28  C   UNL A   1      40.160  23.826  27.498  1.00  0.00     0.251 C 
ATOM     29  H   UNL A   1      39.549  21.944  27.080  1.00  0.00     0.163 HD
ATOM     30  O   UNL A   1      41.258  23.529  27.954  1.00  0.00    -0.269 OA
BRANCH  28  31
ATOM     31  C   UNL A   1      39.614  25.190  27.673  1.00  0.00     0.039 A 
ATOM     32  C   UNL A   1      40.115  26.188  26.828  1.00  0.00     0.014 A 
ATOM     33  C   UNL A   1      38.926  25.514  28.838  1.00  0.00     0.014 A 
ATOM     34  C   UNL A   1      40.114  27.511  27.260  1.00  0.00     0.010 A 
ATOM     35  C   UNL A   1      39.034  26.804  29.314  1.00  0.00     0.010 A 
ATOM     36  C   UNL A   1      39.670  27.795  28.549  1.00  0.00    -0.014 A 
BRANCH  36  37
ATOM     37  C   UNL A   1      39.891  29.067  29.230  1.00  0.00     0.031 A 
ATOM     38  C   UNL A   1      38.875  30.141  29.124  1.00  0.00     0.074 A 
ATOM     39  C   UNL A   1      40.946  29.218  30.061  1.00  0.00     0.049 A 
ATOM     40  N   UNL A   1      39.052  31.368  29.477  1.00  0.00    -0.248 NA
ATOM     41  C   UNL A   1      37.564  29.908  28.530  1.00  0.00     0.031 C 
ATOM     42  C   UNL A   1      41.103  30.224  31.107  1.00  0.00     0.029 A 
ATOM     43  N   UNL A   1      42.188  28.592  30.003  1.00  0.00    -0.354 N 
ATOM     44  C   UNL A   1      37.827  32.002  29.447  1.00  0.00     0.074 A 
ATOM     45  C   UNL A   1      36.963  31.076  28.760  1.00  0.00     0.031 C 
ATOM     46  C   UNL A   1      42.400  30.312  31.441  1.00  0.00     0.029 A 
ATOM     47  C   UNL A   1      43.146  29.487  30.507  1.00  0.00     0.049 A 
ATOM     48  H   UNL A   1      42.363  27.683  29.667  1.00  0.00     0.167 HD
ATOM     49  C   UNL A   1      37.675  33.174  30.135  1.00  0.00     0.037 A 
ATOM     50  C   UNL A   1      44.155  29.957  29.711  1.00  0.00     0.037 A 
ATOM     51  C   UNL A   1      38.979  33.677  30.582  1.00  0.00     0.049 A 
ATOM     52  C   UNL A   1      44.097  31.446  29.447  1.00  0.00     0.074 A 
ATOM     53  C   UNL A   1      39.640  33.648  31.800  1.00  0.00     0.029 A 
ATOM     54  N   UNL A   1      39.930  34.051  29.634  1.00  0.00    -0.354 N 
ATOM     55  N   UNL A   1      43.068  32.199  29.725  1.00  0.00    -0.248 NA
ATOM     56  C   UNL A   1      45.185  32.206  28.836  1.00  0.00     0.031 C 
ATOM     57  C   UNL A   1      41.014  33.915  31.562  1.00  0.00     0.029 A 
ATOM     58  C   UNL A   1      41.185  34.135  30.206  1.00  0.00     0.049 A 
ATOM     59  H   UNL A   1      39.733  34.230  28.685  1.00  0.00     0.167 HD
ATOM     60  C   UNL A   1      43.302  33.481  29.303  1.00  0.00     0.074 A 
ATOM     61  C   UNL A   1      44.657  33.443  28.787  1.00  0.00     0.031 C 
ATOM     62  C   UNL A   1      42.353  34.461  29.396  1.00  0.00     0.037 A 
BRANCH  49  63
ATOM     63  C   UNL A   1      36.340  33.702  30.665  1.00  0.00     0.058 A 
ATOM     64  C   UNL A   1      35.369  34.219  29.775  1.00  0.00     0.135 A 
ATOM     65  C   UNL A   1      35.986  33.833  32.024  1.00  0.00     0.135 A 
ATOM     66  F   UNL A   1      35.493  34.084  28.448  1.00  0.00    -0.206 F 
ATOM     67  C   UNL A   1      34.225  34.908  30.198  1.00  0.00     0.059 A 
ATOM     68  C   UNL A   1      34.871  34.549  32.473  1.00  0.00     0.059 A 
ATOM     69  F   UNL A   1      36.666  33.227  33.000  1.00  0.00    -0.206 F 
ATOM     70  C   UNL A   1      34.002  35.102  31.553  1.00  0.00     0.060 A 
BRANCH  70  71
ATOM     71  S   UNL A   1      32.573  36.055  32.093  1.00  0.00     0.124 S 
ATOM     72  O   UNL A   1      32.222  36.794  30.884  1.00  0.00    -0.237 OA
ATOM     73  O   UNL A   1      31.641  35.008  32.494  1.00  0.00    -0.237 OA
ATOM     74  O   UNL A   1      33.100  36.871  33.185  1.00  0.00    -0.744 OA
ENDBRANCH  70  71
ENDBRANCH  49  63
BRANCH  50  75
ATOM     75  C   UNL A   1      44.680  28.922  28.777  1.00  0.00     0.058 A 
ATOM     76  C   UNL A   1      44.196  28.954  27.455  1.00  0.00     0.135 A 
ATOM     77  C   UNL A   1      45.916  28.300  29.003  1.00  0.00     0.135 A 
ATOM     78  F   UNL A   1      43.005  29.518  27.190  1.00  0.00    -0.206 F 
ATOM     79  C   UNL A   1      44.987  28.570  26.380  1.00  0.00     0.059 A 
ATOM     80  C   UNL A   1      46.724  27.897  27.937  1.00  0.00     0.059 A 
ATOM     81  F   UNL A   1      46.423  28.233  30.243  1.00  0.00    -0.206 F 
ATOM     82  C   UNL A   1      46.280  28.118  26.633  1.00  0.00     0.060 A 
BRANCH  82  83
ATOM     83  S   UNL A   1      47.426  28.045  25.235  1.00  0.00     0.124 S 
ATOM     84  O   UNL A   1      48.649  28.591  25.814  1.00  0.00    -0.237 OA
ATOM     85  O   UNL A   1      47.444  26.610  24.956  1.00  0.00    -0.237 OA
ATOM     86  O   UNL A   1      46.777  28.877  24.228  1.00  0.00    -0.744 OA
ENDBRANCH  82  83
ENDBRANCH  50  75
BRANCH  62  87
ATOM     87  C   UNL A   1      42.462  35.844  28.800  1.00  0.00     0.058 A 
ATOM     88  C   UNL A   1      41.850  36.233  27.596  1.00  0.00     0.135 A 
ATOM     89  C   UNL A   1      43.097  36.880  29.527  1.00  0.00     0.135 A 
ATOM     90  F   UNL A   1      41.130  35.367  26.870  1.00  0.00    -0.206 F 
ATOM     91  C   UNL A   1      41.917  37.542  27.113  1.00  0.00     0.059 A 
ATOM     92  C   UNL A   1      43.127  38.203  29.090  1.00  0.00     0.059 A 
ATOM     93  F   UNL A   1      43.703  36.639  30.700  1.00  0.00    -0.206 F 
ATOM     94  C   UNL A   1      42.558  38.521  27.867  1.00  0.00     0.060 A 
BRANCH  94  95
ATOM     95  S   UNL A   1      42.598  40.227  27.285  1.00  0.00     0.124 S 
ATOM     96  O   UNL A   1      43.358  40.093  26.047  1.00  0.00    -0.237 OA
ATOM     97  O   UNL A   1      41.184  40.552  27.124  1.00  0.00    -0.237 OA
ATOM     98  O   UNL A   1      43.275  40.930  28.371  1.00  0.00    -0.744 OA
ENDBRANCH  94  95
ENDBRANCH  62  87
ENDBRANCH  36  37
ENDBRANCH  28  31
ENDBRANCH  26  27
ENDBRANCH  25  26
ENDBRANCH   1  25
TORSDOF 17
ENDMDL
MODEL 2
REMARK VINA RESULT:     -13.3      4.822     11.313
REMARK SMILES Cc1cccc(NC(=O)C[C@@H]2CCCCO2)c1C(=O)NCCCCNC(=O)c1ccc(-c2c3nc(c(-c4c(F)cc(S(=O)(=O)[O-])cc4F)c4ccc([nH]4)c(-c4c(F)cc(S(=O)(=O)[O-])cc4F)c4nc(c(-c5c(F)cc(S(=O)(=O)[O-])cc5F)c5ccc2[nH]5)C=C4)C=C3)cc1
REMARK SMILES IDX 22 1 21 2 20 3 18 4 19 5 17 7 1 8 2 9 3 10 4 11 6 12 5 13
REMARK SMILES IDX 7 14 8 15 9 17 10 18 11 19 12 20 16 21 13 22 15 23 14 24
REMARK SMILES IDX 23 25 24 26 25 27 26 28 27 30 28 31 29 32 93 33 30 34 92 35
REMARK SMILES IDX 31 36 32 37 33 38 86 39 34 40 91 41 85 42 87 43 35 44 90 45
REMARK SMILES IDX 84 46 83 47 36 49 70 50 49 51 69 52 50 53 53 54 68 55 88 56
REMARK SMILES IDX 51 57 52 58 67 60 89 61 54 62 37 63 38 64 47 65 39 66 40 67
REMARK SMILES IDX 46 68 48 69 41 70 42 71 43 72 44 73 45 74 71 75 72 76 81 77
REMARK SMILES IDX 73 78 74 79 80 80 82 81 75 82 76 83 77 84 78 85 79 86 55 87
REMARK SMILES IDX 56 88 65 89 57 90 58 91 64 92 66 93 59 94 60 95 61 96 62 97
REMARK SMILES IDX 63 98
REMARK H PARENT 20 6 7 16 25 29 87 48 53 59
REMARK Flexibility Score: inf
ROOT
ATOM      1  C   UNL A   1      33.461  27.940  26.492  1.00  0.00     0.023 C 
ENDROOT
BRANCH   1   2
ATOM      2  C   UNL A   1      31.925  27.924  26.615  1.00  0.00     0.116 C 
BRANCH   2   3
ATOM      3  N   UNL A   1      31.457  26.599  27.000  1.00  0.00    -0.352 N 
ATOM      4  C   UNL A   1      31.520  25.357  26.421  1.00  0.00     0.253 C 
ATOM      5  O   UNL A   1      31.016  24.432  27.064  1.00  0.00    -0.269 OA
ATOM      6  H   UNL A   1      30.991  26.595  27.868  1.00  0.00     0.163 HD
BRANCH   4   7
ATOM      7  C   UNL A   1      32.267  25.059  25.155  1.00  0.00     0.066 A 
ATOM      8  C   UNL A   1      30.238  25.093  23.591  1.00  0.00     0.045 C 
ATOM      9  C   UNL A   1      31.713  25.145  23.862  1.00  0.00    -0.036 A 
ATOM     10  C   UNL A   1      32.554  25.084  22.734  1.00  0.00     0.004 A 
ATOM     11  C   UNL A   1      33.910  24.822  22.874  1.00  0.00     0.002 A 
ATOM     12  C   UNL A   1      33.575  24.514  25.255  1.00  0.00     0.054 A 
ATOM     13  C   UNL A   1      34.412  24.502  24.131  1.00  0.00     0.027 A 
BRANCH  12  14
ATOM     14  N   UNL A   1      33.977  23.861  26.448  1.00  0.00    -0.325 N 
ATOM     15  C   UNL A   1      33.811  22.551  26.830  1.00  0.00     0.227 C 
ATOM     16  H   UNL A   1      34.446  24.432  27.100  1.00  0.00     0.169 HD
ATOM     17  O   UNL A   1      34.198  22.198  27.950  1.00  0.00    -0.275 OA
BRANCH  15  18
ATOM     18  C   UNL A   1      33.120  21.537  25.932  1.00  0.00     0.132 C 
BRANCH  18  19
ATOM     19  C   UNL A   1      34.003  20.994  24.793  1.00  0.00     0.127 C 
ATOM     20  C   UNL A   1      33.331  21.195  23.423  1.00  0.00     0.033 C 
ATOM     21  O   UNL A   1      34.379  19.619  24.913  1.00  0.00    -0.378 OA
ATOM     22  C   UNL A   1      32.135  20.261  23.232  1.00  0.00     0.005 C 
ATOM     23  C   UNL A   1      33.321  18.680  24.791  1.00  0.00     0.160 C 
ATOM     24  C   UNL A   1      32.538  18.816  23.496  1.00  0.00     0.029 C 
ENDBRANCH  18  19
ENDBRANCH  15  18
ENDBRANCH  12  14
ENDBRANCH   4   7
ENDBRANCH   2   3
ENDBRANCH   1   2
BRANCH   1  25
ATOM     25  C   UNL A   1      34.079  29.339  26.454  1.00  0.00     0.023 C 
BRANCH  25  26
ATOM     26  C   UNL A   1      34.311  29.891  27.849  1.00  0.00     0.116 C 
BRANCH  26  27
ATOM     27  N   UNL A   1      35.183  31.055  27.904  1.00  0.00    -0.352 N 
ATOM     28  C   UNL A   1      36.490  31.106  28.356  1.00  0.00     0.251 C 
ATOM     29  H   UNL A   1      34.800  31.902  27.583  1.00  0.00     0.163 HD
ATOM     30  O   UNL A   1      37.044  32.165  28.628  1.00  0.00    -0.269 OA
BRANCH  28  31
ATOM     31  C   UNL A   1      37.243  29.832  28.382  1.00  0.00     0.039 A 
ATOM     32  C   UNL A   1      37.340  29.177  29.615  1.00  0.00     0.014 A 
ATOM     33  C   UNL A   1      38.094  29.512  27.329  1.00  0.00     0.014 A 
ATOM     34  C   UNL A   1      38.433  28.350  29.863  1.00  0.00     0.010 A 
ATOM     35  C   UNL A   1      39.234  28.790  27.616  1.00  0.00     0.010 A 
ATOM     36  C   UNL A   1      39.429  28.248  28.897  1.00  0.00    -0.014 A 
BRANCH  36  37
ATOM     37  C   UNL A   1      40.749  27.671  29.138  1.00  0.00     0.031 A 
ATOM     38  C   UNL A   1      41.015  26.266  28.749  1.00  0.00     0.074 A 
ATOM     39  C   UNL A   1      41.759  28.449  29.586  1.00  0.00     0.049 A 
ATOM     40  N   UNL A   1      42.044  25.578  29.111  1.00  0.00    -0.248 NA
ATOM     41  C   UNL A   1      40.073  25.494  27.950  1.00  0.00     0.031 C 
ATOM     42  C   UNL A   1      43.189  28.169  29.499  1.00  0.00     0.029 A 
ATOM     43  N   UNL A   1      41.684  29.586  30.386  1.00  0.00    -0.354 N 
ATOM     44  C   UNL A   1      42.060  24.413  28.373  1.00  0.00     0.074 A 
ATOM     45  C   UNL A   1      40.765  24.373  27.744  1.00  0.00     0.031 C 
ATOM     46  C   UNL A   1      43.843  28.946  30.375  1.00  0.00     0.029 A 
ATOM     47  C   UNL A   1      42.845  29.635  31.175  1.00  0.00     0.049 A 
ATOM     48  H   UNL A   1      40.946  30.239  30.398  1.00  0.00     0.167 HD
ATOM     49  C   UNL A   1      43.227  23.706  28.284  1.00  0.00     0.037 A 
ATOM     50  C   UNL A   1      42.771  29.555  32.539  1.00  0.00     0.037 A 
ATOM     51  C   UNL A   1      44.210  24.220  29.244  1.00  0.00     0.049 A 
ATOM     52  C   UNL A   1      43.412  28.314  33.124  1.00  0.00     0.074 A 
ATOM     53  C   UNL A   1      45.310  25.054  29.122  1.00  0.00     0.029 A 
ATOM     54  N   UNL A   1      43.948  24.122  30.610  1.00  0.00    -0.354 N 
ATOM     55  N   UNL A   1      43.787  27.282  32.419  1.00  0.00    -0.248 NA
ATOM     56  C   UNL A   1      43.671  28.128  34.550  1.00  0.00     0.031 C 
ATOM     57  C   UNL A   1      45.647  25.532  30.416  1.00  0.00     0.029 A 
ATOM     58  C   UNL A   1      44.774  24.967  31.328  1.00  0.00     0.049 A 
ATOM     59  H   UNL A   1      43.267  23.532  31.008  1.00  0.00     0.167 HD
ATOM     60  C   UNL A   1      44.264  26.301  33.247  1.00  0.00     0.074 A 
ATOM     61  C   UNL A   1      44.206  26.894  34.570  1.00  0.00     0.031 C 
ATOM     62  C   UNL A   1      44.649  25.076  32.777  1.00  0.00     0.037 A 
BRANCH  49  63
ATOM     63  C   UNL A   1      43.585  22.764  27.133  1.00  0.00     0.058 A 
ATOM     64  C   UNL A   1      42.893  21.540  26.966  1.00  0.00     0.135 A 
ATOM     65  C   UNL A   1      44.651  22.937  26.226  1.00  0.00     0.135 A 
ATOM     66  F   UNL A   1      41.789  21.258  27.671  1.00  0.00    -0.206 F 
ATOM     67  C   UNL A   1      43.301  20.539  26.074  1.00  0.00     0.059 A 
ATOM     68  C   UNL A   1      45.102  21.939  25.354  1.00  0.00     0.059 A 
ATOM     69  F   UNL A   1      45.287  24.102  26.087  1.00  0.00    -0.206 F 
ATOM     70  C   UNL A   1      44.433  20.732  25.297  1.00  0.00     0.060 A 
BRANCH  70  71
ATOM     71  S   UNL A   1      45.003  19.415  24.209  1.00  0.00     0.124 S 
ATOM     72  O   UNL A   1      46.453  19.547  24.302  1.00  0.00    -0.237 OA
ATOM     73  O   UNL A   1      44.428  18.230  24.837  1.00  0.00    -0.237 OA
ATOM     74  O   UNL A   1      44.430  19.772  22.913  1.00  0.00    -0.744 OA
ENDBRANCH  70  71
ENDBRANCH  49  63
BRANCH  50  75
ATOM     75  C   UNL A   1      41.594  30.276  33.095  1.00  0.00     0.058 A 
ATOM     76  C   UNL A   1      41.699  31.677  33.202  1.00  0.00     0.135 A 
ATOM     77  C   UNL A   1      40.307  29.722  33.036  1.00  0.00     0.135 A 
ATOM     78  F   UNL A   1      42.908  32.255  33.287  1.00  0.00    -0.206 F 
ATOM     79  C   UNL A   1      40.592  32.503  33.054  1.00  0.00     0.059 A 
ATOM     80  C   UNL A   1      39.180  30.535  32.895  1.00  0.00     0.059 A 
ATOM     81  F   UNL A   1      40.146  28.394  32.941  1.00  0.00    -0.206 F 
ATOM     82  C   UNL A   1      39.350  31.918  32.820  1.00  0.00     0.060 A 
BRANCH  82  83
ATOM     83  S   UNL A   1      38.028  32.986  32.199  1.00  0.00     0.124 S 
ATOM     84  O   UNL A   1      37.787  33.867  33.338  1.00  0.00    -0.237 OA
ATOM     85  O   UNL A   1      38.681  33.606  31.047  1.00  0.00    -0.237 OA
ATOM     86  O   UNL A   1      36.958  32.046  31.890  1.00  0.00    -0.744 OA
ENDBRANCH  82  83
ENDBRANCH  50  75
BRANCH  62  87
ATOM     87  C   UNL A   1      45.017  23.887  33.632  1.00  0.00     0.058 A 
ATOM     88  C   UNL A   1      44.103  22.902  34.045  1.00  0.00     0.135 A 
ATOM     89  C   UNL A   1      46.374  23.635  33.947  1.00  0.00     0.135 A 
ATOM     90  F   UNL A   1      42.806  22.974  33.716  1.00  0.00    -0.206 F 
ATOM     91  C   UNL A   1      44.496  21.779  34.777  1.00  0.00     0.059 A 
ATOM     92  C   UNL A   1      46.793  22.494  34.628  1.00  0.00     0.059 A 
ATOM     93  F   UNL A   1      47.343  24.492  33.592  1.00  0.00    -0.206 F 
ATOM     94  C   UNL A   1      45.843  21.583  35.064  1.00  0.00     0.060 A 
BRANCH  94  95
ATOM     95  S   UNL A   1      46.372  20.107  35.954  1.00  0.00     0.124 S 
ATOM     96  O   UNL A   1      45.643  20.249  37.210  1.00  0.00    -0.237 OA
ATOM     97  O   UNL A   1      45.923  19.022  35.086  1.00  0.00    -0.237 OA
ATOM     98  O   UNL A   1      47.820  20.273  36.039  1.00  0.00    -0.744 OA
ENDBRANCH  94  95
ENDBRANCH  62  87
ENDBRANCH  36  37
ENDBRANCH  28  31
ENDBRANCH  26  27
ENDBRANCH  25  26
ENDBRANCH   1  25
TORSDOF 17
ENDMDL
MODEL 3
REMARK VINA RESULT:     -13.0      4.903     11.363
REMARK SMILES Cc1cccc(NC(=O)C[C@@H]2CCCCO2)c1C(=O)NCCCCNC(=O)c1ccc(-c2c3nc(c(-c4c(F)cc(S(=O)(=O)[O-])cc4F)c4ccc([nH]4)c(-c4c(F)cc(S(=O)(=O)[O-])cc4F)c4nc(c(-c5c(F)cc(S(=O)(=O)[O-])cc5F)c5ccc2[nH]5)C=C4)C=C3)cc1
REMARK SMILES IDX 22 1 21 2 20 3 18 4 19 5 17 7 1 8 2 9 3 10 4 11 6 12 5 13
REMARK SMILES IDX 7 14 8 15 9 17 10 18 11 19 12 20 16 21 13 22 15 23 14 24
REMARK SMILES IDX 23 25 24 26 25 27 26 28 27 30 28 31 29 32 93 33 30 34 92 35
REMARK SMILES IDX 31 36 32 37 33 38 86 39 34 40 91 41 85 42 87 43 35 44 90 45
REMARK SMILES IDX 84 46 83 47 36 49 70 50 49 51 69 52 50 53 53 54 68 55 88 56
REMARK SMILES IDX 51 57 52 58 67 60 89 61 54 62 37 63 38 64 47 65 39 66 40 67
REMARK SMILES IDX 46 68 48 69 41 70 42 71 43 72 44 73 45 74 71 75 72 76 81 77
REMARK SMILES IDX 73 78 74 79 80 80 82 81 75 82 76 83 77 84 78 85 79 86 55 87
REMARK SMILES IDX 56 88 65 89 57 90 58 91 64 92 66 93 59 94 60 95 61 96 62 97
REMARK SMILES IDX 63 98
REMARK H PARENT 20 6 7 16 25 29 87 48 53 59
REMARK Flexibility Score: inf
ROOT
ATOM      1  C   UNL A   1      33.252  28.250  25.644  1.00  0.00     0.023 C 
ENDROOT
BRANCH   1   2
ATOM      2  C   UNL A   1      33.759  26.837  25.993  1.00  0.00     0.116 C 
BRANCH   2   3
ATOM      3  N   UNL A   1      34.022  26.073  24.781  1.00  0.00    -0.352 N 
ATOM      4  C   UNL A   1      34.227  24.744  24.513  1.00  0.00     0.253 C 
ATOM      5  O   UNL A   1      34.407  24.450  23.329  1.00  0.00    -0.269 OA
ATOM      6  H   UNL A   1      34.063  26.638  23.974  1.00  0.00     0.163 HD
BRANCH   4   7
ATOM      7  C   UNL A   1      34.109  23.654  25.538  1.00  0.00     0.066 A 
ATOM      8  C   UNL A   1      36.592  23.558  26.165  1.00  0.00     0.045 C 
ATOM      9  C   UNL A   1      35.141  23.271  26.418  1.00  0.00    -0.036 A 
ATOM     10  C   UNL A   1      34.858  22.414  27.499  1.00  0.00     0.004 A 
ATOM     11  C   UNL A   1      33.599  21.844  27.641  1.00  0.00     0.002 A 
ATOM     12  C   UNL A   1      32.939  22.849  25.536  1.00  0.00     0.054 A 
ATOM     13  C   UNL A   1      32.653  22.035  26.640  1.00  0.00     0.027 A 
BRANCH  12  14
ATOM     14  N   UNL A   1      32.142  22.767  24.366  1.00  0.00    -0.325 N 
ATOM     15  C   UNL A   1      32.131  21.812  23.377  1.00  0.00     0.227 C 
ATOM     16  H   UNL A   1      31.500  23.504  24.245  1.00  0.00     0.169 HD
ATOM     17  O   UNL A   1      31.382  21.962  22.405  1.00  0.00    -0.275 OA
BRANCH  15  18
ATOM     18  C   UNL A   1      33.052  20.603  23.422  1.00  0.00     0.132 C 
BRANCH  18  19
ATOM     19  C   UNL A   1      32.473  19.395  24.182  1.00  0.00     0.127 C 
ATOM     20  C   UNL A   1      33.528  18.760  25.105  1.00  0.00     0.033 C 
ATOM     21  O   UNL A   1      31.914  18.365  23.361  1.00  0.00    -0.378 OA
ATOM     22  C   UNL A   1      34.606  18.019  24.313  1.00  0.00     0.005 C 
ATOM     23  C   UNL A   1      32.842  17.651  22.556  1.00  0.00     0.160 C 
ATOM     24  C   UNL A   1      33.974  17.022  23.351  1.00  0.00     0.029 C 
ENDBRANCH  18  19
ENDBRANCH  15  18
ENDBRANCH  12  14
ENDBRANCH   4   7
ENDBRANCH   2   3
ENDBRANCH   1   2
BRANCH   1  25
ATOM     25  C   UNL A   1      34.284  29.361  25.850  1.00  0.00     0.023 C 
BRANCH  25  26
ATOM     26  C   UNL A   1      34.315  29.842  27.289  1.00  0.00     0.116 C 
BRANCH  26  27
ATOM     27  N   UNL A   1      35.125  31.030  27.515  1.00  0.00    -0.352 N 
ATOM     28  C   UNL A   1      36.401  31.089  28.048  1.00  0.00     0.251 C 
ATOM     29  H   UNL A   1      34.720  31.889  27.259  1.00  0.00     0.163 HD
ATOM     30  O   UNL A   1      36.887  32.137  28.458  1.00  0.00    -0.269 OA
BRANCH  28  31
ATOM     31  C   UNL A   1      37.212  29.853  27.989  1.00  0.00     0.039 A 
ATOM     32  C   UNL A   1      37.218  29.042  29.131  1.00  0.00     0.014 A 
ATOM     33  C   UNL A   1      38.181  29.710  27.002  1.00  0.00     0.014 A 
ATOM     34  C   UNL A   1      38.320  28.232  29.386  1.00  0.00     0.010 A 
ATOM     35  C   UNL A   1      39.322  28.999  27.314  1.00  0.00     0.010 A 
ATOM     36  C   UNL A   1      39.414  28.298  28.528  1.00  0.00    -0.014 A 
BRANCH  36  37
ATOM     37  C   UNL A   1      40.731  27.745  28.833  1.00  0.00     0.031 A 
ATOM     38  C   UNL A   1      41.030  26.335  28.486  1.00  0.00     0.074 A 
ATOM     39  C   UNL A   1      41.712  28.546  29.302  1.00  0.00     0.049 A 
ATOM     40  N   UNL A   1      42.052  25.669  28.903  1.00  0.00    -0.248 NA
ATOM     41  C   UNL A   1      40.130  25.533  27.668  1.00  0.00     0.031 C 
ATOM     42  C   UNL A   1      43.148  28.284  29.277  1.00  0.00     0.029 A 
ATOM     43  N   UNL A   1      41.592  29.698  30.074  1.00  0.00    -0.354 N 
ATOM     44  C   UNL A   1      42.112  24.489  28.192  1.00  0.00     0.074 A 
ATOM     45  C   UNL A   1      40.843  24.417  27.514  1.00  0.00     0.031 C 
ATOM     46  C   UNL A   1      43.757  29.088  30.161  1.00  0.00     0.029 A 
ATOM     47  C   UNL A   1      42.720  29.781  30.906  1.00  0.00     0.049 A 
ATOM     48  H   UNL A   1      40.846  30.341  30.042  1.00  0.00     0.167 HD
ATOM     49  C   UNL A   1      43.290  23.796  28.164  1.00  0.00     0.037 A 
ATOM     50  C   UNL A   1      42.594  29.729  32.267  1.00  0.00     0.037 A 
ATOM     51  C   UNL A   1      44.229  24.343  29.151  1.00  0.00     0.049 A 
ATOM     52  C   UNL A   1      43.227  28.510  32.904  1.00  0.00     0.074 A 
ATOM     53  C   UNL A   1      45.321  25.190  29.052  1.00  0.00     0.029 A 
ATOM     54  N   UNL A   1      43.914  24.272  30.507  1.00  0.00    -0.354 N 
ATOM     55  N   UNL A   1      43.642  27.468  32.237  1.00  0.00    -0.248 NA
ATOM     56  C   UNL A   1      43.431  28.359  34.343  1.00  0.00     0.031 C 
ATOM     57  C   UNL A   1      45.601  25.700  30.347  1.00  0.00     0.029 A 
ATOM     58  C   UNL A   1      44.701  25.143  31.238  1.00  0.00     0.049 A 
ATOM     59  H   UNL A   1      43.226  23.681  30.891  1.00  0.00     0.167 HD
ATOM     60  C   UNL A   1      44.098  26.512  33.105  1.00  0.00     0.074 A 
ATOM     61  C   UNL A   1      43.981  27.133  34.411  1.00  0.00     0.031 C 
ATOM     62  C   UNL A   1      44.517  25.282  32.678  1.00  0.00     0.037 A 
BRANCH  49  63
ATOM     63  C   UNL A   1      43.705  22.834  27.049  1.00  0.00     0.058 A 
ATOM     64  C   UNL A   1      42.994  21.628  26.840  1.00  0.00     0.135 A 
ATOM     65  C   UNL A   1      44.839  22.969  26.222  1.00  0.00     0.135 A 
ATOM     66  F   UNL A   1      41.833  21.383  27.464  1.00  0.00    -0.206 F 
ATOM     67  C   UNL A   1      43.438  20.608  25.989  1.00  0.00     0.059 A 
ATOM     68  C   UNL A   1      45.325  21.952  25.393  1.00  0.00     0.059 A 
ATOM     69  F   UNL A   1      45.516  24.115  26.121  1.00  0.00    -0.206 F 
ATOM     70  C   UNL A   1      44.629  20.763  25.295  1.00  0.00     0.060 A 
BRANCH  70  71
ATOM     71  S   UNL A   1      45.239  19.421  24.261  1.00  0.00     0.124 S 
ATOM     72  O   UNL A   1      44.819  18.241  25.012  1.00  0.00    -0.237 OA
ATOM     73  O   UNL A   1      44.539  19.660  23.004  1.00  0.00    -0.237 OA
ATOM     74  O   UNL A   1      46.682  19.649  24.223  1.00  0.00    -0.744 OA
ENDBRANCH  70  71
ENDBRANCH  49  63
BRANCH  50  75
ATOM     75  C   UNL A   1      41.387  30.446  32.761  1.00  0.00     0.058 A 
ATOM     76  C   UNL A   1      40.251  29.662  33.043  1.00  0.00     0.135 A 
ATOM     77  C   UNL A   1      41.490  31.693  33.395  1.00  0.00     0.135 A 
ATOM     78  F   UNL A   1      40.092  28.471  32.442  1.00  0.00    -0.206 F 
ATOM     79  C   UNL A   1      39.363  30.003  34.055  1.00  0.00     0.059 A 
ATOM     80  C   UNL A   1      40.604  32.060  34.410  1.00  0.00     0.059 A 
ATOM     81  F   UNL A   1      42.546  32.486  33.159  1.00  0.00    -0.206 F 
ATOM     82  C   UNL A   1      39.599  31.167  34.784  1.00  0.00     0.060 A 
BRANCH  82  83
ATOM     83  S   UNL A   1      38.714  31.363  36.350  1.00  0.00     0.124 S 
ATOM     84  O   UNL A   1      37.555  32.154  35.949  1.00  0.00    -0.237 OA
ATOM     85  O   UNL A   1      38.440  29.969  36.697  1.00  0.00    -0.237 OA
ATOM     86  O   UNL A   1      39.684  32.047  37.197  1.00  0.00    -0.744 OA
ENDBRANCH  82  83
ENDBRANCH  50  75
BRANCH  62  87
ATOM     87  C   UNL A   1      44.866  24.117  33.572  1.00  0.00     0.058 A 
ATOM     88  C   UNL A   1      43.959  23.110  33.944  1.00  0.00     0.135 A 
ATOM     89  C   UNL A   1      46.208  23.911  33.975  1.00  0.00     0.135 A 
ATOM     90  F   UNL A   1      42.683  23.138  33.534  1.00  0.00    -0.206 F 
ATOM     91  C   UNL A   1      44.338  22.010  34.716  1.00  0.00     0.059 A 
ATOM     92  C   UNL A   1      46.618  22.793  34.699  1.00  0.00     0.059 A 
ATOM     93  F   UNL A   1      47.171  24.792  33.667  1.00  0.00    -0.206 F 
ATOM     94  C   UNL A   1      45.670  21.860  35.090  1.00  0.00     0.060 A 
BRANCH  94  95
ATOM     95  S   UNL A   1      46.186  20.413  36.034  1.00  0.00     0.124 S 
ATOM     96  O   UNL A   1      45.741  20.770  37.377  1.00  0.00    -0.237 OA
ATOM     97  O   UNL A   1      45.450  19.326  35.396  1.00  0.00    -0.237 OA
ATOM     98  O   UNL A   1      47.631  20.384  35.832  1.00  0.00    -0.744 OA
ENDBRANCH  94  95
ENDBRANCH  62  87
ENDBRANCH  36  37
ENDBRANCH  28  31
ENDBRANCH  26  27
ENDBRANCH  25  26
ENDBRANCH   1  25
TORSDOF 17
ENDMDL
