MODEL 1
REMARK VINA RESULT:     -10.6      0.000      0.000
REMARK SMILES CC[C@](C)([NH2+]C[C@H]1Cc2ccccc2S1)C(=O)NCCCCNC(=O)c1ccc(-c2c3nc(c(-c4c(F)cc(S(=O)(=O)[O-])cc4F)c4ccc([nH]4)c(-c4c(F)cc(S(=O)(=O)[O-])cc4F)c4nc(c(-c5c(F)cc(S(=O)(=O)[O-])cc5F)c5ccc2[nH]5)C=C4)C=C3)cc1
REMARK SMILES IDX 20 1 19 2 18 3 16 4 17 5 3 7 4 8 2 9 1 10 5 11 6 14 7 15
REMARK SMILES IDX 8 16 15 17 9 18 14 19 10 20 13 21 11 22 12 23 21 24 22 25
REMARK SMILES IDX 23 26 24 27 25 29 26 30 27 31 91 32 28 33 90 34 29 35 30 36
REMARK SMILES IDX 31 37 84 38 32 39 89 40 83 41 85 42 33 43 88 44 82 45 81 46
REMARK SMILES IDX 34 48 68 49 47 50 67 51 48 52 51 53 66 54 86 55 49 56 50 57
REMARK SMILES IDX 65 59 87 60 52 61 35 62 36 63 45 64 37 65 38 66 44 67 46 68
REMARK SMILES IDX 39 69 40 70 41 71 42 72 43 73 69 74 70 75 79 76 71 77 72 78
REMARK SMILES IDX 78 79 80 80 73 81 74 82 75 83 76 84 77 85 53 86 54 87 63 88
REMARK SMILES IDX 55 89 56 90 62 91 64 92 57 93 58 94 59 95 60 96 61 97
REMARK H PARENT 18 6 5 12 5 13 23 28 85 47 51 58
REMARK Flexibility Score: inf
ROOT
ATOM      1  C   UNL A   1      32.000  30.161  25.769  1.00  0.00     0.023 C 
ENDROOT
BRANCH   1   2
ATOM      2  C   UNL A   1      31.351  29.323  24.652  1.00  0.00     0.116 C 
BRANCH   2   3
ATOM      3  N   UNL A   1      32.289  29.149  23.562  1.00  0.00    -0.351 N 
ATOM      4  C   UNL A   1      33.147  28.184  23.154  1.00  0.00     0.281 C 
ATOM      5  O   UNL A   1      33.886  28.598  22.240  1.00  0.00    -0.268 OA
ATOM      6  H   UNL A   1      32.307  29.932  22.966  1.00  0.00     0.163 HD
BRANCH   4   7
ATOM      7  C   UNL A   1      33.187  26.654  23.551  1.00  0.00     0.172 C 
ATOM      8  C   UNL A   1      31.669  26.228  23.454  1.00  0.00     0.090 C 
BRANCH   7   9
ATOM      9  C   UNL A   1      33.550  26.398  25.042  1.00  0.00     0.075 C 
ATOM     10  C   UNL A   1      32.463  25.861  25.954  1.00  0.00     0.011 C 
ENDBRANCH   7   9
BRANCH   7  11
ATOM     11  N   UNL A   1      33.739  25.638  22.602  1.00  0.00    -0.333 N 
ATOM     12  H   UNL A   1      34.573  25.268  23.060  1.00  0.00     0.347 HD
ATOM     13  H   UNL A   1      33.786  26.198  21.751  1.00  0.00     0.347 HD
BRANCH  11  14
ATOM     14  C   UNL A   1      33.033  24.479  22.099  1.00  0.00     0.276 C 
BRANCH  14  15
ATOM     15  C   UNL A   1      33.503  23.028  22.405  1.00  0.00     0.111 C 
ATOM     16  C   UNL A   1      34.770  23.020  23.306  1.00  0.00     0.057 C 
ATOM     17  S   UNL A   1      32.298  21.977  23.284  1.00  0.00    -0.116 SA
ATOM     18  C   UNL A   1      34.311  22.849  24.729  1.00  0.00    -0.033 A 
ATOM     19  C   UNL A   1      33.033  22.304  24.854  1.00  0.00     0.011 A 
ATOM     20  C   UNL A   1      35.056  23.132  25.869  1.00  0.00     0.005 A 
ATOM     21  C   UNL A   1      32.456  22.090  26.098  1.00  0.00     0.015 A 
ATOM     22  C   UNL A   1      34.480  22.932  27.128  1.00  0.00     0.000 A 
ATOM     23  C   UNL A   1      33.182  22.423  27.243  1.00  0.00     0.001 A 
ENDBRANCH  14  15
ENDBRANCH  11  14
ENDBRANCH   7  11
ENDBRANCH   4   7
ENDBRANCH   2   3
ENDBRANCH   1   2
BRANCH   1  24
ATOM     24  C   UNL A   1      32.575  29.359  26.932  1.00  0.00     0.023 C 
BRANCH  24  25
ATOM     25  C   UNL A   1      34.002  29.745  27.300  1.00  0.00     0.116 C 
BRANCH  25  26
ATOM     26  N   UNL A   1      34.097  30.783  28.323  1.00  0.00    -0.352 N 
ATOM     27  C   UNL A   1      35.176  31.093  29.122  1.00  0.00     0.251 C 
ATOM     28  H   UNL A   1      33.289  31.328  28.459  1.00  0.00     0.163 HD
ATOM     29  O   UNL A   1      35.117  32.012  29.932  1.00  0.00    -0.269 OA
BRANCH  27  30
ATOM     30  C   UNL A   1      36.373  30.236  29.033  1.00  0.00     0.039 A 
ATOM     31  C   UNL A   1      36.842  29.575  30.169  1.00  0.00     0.014 A 
ATOM     32  C   UNL A   1      37.128  30.268  27.859  1.00  0.00     0.014 A 
ATOM     33  C   UNL A   1      38.165  29.161  30.204  1.00  0.00     0.010 A 
ATOM     34  C   UNL A   1      38.427  29.761  27.870  1.00  0.00     0.010 A 
ATOM     35  C   UNL A   1      38.982  29.286  29.068  1.00  0.00    -0.014 A 
BRANCH  35  36
ATOM     36  C   UNL A   1      40.435  29.001  29.183  1.00  0.00     0.031 A 
ATOM     37  C   UNL A   1      40.989  27.671  28.732  1.00  0.00     0.074 A 
ATOM     38  C   UNL A   1      41.266  29.971  29.604  1.00  0.00     0.049 A 
ATOM     39  N   UNL A   1      42.224  27.243  28.758  1.00  0.00    -0.248 NA
ATOM     40  C   UNL A   1      40.031  26.696  28.184  1.00  0.00     0.031 C 
ATOM     41  C   UNL A   1      40.850  31.310  30.023  1.00  0.00     0.029 A 
ATOM     42  N   UNL A   1      42.631  29.997  29.708  1.00  0.00    -0.354 N 
ATOM     43  C   UNL A   1      42.189  25.942  28.266  1.00  0.00     0.074 A 
ATOM     44  C   UNL A   1      40.807  25.644  27.963  1.00  0.00     0.031 C 
ATOM     45  C   UNL A   1      41.940  32.049  30.272  1.00  0.00     0.029 A 
ATOM     46  C   UNL A   1      43.126  31.217  30.099  1.00  0.00     0.049 A 
ATOM     47  H   UNL A   1      43.202  29.217  29.523  1.00  0.00     0.167 HD
ATOM     48  C   UNL A   1      43.217  25.079  28.079  1.00  0.00     0.037 A 
ATOM     49  C   UNL A   1      44.393  31.620  30.305  1.00  0.00     0.037 A 
ATOM     50  C   UNL A   1      44.596  25.395  28.346  1.00  0.00     0.049 A 
ATOM     51  C   UNL A   1      45.512  30.641  30.118  1.00  0.00     0.074 A 
ATOM     52  C   UNL A   1      45.711  24.592  28.186  1.00  0.00     0.029 A 
ATOM     53  N   UNL A   1      45.049  26.620  28.816  1.00  0.00    -0.354 N 
ATOM     54  N   UNL A   1      45.453  29.397  29.707  1.00  0.00    -0.248 NA
ATOM     55  C   UNL A   1      46.863  31.109  30.447  1.00  0.00     0.031 C 
ATOM     56  C   UNL A   1      46.837  25.323  28.587  1.00  0.00     0.029 A 
ATOM     57  C   UNL A   1      46.425  26.591  28.964  1.00  0.00     0.049 A 
ATOM     58  H   UNL A   1      44.475  27.395  29.014  1.00  0.00     0.167 HD
ATOM     59  C   UNL A   1      46.760  28.928  29.736  1.00  0.00     0.074 A 
ATOM     60  C   UNL A   1      47.590  30.030  30.182  1.00  0.00     0.031 C 
ATOM     61  C   UNL A   1      47.229  27.693  29.429  1.00  0.00     0.037 A 
BRANCH  48  62
ATOM     62  C   UNL A   1      42.882  23.700  27.582  1.00  0.00     0.058 A 
ATOM     63  C   UNL A   1      42.836  23.398  26.211  1.00  0.00     0.135 A 
ATOM     64  C   UNL A   1      42.617  22.662  28.489  1.00  0.00     0.135 A 
ATOM     65  F   UNL A   1      43.062  24.359  25.300  1.00  0.00    -0.206 F 
ATOM     66  C   UNL A   1      42.510  22.124  25.758  1.00  0.00     0.059 A 
ATOM     67  C   UNL A   1      42.310  21.375  28.059  1.00  0.00     0.059 A 
ATOM     68  F   UNL A   1      42.647  22.897  29.811  1.00  0.00    -0.206 F 
ATOM     69  C   UNL A   1      42.242  21.120  26.690  1.00  0.00     0.060 A 
BRANCH  69  70
ATOM     70  S   UNL A   1      41.799  19.474  26.090  1.00  0.00     0.124 S 
ATOM     71  O   UNL A   1      42.106  18.650  27.255  1.00  0.00    -0.237 OA
ATOM     72  O   UNL A   1      40.382  19.624  25.778  1.00  0.00    -0.237 OA
ATOM     73  O   UNL A   1      42.675  19.285  24.939  1.00  0.00    -0.744 OA
ENDBRANCH  69  70
ENDBRANCH  48  62
BRANCH  49  74
ATOM     74  C   UNL A   1      44.644  33.025  30.709  1.00  0.00     0.058 A 
ATOM     75  C   UNL A   1      44.864  34.018  29.745  1.00  0.00     0.135 A 
ATOM     76  C   UNL A   1      44.567  33.418  32.055  1.00  0.00     0.135 A 
ATOM     77  F   UNL A   1      44.950  33.686  28.447  1.00  0.00    -0.206 F 
ATOM     78  C   UNL A   1      44.976  35.358  30.097  1.00  0.00     0.059 A 
ATOM     79  C   UNL A   1      44.656  34.754  32.429  1.00  0.00     0.059 A 
ATOM     80  F   UNL A   1      44.341  32.503  33.009  1.00  0.00    -0.206 F 
ATOM     81  C   UNL A   1      44.855  35.717  31.442  1.00  0.00     0.060 A 
BRANCH  81  82
ATOM     82  S   UNL A   1      44.876  37.471  31.876  1.00  0.00     0.124 S 
ATOM     83  O   UNL A   1      44.928  38.098  30.561  1.00  0.00    -0.237 OA
ATOM     84  O   UNL A   1      43.622  37.622  32.607  1.00  0.00    -0.237 OA
ATOM     85  O   UNL A   1      46.083  37.599  32.687  1.00  0.00    -0.744 OA
ENDBRANCH  81  82
ENDBRANCH  49  74
BRANCH  61  86
ATOM     86  C   UNL A   1      48.703  27.467  29.579  1.00  0.00     0.058 A 
ATOM     87  C   UNL A   1      49.590  27.739  28.525  1.00  0.00     0.135 A 
ATOM     88  C   UNL A   1      49.241  27.022  30.796  1.00  0.00     0.135 A 
ATOM     89  F   UNL A   1      49.120  28.159  27.340  1.00  0.00    -0.206 F 
ATOM     90  C   UNL A   1      50.961  27.565  28.670  1.00  0.00     0.059 A 
ATOM     91  C   UNL A   1      50.612  26.858  30.969  1.00  0.00     0.059 A 
ATOM     92  F   UNL A   1      48.432  26.755  31.834  1.00  0.00    -0.206 F 
ATOM     93  C   UNL A   1      51.462  27.124  29.896  1.00  0.00     0.060 A 
BRANCH  93  94
ATOM     94  S   UNL A   1      53.248  26.936  30.082  1.00  0.00     0.124 S 
ATOM     95  O   UNL A   1      53.330  25.948  31.152  1.00  0.00    -0.237 OA
ATOM     96  O   UNL A   1      53.655  26.472  28.759  1.00  0.00    -0.237 OA
ATOM     97  O   UNL A   1      53.696  28.281  30.432  1.00  0.00    -0.744 OA
ENDBRANCH  93  94
ENDBRANCH  61  86
ENDBRANCH  35  36
ENDBRANCH  27  30
ENDBRANCH  25  26
ENDBRANCH  24  25
ENDBRANCH   1  24
TORSDOF 18
ENDMDL
MODEL 2
REMARK VINA RESULT:     -10.6      5.286     10.394
REMARK SMILES CC[C@](C)([NH2+]C[C@H]1Cc2ccccc2S1)C(=O)NCCCCNC(=O)c1ccc(-c2c3nc(c(-c4c(F)cc(S(=O)(=O)[O-])cc4F)c4ccc([nH]4)c(-c4c(F)cc(S(=O)(=O)[O-])cc4F)c4nc(c(-c5c(F)cc(S(=O)(=O)[O-])cc5F)c5ccc2[nH]5)C=C4)C=C3)cc1
REMARK SMILES IDX 20 1 19 2 18 3 16 4 17 5 3 7 4 8 2 9 1 10 5 11 6 14 7 15
REMARK SMILES IDX 8 16 15 17 9 18 14 19 10 20 13 21 11 22 12 23 21 24 22 25
REMARK SMILES IDX 23 26 24 27 25 29 26 30 27 31 91 32 28 33 90 34 29 35 30 36
REMARK SMILES IDX 31 37 84 38 32 39 89 40 83 41 85 42 33 43 88 44 82 45 81 46
REMARK SMILES IDX 34 48 68 49 47 50 67 51 48 52 51 53 66 54 86 55 49 56 50 57
REMARK SMILES IDX 65 59 87 60 52 61 35 62 36 63 45 64 37 65 38 66 44 67 46 68
REMARK SMILES IDX 39 69 40 70 41 71 42 72 43 73 69 74 70 75 79 76 71 77 72 78
REMARK SMILES IDX 78 79 80 80 73 81 74 82 75 83 76 84 77 85 53 86 54 87 63 88
REMARK SMILES IDX 55 89 56 90 62 91 64 92 57 93 58 94 59 95 60 96 61 97
REMARK H PARENT 18 6 5 12 5 13 23 28 85 47 51 58
REMARK Flexibility Score: inf
ROOT
ATOM      1  C   UNL A   1      38.938  22.626  26.370  1.00  0.00     0.023 C 
ENDROOT
BRANCH   1   2
ATOM      2  C   UNL A   1      38.027  21.659  25.591  1.00  0.00     0.116 C 
BRANCH   2   3
ATOM      3  N   UNL A   1      37.495  22.322  24.419  1.00  0.00    -0.351 N 
ATOM      4  C   UNL A   1      36.265  22.587  23.919  1.00  0.00     0.281 C 
ATOM      5  O   UNL A   1      36.339  23.031  22.756  1.00  0.00    -0.268 OA
ATOM      6  H   UNL A   1      38.210  22.668  23.837  1.00  0.00     0.163 HD
BRANCH   4   7
ATOM      7  C   UNL A   1      34.865  22.569  24.655  1.00  0.00     0.172 C 
ATOM      8  C   UNL A   1      35.190  23.259  26.038  1.00  0.00     0.090 C 
BRANCH   7   9
ATOM      9  C   UNL A   1      34.379  21.147  25.054  1.00  0.00     0.075 C 
ATOM     10  C   UNL A   1      32.907  20.826  24.877  1.00  0.00     0.011 C 
ENDBRANCH   7   9
BRANCH   7  11
ATOM     11  N   UNL A   1      33.770  23.493  24.224  1.00  0.00    -0.333 N 
ATOM     12  H   UNL A   1      32.935  22.911  24.165  1.00  0.00     0.347 HD
ATOM     13  H   UNL A   1      34.205  23.911  23.401  1.00  0.00     0.347 HD
BRANCH  11  14
ATOM     14  C   UNL A   1      33.352  24.691  24.920  1.00  0.00     0.276 C 
BRANCH  14  15
ATOM     15  C   UNL A   1      32.005  25.402  24.606  1.00  0.00     0.111 C 
ATOM     16  C   UNL A   1      31.316  25.912  25.903  1.00  0.00     0.057 C 
ATOM     17  S   UNL A   1      32.118  26.869  23.529  1.00  0.00    -0.116 SA
ATOM     18  C   UNL A   1      31.692  27.360  26.074  1.00  0.00    -0.033 A 
ATOM     19  C   UNL A   1      32.122  27.979  24.900  1.00  0.00     0.011 A 
ATOM     20  C   UNL A   1      31.593  28.098  27.248  1.00  0.00     0.005 A 
ATOM     21  C   UNL A   1      32.514  29.310  24.887  1.00  0.00     0.015 A 
ATOM     22  C   UNL A   1      31.998  29.437  27.249  1.00  0.00     0.000 A 
ATOM     23  C   UNL A   1      32.467  30.038  26.076  1.00  0.00     0.001 A 
ENDBRANCH  14  15
ENDBRANCH  11  14
ENDBRANCH   7  11
ENDBRANCH   4   7
ENDBRANCH   2   3
ENDBRANCH   1   2
BRANCH   1  24
ATOM     24  C   UNL A   1      40.255  22.029  26.856  1.00  0.00     0.023 C 
BRANCH  24  25
ATOM     25  C   UNL A   1      41.412  23.019  26.867  1.00  0.00     0.116 C 
BRANCH  25  26
ATOM     26  N   UNL A   1      41.281  24.105  25.899  1.00  0.00    -0.352 N 
ATOM     27  C   UNL A   1      41.214  25.459  26.144  1.00  0.00     0.251 C 
ATOM     28  H   UNL A   1      41.234  23.836  24.954  1.00  0.00     0.163 HD
ATOM     29  O   UNL A   1      41.122  26.263  25.224  1.00  0.00    -0.269 OA
BRANCH  27  30
ATOM     30  C   UNL A   1      41.170  25.907  27.550  1.00  0.00     0.039 A 
ATOM     31  C   UNL A   1      39.958  25.919  28.239  1.00  0.00     0.014 A 
ATOM     32  C   UNL A   1      42.310  26.502  28.093  1.00  0.00     0.014 A 
ATOM     33  C   UNL A   1      39.830  26.736  29.353  1.00  0.00     0.010 A 
ATOM     34  C   UNL A   1      42.198  27.243  29.269  1.00  0.00     0.010 A 
ATOM     35  C   UNL A   1      40.938  27.437  29.855  1.00  0.00    -0.014 A 
BRANCH  35  36
ATOM     36  C   UNL A   1      40.738  28.436  30.935  1.00  0.00     0.031 A 
ATOM     37  C   UNL A   1      41.692  28.499  32.102  1.00  0.00     0.074 A 
ATOM     38  C   UNL A   1      39.754  29.346  30.817  1.00  0.00     0.049 A 
ATOM     39  N   UNL A   1      41.676  29.300  33.137  1.00  0.00    -0.248 NA
ATOM     40  C   UNL A   1      42.808  27.538  32.111  1.00  0.00     0.031 C 
ATOM     41  C   UNL A   1      38.798  29.411  29.711  1.00  0.00     0.029 A 
ATOM     42  N   UNL A   1      39.422  30.412  31.609  1.00  0.00    -0.354 N 
ATOM     43  C   UNL A   1      42.750  28.918  33.934  1.00  0.00     0.074 A 
ATOM     44  C   UNL A   1      43.391  27.803  33.271  1.00  0.00     0.031 C 
ATOM     45  C   UNL A   1      38.033  30.502  29.857  1.00  0.00     0.029 A 
ATOM     46  C   UNL A   1      38.396  31.171  31.102  1.00  0.00     0.049 A 
ATOM     47  H   UNL A   1      39.873  30.615  32.461  1.00  0.00     0.167 HD
ATOM     48  C   UNL A   1      43.168  29.452  35.107  1.00  0.00     0.037 A 
ATOM     49  C   UNL A   1      37.805  32.278  31.588  1.00  0.00     0.037 A 
ATOM     50  C   UNL A   1      42.550  30.587  35.742  1.00  0.00     0.049 A 
ATOM     51  C   UNL A   1      38.264  32.836  32.900  1.00  0.00     0.074 A 
ATOM     52  C   UNL A   1      42.898  31.206  36.930  1.00  0.00     0.029 A 
ATOM     53  N   UNL A   1      41.461  31.281  35.234  1.00  0.00    -0.354 N 
ATOM     54  N   UNL A   1      39.246  32.426  33.668  1.00  0.00    -0.248 NA
ATOM     55  C   UNL A   1      37.522  33.988  33.427  1.00  0.00     0.031 C 
ATOM     56  C   UNL A   1      42.002  32.259  37.152  1.00  0.00     0.029 A 
ATOM     57  C   UNL A   1      41.117  32.315  36.088  1.00  0.00     0.049 A 
ATOM     58  H   UNL A   1      41.002  31.070  34.389  1.00  0.00     0.167 HD
ATOM     59  C   UNL A   1      39.234  33.265  34.775  1.00  0.00     0.074 A 
ATOM     60  C   UNL A   1      38.164  34.220  34.565  1.00  0.00     0.031 C 
ATOM     61  C   UNL A   1      40.034  33.241  35.870  1.00  0.00     0.037 A 
BRANCH  48  62
ATOM     62  C   UNL A   1      44.337  28.799  35.790  1.00  0.00     0.058 A 
ATOM     63  C   UNL A   1      44.166  27.741  36.698  1.00  0.00     0.135 A 
ATOM     64  C   UNL A   1      45.647  29.226  35.523  1.00  0.00     0.135 A 
ATOM     65  F   UNL A   1      42.934  27.306  37.004  1.00  0.00    -0.206 F 
ATOM     66  C   UNL A   1      45.252  27.151  37.339  1.00  0.00     0.059 A 
ATOM     67  C   UNL A   1      46.749  28.637  36.135  1.00  0.00     0.059 A 
ATOM     68  F   UNL A   1      45.866  30.235  34.663  1.00  0.00    -0.206 F 
ATOM     69  C   UNL A   1      46.539  27.611  37.056  1.00  0.00     0.060 A 
BRANCH  69  70
ATOM     70  S   UNL A   1      47.939  26.853  37.910  1.00  0.00     0.124 S 
ATOM     71  O   UNL A   1      47.362  25.581  38.335  1.00  0.00    -0.237 OA
ATOM     72  O   UNL A   1      48.943  26.771  36.855  1.00  0.00    -0.237 OA
ATOM     73  O   UNL A   1      48.235  27.797  38.982  1.00  0.00    -0.744 OA
ENDBRANCH  69  70
ENDBRANCH  48  62
BRANCH  49  74
ATOM     74  C   UNL A   1      36.716  32.914  30.807  1.00  0.00     0.058 A 
ATOM     75  C   UNL A   1      35.375  32.727  31.164  1.00  0.00     0.135 A 
ATOM     76  C   UNL A   1      37.001  33.800  29.755  1.00  0.00     0.135 A 
ATOM     77  F   UNL A   1      35.058  31.885  32.161  1.00  0.00    -0.206 F 
ATOM     78  C   UNL A   1      34.351  33.413  30.522  1.00  0.00     0.059 A 
ATOM     79  C   UNL A   1      35.996  34.513  29.111  1.00  0.00     0.059 A 
ATOM     80  F   UNL A   1      38.273  34.022  29.390  1.00  0.00    -0.206 F 
ATOM     81  C   UNL A   1      34.674  34.316  29.506  1.00  0.00     0.060 A 
BRANCH  81  82
ATOM     82  S   UNL A   1      33.350  35.296  28.765  1.00  0.00     0.124 S 
ATOM     83  O   UNL A   1      32.633  34.287  27.995  1.00  0.00    -0.237 OA
ATOM     84  O   UNL A   1      32.657  35.816  29.939  1.00  0.00    -0.237 OA
ATOM     85  O   UNL A   1      34.072  36.295  27.982  1.00  0.00    -0.744 OA
ENDBRANCH  81  82
ENDBRANCH  49  74
BRANCH  61  86
ATOM     86  C   UNL A   1      39.771  34.268  36.930  1.00  0.00     0.058 A 
ATOM     87  C   UNL A   1      38.906  33.998  38.002  1.00  0.00     0.135 A 
ATOM     88  C   UNL A   1      40.421  35.511  36.902  1.00  0.00     0.135 A 
ATOM     89  F   UNL A   1      38.257  32.825  38.067  1.00  0.00    -0.206 F 
ATOM     90  C   UNL A   1      38.687  34.932  39.007  1.00  0.00     0.059 A 
ATOM     91  C   UNL A   1      40.229  36.454  37.906  1.00  0.00     0.059 A 
ATOM     92  F   UNL A   1      41.261  35.812  35.899  1.00  0.00    -0.206 F 
ATOM     93  C   UNL A   1      39.353  36.158  38.950  1.00  0.00     0.060 A 
BRANCH  93  94
ATOM     94  S   UNL A   1      39.084  37.350  40.280  1.00  0.00     0.124 S 
ATOM     95  O   UNL A   1      38.531  36.500  41.328  1.00  0.00    -0.237 OA
ATOM     96  O   UNL A   1      40.429  37.861  40.522  1.00  0.00    -0.237 OA
ATOM     97  O   UNL A   1      38.153  38.308  39.691  1.00  0.00    -0.744 OA
ENDBRANCH  93  94
ENDBRANCH  61  86
ENDBRANCH  35  36
ENDBRANCH  27  30
ENDBRANCH  25  26
ENDBRANCH  24  25
ENDBRANCH   1  24
TORSDOF 18
ENDMDL
MODEL 3
REMARK VINA RESULT:     -10.6      3.621      9.525
REMARK SMILES CC[C@](C)([NH2+]C[C@H]1Cc2ccccc2S1)C(=O)NCCCCNC(=O)c1ccc(-c2c3nc(c(-c4c(F)cc(S(=O)(=O)[O-])cc4F)c4ccc([nH]4)c(-c4c(F)cc(S(=O)(=O)[O-])cc4F)c4nc(c(-c5c(F)cc(S(=O)(=O)[O-])cc5F)c5ccc2[nH]5)C=C4)C=C3)cc1
REMARK SMILES IDX 20 1 19 2 18 3 16 4 17 5 3 7 4 8 2 9 1 10 5 11 6 14 7 15
REMARK SMILES IDX 8 16 15 17 9 18 14 19 10 20 13 21 11 22 12 23 21 24 22 25
REMARK SMILES IDX 23 26 24 27 25 29 26 30 27 31 91 32 28 33 90 34 29 35 30 36
REMARK SMILES IDX 31 37 84 38 32 39 89 40 83 41 85 42 33 43 88 44 82 45 81 46
REMARK SMILES IDX 34 48 68 49 47 50 67 51 48 52 51 53 66 54 86 55 49 56 50 57
REMARK SMILES IDX 65 59 87 60 52 61 35 62 36 63 45 64 37 65 38 66 44 67 46 68
REMARK SMILES IDX 39 69 40 70 41 71 42 72 43 73 69 74 70 75 79 76 71 77 72 78
REMARK SMILES IDX 78 79 80 80 73 81 74 82 75 83 76 84 77 85 53 86 54 87 63 88
REMARK SMILES IDX 55 89 56 90 62 91 64 92 57 93 58 94 59 95 60 96 61 97
REMARK H PARENT 18 6 5 12 5 13 23 28 85 47 51 58
REMARK Flexibility Score: inf
ROOT
ATOM      1  C   UNL A   1      35.849  21.158  25.271  1.00  0.00     0.023 C 
ENDROOT
BRANCH   1   2
ATOM      2  C   UNL A   1      34.333  21.234  25.531  1.00  0.00     0.116 C 
BRANCH   2   3
ATOM      3  N   UNL A   1      33.621  21.284  24.271  1.00  0.00    -0.351 N 
ATOM      4  C   UNL A   1      32.575  21.979  23.765  1.00  0.00     0.281 C 
ATOM      5  O   UNL A   1      32.216  21.513  22.666  1.00  0.00    -0.268 OA
ATOM      6  H   UNL A   1      33.992  20.650  23.615  1.00  0.00     0.163 HD
BRANCH   4   7
ATOM      7  C   UNL A   1      31.927  23.324  24.286  1.00  0.00     0.172 C 
ATOM      8  C   UNL A   1      33.187  24.241  24.542  1.00  0.00     0.090 C 
BRANCH   7   9
ATOM      9  C   UNL A   1      31.264  23.204  25.688  1.00  0.00     0.075 C 
ATOM     10  C   UNL A   1      31.985  23.826  26.869  1.00  0.00     0.011 C 
ENDBRANCH   7   9
BRANCH   7  11
ATOM     11  N   UNL A   1      31.206  24.235  23.343  1.00  0.00    -0.333 N 
ATOM     12  H   UNL A   1      30.501  24.706  23.910  1.00  0.00     0.347 HD
ATOM     13  H   UNL A   1      30.963  23.571  22.608  1.00  0.00     0.347 HD
BRANCH  11  14
ATOM     14  C   UNL A   1      31.815  25.278  22.545  1.00  0.00     0.276 C 
BRANCH  14  15
ATOM     15  C   UNL A   1      31.432  26.776  22.714  1.00  0.00     0.111 C 
ATOM     16  C   UNL A   1      30.564  27.001  23.984  1.00  0.00     0.057 C 
ATOM     17  S   UNL A   1      32.831  27.933  22.893  1.00  0.00    -0.116 SA
ATOM     18  C   UNL A   1      31.489  27.424  25.094  1.00  0.00    -0.033 A 
ATOM     19  C   UNL A   1      32.709  27.938  24.653  1.00  0.00     0.011 A 
ATOM     20  C   UNL A   1      31.205  27.391  26.454  1.00  0.00     0.005 A 
ATOM     21  C   UNL A   1      33.679  28.366  25.549  1.00  0.00     0.015 A 
ATOM     22  C   UNL A   1      32.180  27.807  27.366  1.00  0.00     0.000 A 
ATOM     23  C   UNL A   1      33.416  28.283  26.916  1.00  0.00     0.001 A 
ENDBRANCH  14  15
ENDBRANCH  11  14
ENDBRANCH   7  11
ENDBRANCH   4   7
ENDBRANCH   2   3
ENDBRANCH   1   2
BRANCH   1  24
ATOM     24  C   UNL A   1      36.448  22.365  24.558  1.00  0.00     0.023 C 
BRANCH  24  25
ATOM     25  C   UNL A   1      37.405  23.177  25.421  1.00  0.00     0.116 C 
BRANCH  25  26
ATOM     26  N   UNL A   1      38.739  22.595  25.546  1.00  0.00    -0.352 N 
ATOM     27  C   UNL A   1      39.829  23.104  26.218  1.00  0.00     0.251 C 
ATOM     28  H   UNL A   1      38.876  21.732  25.094  1.00  0.00     0.163 HD
ATOM     29  O   UNL A   1      40.890  22.491  26.254  1.00  0.00    -0.269 OA
BRANCH  27  30
ATOM     30  C   UNL A   1      39.708  24.445  26.820  1.00  0.00     0.039 A 
ATOM     31  C   UNL A   1      40.379  25.527  26.251  1.00  0.00     0.014 A 
ATOM     32  C   UNL A   1      39.087  24.561  28.065  1.00  0.00     0.014 A 
ATOM     33  C   UNL A   1      40.637  26.642  27.034  1.00  0.00     0.010 A 
ATOM     34  C   UNL A   1      39.267  25.725  28.811  1.00  0.00     0.010 A 
ATOM     35  C   UNL A   1      40.118  26.735  28.336  1.00  0.00    -0.014 A 
BRANCH  35  36
ATOM     36  C   UNL A   1      40.551  27.852  29.214  1.00  0.00     0.031 A 
ATOM     37  C   UNL A   1      39.644  29.036  29.445  1.00  0.00     0.074 A 
ATOM     38  C   UNL A   1      41.718  27.756  29.875  1.00  0.00     0.049 A 
ATOM     39  N   UNL A   1      39.852  30.102  30.174  1.00  0.00    -0.248 NA
ATOM     40  C   UNL A   1      38.336  29.022  28.769  1.00  0.00     0.031 C 
ATOM     41  C   UNL A   1      42.656  26.638  29.765  1.00  0.00     0.029 A 
ATOM     42  N   UNL A   1      42.294  28.586  30.799  1.00  0.00    -0.354 N 
ATOM     43  C   UNL A   1      38.723  30.899  30.018  1.00  0.00     0.074 A 
ATOM     44  C   UNL A   1      37.837  30.201  29.112  1.00  0.00     0.031 C 
ATOM     45  C   UNL A   1      43.655  26.817  30.641  1.00  0.00     0.029 A 
ATOM     46  C   UNL A   1      43.465  28.094  31.321  1.00  0.00     0.049 A 
ATOM     47  H   UNL A   1      41.907  29.452  31.064  1.00  0.00     0.167 HD
ATOM     48  C   UNL A   1      38.448  32.100  30.583  1.00  0.00     0.037 A 
ATOM     49  C   UNL A   1      44.300  28.615  32.238  1.00  0.00     0.037 A 
ATOM     50  C   UNL A   1      39.317  32.771  31.514  1.00  0.00     0.049 A 
ATOM     51  C   UNL A   1      43.991  29.956  32.830  1.00  0.00     0.074 A 
ATOM     52  C   UNL A   1      39.129  33.989  32.145  1.00  0.00     0.029 A 
ATOM     53  N   UNL A   1      40.534  32.274  31.959  1.00  0.00    -0.354 N 
ATOM     54  N   UNL A   1      42.945  30.722  32.626  1.00  0.00    -0.248 NA
ATOM     55  C   UNL A   1      44.983  30.517  33.755  1.00  0.00     0.031 C 
ATOM     56  C   UNL A   1      40.246  34.240  32.951  1.00  0.00     0.029 A 
ATOM     57  C   UNL A   1      41.114  33.165  32.847  1.00  0.00     0.049 A 
ATOM     58  H   UNL A   1      40.926  31.415  31.684  1.00  0.00     0.167 HD
ATOM     59  C   UNL A   1      43.158  31.862  33.391  1.00  0.00     0.074 A 
ATOM     60  C   UNL A   1      44.419  31.674  34.080  1.00  0.00     0.031 C 
ATOM     61  C   UNL A   1      42.381  32.967  33.505  1.00  0.00     0.037 A 
BRANCH  48  62
ATOM     62  C   UNL A   1      37.164  32.774  30.189  1.00  0.00     0.058 A 
ATOM     63  C   UNL A   1      37.083  33.614  29.066  1.00  0.00     0.135 A 
ATOM     64  C   UNL A   1      35.993  32.568  30.937  1.00  0.00     0.135 A 
ATOM     65  F   UNL A   1      38.176  33.860  28.327  1.00  0.00    -0.206 F 
ATOM     66  C   UNL A   1      35.894  34.247  28.716  1.00  0.00     0.059 A 
ATOM     67  C   UNL A   1      34.789  33.174  30.594  1.00  0.00     0.059 A 
ATOM     68  F   UNL A   1      36.016  31.775  32.021  1.00  0.00    -0.206 F 
ATOM     69  C   UNL A   1      34.754  34.027  29.491  1.00  0.00     0.060 A 
BRANCH  69  70
ATOM     70  S   UNL A   1      33.222  34.871  29.040  1.00  0.00     0.124 S 
ATOM     71  O   UNL A   1      33.731  36.142  28.535  1.00  0.00    -0.237 OA
ATOM     72  O   UNL A   1      32.652  33.975  28.039  1.00  0.00    -0.237 OA
ATOM     73  O   UNL A   1      32.490  34.944  30.301  1.00  0.00    -0.744 OA
ENDBRANCH  69  70
ENDBRANCH  48  62
BRANCH  49  74
ATOM     74  C   UNL A   1      45.502  27.843  32.639  1.00  0.00     0.058 A 
ATOM     75  C   UNL A   1      45.450  26.945  33.713  1.00  0.00     0.135 A 
ATOM     76  C   UNL A   1      46.690  27.912  31.893  1.00  0.00     0.135 A 
ATOM     77  F   UNL A   1      44.336  26.850  34.455  1.00  0.00    -0.206 F 
ATOM     78  C   UNL A   1      46.528  26.123  34.023  1.00  0.00     0.059 A 
ATOM     79  C   UNL A   1      47.773  27.087  32.171  1.00  0.00     0.059 A 
ATOM     80  F   UNL A   1      46.777  28.747  30.846  1.00  0.00    -0.206 F 
ATOM     81  C   UNL A   1      47.680  26.191  33.235  1.00  0.00     0.060 A 
BRANCH  81  82
ATOM     82  S   UNL A   1      49.025  25.032  33.566  1.00  0.00     0.124 S 
ATOM     83  O   UNL A   1      49.631  24.900  32.247  1.00  0.00    -0.237 OA
ATOM     84  O   UNL A   1      49.813  25.752  34.562  1.00  0.00    -0.237 OA
ATOM     85  O   UNL A   1      48.331  23.849  34.066  1.00  0.00    -0.744 OA
ENDBRANCH  81  82
ENDBRANCH  49  74
BRANCH  61  86
ATOM     86  C   UNL A   1      42.882  34.064  34.396  1.00  0.00     0.058 A 
ATOM     87  C   UNL A   1      42.603  34.064  35.772  1.00  0.00     0.135 A 
ATOM     88  C   UNL A   1      43.685  35.094  33.885  1.00  0.00     0.135 A 
ATOM     89  F   UNL A   1      41.833  33.102  36.305  1.00  0.00    -0.206 F 
ATOM     90  C   UNL A   1      43.096  35.058  36.609  1.00  0.00     0.059 A 
ATOM     91  C   UNL A   1      44.202  36.090  34.707  1.00  0.00     0.059 A 
ATOM     92  F   UNL A   1      43.983  35.132  32.575  1.00  0.00    -0.206 F 
ATOM     93  C   UNL A   1      43.895  36.067  36.067  1.00  0.00     0.060 A 
BRANCH  93  94
ATOM     94  S   UNL A   1      44.555  37.333  37.172  1.00  0.00     0.124 S 
ATOM     95  O   UNL A   1      45.953  36.931  37.277  1.00  0.00    -0.237 OA
ATOM     96  O   UNL A   1      44.303  38.563  36.427  1.00  0.00    -0.237 OA
ATOM     97  O   UNL A   1      43.761  37.170  38.386  1.00  0.00    -0.744 OA
ENDBRANCH  93  94
ENDBRANCH  61  86
ENDBRANCH  35  36
ENDBRANCH  27  30
ENDBRANCH  25  26
ENDBRANCH  24  25
ENDBRANCH   1  24
TORSDOF 18
ENDMDL
