MODEL 1
REMARK VINA RESULT:      -9.6      0.000      0.000
REMARK SMILES COc1cc(OC)cc(-c2ccc([C@@H](C)C(=O)NCCCCNC(=O)c3ccc(-c4c5nc(c(-c6c(F)cc(S(=O)(=O)[O-])cc6F)c6ccc([nH]6)c(-c6c(F)cc(S(=O)(=O)[O-])cc6F)c6nc(c(-c7c(F)cc(S(=O)(=O)[O-])cc7F)c7ccc4[nH]7)C=C6)C=C5)cc3)cc2F)c1
REMARK SMILES IDX 20 1 19 2 18 3 16 4 17 5 14 7 15 8 13 9 10 10 11 11 93 12
REMARK SMILES IDX 12 13 92 14 94 15 9 16 3 17 4 18 95 19 5 20 8 21 2 22 1 23
REMARK SMILES IDX 6 24 7 25 21 26 22 27 23 28 24 29 25 31 26 32 27 33 91 34
REMARK SMILES IDX 28 35 90 36 29 37 30 38 31 39 84 40 32 41 89 42 83 43 85 44
REMARK SMILES IDX 33 45 88 46 82 47 81 48 34 50 68 51 47 52 67 53 48 54 51 55
REMARK SMILES IDX 66 56 86 57 49 58 50 59 65 61 87 62 52 63 35 64 36 65 45 66
REMARK SMILES IDX 37 67 38 68 44 69 46 70 39 71 40 72 41 73 42 74 43 75 69 76
REMARK SMILES IDX 70 77 79 78 71 79 72 80 78 81 80 82 73 83 74 84 75 85 76 86
REMARK SMILES IDX 77 87 53 88 54 89 63 90 55 91 56 92 62 93 64 94 57 95 58 96
REMARK SMILES IDX 59 97 60 98 61 99
REMARK H PARENT 18 6 23 30 85 49 51 60
REMARK Flexibility Score: inf
ROOT
ATOM      1  C   UNL A   1      41.475  19.271  25.809  1.00  0.00     0.023 C 
ENDROOT
BRANCH   1   2
ATOM      2  C   UNL A   1      42.746  19.406  26.648  1.00  0.00     0.116 C 
BRANCH   2   3
ATOM      3  N   UNL A   1      43.883  19.844  25.865  1.00  0.00    -0.356 N 
ATOM      4  C   UNL A   1      44.235  21.072  25.394  1.00  0.00     0.227 C 
ATOM      5  O   UNL A   1      45.259  21.131  24.704  1.00  0.00    -0.274 OA
ATOM      6  H   UNL A   1      44.514  19.125  25.632  1.00  0.00     0.163 HD
BRANCH   4   7
ATOM      7  C   UNL A   1      43.439  22.355  25.680  1.00  0.00     0.105 C 
ATOM      8  C   UNL A   1      43.510  23.390  24.556  1.00  0.00     0.023 C 
BRANCH   7   9
ATOM      9  C   UNL A   1      43.632  22.878  27.094  1.00  0.00    -0.033 A 
ATOM     10  C   UNL A   1      44.047  24.045  29.681  1.00  0.00     0.018 A 
ATOM     11  C   UNL A   1      42.791  23.560  29.273  1.00  0.00     0.012 A 
ATOM     12  C   UNL A   1      45.094  23.903  28.758  1.00  0.00     0.131 A 
ATOM     13  C   UNL A   1      42.595  22.956  28.025  1.00  0.00     0.005 A 
ATOM     14  C   UNL A   1      44.893  23.353  27.487  1.00  0.00     0.044 A 
ATOM     15  F   UNL A   1      46.339  24.290  29.074  1.00  0.00    -0.206 F 
BRANCH  10  16
ATOM     16  C   UNL A   1      44.221  24.657  31.022  1.00  0.00    -0.008 A 
ATOM     17  C   UNL A   1      44.681  24.493  33.418  1.00  0.00     0.123 A 
ATOM     18  C   UNL A   1      44.557  25.877  33.541  1.00  0.00     0.092 A 
ATOM     19  C   UNL A   1      44.513  23.889  32.167  1.00  0.00     0.055 A 
ATOM     20  C   UNL A   1      44.290  26.668  32.427  1.00  0.00     0.123 A 
ATOM     21  C   UNL A   1      44.109  26.055  31.187  1.00  0.00     0.055 A 
BRANCH  17  22
ATOM     22  O   UNL A   1      44.926  23.830  34.591  1.00  0.00    -0.497 OA
ATOM     23  C   UNL A   1      43.970  22.842  34.956  1.00  0.00     0.278 C 
ENDBRANCH  17  22
BRANCH  20  24
ATOM     24  O   UNL A   1      44.221  28.013  32.671  1.00  0.00    -0.497 OA
ATOM     25  C   UNL A   1      43.260  28.749  31.925  1.00  0.00     0.278 C 
ENDBRANCH  20  24
ENDBRANCH  10  16
ENDBRANCH   7   9
ENDBRANCH   4   7
ENDBRANCH   2   3
ENDBRANCH   1   2
BRANCH   1  26
ATOM     26  C   UNL A   1      40.217  19.871  26.435  1.00  0.00     0.023 C 
BRANCH  26  27
ATOM     27  C   UNL A   1      40.051  21.373  26.244  1.00  0.00     0.116 C 
BRANCH  27  28
ATOM     28  N   UNL A   1      38.671  21.802  26.058  1.00  0.00    -0.352 N 
ATOM     29  C   UNL A   1      38.150  23.059  26.287  1.00  0.00     0.251 C 
ATOM     30  H   UNL A   1      38.040  21.120  25.732  1.00  0.00     0.163 HD
ATOM     31  O   UNL A   1      36.955  23.280  26.155  1.00  0.00    -0.269 OA
BRANCH  29  32
ATOM     32  C   UNL A   1      39.073  24.115  26.750  1.00  0.00     0.039 A 
ATOM     33  C   UNL A   1      39.831  24.816  25.808  1.00  0.00     0.014 A 
ATOM     34  C   UNL A   1      39.085  24.487  28.096  1.00  0.00     0.014 A 
ATOM     35  C   UNL A   1      40.532  25.957  26.205  1.00  0.00     0.010 A 
ATOM     36  C   UNL A   1      39.730  25.658  28.474  1.00  0.00     0.010 A 
ATOM     37  C   UNL A   1      40.446  26.413  27.529  1.00  0.00    -0.014 A 
BRANCH  37  38
ATOM     38  C   UNL A   1      41.091  27.674  27.976  1.00  0.00     0.031 A 
ATOM     39  C   UNL A   1      42.589  27.781  27.935  1.00  0.00     0.074 A 
ATOM     40  C   UNL A   1      40.351  28.663  28.515  1.00  0.00     0.049 A 
ATOM     41  N   UNL A   1      43.371  28.671  28.486  1.00  0.00    -0.248 NA
ATOM     42  C   UNL A   1      43.303  26.720  27.204  1.00  0.00     0.031 C 
ATOM     43  C   UNL A   1      38.891  28.669  28.635  1.00  0.00     0.029 A 
ATOM     44  N   UNL A   1      40.733  29.851  29.088  1.00  0.00    -0.354 N 
ATOM     45  C   UNL A   1      44.667  28.263  28.197  1.00  0.00     0.074 A 
ATOM     46  C   UNL A   1      44.568  27.026  27.452  1.00  0.00     0.031 C 
ATOM     47  C   UNL A   1      38.502  29.807  29.237  1.00  0.00     0.029 A 
ATOM     48  C   UNL A   1      39.683  30.589  29.586  1.00  0.00     0.049 A 
ATOM     49  H   UNL A   1      41.671  30.148  29.139  1.00  0.00     0.167 HD
ATOM     50  C   UNL A   1      45.833  28.873  28.510  1.00  0.00     0.037 A 
ATOM     51  C   UNL A   1      39.680  31.754  30.263  1.00  0.00     0.037 A 
ATOM     52  C   UNL A   1      45.924  30.124  29.213  1.00  0.00     0.049 A 
ATOM     53  C   UNL A   1      40.991  32.425  30.576  1.00  0.00     0.074 A 
ATOM     54  C   UNL A   1      47.058  30.825  29.584  1.00  0.00     0.029 A 
ATOM     55  N   UNL A   1      44.834  30.874  29.627  1.00  0.00    -0.354 N 
ATOM     56  N   UNL A   1      42.209  32.018  30.308  1.00  0.00    -0.248 NA
ATOM     57  C   UNL A   1      40.931  33.714  31.283  1.00  0.00     0.031 C 
ATOM     58  C   UNL A   1      46.652  32.000  30.225  1.00  0.00     0.029 A 
ATOM     59  C   UNL A   1      45.267  32.040  30.230  1.00  0.00     0.049 A 
ATOM     60  H   UNL A   1      43.891  30.614  29.510  1.00  0.00     0.167 HD
ATOM     61  C   UNL A   1      43.054  33.016  30.779  1.00  0.00     0.074 A 
ATOM     62  C   UNL A   1      42.213  34.046  31.350  1.00  0.00     0.031 C 
ATOM     63  C   UNL A   1      44.407  33.074  30.745  1.00  0.00     0.037 A 
BRANCH  50  64
ATOM     64  C   UNL A   1      47.104  28.204  28.073  1.00  0.00     0.058 A 
ATOM     65  C   UNL A   1      47.706  28.517  26.846  1.00  0.00     0.135 A 
ATOM     66  C   UNL A   1      47.742  27.264  28.899  1.00  0.00     0.135 A 
ATOM     67  F   UNL A   1      47.125  29.393  26.012  1.00  0.00    -0.206 F 
ATOM     68  C   UNL A   1      48.886  27.904  26.438  1.00  0.00     0.059 A 
ATOM     69  C   UNL A   1      48.935  26.655  28.522  1.00  0.00     0.059 A 
ATOM     70  F   UNL A   1      47.203  26.927  30.081  1.00  0.00    -0.206 F 
ATOM     71  C   UNL A   1      49.492  26.974  27.283  1.00  0.00     0.060 A 
BRANCH  71  72
ATOM     72  S   UNL A   1      51.027  26.192  26.746  1.00  0.00     0.124 S 
ATOM     73  O   UNL A   1      50.815  24.812  27.176  1.00  0.00    -0.237 OA
ATOM     74  O   UNL A   1      51.007  26.414  25.305  1.00  0.00    -0.237 OA
ATOM     75  O   UNL A   1      52.055  26.926  27.476  1.00  0.00    -0.744 OA
ENDBRANCH  71  72
ENDBRANCH  50  64
BRANCH  51  76
ATOM     76  C   UNL A   1      38.399  32.375  30.692  1.00  0.00     0.058 A 
ATOM     77  C   UNL A   1      37.830  32.059  31.936  1.00  0.00     0.135 A 
ATOM     78  C   UNL A   1      37.702  33.264  29.861  1.00  0.00     0.135 A 
ATOM     79  F   UNL A   1      38.459  31.210  32.763  1.00  0.00    -0.206 F 
ATOM     80  C   UNL A   1      36.599  32.574  32.326  1.00  0.00     0.059 A 
ATOM     81  C   UNL A   1      36.479  33.810  30.239  1.00  0.00     0.059 A 
ATOM     82  F   UNL A   1      38.212  33.614  28.669  1.00  0.00    -0.206 F 
ATOM     83  C   UNL A   1      35.925  33.441  31.466  1.00  0.00     0.060 A 
BRANCH  83  84
ATOM     84  S   UNL A   1      34.327  34.111  31.978  1.00  0.00     0.124 S 
ATOM     85  O   UNL A   1      34.737  35.256  32.782  1.00  0.00    -0.237 OA
ATOM     86  O   UNL A   1      33.696  34.421  30.699  1.00  0.00    -0.237 OA
ATOM     87  O   UNL A   1      33.724  33.003  32.712  1.00  0.00    -0.744 OA
ENDBRANCH  83  84
ENDBRANCH  51  76
BRANCH  63  88
ATOM     88  C   UNL A   1      45.066  34.315  31.268  1.00  0.00     0.058 A 
ATOM     89  C   UNL A   1      45.327  35.416  30.441  1.00  0.00     0.135 A 
ATOM     90  C   UNL A   1      45.350  34.433  32.639  1.00  0.00     0.135 A 
ATOM     91  F   UNL A   1      45.076  35.346  29.125  1.00  0.00    -0.206 F 
ATOM     92  C   UNL A   1      45.850  36.597  30.955  1.00  0.00     0.059 A 
ATOM     93  C   UNL A   1      45.857  35.611  33.176  1.00  0.00     0.059 A 
ATOM     94  F   UNL A   1      45.110  33.407  33.470  1.00  0.00    -0.206 F 
ATOM     95  C   UNL A   1      46.107  36.687  32.326  1.00  0.00     0.060 A 
BRANCH  95  96
ATOM     96  S   UNL A   1      46.715  38.250  32.995  1.00  0.00     0.124 S 
ATOM     97  O   UNL A   1      45.821  38.452  34.129  1.00  0.00    -0.237 OA
ATOM     98  O   UNL A   1      48.101  37.931  33.329  1.00  0.00    -0.237 OA
ATOM     99  O   UNL A   1      46.545  39.182  31.885  1.00  0.00    -0.744 OA
ENDBRANCH  95  96
ENDBRANCH  63  88
ENDBRANCH  37  38
ENDBRANCH  29  32
ENDBRANCH  27  28
ENDBRANCH  26  27
ENDBRANCH   1  26
TORSDOF 18
ENDMDL
MODEL 2
REMARK VINA RESULT:      -9.4      2.725      9.991
REMARK SMILES COc1cc(OC)cc(-c2ccc([C@@H](C)C(=O)NCCCCNC(=O)c3ccc(-c4c5nc(c(-c6c(F)cc(S(=O)(=O)[O-])cc6F)c6ccc([nH]6)c(-c6c(F)cc(S(=O)(=O)[O-])cc6F)c6nc(c(-c7c(F)cc(S(=O)(=O)[O-])cc7F)c7ccc4[nH]7)C=C6)C=C5)cc3)cc2F)c1
REMARK SMILES IDX 20 1 19 2 18 3 16 4 17 5 14 7 15 8 13 9 10 10 11 11 93 12
REMARK SMILES IDX 12 13 92 14 94 15 9 16 3 17 4 18 95 19 5 20 8 21 2 22 1 23
REMARK SMILES IDX 6 24 7 25 21 26 22 27 23 28 24 29 25 31 26 32 27 33 91 34
REMARK SMILES IDX 28 35 90 36 29 37 30 38 31 39 84 40 32 41 89 42 83 43 85 44
REMARK SMILES IDX 33 45 88 46 82 47 81 48 34 50 68 51 47 52 67 53 48 54 51 55
REMARK SMILES IDX 66 56 86 57 49 58 50 59 65 61 87 62 52 63 35 64 36 65 45 66
REMARK SMILES IDX 37 67 38 68 44 69 46 70 39 71 40 72 41 73 42 74 43 75 69 76
REMARK SMILES IDX 70 77 79 78 71 79 72 80 78 81 80 82 73 83 74 84 75 85 76 86
REMARK SMILES IDX 77 87 53 88 54 89 63 90 55 91 56 92 62 93 64 94 57 95 58 96
REMARK SMILES IDX 59 97 60 98 61 99
REMARK H PARENT 18 6 23 30 85 49 51 60
REMARK Flexibility Score: inf
ROOT
ATOM      1  C   UNL A   1      37.602  33.233  30.051  1.00  0.00     0.023 C 
ENDROOT
BRANCH   1   2
ATOM      2  C   UNL A   1      38.351  34.547  30.276  1.00  0.00     0.116 C 
BRANCH   2   3
ATOM      3  N   UNL A   1      38.339  34.962  31.664  1.00  0.00    -0.356 N 
ATOM      4  C   UNL A   1      37.950  34.314  32.796  1.00  0.00     0.227 C 
ATOM      5  O   UNL A   1      38.016  34.952  33.853  1.00  0.00    -0.274 OA
ATOM      6  H   UNL A   1      38.671  35.876  31.815  1.00  0.00     0.163 HD
BRANCH   4   7
ATOM      7  C   UNL A   1      37.453  32.860  32.818  1.00  0.00     0.105 C 
ATOM      8  C   UNL A   1      36.135  32.668  33.570  1.00  0.00     0.023 C 
BRANCH   7   9
ATOM      9  C   UNL A   1      38.554  31.854  33.115  1.00  0.00    -0.033 A 
ATOM     10  C   UNL A   1      40.632  29.910  33.477  1.00  0.00     0.018 A 
ATOM     11  C   UNL A   1      40.828  31.275  33.759  1.00  0.00     0.012 A 
ATOM     12  C   UNL A   1      39.352  29.549  33.030  1.00  0.00     0.131 A 
ATOM     13  C   UNL A   1      39.803  32.219  33.619  1.00  0.00     0.005 A 
ATOM     14  C   UNL A   1      38.341  30.496  32.833  1.00  0.00     0.044 A 
ATOM     15  F   UNL A   1      39.053  28.264  32.782  1.00  0.00    -0.206 F 
BRANCH  10  16
ATOM     16  C   UNL A   1      41.735  28.935  33.661  1.00  0.00    -0.008 A 
ATOM     17  C   UNL A   1      42.584  26.757  34.381  1.00  0.00     0.123 A 
ATOM     18  C   UNL A   1      43.867  27.117  33.972  1.00  0.00     0.092 A 
ATOM     19  C   UNL A   1      41.526  27.661  34.227  1.00  0.00     0.055 A 
ATOM     20  C   UNL A   1      44.105  28.359  33.391  1.00  0.00     0.123 A 
ATOM     21  C   UNL A   1      43.048  29.259  33.256  1.00  0.00     0.055 A 
BRANCH  17  22
ATOM     22  O   UNL A   1      42.488  25.517  34.953  1.00  0.00    -0.497 OA
ATOM     23  C   UNL A   1      43.692  24.761  34.999  1.00  0.00     0.278 C 
ENDBRANCH  17  22
BRANCH  20  24
ATOM     24  O   UNL A   1      45.399  28.584  33.006  1.00  0.00    -0.497 OA
ATOM     25  C   UNL A   1      46.402  28.408  34.000  1.00  0.00     0.278 C 
ENDBRANCH  20  24
ENDBRANCH  10  16
ENDBRANCH   7   9
ENDBRANCH   4   7
ENDBRANCH   2   3
ENDBRANCH   1   2
BRANCH   1  26
ATOM     26  C   UNL A   1      36.174  33.381  29.530  1.00  0.00     0.023 C 
BRANCH  26  27
ATOM     27  C   UNL A   1      35.185  32.344  30.044  1.00  0.00     0.116 C 
BRANCH  27  28
ATOM     28  N   UNL A   1      34.320  31.782  29.014  1.00  0.00    -0.352 N 
ATOM     29  C   UNL A   1      34.610  30.736  28.161  1.00  0.00     0.251 C 
ATOM     30  H   UNL A   1      33.431  32.192  28.917  1.00  0.00     0.163 HD
ATOM     31  O   UNL A   1      33.822  30.395  27.290  1.00  0.00    -0.269 OA
BRANCH  29  32
ATOM     32  C   UNL A   1      35.926  30.077  28.298  1.00  0.00     0.039 A 
ATOM     33  C   UNL A   1      36.843  30.167  27.247  1.00  0.00     0.014 A 
ATOM     34  C   UNL A   1      36.285  29.489  29.512  1.00  0.00     0.014 A 
ATOM     35  C   UNL A   1      38.159  29.746  27.450  1.00  0.00     0.010 A 
ATOM     36  C   UNL A   1      37.610  29.133  29.731  1.00  0.00     0.010 A 
ATOM     37  C   UNL A   1      38.563  29.273  28.708  1.00  0.00    -0.014 A 
BRANCH  37  38
ATOM     38  C   UNL A   1      39.972  28.908  29.002  1.00  0.00     0.031 A 
ATOM     39  C   UNL A   1      40.906  29.964  29.523  1.00  0.00     0.074 A 
ATOM     40  C   UNL A   1      40.434  27.678  28.700  1.00  0.00     0.049 A 
ATOM     41  N   UNL A   1      42.208  29.941  29.621  1.00  0.00    -0.248 NA
ATOM     42  C   UNL A   1      40.289  31.229  29.957  1.00  0.00     0.031 C 
ATOM     43  C   UNL A   1      39.633  26.573  28.165  1.00  0.00     0.029 A 
ATOM     44  N   UNL A   1      41.701  27.158  28.777  1.00  0.00    -0.354 N 
ATOM     45  C   UNL A   1      42.571  31.195  30.097  1.00  0.00     0.074 A 
ATOM     46  C   UNL A   1      41.355  31.966  30.234  1.00  0.00     0.031 C 
ATOM     47  C   UNL A   1      40.428  25.506  27.970  1.00  0.00     0.029 A 
ATOM     48  C   UNL A   1      41.798  25.863  28.321  1.00  0.00     0.049 A 
ATOM     49  H   UNL A   1      42.471  27.664  29.126  1.00  0.00     0.167 HD
ATOM     50  C   UNL A   1      43.805  31.654  30.407  1.00  0.00     0.037 A 
ATOM     51  C   UNL A   1      42.875  25.064  28.184  1.00  0.00     0.037 A 
ATOM     52  C   UNL A   1      45.005  30.870  30.309  1.00  0.00     0.049 A 
ATOM     53  C   UNL A   1      44.234  25.593  28.561  1.00  0.00     0.074 A 
ATOM     54  C   UNL A   1      46.307  31.242  30.595  1.00  0.00     0.029 A 
ATOM     55  N   UNL A   1      45.045  29.539  29.919  1.00  0.00    -0.354 N 
ATOM     56  N   UNL A   1      44.562  26.787  28.996  1.00  0.00    -0.248 NA
ATOM     57  C   UNL A   1      45.372  24.669  28.431  1.00  0.00     0.031 C 
ATOM     58  C   UNL A   1      47.135  30.137  30.375  1.00  0.00     0.029 A 
ATOM     59  C   UNL A   1      46.345  29.071  29.977  1.00  0.00     0.049 A 
ATOM     60  H   UNL A   1      44.264  29.008  29.641  1.00  0.00     0.167 HD
ATOM     61  C   UNL A   1      45.932  26.744  29.225  1.00  0.00     0.074 A 
ATOM     62  C   UNL A   1      46.375  25.410  28.881  1.00  0.00     0.031 C 
ATOM     63  C   UNL A   1      46.751  27.723  29.678  1.00  0.00     0.037 A 
BRANCH  50  64
ATOM     64  C   UNL A   1      43.913  33.068  30.902  1.00  0.00     0.058 A 
ATOM     65  C   UNL A   1      44.035  34.143  30.009  1.00  0.00     0.135 A 
ATOM     66  C   UNL A   1      43.864  33.355  32.275  1.00  0.00     0.135 A 
ATOM     67  F   UNL A   1      44.108  33.920  28.688  1.00  0.00    -0.206 F 
ATOM     68  C   UNL A   1      44.130  35.454  30.461  1.00  0.00     0.059 A 
ATOM     69  C   UNL A   1      43.933  34.661  32.749  1.00  0.00     0.059 A 
ATOM     70  F   UNL A   1      43.751  32.361  33.170  1.00  0.00    -0.206 F 
ATOM     71  C   UNL A   1      44.080  35.703  31.833  1.00  0.00     0.060 A 
BRANCH  71  72
ATOM     72  S   UNL A   1      44.196  37.411  32.406  1.00  0.00     0.124 S 
ATOM     73  O   UNL A   1      43.854  38.147  31.191  1.00  0.00    -0.237 OA
ATOM     74  O   UNL A   1      43.201  37.454  33.472  1.00  0.00    -0.237 OA
ATOM     75  O   UNL A   1      45.583  37.528  32.842  1.00  0.00    -0.744 OA
ENDBRANCH  71  72
ENDBRANCH  50  64
BRANCH  51  76
ATOM     76  C   UNL A   1      42.727  23.676  27.674  1.00  0.00     0.058 A 
ATOM     77  C   UNL A   1      42.705  23.417  26.295  1.00  0.00     0.135 A 
ATOM     78  C   UNL A   1      42.570  22.588  28.546  1.00  0.00     0.135 A 
ATOM     79  F   UNL A   1      42.847  24.427  25.423  1.00  0.00    -0.206 F 
ATOM     80  C   UNL A   1      42.496  22.136  25.796  1.00  0.00     0.059 A 
ATOM     81  C   UNL A   1      42.382  21.294  28.071  1.00  0.00     0.059 A 
ATOM     82  F   UNL A   1      42.603  22.779  29.874  1.00  0.00    -0.206 F 
ATOM     83  C   UNL A   1      42.326  21.081  26.693  1.00  0.00     0.060 A 
BRANCH  83  84
ATOM     84  S   UNL A   1      42.059  19.417  26.042  1.00  0.00     0.124 S 
ATOM     85  O   UNL A   1      42.530  18.593  27.149  1.00  0.00    -0.237 OA
ATOM     86  O   UNL A   1      40.619  19.403  25.803  1.00  0.00    -0.237 OA
ATOM     87  O   UNL A   1      42.885  19.396  24.838  1.00  0.00    -0.744 OA
ENDBRANCH  83  84
ENDBRANCH  51  76
BRANCH  63  88
ATOM     88  C   UNL A   1      48.194  27.377  29.901  1.00  0.00     0.058 A 
ATOM     89  C   UNL A   1      49.188  27.735  28.980  1.00  0.00     0.135 A 
ATOM     90  C   UNL A   1      48.590  26.761  31.100  1.00  0.00     0.135 A 
ATOM     91  F   UNL A   1      48.855  28.319  27.819  1.00  0.00    -0.206 F 
ATOM     92  C   UNL A   1      50.532  27.494  29.240  1.00  0.00     0.059 A 
ATOM     93  C   UNL A   1      49.930  26.527  31.387  1.00  0.00     0.059 A 
ATOM     94  F   UNL A   1      47.673  26.407  32.013  1.00  0.00    -0.206 F 
ATOM     95  C   UNL A   1      50.895  26.895  30.450  1.00  0.00     0.060 A 
BRANCH  95  96
ATOM     96  S   UNL A   1      52.647  26.655  30.811  1.00  0.00     0.124 S 
ATOM     97  O   UNL A   1      53.003  27.938  31.406  1.00  0.00    -0.237 OA
ATOM     98  O   UNL A   1      52.628  25.516  31.724  1.00  0.00    -0.237 OA
ATOM     99  O   UNL A   1      53.228  26.387  29.499  1.00  0.00    -0.744 OA
ENDBRANCH  95  96
ENDBRANCH  63  88
ENDBRANCH  37  38
ENDBRANCH  29  32
ENDBRANCH  27  28
ENDBRANCH  26  27
ENDBRANCH   1  26
TORSDOF 18
ENDMDL
MODEL 3
REMARK VINA RESULT:      -9.3      0.604      2.025
REMARK SMILES COc1cc(OC)cc(-c2ccc([C@@H](C)C(=O)NCCCCNC(=O)c3ccc(-c4c5nc(c(-c6c(F)cc(S(=O)(=O)[O-])cc6F)c6ccc([nH]6)c(-c6c(F)cc(S(=O)(=O)[O-])cc6F)c6nc(c(-c7c(F)cc(S(=O)(=O)[O-])cc7F)c7ccc4[nH]7)C=C6)C=C5)cc3)cc2F)c1
REMARK SMILES IDX 20 1 19 2 18 3 16 4 17 5 14 7 15 8 13 9 10 10 11 11 93 12
REMARK SMILES IDX 12 13 92 14 94 15 9 16 3 17 4 18 95 19 5 20 8 21 2 22 1 23
REMARK SMILES IDX 6 24 7 25 21 26 22 27 23 28 24 29 25 31 26 32 27 33 91 34
REMARK SMILES IDX 28 35 90 36 29 37 30 38 31 39 84 40 32 41 89 42 83 43 85 44
REMARK SMILES IDX 33 45 88 46 82 47 81 48 34 50 68 51 47 52 67 53 48 54 51 55
REMARK SMILES IDX 66 56 86 57 49 58 50 59 65 61 87 62 52 63 35 64 36 65 45 66
REMARK SMILES IDX 37 67 38 68 44 69 46 70 39 71 40 72 41 73 42 74 43 75 69 76
REMARK SMILES IDX 70 77 79 78 71 79 72 80 78 81 80 82 73 83 74 84 75 85 76 86
REMARK SMILES IDX 77 87 53 88 54 89 63 90 55 91 56 92 62 93 64 94 57 95 58 96
REMARK SMILES IDX 59 97 60 98 61 99
REMARK H PARENT 18 6 23 30 85 49 51 60
REMARK Flexibility Score: inf
ROOT
ATOM      1  C   UNL A   1      41.544  19.326  25.711  1.00  0.00     0.023 C 
ENDROOT
BRANCH   1   2
ATOM      2  C   UNL A   1      42.776  19.537  26.592  1.00  0.00     0.116 C 
BRANCH   2   3
ATOM      3  N   UNL A   1      43.995  19.664  25.820  1.00  0.00    -0.356 N 
ATOM      4  C   UNL A   1      44.558  20.733  25.192  1.00  0.00     0.227 C 
ATOM      5  O   UNL A   1      45.601  20.522  24.562  1.00  0.00    -0.274 OA
ATOM      6  H   UNL A   1      44.507  18.828  25.734  1.00  0.00     0.163 HD
BRANCH   4   7
ATOM      7  C   UNL A   1      43.973  22.153  25.236  1.00  0.00     0.105 C 
ATOM      8  C   UNL A   1      44.387  23.029  24.053  1.00  0.00     0.023 C 
BRANCH   7   9
ATOM      9  C   UNL A   1      44.055  22.793  26.613  1.00  0.00    -0.033 A 
ATOM     10  C   UNL A   1      44.138  23.826  29.287  1.00  0.00     0.018 A 
ATOM     11  C   UNL A   1      45.299  23.681  28.506  1.00  0.00     0.012 A 
ATOM     12  C   UNL A   1      42.931  23.459  28.674  1.00  0.00     0.131 A 
ATOM     13  C   UNL A   1      45.256  23.212  27.187  1.00  0.00     0.005 A 
ATOM     14  C   UNL A   1      42.887  22.935  27.377  1.00  0.00     0.044 A 
ATOM     15  F   UNL A   1      41.764  23.607  29.321  1.00  0.00    -0.206 F 
BRANCH  10  16
ATOM     16  C   UNL A   1      44.221  24.350  30.673  1.00  0.00    -0.008 A 
ATOM     17  C   UNL A   1      44.295  26.197  32.274  1.00  0.00     0.123 A 
ATOM     18  C   UNL A   1      44.364  25.287  33.328  1.00  0.00     0.092 A 
ATOM     19  C   UNL A   1      44.225  25.731  30.957  1.00  0.00     0.055 A 
ATOM     20  C   UNL A   1      44.341  23.917  33.085  1.00  0.00     0.123 A 
ATOM     21  C   UNL A   1      44.286  23.461  31.768  1.00  0.00     0.055 A 
BRANCH  17  22
ATOM     22  O   UNL A   1      44.344  27.514  32.646  1.00  0.00    -0.497 OA
ATOM     23  C   UNL A   1      43.447  28.384  31.967  1.00  0.00     0.278 C 
ENDBRANCH  17  22
BRANCH  20  24
ATOM     24  O   UNL A   1      44.385  23.127  34.202  1.00  0.00    -0.497 OA
ATOM     25  C   UNL A   1      43.382  23.352  35.184  1.00  0.00     0.278 C 
ENDBRANCH  20  24
ENDBRANCH  10  16
ENDBRANCH   7   9
ENDBRANCH   4   7
ENDBRANCH   2   3
ENDBRANCH   1   2
BRANCH   1  26
ATOM     26  C   UNL A   1      40.226  19.807  26.312  1.00  0.00     0.023 C 
BRANCH  26  27
ATOM     27  C   UNL A   1      40.039  21.319  26.339  1.00  0.00     0.116 C 
BRANCH  27  28
ATOM     28  N   UNL A   1      38.688  21.759  26.013  1.00  0.00    -0.352 N 
ATOM     29  C   UNL A   1      38.170  23.031  26.148  1.00  0.00     0.251 C 
ATOM     30  H   UNL A   1      38.079  21.074  25.656  1.00  0.00     0.163 HD
ATOM     31  O   UNL A   1      36.996  23.264  25.900  1.00  0.00    -0.269 OA
BRANCH  29  32
ATOM     32  C   UNL A   1      39.066  24.092  26.655  1.00  0.00     0.039 A 
ATOM     33  C   UNL A   1      39.894  24.768  25.755  1.00  0.00     0.014 A 
ATOM     34  C   UNL A   1      38.984  24.491  27.990  1.00  0.00     0.014 A 
ATOM     35  C   UNL A   1      40.573  25.912  26.178  1.00  0.00     0.010 A 
ATOM     36  C   UNL A   1      39.608  25.667  28.389  1.00  0.00     0.010 A 
ATOM     37  C   UNL A   1      40.396  26.398  27.483  1.00  0.00    -0.014 A 
BRANCH  37  38
ATOM     38  C   UNL A   1      41.016  27.663  27.949  1.00  0.00     0.031 A 
ATOM     39  C   UNL A   1      42.514  27.786  27.944  1.00  0.00     0.074 A 
ATOM     40  C   UNL A   1      40.253  28.643  28.473  1.00  0.00     0.049 A 
ATOM     41  N   UNL A   1      43.273  28.682  28.517  1.00  0.00    -0.248 NA
ATOM     42  C   UNL A   1      43.257  26.735  27.228  1.00  0.00     0.031 C 
ATOM     43  C   UNL A   1      38.791  28.633  28.558  1.00  0.00     0.029 A 
ATOM     44  N   UNL A   1      40.608  29.833  29.058  1.00  0.00    -0.354 N 
ATOM     45  C   UNL A   1      44.580  28.289  28.258  1.00  0.00     0.074 A 
ATOM     46  C   UNL A   1      44.512  27.054  27.508  1.00  0.00     0.031 C 
ATOM     47  C   UNL A   1      38.376  29.765  29.153  1.00  0.00     0.029 A 
ATOM     48  C   UNL A   1      39.540  30.558  29.533  1.00  0.00     0.049 A 
ATOM     49  H   UNL A   1      41.542  30.139  29.133  1.00  0.00     0.167 HD
ATOM     50  C   UNL A   1      45.731  28.911  28.601  1.00  0.00     0.037 A 
ATOM     51  C   UNL A   1      39.507  31.720  30.214  1.00  0.00     0.037 A 
ATOM     52  C   UNL A   1      45.792  30.160  29.310  1.00  0.00     0.049 A 
ATOM     53  C   UNL A   1      40.803  32.405  30.560  1.00  0.00     0.074 A 
ATOM     54  C   UNL A   1      46.909  30.872  29.711  1.00  0.00     0.029 A 
ATOM     55  N   UNL A   1      44.684  30.897  29.700  1.00  0.00    -0.354 N 
ATOM     56  N   UNL A   1      42.032  32.012  30.321  1.00  0.00    -0.248 NA
ATOM     57  C   UNL A   1      40.712  33.691  31.269  1.00  0.00     0.031 C 
ATOM     58  C   UNL A   1      46.475  32.041  30.345  1.00  0.00     0.029 A 
ATOM     59  C   UNL A   1      45.090  32.066  30.317  1.00  0.00     0.049 A 
ATOM     60  H   UNL A   1      43.747  30.628  29.559  1.00  0.00     0.167 HD
ATOM     61  C   UNL A   1      42.855  33.017  30.815  1.00  0.00     0.074 A 
ATOM     62  C   UNL A   1      41.989  34.036  31.368  1.00  0.00     0.031 C 
ATOM     63  C   UNL A   1      44.207  33.089  30.813  1.00  0.00     0.037 A 
BRANCH  50  64
ATOM     64  C   UNL A   1      47.020  28.256  28.194  1.00  0.00     0.058 A 
ATOM     65  C   UNL A   1      47.634  28.561  26.970  1.00  0.00     0.135 A 
ATOM     66  C   UNL A   1      47.661  27.340  29.043  1.00  0.00     0.135 A 
ATOM     67  F   UNL A   1      47.051  29.414  26.114  1.00  0.00    -0.206 F 
ATOM     68  C   UNL A   1      48.830  27.962  26.589  1.00  0.00     0.059 A 
ATOM     69  C   UNL A   1      48.870  26.746  28.693  1.00  0.00     0.059 A 
ATOM     70  F   UNL A   1      47.110  27.012  30.222  1.00  0.00    -0.206 F 
ATOM     71  C   UNL A   1      49.439  27.055  27.458  1.00  0.00     0.060 A 
BRANCH  71  72
ATOM     72  S   UNL A   1      50.995  26.290  26.955  1.00  0.00     0.124 S 
ATOM     73  O   UNL A   1      51.139  26.796  25.593  1.00  0.00    -0.237 OA
ATOM     74  O   UNL A   1      51.938  26.824  27.931  1.00  0.00    -0.237 OA
ATOM     75  O   UNL A   1      50.722  24.861  27.069  1.00  0.00    -0.744 OA
ENDBRANCH  71  72
ENDBRANCH  50  64
BRANCH  51  76
ATOM     76  C   UNL A   1      38.210  32.327  30.613  1.00  0.00     0.058 A 
ATOM     77  C   UNL A   1      37.578  33.273  29.791  1.00  0.00     0.135 A 
ATOM     78  C   UNL A   1      37.595  32.005  31.832  1.00  0.00     0.135 A 
ATOM     79  F   UNL A   1      38.131  33.616  28.618  1.00  0.00    -0.206 F 
ATOM     80  C   UNL A   1      36.402  33.905  30.178  1.00  0.00     0.059 A 
ATOM     81  C   UNL A   1      36.406  32.607  32.231  1.00  0.00     0.059 A 
ATOM     82  F   UNL A   1      38.149  31.092  32.645  1.00  0.00    -0.206 F 
ATOM     83  C   UNL A   1      35.828  33.573  31.406  1.00  0.00     0.060 A 
BRANCH  83  84
ATOM     84  S   UNL A   1      34.297  34.393  31.904  1.00  0.00     0.124 S 
ATOM     85  O   UNL A   1      33.741  33.425  32.842  1.00  0.00    -0.237 OA
ATOM     86  O   UNL A   1      34.786  35.638  32.487  1.00  0.00    -0.237 OA
ATOM     87  O   UNL A   1      33.576  34.542  30.643  1.00  0.00    -0.744 OA
ENDBRANCH  83  84
ENDBRANCH  51  76
BRANCH  63  88
ATOM     88  C   UNL A   1      44.839  34.336  31.357  1.00  0.00     0.058 A 
ATOM     89  C   UNL A   1      45.236  34.437  32.697  1.00  0.00     0.135 A 
ATOM     90  C   UNL A   1      45.135  35.405  30.495  1.00  0.00     0.135 A 
ATOM     91  F   UNL A   1      44.969  33.442  33.557  1.00  0.00    -0.206 F 
ATOM     92  C   UNL A   1      45.907  35.560  33.169  1.00  0.00     0.059 A 
ATOM     93  C   UNL A   1      45.820  36.529  30.942  1.00  0.00     0.059 A 
ATOM     94  F   UNL A   1      44.780  35.349  29.202  1.00  0.00    -0.206 F 
ATOM     95  C   UNL A   1      46.200  36.599  32.281  1.00  0.00     0.060 A 
BRANCH  95  96
ATOM     96  S   UNL A   1      47.137  38.019  32.885  1.00  0.00     0.124 S 
ATOM     97  O   UNL A   1      46.671  39.078  31.998  1.00  0.00    -0.237 OA
ATOM     98  O   UNL A   1      46.699  38.117  34.275  1.00  0.00    -0.237 OA
ATOM     99  O   UNL A   1      48.526  37.610  32.702  1.00  0.00    -0.744 OA
ENDBRANCH  95  96
ENDBRANCH  63  88
ENDBRANCH  37  38
ENDBRANCH  29  32
ENDBRANCH  27  28
ENDBRANCH  26  27
ENDBRANCH   1  26
TORSDOF 18
ENDMDL
