MODEL 1
REMARK VINA RESULT:     -12.1      0.000      0.000
REMARK SMILES Cc1nn(C[C@@H]2[NH2+][C@@H](C(=O)NCCCCNC(=O)c3ccc(-c4c5nc(c(-c6c(F)cc(S(=O)(=O)[O-])cc6F)c6ccc([nH]6)c(-c6c(F)cc(S(=O)(=O)[O-])cc6F)c6nc(c(-c7c(F)cc(S(=O)(=O)[O-])cc7F)c7ccc4[nH]7)C=C6)C=C5)cc3)CS2)c(C)c1Cl
REMARK SMILES IDX 14 1 13 2 12 3 11 4 9 5 10 6 8 8 6 9 7 10 86 11 85 14 5 15
REMARK SMILES IDX 4 16 1 17 2 18 3 19 89 20 87 21 90 22 88 23 15 24 16 25
REMARK SMILES IDX 17 26 18 28 19 29 20 30 84 31 21 32 83 33 22 34 23 35 24 36
REMARK SMILES IDX 77 37 25 38 82 39 76 40 78 41 26 42 81 43 75 44 74 45 27 47
REMARK SMILES IDX 61 48 40 49 60 50 41 51 44 52 59 53 79 54 42 55 43 56 58 58
REMARK SMILES IDX 80 59 45 60 28 61 29 62 38 63 30 64 31 65 37 66 39 67 32 68
REMARK SMILES IDX 33 69 34 70 35 71 36 72 62 73 63 74 72 75 64 76 65 77 71 78
REMARK SMILES IDX 73 79 66 80 67 81 68 82 69 83 70 84 46 85 47 86 56 87 48 88
REMARK SMILES IDX 49 89 55 90 57 91 50 92 51 93 52 94 53 95 54 96
REMARK H PARENT 11 7 7 12 7 13 16 27 78 46 44 57
REMARK Flexibility Score: inf
ROOT
ATOM      1  C   UNL A   1      32.564  29.082  26.443  1.00  0.00     0.023 C 
ENDROOT
BRANCH   1   2
ATOM      2  C   UNL A   1      31.852  27.849  27.019  1.00  0.00     0.023 C 
BRANCH   2   3
ATOM      3  C   UNL A   1      32.050  26.542  26.246  1.00  0.00     0.116 C 
BRANCH   3   4
ATOM      4  N   UNL A   1      31.268  25.448  26.801  1.00  0.00    -0.351 N 
ATOM      5  C   UNL A   1      31.526  24.106  26.829  1.00  0.00     0.279 C 
ATOM      6  O   UNL A   1      30.638  23.346  27.227  1.00  0.00    -0.268 OA
ATOM      7  H   UNL A   1      30.419  25.716  27.221  1.00  0.00     0.163 HD
BRANCH   5   8
ATOM      8  C   UNL A   1      32.888  23.567  26.384  1.00  0.00     0.283 C 
ATOM      9  C   UNL A   1      33.979  21.794  25.248  1.00  0.00     0.264 C 
ATOM     10  N   UNL A   1      32.713  22.542  25.315  1.00  0.00    -0.323 N 
ATOM     11  S   UNL A   1      34.408  21.441  26.971  1.00  0.00    -0.091 SA
ATOM     12  H   UNL A   1      31.944  21.914  25.549  1.00  0.00     0.348 HD
ATOM     13  H   UNL A   1      32.491  22.975  24.418  1.00  0.00     0.348 HD
ATOM     14  C   UNL A   1      33.633  22.966  27.582  1.00  0.00     0.151 C 
BRANCH   9  15
ATOM     15  C   UNL A   1      35.122  22.431  24.407  1.00  0.00     0.221 C 
BRANCH  15  16
ATOM     16  N   UNL A   1      36.436  22.564  25.015  1.00  0.00    -0.261 N 
ATOM     17  C   UNL A   1      38.683  24.624  26.824  1.00  0.00     0.070 C 
ATOM     18  C   UNL A   1      38.000  23.543  26.071  1.00  0.00     0.078 A 
ATOM     19  N   UNL A   1      36.856  23.784  25.419  1.00  0.00    -0.176 NA
ATOM     20  C   UNL A   1      38.397  22.197  25.922  1.00  0.00     0.084 A 
ATOM     21  C   UNL A   1      37.395  21.591  25.193  1.00  0.00     0.055 A 
ATOM     22  Cl  UNL A   1      39.821  21.504  26.528  1.00  0.00    -0.080 Cl
ATOM     23  C   UNL A   1      37.265  20.195  24.708  1.00  0.00     0.068 C 
ENDBRANCH  15  16
ENDBRANCH   9  15
ENDBRANCH   5   8
ENDBRANCH   3   4
ENDBRANCH   2   3
ENDBRANCH   1   2
BRANCH   1  24
ATOM     24  C   UNL A   1      33.830  29.492  27.185  1.00  0.00     0.116 C 
BRANCH  24  25
ATOM     25  N   UNL A   1      34.063  30.937  27.176  1.00  0.00    -0.352 N 
ATOM     26  C   UNL A   1      35.046  31.643  27.857  1.00  0.00     0.251 C 
ATOM     27  H   UNL A   1      33.450  31.472  26.624  1.00  0.00     0.163 HD
ATOM     28  O   UNL A   1      34.910  32.828  28.104  1.00  0.00    -0.269 OA
BRANCH  26  29
ATOM     29  C   UNL A   1      36.268  30.921  28.263  1.00  0.00     0.039 A 
ATOM     30  C   UNL A   1      36.531  29.611  27.851  1.00  0.00     0.014 A 
ATOM     31  C   UNL A   1      37.182  31.613  29.050  1.00  0.00     0.014 A 
ATOM     32  C   UNL A   1      37.764  29.043  28.172  1.00  0.00     0.010 A 
ATOM     33  C   UNL A   1      38.452  31.128  29.202  1.00  0.00     0.010 A 
ATOM     34  C   UNL A   1      38.730  29.818  28.833  1.00  0.00    -0.014 A 
BRANCH  34  35
ATOM     35  C   UNL A   1      40.086  29.327  29.058  1.00  0.00     0.031 A 
ATOM     36  C   UNL A   1      40.459  29.180  30.492  1.00  0.00     0.074 A 
ATOM     37  C   UNL A   1      40.844  28.810  28.063  1.00  0.00     0.049 A 
ATOM     38  N   UNL A   1      41.333  29.860  31.157  1.00  0.00    -0.248 NA
ATOM     39  C   UNL A   1      39.653  28.275  31.332  1.00  0.00     0.031 C 
ATOM     40  C   UNL A   1      40.477  28.597  26.655  1.00  0.00     0.029 A 
ATOM     41  N   UNL A   1      42.081  28.250  28.124  1.00  0.00    -0.354 N 
ATOM     42  C   UNL A   1      41.365  29.298  32.432  1.00  0.00     0.074 A 
ATOM     43  C   UNL A   1      40.179  28.493  32.541  1.00  0.00     0.031 C 
ATOM     44  C   UNL A   1      41.352  27.745  26.077  1.00  0.00     0.029 A 
ATOM     45  C   UNL A   1      42.436  27.497  27.008  1.00  0.00     0.049 A 
ATOM     46  H   UNL A   1      42.679  28.369  28.896  1.00  0.00     0.167 HD
ATOM     47  C   UNL A   1      42.499  29.335  33.188  1.00  0.00     0.037 A 
ATOM     48  C   UNL A   1      43.534  26.709  26.867  1.00  0.00     0.037 A 
ATOM     49  C   UNL A   1      43.435  30.301  32.665  1.00  0.00     0.049 A 
ATOM     50  C   UNL A   1      44.517  27.167  27.885  1.00  0.00     0.074 A 
ATOM     51  C   UNL A   1      43.391  31.659  32.415  1.00  0.00     0.029 A 
ATOM     52  N   UNL A   1      44.500  29.825  31.937  1.00  0.00    -0.354 N 
ATOM     53  N   UNL A   1      45.084  28.344  27.866  1.00  0.00    -0.248 NA
ATOM     54  C   UNL A   1      44.499  26.506  29.180  1.00  0.00     0.031 C 
ATOM     55  C   UNL A   1      44.092  31.829  31.185  1.00  0.00     0.029 A 
ATOM     56  C   UNL A   1      44.596  30.586  30.801  1.00  0.00     0.049 A 
ATOM     57  H   UNL A   1      45.086  29.073  32.186  1.00  0.00     0.167 HD
ATOM     58  C   UNL A   1      45.094  28.754  29.191  1.00  0.00     0.074 A 
ATOM     59  C   UNL A   1      44.796  27.547  29.962  1.00  0.00     0.031 C 
ATOM     60  C   UNL A   1      45.054  30.078  29.524  1.00  0.00     0.037 A 
BRANCH  47  61
ATOM     61  C   UNL A   1      42.927  28.251  34.155  1.00  0.00     0.058 A 
ATOM     62  C   UNL A   1      43.159  28.588  35.506  1.00  0.00     0.135 A 
ATOM     63  C   UNL A   1      43.393  26.975  33.762  1.00  0.00     0.135 A 
ATOM     64  F   UNL A   1      42.761  29.774  35.994  1.00  0.00    -0.206 F 
ATOM     65  C   UNL A   1      43.875  27.761  36.373  1.00  0.00     0.059 A 
ATOM     66  C   UNL A   1      44.059  26.112  34.626  1.00  0.00     0.059 A 
ATOM     67  F   UNL A   1      43.315  26.537  32.502  1.00  0.00    -0.206 F 
ATOM     68  C   UNL A   1      44.335  26.531  35.916  1.00  0.00     0.060 A 
BRANCH  68  69
ATOM     69  S   UNL A   1      45.350  25.508  36.996  1.00  0.00     0.124 S 
ATOM     70  O   UNL A   1      45.697  26.455  38.049  1.00  0.00    -0.237 OA
ATOM     71  O   UNL A   1      44.419  24.447  37.368  1.00  0.00    -0.237 OA
ATOM     72  O   UNL A   1      46.449  25.094  36.129  1.00  0.00    -0.744 OA
ENDBRANCH  68  69
ENDBRANCH  47  61
BRANCH  48  73
ATOM     73  C   UNL A   1      43.650  25.400  26.167  1.00  0.00     0.058 A 
ATOM     74  C   UNL A   1      44.671  25.163  25.227  1.00  0.00     0.135 A 
ATOM     75  C   UNL A   1      42.947  24.262  26.614  1.00  0.00     0.135 A 
ATOM     76  F   UNL A   1      45.405  26.184  24.757  1.00  0.00    -0.206 F 
ATOM     77  C   UNL A   1      45.011  23.873  24.800  1.00  0.00     0.059 A 
ATOM     78  C   UNL A   1      43.263  22.969  26.196  1.00  0.00     0.059 A 
ATOM     79  F   UNL A   1      41.987  24.365  27.545  1.00  0.00    -0.206 F 
ATOM     80  C   UNL A   1      44.315  22.778  25.309  1.00  0.00     0.060 A 
BRANCH  80  81
ATOM     81  S   UNL A   1      44.867  21.101  24.906  1.00  0.00     0.124 S 
ATOM     82  O   UNL A   1      43.922  20.283  25.658  1.00  0.00    -0.237 OA
ATOM     83  O   UNL A   1      44.723  21.069  23.454  1.00  0.00    -0.237 OA
ATOM     84  O   UNL A   1      46.244  21.072  25.393  1.00  0.00    -0.744 OA
ENDBRANCH  80  81
ENDBRANCH  48  73
BRANCH  60  85
ATOM     85  C   UNL A   1      45.295  31.102  28.440  1.00  0.00     0.058 A 
ATOM     86  C   UNL A   1      44.308  31.599  27.569  1.00  0.00     0.135 A 
ATOM     87  C   UNL A   1      46.554  31.719  28.393  1.00  0.00     0.135 A 
ATOM     88  F   UNL A   1      43.051  31.139  27.614  1.00  0.00    -0.206 F 
ATOM     89  C   UNL A   1      44.573  32.634  26.668  1.00  0.00     0.059 A 
ATOM     90  C   UNL A   1      46.831  32.773  27.527  1.00  0.00     0.059 A 
ATOM     91  F   UNL A   1      47.523  31.333  29.240  1.00  0.00    -0.206 F 
ATOM     92  C   UNL A   1      45.840  33.218  26.657  1.00  0.00     0.060 A 
BRANCH  92  93
ATOM     93  S   UNL A   1      46.166  34.602  25.543  1.00  0.00     0.124 S 
ATOM     94  O   UNL A   1      47.605  34.492  25.329  1.00  0.00    -0.237 OA
ATOM     95  O   UNL A   1      45.328  34.285  24.389  1.00  0.00    -0.237 OA
ATOM     96  O   UNL A   1      45.736  35.767  26.311  1.00  0.00    -0.744 OA
ENDBRANCH  92  93
ENDBRANCH  60  85
ENDBRANCH  34  35
ENDBRANCH  26  29
ENDBRANCH  24  25
ENDBRANCH   1  24
TORSDOF 16
ENDMDL
MODEL 2
REMARK VINA RESULT:     -12.1      2.769      9.341
REMARK SMILES Cc1nn(C[C@@H]2[NH2+][C@@H](C(=O)NCCCCNC(=O)c3ccc(-c4c5nc(c(-c6c(F)cc(S(=O)(=O)[O-])cc6F)c6ccc([nH]6)c(-c6c(F)cc(S(=O)(=O)[O-])cc6F)c6nc(c(-c7c(F)cc(S(=O)(=O)[O-])cc7F)c7ccc4[nH]7)C=C6)C=C5)cc3)CS2)c(C)c1Cl
REMARK SMILES IDX 14 1 13 2 12 3 11 4 9 5 10 6 8 8 6 9 7 10 86 11 85 14 5 15
REMARK SMILES IDX 4 16 1 17 2 18 3 19 89 20 87 21 90 22 88 23 15 24 16 25
REMARK SMILES IDX 17 26 18 28 19 29 20 30 84 31 21 32 83 33 22 34 23 35 24 36
REMARK SMILES IDX 77 37 25 38 82 39 76 40 78 41 26 42 81 43 75 44 74 45 27 47
REMARK SMILES IDX 61 48 40 49 60 50 41 51 44 52 59 53 79 54 42 55 43 56 58 58
REMARK SMILES IDX 80 59 45 60 28 61 29 62 38 63 30 64 31 65 37 66 39 67 32 68
REMARK SMILES IDX 33 69 34 70 35 71 36 72 62 73 63 74 72 75 64 76 65 77 71 78
REMARK SMILES IDX 73 79 66 80 67 81 68 82 69 83 70 84 46 85 47 86 56 87 48 88
REMARK SMILES IDX 49 89 55 90 57 91 50 92 51 93 52 94 53 95 54 96
REMARK H PARENT 11 7 7 12 7 13 16 27 78 46 44 57
REMARK Flexibility Score: inf
ROOT
ATOM      1  C   UNL A   1      41.000  19.967  26.580  1.00  0.00     0.023 C 
ENDROOT
BRANCH   1   2
ATOM      2  C   UNL A   1      40.435  21.348  26.943  1.00  0.00     0.023 C 
BRANCH   2   3
ATOM      3  C   UNL A   1      39.281  21.847  26.069  1.00  0.00     0.116 C 
BRANCH   3   4
ATOM      4  N   UNL A   1      38.514  20.755  25.490  1.00  0.00    -0.351 N 
ATOM      5  C   UNL A   1      37.190  20.690  25.151  1.00  0.00     0.279 C 
ATOM      6  O   UNL A   1      36.725  19.599  24.809  1.00  0.00    -0.268 OA
ATOM      7  H   UNL A   1      39.027  19.934  25.315  1.00  0.00     0.163 HD
BRANCH   5   8
ATOM      8  C   UNL A   1      36.316  21.946  25.190  1.00  0.00     0.283 C 
ATOM      9  C   UNL A   1      34.082  22.739  25.124  1.00  0.00     0.264 C 
ATOM     10  N   UNL A   1      34.905  21.583  25.513  1.00  0.00    -0.323 N 
ATOM     11  S   UNL A   1      34.687  23.218  23.486  1.00  0.00    -0.091 SA
ATOM     12  H   UNL A   1      34.624  20.756  24.987  1.00  0.00     0.348 HD
ATOM     13  H   UNL A   1      34.795  21.367  26.504  1.00  0.00     0.348 HD
ATOM     14  C   UNL A   1      36.384  22.677  23.844  1.00  0.00     0.151 C 
BRANCH   9  15
ATOM     15  C   UNL A   1      33.984  23.903  26.152  1.00  0.00     0.221 C 
BRANCH  15  16
ATOM     16  N   UNL A   1      33.310  25.126  25.747  1.00  0.00    -0.261 N 
ATOM     17  C   UNL A   1      33.633  28.507  24.731  1.00  0.00     0.070 C 
ATOM     18  C   UNL A   1      33.167  27.156  25.133  1.00  0.00     0.078 A 
ATOM     19  N   UNL A   1      34.014  26.278  25.684  1.00  0.00    -0.176 NA
ATOM     20  C   UNL A   1      31.871  26.610  25.017  1.00  0.00     0.084 A 
ATOM     21  C   UNL A   1      31.973  25.310  25.466  1.00  0.00     0.055 A 
ATOM     22  Cl  UNL A   1      30.496  27.417  24.439  1.00  0.00    -0.080 Cl
ATOM     23  C   UNL A   1      30.941  24.253  25.602  1.00  0.00     0.068 C 
ENDBRANCH  15  16
ENDBRANCH   9  15
ENDBRANCH   5   8
ENDBRANCH   3   4
ENDBRANCH   2   3
ENDBRANCH   1   2
BRANCH   1  24
ATOM     24  C   UNL A   1      42.396  19.686  27.123  1.00  0.00     0.116 C 
BRANCH  24  25
ATOM     25  N   UNL A   1      43.396  19.491  26.072  1.00  0.00    -0.352 N 
ATOM     26  C   UNL A   1      43.921  20.445  25.210  1.00  0.00     0.251 C 
ATOM     27  H   UNL A   1      43.737  18.574  25.963  1.00  0.00     0.163 HD
ATOM     28  O   UNL A   1      44.419  20.123  24.146  1.00  0.00    -0.269 OA
BRANCH  26  29
ATOM     29  C   UNL A   1      43.871  21.861  25.625  1.00  0.00     0.039 A 
ATOM     30  C   UNL A   1      43.011  22.783  25.022  1.00  0.00     0.014 A 
ATOM     31  C   UNL A   1      44.695  22.243  26.678  1.00  0.00     0.014 A 
ATOM     32  C   UNL A   1      42.933  24.072  25.553  1.00  0.00     0.010 A 
ATOM     33  C   UNL A   1      44.482  23.438  27.309  1.00  0.00     0.010 A 
ATOM     34  C   UNL A   1      43.659  24.385  26.713  1.00  0.00    -0.014 A 
BRANCH  34  35
ATOM     35  C   UNL A   1      43.498  25.665  27.396  1.00  0.00     0.031 A 
ATOM     36  C   UNL A   1      44.528  26.683  27.051  1.00  0.00     0.074 A 
ATOM     37  C   UNL A   1      42.375  25.984  28.082  1.00  0.00     0.049 A 
ATOM     38  N   UNL A   1      45.446  27.172  27.816  1.00  0.00    -0.248 NA
ATOM     39  C   UNL A   1      44.656  27.094  25.641  1.00  0.00     0.031 C 
ATOM     40  C   UNL A   1      41.144  25.194  28.233  1.00  0.00     0.029 A 
ATOM     41  N   UNL A   1      42.046  27.148  28.703  1.00  0.00    -0.354 N 
ATOM     42  C   UNL A   1      46.105  28.136  27.055  1.00  0.00     0.074 A 
ATOM     43  C   UNL A   1      45.728  27.889  25.689  1.00  0.00     0.031 C 
ATOM     44  C   UNL A   1      40.142  25.987  28.671  1.00  0.00     0.029 A 
ATOM     45  C   UNL A   1      40.694  27.285  29.005  1.00  0.00     0.049 A 
ATOM     46  H   UNL A   1      42.712  27.838  28.921  1.00  0.00     0.167 HD
ATOM     47  C   UNL A   1      46.694  29.216  27.643  1.00  0.00     0.037 A 
ATOM     48  C   UNL A   1      40.069  28.396  29.477  1.00  0.00     0.037 A 
ATOM     49  C   UNL A   1      46.850  29.006  29.063  1.00  0.00     0.049 A 
ATOM     50  C   UNL A   1      41.127  29.255  30.072  1.00  0.00     0.074 A 
ATOM     51  C   UNL A   1      47.489  28.059  29.840  1.00  0.00     0.029 A 
ATOM     52  N   UNL A   1      45.955  29.629  29.900  1.00  0.00    -0.354 N 
ATOM     53  N   UNL A   1      41.820  28.924  31.129  1.00  0.00    -0.248 NA
ATOM     54  C   UNL A   1      41.742  30.254  29.213  1.00  0.00     0.031 C 
ATOM     55  C   UNL A   1      46.606  27.825  30.934  1.00  0.00     0.029 A 
ATOM     56  C   UNL A   1      45.525  28.699  30.810  1.00  0.00     0.049 A 
ATOM     57  H   UNL A   1      45.673  30.572  29.853  1.00  0.00     0.167 HD
ATOM     58  C   UNL A   1      43.117  29.326  30.843  1.00  0.00     0.074 A 
ATOM     59  C   UNL A   1      42.990  30.212  29.686  1.00  0.00     0.031 C 
ATOM     60  C   UNL A   1      44.194  28.682  31.381  1.00  0.00     0.037 A 
BRANCH  47  61
ATOM     61  C   UNL A   1      46.777  30.596  27.026  1.00  0.00     0.058 A 
ATOM     62  C   UNL A   1      48.014  31.278  27.034  1.00  0.00     0.135 A 
ATOM     63  C   UNL A   1      45.655  31.387  26.692  1.00  0.00     0.135 A 
ATOM     64  F   UNL A   1      49.151  30.630  27.337  1.00  0.00    -0.206 F 
ATOM     65  C   UNL A   1      48.113  32.652  26.815  1.00  0.00     0.059 A 
ATOM     66  C   UNL A   1      45.740  32.747  26.415  1.00  0.00     0.059 A 
ATOM     67  F   UNL A   1      44.406  30.908  26.711  1.00  0.00    -0.206 F 
ATOM     68  C   UNL A   1      46.966  33.380  26.523  1.00  0.00     0.060 A 
BRANCH  68  69
ATOM     69  S   UNL A   1      47.072  35.169  26.346  1.00  0.00     0.124 S 
ATOM     70  O   UNL A   1      47.959  35.294  25.196  1.00  0.00    -0.237 OA
ATOM     71  O   UNL A   1      45.677  35.533  26.122  1.00  0.00    -0.237 OA
ATOM     72  O   UNL A   1      47.629  35.600  27.625  1.00  0.00    -0.744 OA
ENDBRANCH  68  69
ENDBRANCH  47  61
BRANCH  48  73
ATOM     73  C   UNL A   1      38.709  28.904  29.146  1.00  0.00     0.058 A 
ATOM     74  C   UNL A   1      37.749  29.128  30.151  1.00  0.00     0.135 A 
ATOM     75  C   UNL A   1      38.419  29.455  27.881  1.00  0.00     0.135 A 
ATOM     76  F   UNL A   1      37.948  28.655  31.391  1.00  0.00    -0.206 F 
ATOM     77  C   UNL A   1      36.600  29.899  29.930  1.00  0.00     0.059 A 
ATOM     78  C   UNL A   1      37.276  30.219  27.636  1.00  0.00     0.059 A 
ATOM     79  F   UNL A   1      39.286  29.345  26.864  1.00  0.00    -0.206 F 
ATOM     80  C   UNL A   1      36.383  30.460  28.673  1.00  0.00     0.060 A 
BRANCH  80  81
ATOM     81  S   UNL A   1      35.002  31.604  28.430  1.00  0.00     0.124 S 
ATOM     82  O   UNL A   1      34.021  30.757  27.761  1.00  0.00    -0.237 OA
ATOM     83  O   UNL A   1      34.680  31.994  29.799  1.00  0.00    -0.237 OA
ATOM     84  O   UNL A   1      35.579  32.662  27.605  1.00  0.00    -0.744 OA
ENDBRANCH  80  81
ENDBRANCH  48  73
BRANCH  60  85
ATOM     85  C   UNL A   1      43.962  27.717  32.519  1.00  0.00     0.058 A 
ATOM     86  C   UNL A   1      43.694  28.091  33.849  1.00  0.00     0.135 A 
ATOM     87  C   UNL A   1      43.851  26.354  32.208  1.00  0.00     0.135 A 
ATOM     88  F   UNL A   1      43.678  29.379  34.216  1.00  0.00    -0.206 F 
ATOM     89  C   UNL A   1      43.370  27.148  34.829  1.00  0.00     0.059 A 
ATOM     90  C   UNL A   1      43.497  25.401  33.160  1.00  0.00     0.059 A 
ATOM     91  F   UNL A   1      44.034  25.937  30.944  1.00  0.00    -0.206 F 
ATOM     92  C   UNL A   1      43.271  25.804  34.473  1.00  0.00     0.060 A 
BRANCH  92  93
ATOM     93  S   UNL A   1      42.785  24.592  35.721  1.00  0.00     0.124 S 
ATOM     94  O   UNL A   1      41.394  24.953  35.974  1.00  0.00    -0.237 OA
ATOM     95  O   UNL A   1      42.994  23.323  35.030  1.00  0.00    -0.237 OA
ATOM     96  O   UNL A   1      43.707  24.848  36.825  1.00  0.00    -0.744 OA
ENDBRANCH  92  93
ENDBRANCH  60  85
ENDBRANCH  34  35
ENDBRANCH  26  29
ENDBRANCH  24  25
ENDBRANCH   1  24
TORSDOF 16
ENDMDL
MODEL 3
REMARK VINA RESULT:     -11.9      1.771      2.357
REMARK SMILES Cc1nn(C[C@@H]2[NH2+][C@@H](C(=O)NCCCCNC(=O)c3ccc(-c4c5nc(c(-c6c(F)cc(S(=O)(=O)[O-])cc6F)c6ccc([nH]6)c(-c6c(F)cc(S(=O)(=O)[O-])cc6F)c6nc(c(-c7c(F)cc(S(=O)(=O)[O-])cc7F)c7ccc4[nH]7)C=C6)C=C5)cc3)CS2)c(C)c1Cl
REMARK SMILES IDX 14 1 13 2 12 3 11 4 9 5 10 6 8 8 6 9 7 10 86 11 85 14 5 15
REMARK SMILES IDX 4 16 1 17 2 18 3 19 89 20 87 21 90 22 88 23 15 24 16 25
REMARK SMILES IDX 17 26 18 28 19 29 20 30 84 31 21 32 83 33 22 34 23 35 24 36
REMARK SMILES IDX 77 37 25 38 82 39 76 40 78 41 26 42 81 43 75 44 74 45 27 47
REMARK SMILES IDX 61 48 40 49 60 50 41 51 44 52 59 53 79 54 42 55 43 56 58 58
REMARK SMILES IDX 80 59 45 60 28 61 29 62 38 63 30 64 31 65 37 66 39 67 32 68
REMARK SMILES IDX 33 69 34 70 35 71 36 72 62 73 63 74 72 75 64 76 65 77 71 78
REMARK SMILES IDX 73 79 66 80 67 81 68 82 69 83 70 84 46 85 47 86 56 87 48 88
REMARK SMILES IDX 49 89 55 90 57 91 50 92 51 93 52 94 53 95 54 96
REMARK H PARENT 11 7 7 12 7 13 16 27 78 46 44 57
REMARK Flexibility Score: inf
ROOT
ATOM      1  C   UNL A   1      32.270  29.221  27.174  1.00  0.00     0.023 C 
ENDROOT
BRANCH   1   2
ATOM      2  C   UNL A   1      31.724  29.949  25.938  1.00  0.00     0.023 C 
BRANCH   2   3
ATOM      3  C   UNL A   1      32.328  29.529  24.594  1.00  0.00     0.116 C 
BRANCH   3   4
ATOM      4  N   UNL A   1      31.315  29.341  23.568  1.00  0.00    -0.351 N 
ATOM      5  C   UNL A   1      30.987  28.225  22.848  1.00  0.00     0.279 C 
ATOM      6  O   UNL A   1      30.183  28.344  21.918  1.00  0.00    -0.268 OA
ATOM      7  H   UNL A   1      30.783  30.142  23.358  1.00  0.00     0.163 HD
BRANCH   5   8
ATOM      8  C   UNL A   1      31.598  26.866  23.198  1.00  0.00     0.283 C 
ATOM      9  C   UNL A   1      32.131  24.718  22.346  1.00  0.00     0.264 C 
ATOM     10  N   UNL A   1      31.958  26.126  21.954  1.00  0.00    -0.323 N 
ATOM     11  S   UNL A   1      30.711  24.348  23.407  1.00  0.00    -0.091 SA
ATOM     12  H   UNL A   1      31.212  26.212  21.263  1.00  0.00     0.348 HD
ATOM     13  H   UNL A   1      32.808  26.501  21.532  1.00  0.00     0.348 HD
ATOM     14  C   UNL A   1      30.613  26.048  24.040  1.00  0.00     0.151 C 
BRANCH   9  15
ATOM     15  C   UNL A   1      33.514  24.326  22.942  1.00  0.00     0.221 C 
BRANCH  15  16
ATOM     16  N   UNL A   1      33.552  23.327  23.998  1.00  0.00    -0.261 N 
ATOM     17  C   UNL A   1      33.826  19.895  24.841  1.00  0.00     0.070 C 
ATOM     18  C   UNL A   1      33.679  21.372  24.822  1.00  0.00     0.078 A 
ATOM     19  N   UNL A   1      33.444  22.019  23.674  1.00  0.00    -0.176 NA
ATOM     20  C   UNL A   1      33.754  22.270  25.908  1.00  0.00     0.084 A 
ATOM     21  C   UNL A   1      33.620  23.529  25.360  1.00  0.00     0.055 A 
ATOM     22  Cl  UNL A   1      33.967  21.851  27.537  1.00  0.00    -0.080 Cl
ATOM     23  C   UNL A   1      33.597  24.864  26.006  1.00  0.00     0.068 C 
ENDBRANCH  15  16
ENDBRANCH   9  15
ENDBRANCH   5   8
ENDBRANCH   3   4
ENDBRANCH   2   3
ENDBRANCH   1   2
BRANCH   1  24
ATOM     24  C   UNL A   1      33.697  29.595  27.556  1.00  0.00     0.116 C 
BRANCH  24  25
ATOM     25  N   UNL A   1      34.038  30.981  27.232  1.00  0.00    -0.352 N 
ATOM     26  C   UNL A   1      35.131  31.713  27.677  1.00  0.00     0.251 C 
ATOM     27  H   UNL A   1      33.419  31.451  26.628  1.00  0.00     0.163 HD
ATOM     28  O   UNL A   1      35.110  32.932  27.684  1.00  0.00    -0.269 OA
BRANCH  26  29
ATOM     29  C   UNL A   1      36.327  30.975  28.131  1.00  0.00     0.039 A 
ATOM     30  C   UNL A   1      36.546  29.636  27.797  1.00  0.00     0.014 A 
ATOM     31  C   UNL A   1      37.261  31.682  28.880  1.00  0.00     0.014 A 
ATOM     32  C   UNL A   1      37.758  29.046  28.158  1.00  0.00     0.010 A 
ATOM     33  C   UNL A   1      38.513  31.164  29.067  1.00  0.00     0.010 A 
ATOM     34  C   UNL A   1      38.747  29.825  28.777  1.00  0.00    -0.014 A 
BRANCH  34  35
ATOM     35  C   UNL A   1      40.085  29.302  29.037  1.00  0.00     0.031 A 
ATOM     36  C   UNL A   1      40.406  29.120  30.480  1.00  0.00     0.074 A 
ATOM     37  C   UNL A   1      40.866  28.790  28.057  1.00  0.00     0.049 A 
ATOM     38  N   UNL A   1      41.271  29.769  31.186  1.00  0.00    -0.248 NA
ATOM     39  C   UNL A   1      39.555  28.216  31.274  1.00  0.00     0.031 C 
ATOM     40  C   UNL A   1      40.543  28.611  26.634  1.00  0.00     0.029 A 
ATOM     41  N   UNL A   1      42.089  28.203  28.148  1.00  0.00    -0.354 N 
ATOM     42  C   UNL A   1      41.249  29.182  32.450  1.00  0.00     0.074 A 
ATOM     43  C   UNL A   1      40.044  28.399  32.504  1.00  0.00     0.031 C 
ATOM     44  C   UNL A   1      41.420  27.753  26.069  1.00  0.00     0.029 A 
ATOM     45  C   UNL A   1      42.467  27.466  27.030  1.00  0.00     0.049 A 
ATOM     46  H   UNL A   1      42.663  28.295  28.943  1.00  0.00     0.167 HD
ATOM     47  C   UNL A   1      42.357  29.181  33.245  1.00  0.00     0.037 A 
ATOM     48  C   UNL A   1      43.554  26.658  26.911  1.00  0.00     0.037 A 
ATOM     49  C   UNL A   1      43.330  30.138  32.773  1.00  0.00     0.049 A 
ATOM     50  C   UNL A   1      44.510  27.076  27.970  1.00  0.00     0.074 A 
ATOM     51  C   UNL A   1      43.320  31.501  32.549  1.00  0.00     0.029 A 
ATOM     52  N   UNL A   1      44.409  29.654  32.071  1.00  0.00    -0.354 N 
ATOM     53  N   UNL A   1      45.100  28.241  27.993  1.00  0.00    -0.248 NA
ATOM     54  C   UNL A   1      44.435  26.390  29.250  1.00  0.00     0.031 C 
ATOM     55  C   UNL A   1      44.066  31.681  31.347  1.00  0.00     0.029 A 
ATOM     56  C   UNL A   1      44.558  30.435  30.954  1.00  0.00     0.049 A 
ATOM     57  H   UNL A   1      44.971  28.886  32.324  1.00  0.00     0.167 HD
ATOM     58  C   UNL A   1      45.074  28.625  29.326  1.00  0.00     0.074 A 
ATOM     59  C   UNL A   1      44.727  27.410  30.062  1.00  0.00     0.031 C 
ATOM     60  C   UNL A   1      45.049  29.943  29.683  1.00  0.00     0.037 A 
BRANCH  47  61
ATOM     61  C   UNL A   1      42.731  28.070  34.203  1.00  0.00     0.058 A 
ATOM     62  C   UNL A   1      42.793  28.347  35.586  1.00  0.00     0.135 A 
ATOM     63  C   UNL A   1      43.304  26.839  33.808  1.00  0.00     0.135 A 
ATOM     64  F   UNL A   1      42.282  29.487  36.079  1.00  0.00    -0.206 F 
ATOM     65  C   UNL A   1      43.450  27.511  36.490  1.00  0.00     0.059 A 
ATOM     66  C   UNL A   1      43.914  25.965  34.702  1.00  0.00     0.059 A 
ATOM     67  F   UNL A   1      43.390  26.463  32.528  1.00  0.00    -0.206 F 
ATOM     68  C   UNL A   1      44.022  26.330  36.033  1.00  0.00     0.060 A 
BRANCH  68  69
ATOM     69  S   UNL A   1      44.962  25.301  37.173  1.00  0.00     0.124 S 
ATOM     70  O   UNL A   1      46.323  25.763  36.925  1.00  0.00    -0.237 OA
ATOM     71  O   UNL A   1      44.384  25.672  38.460  1.00  0.00    -0.237 OA
ATOM     72  O   UNL A   1      44.662  23.944  36.725  1.00  0.00    -0.744 OA
ENDBRANCH  68  69
ENDBRANCH  47  61
BRANCH  48  73
ATOM     73  C   UNL A   1      43.668  25.361  26.188  1.00  0.00     0.058 A 
ATOM     74  C   UNL A   1      44.706  25.127  25.267  1.00  0.00     0.135 A 
ATOM     75  C   UNL A   1      42.939  24.225  26.598  1.00  0.00     0.135 A 
ATOM     76  F   UNL A   1      45.463  26.146  24.833  1.00  0.00    -0.206 F 
ATOM     77  C   UNL A   1      45.038  23.840  24.823  1.00  0.00     0.059 A 
ATOM     78  C   UNL A   1      43.247  22.935  26.163  1.00  0.00     0.059 A 
ATOM     79  F   UNL A   1      41.960  24.324  27.510  1.00  0.00    -0.206 F 
ATOM     80  C   UNL A   1      44.315  22.746  25.296  1.00  0.00     0.060 A 
BRANCH  80  81
ATOM     81  S   UNL A   1      44.854  21.070  24.873  1.00  0.00     0.124 S 
ATOM     82  O   UNL A   1      43.926  20.251  25.646  1.00  0.00    -0.237 OA
ATOM     83  O   UNL A   1      44.674  21.043  23.426  1.00  0.00    -0.237 OA
ATOM     84  O   UNL A   1      46.242  21.036  25.326  1.00  0.00    -0.744 OA
ENDBRANCH  80  81
ENDBRANCH  48  73
BRANCH  60  85
ATOM     85  C   UNL A   1      45.346  30.982  28.629  1.00  0.00     0.058 A 
ATOM     86  C   UNL A   1      44.404  31.501  27.722  1.00  0.00     0.135 A 
ATOM     87  C   UNL A   1      46.610  31.591  28.650  1.00  0.00     0.135 A 
ATOM     88  F   UNL A   1      43.143  31.050  27.701  1.00  0.00    -0.206 F 
ATOM     89  C   UNL A   1      44.717  32.549  26.852  1.00  0.00     0.059 A 
ATOM     90  C   UNL A   1      46.934  32.657  27.815  1.00  0.00     0.059 A 
ATOM     91  F   UNL A   1      47.536  31.184  29.534  1.00  0.00    -0.206 F 
ATOM     92  C   UNL A   1      45.987  33.123  26.908  1.00  0.00     0.060 A 
BRANCH  92  93
ATOM     93  S   UNL A   1      46.373  34.523  25.833  1.00  0.00     0.124 S 
ATOM     94  O   UNL A   1      47.770  34.273  25.494  1.00  0.00    -0.237 OA
ATOM     95  O   UNL A   1      45.417  34.357  24.741  1.00  0.00    -0.237 OA
ATOM     96  O   UNL A   1      46.135  35.684  26.686  1.00  0.00    -0.744 OA
ENDBRANCH  92  93
ENDBRANCH  60  85
ENDBRANCH  34  35
ENDBRANCH  26  29
ENDBRANCH  24  25
ENDBRANCH   1  24
TORSDOF 16
ENDMDL
