MODEL 1
REMARK VINA RESULT:     -12.5      0.000      0.000
REMARK SMILES O=C(NCCCCNC(=O)c1cccn2c(=O)c3ccc(Cl)cc3nc12)c1ccc(-c2c3nc(c(-c4c(F)cc(S(=O)(=O)[O-])cc4F)c4ccc([nH]4)c(-c4c(F)cc(S(=O)(=O)[O-])cc4F)c4nc(c(-c5c(F)cc(S(=O)(=O)[O-])cc5F)c5ccc2[nH]5)C=C4)C=C3)cc1
REMARK SMILES IDX 4 1 3 2 1 3 2 4 27 6 28 7 92 8 29 9 91 10 30 11 31 12 32 13
REMARK SMILES IDX 85 14 33 15 90 16 84 17 86 18 34 19 89 20 83 21 82 22 35 24
REMARK SMILES IDX 69 25 48 26 68 27 49 28 52 29 67 30 87 31 50 32 51 33 66 35
REMARK SMILES IDX 88 36 53 37 36 38 37 39 46 40 38 41 39 42 45 43 47 44 40 45
REMARK SMILES IDX 41 46 42 47 43 48 44 49 70 50 71 51 80 52 72 53 73 54 79 55
REMARK SMILES IDX 81 56 74 57 75 58 76 59 77 60 78 61 54 62 55 63 64 64 56 65
REMARK SMILES IDX 57 66 63 67 65 68 58 69 59 70 60 71 61 72 62 73 5 74 6 75
REMARK SMILES IDX 7 76 8 77 9 78 10 80 11 81 12 82 26 83 13 84 15 85 25 86
REMARK SMILES IDX 14 87 16 88 24 89 17 90 18 91 23 92 19 93 21 94 20 95 22 96
REMARK H PARENT 3 5 86 23 52 34 8 79
REMARK Flexibility Score: inf
ROOT
ATOM      1  C   UNL A   1      33.615  28.574  27.212  1.00  0.00     0.116 C 
ENDROOT
BRANCH   1   2
ATOM      2  N   UNL A   1      33.590  29.947  27.689  1.00  0.00    -0.352 N 
ATOM      3  O   UNL A   1      34.276  31.791  28.767  1.00  0.00    -0.269 OA
ATOM      4  C   UNL A   1      34.568  30.689  28.303  1.00  0.00     0.251 C 
ATOM      5  H   UNL A   1      32.738  30.419  27.550  1.00  0.00     0.163 HD
BRANCH   4   6
ATOM      6  C   UNL A   1      35.954  30.180  28.424  1.00  0.00     0.039 A 
ATOM      7  C   UNL A   1      36.367  29.640  29.647  1.00  0.00     0.014 A 
ATOM      8  C   UNL A   1      36.865  30.279  27.370  1.00  0.00     0.014 A 
ATOM      9  C   UNL A   1      37.681  29.189  29.801  1.00  0.00     0.010 A 
ATOM     10  C   UNL A   1      38.140  29.733  27.491  1.00  0.00     0.010 A 
ATOM     11  C   UNL A   1      38.578  29.228  28.723  1.00  0.00    -0.014 A 
BRANCH  11  12
ATOM     12  C   UNL A   1      40.007  28.857  28.902  1.00  0.00     0.031 A 
ATOM     13  C   UNL A   1      40.958  29.850  29.519  1.00  0.00     0.074 A 
ATOM     14  C   UNL A   1      40.452  27.647  28.512  1.00  0.00     0.049 A 
ATOM     15  N   UNL A   1      42.237  29.730  29.762  1.00  0.00    -0.248 NA
ATOM     16  C   UNL A   1      40.404  31.166  29.886  1.00  0.00     0.031 C 
ATOM     17  C   UNL A   1      39.641  26.614  27.868  1.00  0.00     0.029 A 
ATOM     18  N   UNL A   1      41.698  27.079  28.611  1.00  0.00    -0.354 N 
ATOM     19  C   UNL A   1      42.637  30.951  30.294  1.00  0.00     0.074 A 
ATOM     20  C   UNL A   1      41.488  31.824  30.265  1.00  0.00     0.031 C 
ATOM     21  C   UNL A   1      40.397  25.521  27.673  1.00  0.00     0.029 A 
ATOM     22  C   UNL A   1      41.753  25.786  28.148  1.00  0.00     0.049 A 
ATOM     23  H   UNL A   1      42.478  27.552  28.981  1.00  0.00     0.167 HD
ATOM     24  C   UNL A   1      43.840  31.302  30.804  1.00  0.00     0.037 A 
ATOM     25  C   UNL A   1      42.778  24.910  28.118  1.00  0.00     0.037 A 
ATOM     26  C   UNL A   1      44.968  30.415  30.879  1.00  0.00     0.049 A 
ATOM     27  C   UNL A   1      44.116  25.325  28.671  1.00  0.00     0.074 A 
ATOM     28  C   UNL A   1      46.209  30.648  31.442  1.00  0.00     0.029 A 
ATOM     29  N   UNL A   1      44.989  29.123  30.372  1.00  0.00    -0.354 N 
ATOM     30  N   UNL A   1      44.456  26.459  29.236  1.00  0.00    -0.248 NA
ATOM     31  C   UNL A   1      45.208  24.346  28.580  1.00  0.00     0.031 C 
ATOM     32  C   UNL A   1      46.996  29.511  31.238  1.00  0.00     0.029 A 
ATOM     33  C   UNL A   1      46.234  28.556  30.582  1.00  0.00     0.049 A 
ATOM     34  H   UNL A   1      44.232  28.677  29.931  1.00  0.00     0.167 HD
ATOM     35  C   UNL A   1      45.799  26.329  29.574  1.00  0.00     0.074 A 
ATOM     36  C   UNL A   1      46.204  24.998  29.167  1.00  0.00     0.031 C 
ATOM     37  C   UNL A   1      46.620  27.231  30.164  1.00  0.00     0.037 A 
BRANCH  24  38
ATOM     38  C   UNL A   1      43.983  32.701  31.340  1.00  0.00     0.058 A 
ATOM     39  C   UNL A   1      44.336  33.774  30.506  1.00  0.00     0.135 A 
ATOM     40  C   UNL A   1      43.763  32.973  32.700  1.00  0.00     0.135 A 
ATOM     41  F   UNL A   1      44.573  33.567  29.201  1.00  0.00    -0.206 F 
ATOM     42  C   UNL A   1      44.511  35.059  31.008  1.00  0.00     0.059 A 
ATOM     43  C   UNL A   1      43.903  34.257  33.219  1.00  0.00     0.059 A 
ATOM     44  F   UNL A   1      43.422  31.984  33.541  1.00  0.00    -0.206 F 
ATOM     45  C   UNL A   1      44.298  35.289  32.367  1.00  0.00     0.060 A 
BRANCH  45  46
ATOM     46  S   UNL A   1      44.555  36.958  33.005  1.00  0.00     0.124 S 
ATOM     47  O   UNL A   1      43.205  37.317  33.429  1.00  0.00    -0.237 OA
ATOM     48  O   UNL A   1      45.518  36.736  34.079  1.00  0.00    -0.237 OA
ATOM     49  O   UNL A   1      45.065  37.691  31.850  1.00  0.00    -0.744 OA
ENDBRANCH  45  46
ENDBRANCH  24  38
BRANCH  25  50
ATOM     50  C   UNL A   1      42.557  23.542  27.582  1.00  0.00     0.058 A 
ATOM     51  C   UNL A   1      42.634  23.291  26.204  1.00  0.00     0.135 A 
ATOM     52  C   UNL A   1      42.327  22.450  28.433  1.00  0.00     0.135 A 
ATOM     53  F   UNL A   1      42.842  24.304  25.349  1.00  0.00    -0.206 F 
ATOM     54  C   UNL A   1      42.499  22.006  25.688  1.00  0.00     0.059 A 
ATOM     55  C   UNL A   1      42.208  21.151  27.943  1.00  0.00     0.059 A 
ATOM     56  F   UNL A   1      42.256  22.636  29.761  1.00  0.00    -0.206 F 
ATOM     57  C   UNL A   1      42.298  20.940  26.568  1.00  0.00     0.060 A 
BRANCH  57  58
ATOM     58  S   UNL A   1      42.216  19.267  25.890  1.00  0.00     0.124 S 
ATOM     59  O   UNL A   1      43.081  19.380  24.721  1.00  0.00    -0.237 OA
ATOM     60  O   UNL A   1      42.736  18.467  26.995  1.00  0.00    -0.237 OA
ATOM     61  O   UNL A   1      40.795  19.088  25.610  1.00  0.00    -0.744 OA
ENDBRANCH  57  58
ENDBRANCH  25  50
BRANCH  37  62
ATOM     62  C   UNL A   1      48.051  26.836  30.396  1.00  0.00     0.058 A 
ATOM     63  C   UNL A   1      49.063  27.234  29.511  1.00  0.00     0.135 A 
ATOM     64  C   UNL A   1      48.429  26.171  31.574  1.00  0.00     0.135 A 
ATOM     65  F   UNL A   1      48.751  27.864  28.367  1.00  0.00    -0.206 F 
ATOM     66  C   UNL A   1      50.404  26.998  29.790  1.00  0.00     0.059 A 
ATOM     67  C   UNL A   1      49.766  25.946  31.885  1.00  0.00     0.059 A 
ATOM     68  F   UNL A   1      47.498  25.778  32.457  1.00  0.00    -0.206 F 
ATOM     69  C   UNL A   1      50.747  26.367  30.987  1.00  0.00     0.060 A 
BRANCH  69  70
ATOM     70  S   UNL A   1      52.497  26.156  31.377  1.00  0.00     0.124 S 
ATOM     71  O   UNL A   1      52.744  27.294  32.256  1.00  0.00    -0.237 OA
ATOM     72  O   UNL A   1      52.515  24.844  32.018  1.00  0.00    -0.237 OA
ATOM     73  O   UNL A   1      53.148  26.217  30.072  1.00  0.00    -0.744 OA
ENDBRANCH  69  70
ENDBRANCH  37  62
ENDBRANCH  11  12
ENDBRANCH   4   6
ENDBRANCH   1   2
BRANCH   1  74
ATOM     74  C   UNL A   1      32.986  28.415  25.834  1.00  0.00     0.023 C 
BRANCH  74  75
ATOM     75  C   UNL A   1      33.938  28.590  24.653  1.00  0.00     0.023 C 
BRANCH  75  76
ATOM     76  C   UNL A   1      33.279  28.985  23.337  1.00  0.00     0.116 C 
BRANCH  76  77
ATOM     77  N   UNL A   1      33.490  28.014  22.275  1.00  0.00    -0.352 N 
ATOM     78  C   UNL A   1      32.943  26.768  22.123  1.00  0.00     0.255 C 
ATOM     79  H   UNL A   1      34.114  28.292  21.566  1.00  0.00     0.163 HD
ATOM     80  O   UNL A   1      33.220  26.088  21.137  1.00  0.00    -0.269 OA
BRANCH  78  81
ATOM     81  C   UNL A   1      31.993  26.293  23.152  1.00  0.00     0.083 A 
ATOM     82  C   UNL A   1      30.738  26.773  23.122  1.00  0.00     0.019 A 
ATOM     83  C   UNL A   1      32.379  25.284  24.189  1.00  0.00     0.153 A 
ATOM     84  C   UNL A   1      29.803  26.441  24.159  1.00  0.00     0.019 A 
ATOM     85  N   UNL A   1      31.421  25.009  25.174  1.00  0.00    -0.267 N 
ATOM     86  N   UNL A   1      33.548  24.722  24.161  1.00  0.00    -0.229 NA
ATOM     87  C   UNL A   1      30.167  25.610  25.141  1.00  0.00     0.096 A 
ATOM     88  C   UNL A   1      31.703  24.127  26.221  1.00  0.00     0.265 A 
ATOM     89  C   UNL A   1      33.863  23.755  25.117  1.00  0.00     0.080 A 
ATOM     90  O   UNL A   1      30.946  23.889  27.163  1.00  0.00    -0.268 OA
ATOM     91  C   UNL A   1      33.000  23.433  26.161  1.00  0.00     0.066 A 
ATOM     92  C   UNL A   1      35.079  23.072  25.010  1.00  0.00     0.049 A 
ATOM     93  C   UNL A   1      33.338  22.455  27.105  1.00  0.00     0.017 A 
ATOM     94  C   UNL A   1      35.416  22.088  25.939  1.00  0.00     0.043 A 
ATOM     95  C   UNL A   1      34.553  21.779  26.991  1.00  0.00     0.021 A 
ATOM     96  Cl  UNL A   1      36.904  21.237  25.788  1.00  0.00    -0.084 Cl
ENDBRANCH  78  81
ENDBRANCH  76  77
ENDBRANCH  75  76
ENDBRANCH  74  75
ENDBRANCH   1  74
TORSDOF 14
ENDMDL
MODEL 2
REMARK VINA RESULT:     -12.1      0.599      8.276
REMARK SMILES O=C(NCCCCNC(=O)c1cccn2c(=O)c3ccc(Cl)cc3nc12)c1ccc(-c2c3nc(c(-c4c(F)cc(S(=O)(=O)[O-])cc4F)c4ccc([nH]4)c(-c4c(F)cc(S(=O)(=O)[O-])cc4F)c4nc(c(-c5c(F)cc(S(=O)(=O)[O-])cc5F)c5ccc2[nH]5)C=C4)C=C3)cc1
REMARK SMILES IDX 4 1 3 2 1 3 2 4 27 6 28 7 92 8 29 9 91 10 30 11 31 12 32 13
REMARK SMILES IDX 85 14 33 15 90 16 84 17 86 18 34 19 89 20 83 21 82 22 35 24
REMARK SMILES IDX 69 25 48 26 68 27 49 28 52 29 67 30 87 31 50 32 51 33 66 35
REMARK SMILES IDX 88 36 53 37 36 38 37 39 46 40 38 41 39 42 45 43 47 44 40 45
REMARK SMILES IDX 41 46 42 47 43 48 44 49 70 50 71 51 80 52 72 53 73 54 79 55
REMARK SMILES IDX 81 56 74 57 75 58 76 59 77 60 78 61 54 62 55 63 64 64 56 65
REMARK SMILES IDX 57 66 63 67 65 68 58 69 59 70 60 71 61 72 62 73 5 74 6 75
REMARK SMILES IDX 7 76 8 77 9 78 10 80 11 81 12 82 26 83 13 84 15 85 25 86
REMARK SMILES IDX 14 87 16 88 24 89 17 90 18 91 23 92 19 93 21 94 20 95 22 96
REMARK H PARENT 3 5 86 23 52 34 8 79
REMARK Flexibility Score: inf
ROOT
ATOM      1  C   UNL A   1      33.831  28.268  26.853  1.00  0.00     0.116 C 
ENDROOT
BRANCH   1   2
ATOM      2  N   UNL A   1      33.627  29.610  27.372  1.00  0.00    -0.352 N 
ATOM      3  O   UNL A   1      34.031  31.467  28.564  1.00  0.00    -0.269 OA
ATOM      4  C   UNL A   1      34.471  30.420  28.089  1.00  0.00     0.251 C 
ATOM      5  H   UNL A   1      32.744  30.000  27.179  1.00  0.00     0.163 HD
BRANCH   4   6
ATOM      6  C   UNL A   1      35.888  30.048  28.307  1.00  0.00     0.039 A 
ATOM      7  C   UNL A   1      36.289  29.648  29.586  1.00  0.00     0.014 A 
ATOM      8  C   UNL A   1      36.836  30.143  27.285  1.00  0.00     0.014 A 
ATOM      9  C   UNL A   1      37.628  29.330  29.830  1.00  0.00     0.010 A 
ATOM     10  C   UNL A   1      38.146  29.724  27.502  1.00  0.00     0.010 A 
ATOM     11  C   UNL A   1      38.568  29.362  28.788  1.00  0.00    -0.014 A 
BRANCH  11  12
ATOM     12  C   UNL A   1      40.013  29.135  29.054  1.00  0.00     0.031 A 
ATOM     13  C   UNL A   1      40.631  27.806  28.699  1.00  0.00     0.074 A 
ATOM     14  C   UNL A   1      40.766  30.103  29.610  1.00  0.00     0.049 A 
ATOM     15  N   UNL A   1      41.866  27.402  28.848  1.00  0.00    -0.248 NA
ATOM     16  C   UNL A   1      39.736  26.785  28.127  1.00  0.00     0.031 C 
ATOM     17  C   UNL A   1      40.278  31.416  30.033  1.00  0.00     0.029 A 
ATOM     18  N   UNL A   1      42.106  30.134  29.907  1.00  0.00    -0.354 N 
ATOM     19  C   UNL A   1      41.888  26.085  28.403  1.00  0.00     0.074 A 
ATOM     20  C   UNL A   1      40.532  25.731  28.054  1.00  0.00     0.031 C 
ATOM     21  C   UNL A   1      41.312  32.142  30.490  1.00  0.00     0.029 A 
ATOM     22  C   UNL A   1      42.530  31.336  30.423  1.00  0.00     0.049 A 
ATOM     23  H   UNL A   1      42.707  29.368  29.762  1.00  0.00     0.167 HD
ATOM     24  C   UNL A   1      42.947  25.256  28.254  1.00  0.00     0.037 A 
ATOM     25  C   UNL A   1      43.761  31.744  30.792  1.00  0.00     0.037 A 
ATOM     26  C   UNL A   1      44.302  25.628  28.553  1.00  0.00     0.049 A 
ATOM     27  C   UNL A   1      44.925  30.802  30.638  1.00  0.00     0.074 A 
ATOM     28  C   UNL A   1      45.457  24.889  28.369  1.00  0.00     0.029 A 
ATOM     29  N   UNL A   1      44.683  26.845  29.101  1.00  0.00    -0.354 N 
ATOM     30  N   UNL A   1      44.939  29.585  30.148  1.00  0.00    -0.248 NA
ATOM     31  C   UNL A   1      46.238  31.285  31.089  1.00  0.00     0.031 C 
ATOM     32  C   UNL A   1      46.533  25.643  28.846  1.00  0.00     0.029 A 
ATOM     33  C   UNL A   1      46.054  26.866  29.291  1.00  0.00     0.049 A 
ATOM     34  H   UNL A   1      44.070  27.582  29.319  1.00  0.00     0.167 HD
ATOM     35  C   UNL A   1      46.260  29.158  30.224  1.00  0.00     0.074 A 
ATOM     36  C   UNL A   1      47.020  30.254  30.791  1.00  0.00     0.031 C 
ATOM     37  C   UNL A   1      46.792  27.966  29.862  1.00  0.00     0.037 A 
BRANCH  24  38
ATOM     38  C   UNL A   1      42.676  23.875  27.721  1.00  0.00     0.058 A 
ATOM     39  C   UNL A   1      42.516  22.776  28.581  1.00  0.00     0.135 A 
ATOM     40  C   UNL A   1      42.573  23.648  26.340  1.00  0.00     0.135 A 
ATOM     41  F   UNL A   1      42.621  22.935  29.909  1.00  0.00    -0.206 F 
ATOM     42  C   UNL A   1      42.309  21.492  28.088  1.00  0.00     0.059 A 
ATOM     43  C   UNL A   1      42.336  22.375  25.826  1.00  0.00     0.059 A 
ATOM     44  F   UNL A   1      42.716  24.663  25.474  1.00  0.00    -0.206 F 
ATOM     45  C   UNL A   1      42.226  21.301  26.709  1.00  0.00     0.060 A 
BRANCH  45  46
ATOM     46  S   UNL A   1      41.983  19.624  26.088  1.00  0.00     0.124 S 
ATOM     47  O   UNL A   1      42.873  19.611  24.931  1.00  0.00    -0.237 OA
ATOM     48  O   UNL A   1      42.407  18.808  27.222  1.00  0.00    -0.237 OA
ATOM     49  O   UNL A   1      40.557  19.575  25.783  1.00  0.00    -0.744 OA
ENDBRANCH  45  46
ENDBRANCH  24  38
BRANCH  25  50
ATOM     50  C   UNL A   1      43.951  33.128  31.299  1.00  0.00     0.058 A 
ATOM     51  C   UNL A   1      44.134  34.198  30.411  1.00  0.00     0.135 A 
ATOM     52  C   UNL A   1      43.894  33.421  32.670  1.00  0.00     0.135 A 
ATOM     53  F   UNL A   1      44.205  33.968  29.090  1.00  0.00    -0.206 F 
ATOM     54  C   UNL A   1      44.245  35.510  30.861  1.00  0.00     0.059 A 
ATOM     55  C   UNL A   1      43.982  34.727  33.145  1.00  0.00     0.059 A 
ATOM     56  F   UNL A   1      43.710  32.433  33.561  1.00  0.00    -0.206 F 
ATOM     57  C   UNL A   1      44.155  35.765  32.231  1.00  0.00     0.060 A 
BRANCH  57  58
ATOM     58  S   UNL A   1      44.210  37.482  32.792  1.00  0.00     0.124 S 
ATOM     59  O   UNL A   1      44.046  38.207  31.538  1.00  0.00    -0.237 OA
ATOM     60  O   UNL A   1      43.079  37.535  33.714  1.00  0.00    -0.237 OA
ATOM     61  O   UNL A   1      45.524  37.589  33.417  1.00  0.00    -0.744 OA
ENDBRANCH  57  58
ENDBRANCH  25  50
BRANCH  37  62
ATOM     62  C   UNL A   1      48.264  27.756  30.079  1.00  0.00     0.058 A 
ATOM     63  C   UNL A   1      48.742  27.143  31.246  1.00  0.00     0.135 A 
ATOM     64  C   UNL A   1      49.187  28.046  29.061  1.00  0.00     0.135 A 
ATOM     65  F   UNL A   1      47.901  26.854  32.251  1.00  0.00    -0.206 F 
ATOM     66  C   UNL A   1      50.085  26.814  31.393  1.00  0.00     0.059 A 
ATOM     67  C   UNL A   1      50.530  27.705  29.177  1.00  0.00     0.059 A 
ATOM     68  F   UNL A   1      48.776  28.625  27.921  1.00  0.00    -0.206 F 
ATOM     69  C   UNL A   1      50.969  27.084  30.347  1.00  0.00     0.060 A 
BRANCH  69  70
ATOM     70  S   UNL A   1      52.689  26.563  30.518  1.00  0.00     0.124 S 
ATOM     71  O   UNL A   1      53.307  27.761  31.075  1.00  0.00    -0.237 OA
ATOM     72  O   UNL A   1      52.579  25.425  31.426  1.00  0.00    -0.237 OA
ATOM     73  O   UNL A   1      53.083  26.231  29.152  1.00  0.00    -0.744 OA
ENDBRANCH  69  70
ENDBRANCH  37  62
ENDBRANCH  11  12
ENDBRANCH   4   6
ENDBRANCH   1   2
BRANCH   1  74
ATOM     74  C   UNL A   1      33.051  28.003  25.572  1.00  0.00     0.023 C 
BRANCH  74  75
ATOM     75  C   UNL A   1      33.837  28.184  24.275  1.00  0.00     0.023 C 
BRANCH  75  76
ATOM     76  C   UNL A   1      33.009  28.588  23.061  1.00  0.00     0.116 C 
BRANCH  76  77
ATOM     77  N   UNL A   1      32.984  27.572  22.020  1.00  0.00    -0.352 N 
ATOM     78  C   UNL A   1      32.339  26.364  22.007  1.00  0.00     0.255 C 
ATOM     79  H   UNL A   1      33.503  27.783  21.211  1.00  0.00     0.163 HD
ATOM     80  O   UNL A   1      32.409  25.636  21.020  1.00  0.00    -0.269 OA
BRANCH  78  81
ATOM     81  C   UNL A   1      31.536  25.990  23.192  1.00  0.00     0.083 A 
ATOM     82  C   UNL A   1      30.312  26.529  23.321  1.00  0.00     0.019 A 
ATOM     83  C   UNL A   1      32.032  25.017  24.216  1.00  0.00     0.153 A 
ATOM     84  C   UNL A   1      29.530  26.297  24.502  1.00  0.00     0.019 A 
ATOM     85  N   UNL A   1      31.223  24.840  25.346  1.00  0.00    -0.267 N 
ATOM     86  N   UNL A   1      33.159  24.397  24.048  1.00  0.00    -0.229 NA
ATOM     87  C   UNL A   1      30.004  25.500  25.466  1.00  0.00     0.096 A 
ATOM     88  C   UNL A   1      31.622  24.000  26.390  1.00  0.00     0.265 A 
ATOM     89  C   UNL A   1      33.574  23.465  25.001  1.00  0.00     0.080 A 
ATOM     90  O   UNL A   1      31.007  23.848  27.445  1.00  0.00    -0.268 OA
ATOM     91  C   UNL A   1      32.866  23.240  26.178  1.00  0.00     0.066 A 
ATOM     92  C   UNL A   1      34.731  22.718  24.754  1.00  0.00     0.049 A 
ATOM     93  C   UNL A   1      33.302  22.295  27.116  1.00  0.00     0.017 A 
ATOM     94  C   UNL A   1      35.163  21.767  25.678  1.00  0.00     0.043 A 
ATOM     95  C   UNL A   1      34.457  21.555  26.862  1.00  0.00     0.021 A 
ATOM     96  Cl  UNL A   1      36.575  20.838  25.357  1.00  0.00    -0.084 Cl
ENDBRANCH  78  81
ENDBRANCH  76  77
ENDBRANCH  75  76
ENDBRANCH  74  75
ENDBRANCH   1  74
TORSDOF 14
ENDMDL
MODEL 3
REMARK VINA RESULT:     -12.0      4.961     10.459
REMARK SMILES O=C(NCCCCNC(=O)c1cccn2c(=O)c3ccc(Cl)cc3nc12)c1ccc(-c2c3nc(c(-c4c(F)cc(S(=O)(=O)[O-])cc4F)c4ccc([nH]4)c(-c4c(F)cc(S(=O)(=O)[O-])cc4F)c4nc(c(-c5c(F)cc(S(=O)(=O)[O-])cc5F)c5ccc2[nH]5)C=C4)C=C3)cc1
REMARK SMILES IDX 4 1 3 2 1 3 2 4 27 6 28 7 92 8 29 9 91 10 30 11 31 12 32 13
REMARK SMILES IDX 85 14 33 15 90 16 84 17 86 18 34 19 89 20 83 21 82 22 35 24
REMARK SMILES IDX 69 25 48 26 68 27 49 28 52 29 67 30 87 31 50 32 51 33 66 35
REMARK SMILES IDX 88 36 53 37 36 38 37 39 46 40 38 41 39 42 45 43 47 44 40 45
REMARK SMILES IDX 41 46 42 47 43 48 44 49 70 50 71 51 80 52 72 53 73 54 79 55
REMARK SMILES IDX 81 56 74 57 75 58 76 59 77 60 78 61 54 62 55 63 64 64 56 65
REMARK SMILES IDX 57 66 63 67 65 68 58 69 59 70 60 71 61 72 62 73 5 74 6 75
REMARK SMILES IDX 7 76 8 77 9 78 10 80 11 81 12 82 26 83 13 84 15 85 25 86
REMARK SMILES IDX 14 87 16 88 24 89 17 90 18 91 23 92 19 93 21 94 20 95 22 96
REMARK H PARENT 3 5 86 23 52 34 8 79
REMARK Flexibility Score: inf
ROOT
ATOM      1  C   UNL A   1      41.702  23.051  27.304  1.00  0.00     0.116 C 
ENDROOT
BRANCH   1   2
ATOM      2  N   UNL A   1      41.855  23.946  26.169  1.00  0.00    -0.352 N 
ATOM      3  O   UNL A   1      41.730  25.844  24.979  1.00  0.00    -0.269 OA
ATOM      4  C   UNL A   1      41.703  25.307  26.087  1.00  0.00     0.251 C 
ATOM      5  H   UNL A   1      42.108  23.506  25.326  1.00  0.00     0.163 HD
BRANCH   4   6
ATOM      6  C   UNL A   1      41.496  26.129  27.302  1.00  0.00     0.039 A 
ATOM      7  C   UNL A   1      40.309  25.973  28.026  1.00  0.00     0.014 A 
ATOM      8  C   UNL A   1      42.427  27.090  27.703  1.00  0.00     0.014 A 
ATOM      9  C   UNL A   1      40.070  26.763  29.153  1.00  0.00     0.010 A 
ATOM     10  C   UNL A   1      42.236  27.801  28.885  1.00  0.00     0.010 A 
ATOM     11  C   UNL A   1      41.034  27.683  29.594  1.00  0.00    -0.014 A 
BRANCH  11  12
ATOM     12  C   UNL A   1      40.749  28.608  30.723  1.00  0.00     0.031 A 
ATOM     13  C   UNL A   1      41.583  28.526  31.976  1.00  0.00     0.074 A 
ATOM     14  C   UNL A   1      39.753  29.511  30.632  1.00  0.00     0.049 A 
ATOM     15  N   UNL A   1      41.501  29.234  33.072  1.00  0.00    -0.248 NA
ATOM     16  C   UNL A   1      42.631  27.489  32.014  1.00  0.00     0.031 C 
ATOM     17  C   UNL A   1      38.852  29.664  29.490  1.00  0.00     0.029 A 
ATOM     18  N   UNL A   1      39.339  30.476  31.515  1.00  0.00    -0.354 N 
ATOM     19  C   UNL A   1      42.471  28.721  33.926  1.00  0.00     0.074 A 
ATOM     20  C   UNL A   1      43.075  27.593  33.256  1.00  0.00     0.031 C 
ATOM     21  C   UNL A   1      38.022  30.695  29.721  1.00  0.00     0.029 A 
ATOM     22  C   UNL A   1      38.310  31.255  31.040  1.00  0.00     0.049 A 
ATOM     23  H   UNL A   1      39.742  30.601  32.405  1.00  0.00     0.167 HD
ATOM     24  C   UNL A   1      42.859  29.173  35.141  1.00  0.00     0.037 A 
ATOM     25  C   UNL A   1      37.678  32.306  31.599  1.00  0.00     0.037 A 
ATOM     26  C   UNL A   1      42.292  30.326  35.784  1.00  0.00     0.049 A 
ATOM     27  C   UNL A   1      38.109  32.783  32.961  1.00  0.00     0.074 A 
ATOM     28  C   UNL A   1      42.662  30.912  36.981  1.00  0.00     0.029 A 
ATOM     29  N   UNL A   1      41.234  31.069  35.280  1.00  0.00    -0.354 N 
ATOM     30  N   UNL A   1      39.076  32.331  33.723  1.00  0.00    -0.248 NA
ATOM     31  C   UNL A   1      37.363  33.909  33.540  1.00  0.00     0.031 C 
ATOM     32  C   UNL A   1      41.798  31.984  37.222  1.00  0.00     0.029 A 
ATOM     33  C   UNL A   1      40.916  32.090  36.158  1.00  0.00     0.049 A 
ATOM     34  H   UNL A   1      40.779  30.895  34.426  1.00  0.00     0.167 HD
ATOM     35  C   UNL A   1      39.060  33.120  34.868  1.00  0.00     0.074 A 
ATOM     36  C   UNL A   1      37.999  34.091  34.691  1.00  0.00     0.031 C 
ATOM     37  C   UNL A   1      39.850  33.043  35.966  1.00  0.00     0.037 A 
BRANCH  24  38
ATOM     38  C   UNL A   1      43.965  28.427  35.837  1.00  0.00     0.058 A 
ATOM     39  C   UNL A   1      45.315  28.742  35.615  1.00  0.00     0.135 A 
ATOM     40  C   UNL A   1      43.673  27.388  36.736  1.00  0.00     0.135 A 
ATOM     41  F   UNL A   1      45.650  29.714  34.754  1.00  0.00    -0.206 F 
ATOM     42  C   UNL A   1      46.339  28.023  36.224  1.00  0.00     0.059 A 
ATOM     43  C   UNL A   1      44.681  26.676  37.380  1.00  0.00     0.059 A 
ATOM     44  F   UNL A   1      42.399  27.048  36.985  1.00  0.00    -0.206 F 
ATOM     45  C   UNL A   1      46.012  26.988  37.101  1.00  0.00     0.060 A 
BRANCH  45  46
ATOM     46  S   UNL A   1      47.354  26.051  37.861  1.00  0.00     0.124 S 
ATOM     47  O   UNL A   1      47.163  26.366  39.273  1.00  0.00    -0.237 OA
ATOM     48  O   UNL A   1      47.038  24.681  37.469  1.00  0.00    -0.237 OA
ATOM     49  O   UNL A   1      48.553  26.615  37.249  1.00  0.00    -0.744 OA
ENDBRANCH  45  46
ENDBRANCH  24  38
BRANCH  25  50
ATOM     50  C   UNL A   1      36.602  32.999  30.845  1.00  0.00     0.058 A 
ATOM     51  C   UNL A   1      35.260  32.871  31.231  1.00  0.00     0.135 A 
ATOM     52  C   UNL A   1      36.893  33.849  29.767  1.00  0.00     0.135 A 
ATOM     53  F   UNL A   1      34.929  32.063  32.250  1.00  0.00    -0.206 F 
ATOM     54  C   UNL A   1      34.244  33.567  30.582  1.00  0.00     0.059 A 
ATOM     55  C   UNL A   1      35.897  34.571  29.113  1.00  0.00     0.059 A 
ATOM     56  F   UNL A   1      38.163  34.014  29.365  1.00  0.00    -0.206 F 
ATOM     57  C   UNL A   1      34.575  34.424  29.531  1.00  0.00     0.060 A 
BRANCH  57  58
ATOM     58  S   UNL A   1      33.257  35.388  28.758  1.00  0.00     0.124 S 
ATOM     59  O   UNL A   1      34.018  36.373  27.999  1.00  0.00    -0.237 OA
ATOM     60  O   UNL A   1      32.560  34.375  27.973  1.00  0.00    -0.237 OA
ATOM     61  O   UNL A   1      32.510  35.910  29.899  1.00  0.00    -0.744 OA
ENDBRANCH  57  58
ENDBRANCH  25  50
BRANCH  37  62
ATOM     62  C   UNL A   1      39.599  34.015  37.084  1.00  0.00     0.058 A 
ATOM     63  C   UNL A   1      38.783  33.671  38.171  1.00  0.00     0.135 A 
ATOM     64  C   UNL A   1      40.283  35.241  37.136  1.00  0.00     0.135 A 
ATOM     65  F   UNL A   1      38.102  32.514  38.165  1.00  0.00    -0.206 F 
ATOM     66  C   UNL A   1      38.659  34.504  39.277  1.00  0.00     0.059 A 
ATOM     67  C   UNL A   1      40.193  36.079  38.242  1.00  0.00     0.059 A 
ATOM     68  F   UNL A   1      41.084  35.611  36.123  1.00  0.00    -0.206 F 
ATOM     69  C   UNL A   1      39.380  35.699  39.311  1.00  0.00     0.060 A 
BRANCH  69  70
ATOM     70  S   UNL A   1      39.283  36.721  40.796  1.00  0.00     0.124 S 
ATOM     71  O   UNL A   1      39.048  35.719  41.829  1.00  0.00    -0.237 OA
ATOM     72  O   UNL A   1      40.595  37.360  40.818  1.00  0.00    -0.237 OA
ATOM     73  O   UNL A   1      38.162  37.615  40.522  1.00  0.00    -0.744 OA
ENDBRANCH  69  70
ENDBRANCH  37  62
ENDBRANCH  11  12
ENDBRANCH   4   6
ENDBRANCH   1   2
BRANCH   1  74
ATOM     74  C   UNL A   1      40.273  22.552  27.476  1.00  0.00     0.023 C 
BRANCH  74  75
ATOM     75  C   UNL A   1      39.543  22.195  26.182  1.00  0.00     0.023 C 
BRANCH  75  76
ATOM     76  C   UNL A   1      38.134  22.760  26.052  1.00  0.00     0.116 C 
BRANCH  76  77
ATOM     77  N   UNL A   1      37.694  22.893  24.672  1.00  0.00    -0.352 N 
ATOM     78  C   UNL A   1      36.429  22.797  24.156  1.00  0.00     0.255 C 
ATOM     79  H   UNL A   1      38.405  23.077  24.017  1.00  0.00     0.163 HD
ATOM     80  O   UNL A   1      36.238  22.965  22.953  1.00  0.00    -0.269 OA
BRANCH  78  81
ATOM     81  C   UNL A   1      35.314  22.527  25.089  1.00  0.00     0.083 A 
ATOM     82  C   UNL A   1      35.236  21.305  25.643  1.00  0.00     0.019 A 
ATOM     83  C   UNL A   1      34.305  23.573  25.450  1.00  0.00     0.153 A 
ATOM     84  C   UNL A   1      34.116  20.943  26.464  1.00  0.00     0.019 A 
ATOM     85  N   UNL A   1      33.235  23.153  26.252  1.00  0.00    -0.267 N 
ATOM     86  N   UNL A   1      34.431  24.789  25.019  1.00  0.00    -0.229 NA
ATOM     87  C   UNL A   1      33.162  21.844  26.720  1.00  0.00     0.096 A 
ATOM     88  C   UNL A   1      32.208  24.035  26.597  1.00  0.00     0.265 A 
ATOM     89  C   UNL A   1      33.497  25.752  25.408  1.00  0.00     0.080 A 
ATOM     90  O   UNL A   1      31.200  23.726  27.233  1.00  0.00    -0.268 OA
ATOM     91  C   UNL A   1      32.377  25.434  26.170  1.00  0.00     0.066 A 
ATOM     92  C   UNL A   1      33.705  27.084  25.034  1.00  0.00     0.049 A 
ATOM     93  C   UNL A   1      31.456  26.420  26.551  1.00  0.00     0.017 A 
ATOM     94  C   UNL A   1      32.800  28.071  25.420  1.00  0.00     0.043 A 
ATOM     95  C   UNL A   1      31.672  27.745  26.173  1.00  0.00     0.021 A 
ATOM     96  Cl  UNL A   1      33.075  29.710  24.974  1.00  0.00    -0.084 Cl
ENDBRANCH  78  81
ENDBRANCH  76  77
ENDBRANCH  75  76
ENDBRANCH  74  75
ENDBRANCH   1  74
TORSDOF 14
ENDMDL
